# generated using pymatgen
data_Rb14ZnGe16
_symmetry_space_group_name_H-M   'P 1'
_cell_length_a   7.37332100
_cell_length_b   14.72698800
_cell_length_c   21.31826700
_cell_angle_alpha   90.00000000
_cell_angle_beta   90.00000000
_cell_angle_gamma   90.00000000
_symmetry_Int_Tables_number   1
_chemical_formula_structural   Rb14ZnGe16
_chemical_formula_sum   'Rb28 Zn2 Ge32'
_cell_volume   2314.88260585
_cell_formula_units_Z   2
loop_
 _symmetry_equiv_pos_site_id
 _symmetry_equiv_pos_as_xyz
  1  'x, y, z'
loop_
 _atom_site_type_symbol
 _atom_site_label
 _atom_site_symmetry_multiplicity
 _atom_site_fract_x
 _atom_site_fract_y
 _atom_site_fract_z
 _atom_site_occupancy
  Rb  Rb0  1  0.46260000  0.89012400  0.59041600  1
  Rb  Rb1  1  0.46260000  0.89012400  0.40958400  1
  Rb  Rb2  1  0.53740000  0.39012400  0.90958400  1
  Rb  Rb3  1  0.53740000  0.39012400  0.09041600  1
  Rb  Rb4  1  0.43244500  0.63458700  0.64516600  1
  Rb  Rb5  1  0.43244500  0.63458700  0.35483400  1
  Rb  Rb6  1  0.56755500  0.13458700  0.85483400  1
  Rb  Rb7  1  0.56755500  0.13458700  0.14516600  1
  Rb  Rb8  1  0.69674600  0.13584100  0.65478000  1
  Rb  Rb9  1  0.69674600  0.13584100  0.34522000  1
  Rb  Rb10  1  0.30325400  0.63584100  0.84522000  1
  Rb  Rb11  1  0.30325400  0.63584100  0.15478000  1
  Rb  Rb12  1  0.95538300  0.81508600  0.65782500  1
  Rb  Rb13  1  0.95538300  0.81508600  0.34217500  1
  Rb  Rb14  1  0.04461700  0.31508600  0.84217500  1
  Rb  Rb15  1  0.04461700  0.31508600  0.15782500  1
  Rb  Rb16  1  0.85226300  0.54402000  0.74842700  1
  Rb  Rb17  1  0.85226300  0.54402000  0.25157300  1
  Rb  Rb18  1  0.14773700  0.04402000  0.75157300  1
  Rb  Rb19  1  0.14773700  0.04402000  0.24842700  1
  Rb  Rb20  1  0.98520800  0.86764000  0.88644500  1
  Rb  Rb21  1  0.98520800  0.86764000  0.11355500  1
  Rb  Rb22  1  0.01479200  0.36764000  0.61355500  1
  Rb  Rb23  1  0.01479200  0.36764000  0.38644500  1
  Rb  Rb24  1  0.53623800  0.50429200  0.50000000  1
  Rb  Rb25  1  0.46376200  0.00429200  0.00000000  1
  Rb  Rb26  1  0.41832600  0.21300100  0.50000000  1
  Rb  Rb27  1  0.58167400  0.71300100  0.00000000  1
  Zn  Zn28  1  0.97299400  0.88543500  0.50000000  1
  Zn  Zn29  1  0.02700600  0.38543500  0.00000000  1
  Ge  Ge30  1  0.94627500  0.16867200  0.50000000  1
  Ge  Ge31  1  0.05372500  0.66867200  0.00000000  1
  Ge  Ge32  1  0.75613800  0.02593800  0.50000000  1
  Ge  Ge33  1  0.24386200  0.52593800  0.00000000  1
  Ge  Ge34  1  0.92801000  0.53441300  0.93700500  1
  Ge  Ge35  1  0.92801000  0.53441300  0.06299500  1
  Ge  Ge36  1  0.07199000  0.03441300  0.56299500  1
  Ge  Ge37  1  0.07199000  0.03441300  0.43700500  1
  Ge  Ge38  1  0.78076900  0.72973800  0.50000000  1
  Ge  Ge39  1  0.21923100  0.22973800  0.00000000  1
  Ge  Ge40  1  0.15331800  0.72878800  0.50000000  1
  Ge  Ge41  1  0.84668200  0.22878800  0.00000000  1
  Ge  Ge42  1  0.96623500  0.61023900  0.56177500  1
  Ge  Ge43  1  0.96623500  0.61023900  0.43822500  1
  Ge  Ge44  1  0.03376500  0.11023900  0.93822500  1
  Ge  Ge45  1  0.03376500  0.11023900  0.06177500  1
  Ge  Ge46  1  0.48528300  0.87337500  0.85889900  1
  Ge  Ge47  1  0.48528300  0.87337500  0.14110100  1
  Ge  Ge48  1  0.51471700  0.37337500  0.64110100  1
  Ge  Ge49  1  0.51471700  0.37337500  0.35889900  1
  Ge  Ge50  1  0.64461400  0.93771000  0.75927600  1
  Ge  Ge51  1  0.64461400  0.93771000  0.24072400  1
  Ge  Ge52  1  0.35538600  0.43771000  0.74072400  1
  Ge  Ge53  1  0.35538600  0.43771000  0.25927600  1
  Ge  Ge54  1  0.35840700  0.83305700  0.74892900  1
  Ge  Ge55  1  0.35840700  0.83305700  0.25107100  1
  Ge  Ge56  1  0.64159300  0.33305700  0.75107100  1
  Ge  Ge57  1  0.64159300  0.33305700  0.24892900  1
  Ge  Ge58  1  0.66667700  0.76608800  0.78505700  1
  Ge  Ge59  1  0.66667700  0.76608800  0.21494300  1
  Ge  Ge60  1  0.33332300  0.26608800  0.71494300  1
  Ge  Ge61  1  0.33332300  0.26608800  0.28505700  1
