# generated using pymatgen
data_AgB3O5
_symmetry_space_group_name_H-M   'P 1'
_cell_length_a   3.93623400
_cell_length_b   8.39685400
_cell_length_c   10.39231200
_cell_angle_alpha   90.00000000
_cell_angle_beta   90.00000000
_cell_angle_gamma   90.00000000
_symmetry_Int_Tables_number   1
_chemical_formula_structural   AgB3O5
_chemical_formula_sum   'Ag4 B12 O20'
_cell_volume   343.48651132
_cell_formula_units_Z   4
loop_
 _symmetry_equiv_pos_site_id
 _symmetry_equiv_pos_as_xyz
  1  'x, y, z'
loop_
 _atom_site_type_symbol
 _atom_site_label
 _atom_site_symmetry_multiplicity
 _atom_site_fract_x
 _atom_site_fract_y
 _atom_site_fract_z
 _atom_site_occupancy
  Ag  Ag0  1  0.74174600  0.40802500  0.57954700  1
  Ag  Ag1  1  0.24174600  0.59197500  0.42045300  1
  Ag  Ag2  1  0.24174600  0.90802500  0.92045300  1
  Ag  Ag3  1  0.74174600  0.09197500  0.07954700  1
  B  B4  1  0.09149800  0.24719800  0.33756500  1
  B  B5  1  0.59149800  0.75280200  0.66243500  1
  B  B6  1  0.59149800  0.74719800  0.16243500  1
  B  B7  1  0.09149800  0.25280200  0.83756500  1
  B  B8  1  0.27971100  0.96091200  0.31270000  1
  B  B9  1  0.77971100  0.03908800  0.68730000  1
  B  B10  1  0.77971100  0.46091200  0.18730000  1
  B  B11  1  0.27971100  0.53908800  0.81270000  1
  B  B12  1  0.82214800  0.89903700  0.47105900  1
  B  B13  1  0.32214800  0.10096300  0.52894100  1
  B  B14  1  0.32214800  0.39903700  0.02894100  1
  B  B15  1  0.82214800  0.60096300  0.97105900  1
  O  O16  1  0.18693200  0.24515900  0.46652100  1
  O  O17  1  0.68693200  0.75484100  0.53347900  1
  O  O18  1  0.68693200  0.74515900  0.03347900  1
  O  O19  1  0.18693200  0.25484100  0.96652100  1
  O  O20  1  0.95755200  0.39015000  0.29620600  1
  O  O21  1  0.45755200  0.60985000  0.70379400  1
  O  O22  1  0.45755200  0.89015000  0.20379400  1
  O  O23  1  0.95755200  0.10985000  0.79620600  1
  O  O24  1  0.13180300  0.11279100  0.26484800  1
  O  O25  1  0.63180300  0.88720900  0.73515200  1
  O  O26  1  0.63180300  0.61279100  0.23515200  1
  O  O27  1  0.13180300  0.38720900  0.76484800  1
  O  O28  1  0.02815800  0.85532100  0.36543500  1
  O  O29  1  0.52815800  0.14467900  0.63456500  1
  O  O30  1  0.52815800  0.35532100  0.13456500  1
  O  O31  1  0.02815800  0.64467900  0.86543500  1
  O  O32  1  0.52115100  0.00702600  0.42742200  1
  O  O33  1  0.02115100  0.99297400  0.57257800  1
  O  O34  1  0.02115100  0.50702600  0.07257800  1
  O  O35  1  0.52115100  0.49297400  0.92742200  1
