# generated using pymatgen
data_YB3H15N
_symmetry_space_group_name_H-M   'P 1'
_cell_length_a   5.55774396
_cell_length_b   5.55774396
_cell_length_c   12.42016300
_cell_angle_alpha   90.00000000
_cell_angle_beta   90.00000000
_cell_angle_gamma   91.02737903
_symmetry_Int_Tables_number   1
_chemical_formula_structural   YB3H15N
_chemical_formula_sum   'Y2 B6 H30 N2'
_cell_volume   383.57875452
_cell_formula_units_Z   2
loop_
 _symmetry_equiv_pos_site_id
 _symmetry_equiv_pos_as_xyz
  1  'x, y, z'
loop_
 _atom_site_type_symbol
 _atom_site_label
 _atom_site_symmetry_multiplicity
 _atom_site_fract_x
 _atom_site_fract_y
 _atom_site_fract_z
 _atom_site_occupancy
  Y  Y0  1  0.71851200  0.71851200  0.86670600  1
  Y  Y1  1  0.28148800  0.28148800  0.36670600  1
  B  B2  1  0.79332900  0.79332900  0.06356400  1
  B  B3  1  0.20667100  0.20667100  0.56356400  1
  B  B4  1  0.66437100  0.21465900  0.84550200  1
  B  B5  1  0.21465900  0.66437100  0.84550200  1
  B  B6  1  0.33562900  0.78534100  0.34550200  1
  B  B7  1  0.78534100  0.33562900  0.34550200  1
  H  H8  1  0.37562100  0.16822400  0.13047200  1
  H  H9  1  0.16822400  0.37562100  0.13047200  1
  H  H10  1  0.62437900  0.83177600  0.63047200  1
  H  H11  1  0.83177600  0.62437900  0.63047200  1
  H  H12  1  0.09324700  0.09324700  0.15305200  1
  H  H13  1  0.90675300  0.90675300  0.65305200  1
  H  H14  1  0.91983300  0.91983300  0.00371100  1
  H  H15  1  0.08016700  0.08016700  0.50371100  1
  H  H16  1  0.58096200  0.83157400  0.03926300  1
  H  H17  1  0.83157400  0.58096200  0.03926300  1
  H  H18  1  0.41903800  0.16842600  0.53926300  1
  H  H19  1  0.16842600  0.41903800  0.53926300  1
  H  H20  1  0.83178700  0.83178700  0.15768500  1
  H  H21  1  0.16821300  0.16821300  0.65768500  1
  H  H22  1  0.65012600  0.34493900  0.76608600  1
  H  H23  1  0.34493900  0.65012500  0.76608600  1
  H  H24  1  0.34987500  0.65506100  0.26608600  1
  H  H25  1  0.65506100  0.34987500  0.26608600  1
  H  H26  1  0.49145900  0.07282500  0.84324900  1
  H  H27  1  0.07282500  0.49145900  0.84324900  1
  H  H28  1  0.50854100  0.92717500  0.34324900  1
  H  H29  1  0.92717500  0.50854100  0.34324900  1
  H  H30  1  0.65479000  0.32501700  0.93125700  1
  H  H31  1  0.32501700  0.65479000  0.93125700  1
  H  H32  1  0.34521000  0.67498300  0.43125700  1
  H  H33  1  0.67498300  0.34521000  0.43125700  1
  H  H34  1  0.85852600  0.11297500  0.84177100  1
  H  H35  1  0.11297500  0.85852600  0.84177100  1
  H  H36  1  0.14147400  0.88702500  0.34177100  1
  H  H37  1  0.88702500  0.14147400  0.34177100  1
  N  N38  1  0.22237100  0.22237100  0.16888300  1
  N  N39  1  0.77762900  0.77762900  0.66888300  1
