data_image0
_chemical_formula_structural       Bi4I2Te2
_chemical_formula_sum              "Bi4 I2 Te2"
_cell_length_a       4.42792
_cell_length_b       4.42792
_cell_length_c       18.1599
_cell_angle_alpha    89.9964
_cell_angle_beta     97.0051
_cell_angle_gamma    120.005

_space_group_name_H-M_alt    "P 1"
_space_group_IT_number       1

loop_
  _space_group_symop_operation_xyz
  'x, y, z'

loop_
  _atom_site_type_symbol
  _atom_site_label
  _atom_site_symmetry_multiplicity
  _atom_site_fract_x
  _atom_site_fract_y
  _atom_site_fract_z
  _atom_site_occupancy
  Bi  Bi1       1.0  0.36400  0.68200  0.04660  1.0000
  Bi  Bi2       1.0  0.88300  0.44200  0.32500  1.0000
  Bi  Bi3       1.0  0.11700  0.55800  0.67500  1.0000
  Bi  Bi4       1.0  0.63600  0.31800  0.95300  1.0000
  I   I1        1.0  0.13900  0.06980  0.20900  1.0000
  I   I2        1.0  0.86100  0.93000  0.79100  1.0000
  Te  Te1       1.0  0.61300  0.80700  0.41900  1.0000
  Te  Te2       1.0  0.38700  0.19300  0.58100  1.0000
