# generated using pymatgen
data_RbV2PO11
_symmetry_space_group_name_H-M   'P 1'
_cell_length_a   7.10054100
_cell_length_b   10.80419800
_cell_length_c   12.58690100
_cell_angle_alpha   90.00000000
_cell_angle_beta   90.00000000
_cell_angle_gamma   90.00000000
_symmetry_Int_Tables_number   1
_chemical_formula_structural   RbV2PO11
_chemical_formula_sum   'Rb4 V8 P4 O44'
_cell_volume   965.61230267
_cell_formula_units_Z   4
loop_
 _symmetry_equiv_pos_site_id
 _symmetry_equiv_pos_as_xyz
  1  'x, y, z'
loop_
 _atom_site_type_symbol
 _atom_site_label
 _atom_site_symmetry_multiplicity
 _atom_site_fract_x
 _atom_site_fract_y
 _atom_site_fract_z
 _atom_site_occupancy
  Rb  Rb0  1  0.73240700  0.76318100  0.20716100  1
  Rb  Rb1  1  0.76759300  0.23681900  0.70716100  1
  Rb  Rb2  1  0.23240700  0.73681900  0.79283900  1
  Rb  Rb3  1  0.26759300  0.26318100  0.29283900  1
  V  V4  1  0.78130000  0.49675500  0.41010900  1
  V  V5  1  0.71870000  0.50324500  0.91010900  1
  V  V6  1  0.28130000  0.00324500  0.58989100  1
  V  V7  1  0.21870000  0.99675500  0.08989100  1
  V  V8  1  0.98051300  0.77457900  0.50409900  1
  V  V9  1  0.51948700  0.22542100  0.00409900  1
  V  V10  1  0.48051300  0.72542100  0.49590100  1
  V  V11  1  0.01948700  0.27457900  0.99590100  1
  P  P12  1  0.76019300  0.58091400  0.64641300  1
  P  P13  1  0.73980700  0.41908600  0.14641300  1
  P  P14  1  0.26019300  0.91908600  0.35358700  1
  P  P15  1  0.23980700  0.08091400  0.85358700  1
  O  O16  1  0.07402000  0.84339400  0.36802600  1
  O  O17  1  0.42598000  0.15660600  0.86802600  1
  O  O18  1  0.57402000  0.65660600  0.63197400  1
  O  O19  1  0.92598000  0.34339400  0.13197400  1
  O  O20  1  0.55379800  0.59691100  0.42395500  1
  O  O21  1  0.94620200  0.40308900  0.92395500  1
  O  O22  1  0.05379800  0.90308900  0.57604500  1
  O  O23  1  0.44620200  0.09691100  0.07604500  1
  O  O24  1  0.86474900  0.32519000  0.40650800  1
  O  O25  1  0.63525100  0.67481000  0.90650800  1
  O  O26  1  0.36474900  0.17481000  0.59349200  1
  O  O27  1  0.13525100  0.82519000  0.09349200  1
  O  O28  1  0.74923700  0.80101200  0.48195300  1
  O  O29  1  0.75076300  0.19898800  0.98195300  1
  O  O30  1  0.24923700  0.69898800  0.51804700  1
  O  O31  1  0.25076300  0.30101200  0.01804700  1
  O  O32  1  0.93150900  0.67006700  0.63033500  1
  O  O33  1  0.56849100  0.32993300  0.13033500  1
  O  O34  1  0.43150900  0.82993300  0.36966500  1
  O  O35  1  0.06849100  0.17006700  0.86966500  1
  O  O36  1  0.72867100  0.48017900  0.25587600  1
  O  O37  1  0.77132900  0.51982100  0.75587600  1
  O  O38  1  0.22867100  0.01982100  0.74412400  1
  O  O39  1  0.27132900  0.98017900  0.24412400  1
  O  O40  1  0.74853600  0.07231600  0.28501800  1
  O  O41  1  0.75146400  0.92768400  0.78501800  1
  O  O42  1  0.24853600  0.42768400  0.71498200  1
  O  O43  1  0.25146400  0.57231600  0.21498200  1
  O  O44  1  0.67742700  0.30975800  0.41738800  1
  O  O45  1  0.82257300  0.69024200  0.91738800  1
  O  O46  1  0.17742700  0.19024200  0.58261200  1
  O  O47  1  0.32257300  0.80975800  0.08261200  1
  O  O48  1  0.75693400  0.06227700  0.38246100  1
  O  O49  1  0.74306600  0.93772300  0.88246100  1
  O  O50  1  0.25693400  0.43772300  0.61753900  1
  O  O51  1  0.24306600  0.56227700  0.11753900  1
  O  O52  1  0.77005700  0.47295800  0.56583800  1
  O  O53  1  0.72994300  0.52704200  0.06583800  1
  O  O54  1  0.27005700  0.02704200  0.43416200  1
  O  O55  1  0.22994300  0.97295800  0.93416200  1
  O  O56  1  0.94896800  0.60856500  0.41291200  1
  O  O57  1  0.55103200  0.39143500  0.91291200  1
  O  O58  1  0.44896800  0.89143500  0.58708800  1
  O  O59  1  0.05103200  0.10856500  0.08708800  1
