# generated using pymatgen
data_CrH12N3O8
_symmetry_space_group_name_H-M   'P 1'
_cell_length_a   6.98930793
_cell_length_b   6.98930793
_cell_length_c   8.47370700
_cell_angle_alpha   90.00000000
_cell_angle_beta   90.00000000
_cell_angle_gamma   89.28937845
_symmetry_Int_Tables_number   1
_chemical_formula_structural   CrH12N3O8
_chemical_formula_sum   'Cr2 H24 N6 O16'
_cell_volume   413.91235318
_cell_formula_units_Z   2
loop_
 _symmetry_equiv_pos_site_id
 _symmetry_equiv_pos_as_xyz
  1  'x, y, z'
loop_
 _atom_site_type_symbol
 _atom_site_label
 _atom_site_symmetry_multiplicity
 _atom_site_fract_x
 _atom_site_fract_y
 _atom_site_fract_z
 _atom_site_occupancy
  Cr  Cr0  1  0.74859200  0.25140800  0.82314800  1
  Cr  Cr1  1  0.25140800  0.74859200  0.32314800  1
  H  H2  1  0.63140600  0.78771600  0.50019200  1
  H  H3  1  0.21228400  0.36859400  0.50019200  1
  H  H4  1  0.36859400  0.21228400  0.00019200  1
  H  H5  1  0.78771600  0.63140600  0.00019200  1
  H  H6  1  0.74737400  0.87586800  0.65798700  1
  H  H7  1  0.12413200  0.25262600  0.65798700  1
  H  H8  1  0.25262600  0.12413200  0.15798700  1
  H  H9  1  0.87586800  0.74737400  0.15798700  1
  H  H10  1  0.87270000  0.73925900  0.52830500  1
  H  H11  1  0.26074100  0.12730000  0.52830500  1
  H  H12  1  0.12730000  0.26074100  0.02830500  1
  H  H13  1  0.73925900  0.87270000  0.02830500  1
  H  H14  1  0.70293500  0.63451000  0.64139700  1
  H  H15  1  0.36549000  0.29706500  0.64139700  1
  H  H16  1  0.29706500  0.36549000  0.14139700  1
  H  H17  1  0.63451000  0.70293500  0.14139700  1
  H  H18  1  0.17953200  0.82046800  0.89338900  1
  H  H19  1  0.82046800  0.17953200  0.39338900  1
  H  H20  1  0.23489800  0.59481100  0.84022900  1
  H  H21  1  0.40518900  0.76510200  0.84022900  1
  H  H22  1  0.76510200  0.40518900  0.34022900  1
  H  H23  1  0.59481100  0.23489800  0.34022900  1
  H  H24  1  0.23281200  0.76718800  0.70289100  1
  H  H25  1  0.76718800  0.23281200  0.20289100  1
  N  N26  1  0.73768100  0.76017600  0.58189700  1
  N  N27  1  0.23982400  0.26231900  0.58189700  1
  N  N28  1  0.26231900  0.23982400  0.08189700  1
  N  N29  1  0.76017600  0.73768100  0.08189700  1
  N  N30  1  0.26263300  0.73736700  0.81942700  1
  N  N31  1  0.73736700  0.26263300  0.31942700  1
  O  O32  1  0.55025200  0.44974800  0.86132300  1
  O  O33  1  0.44974800  0.55025200  0.36132300  1
  O  O34  1  0.94813600  0.45107300  0.83640400  1
  O  O35  1  0.54892700  0.05186400  0.83640400  1
  O  O36  1  0.05186400  0.54892700  0.33640400  1
  O  O37  1  0.45107300  0.94813600  0.33640400  1
  O  O38  1  0.94319700  0.05680300  0.76798800  1
  O  O39  1  0.05680300  0.94319700  0.26798800  1
  O  O40  1  0.90861600  0.35454800  0.98443700  1
  O  O41  1  0.64545200  0.09138400  0.98443700  1
  O  O42  1  0.09138400  0.64545200  0.48443700  1
  O  O43  1  0.35454800  0.90861600  0.48443700  1
  O  O44  1  0.85161400  0.14838600  0.63305600  1
  O  O45  1  0.14838600  0.85161400  0.13305600  1
  O  O46  1  0.58664700  0.41335300  0.69538100  1
  O  O47  1  0.41335300  0.58664700  0.19538100  1
