# generated using pymatgen
data_K3Gd(BH4)6
_symmetry_space_group_name_H-M   'P 1'
_cell_length_a   7.43862294
_cell_length_b   8.68908900
_cell_length_c   12.67891143
_cell_angle_alpha   90.00000000
_cell_angle_beta   87.81502769
_cell_angle_gamma   90.00000000
_symmetry_Int_Tables_number   1
_chemical_formula_structural   K3Gd(BH4)6
_chemical_formula_sum   'K6 Gd2 B12 H48'
_cell_volume   818.90380673
_cell_formula_units_Z   2
loop_
 _symmetry_equiv_pos_site_id
 _symmetry_equiv_pos_as_xyz
  1  'x, y, z'
loop_
 _atom_site_type_symbol
 _atom_site_label
 _atom_site_symmetry_multiplicity
 _atom_site_fract_x
 _atom_site_fract_y
 _atom_site_fract_z
 _atom_site_occupancy
  K  K0  1  0.53137800  0.02764300  0.75204400  1
  K  K1  1  0.03137800  0.47235700  0.25204400  1
  K  K2  1  0.46862200  0.97235700  0.24795600  1
  K  K3  1  0.96862200  0.52764300  0.74795600  1
  K  K4  1  0.00000000  0.00000000  0.50000000  1
  K  K5  1  0.50000000  0.50000000  0.00000000  1
  Gd  Gd6  1  0.50000000  0.50000000  0.50000000  1
  Gd  Gd7  1  0.00000000  0.00000000  0.00000000  1
  B  B8  1  0.33656000  0.77076400  0.42686200  1
  B  B9  1  0.83656000  0.72923600  0.92686200  1
  B  B10  1  0.66344000  0.22923600  0.57313800  1
  B  B11  1  0.16344000  0.27076400  0.07313800  1
  B  B12  1  0.09709900  0.04077300  0.75636700  1
  B  B13  1  0.59709900  0.45922700  0.25636700  1
  B  B14  1  0.90290100  0.95922700  0.24363300  1
  B  B15  1  0.40290100  0.54077300  0.74363300  1
  B  B16  1  0.71627600  0.14909800  0.95778900  1
  B  B17  1  0.21627600  0.35090200  0.45778900  1
  B  B18  1  0.28372400  0.85090200  0.04221100  1
  B  B19  1  0.78372400  0.64909800  0.54221100  1
  H  H20  1  0.23964200  0.74201200  0.35389200  1
  H  H21  1  0.73964200  0.75798800  0.85389200  1
  H  H22  1  0.76035800  0.25798800  0.64610800  1
  H  H23  1  0.26035800  0.24201200  0.14610800  1
  H  H24  1  0.49239700  0.73158100  0.40342200  1
  H  H25  1  0.99239700  0.76841900  0.90342200  1
  H  H26  1  0.50760300  0.26841900  0.59657800  1
  H  H27  1  0.00760300  0.23158100  0.09657800  1
  H  H28  1  0.28054900  0.70339200  0.50756000  1
  H  H29  1  0.78054900  0.79660800  0.00756000  1
  H  H30  1  0.71945100  0.29660800  0.49244000  1
  H  H31  1  0.21945100  0.20339200  0.99244000  1
  H  H32  1  0.34136000  0.90866900  0.44653800  1
  H  H33  1  0.84136000  0.59133100  0.94653800  1
  H  H34  1  0.65864000  0.09133100  0.55346200  1
  H  H35  1  0.15864000  0.40866900  0.05346200  1
  H  H36  1  0.16473700  0.91260700  0.76006600  1
  H  H37  1  0.66473600  0.58739300  0.26006600  1
  H  H38  1  0.83526400  0.08739300  0.23993400  1
  H  H39  1  0.33526300  0.41260700  0.73993400  1
  H  H40  1  0.08784400  0.10164600  0.84507000  1
  H  H41  1  0.58784400  0.39835400  0.34507000  1
  H  H42  1  0.91215600  0.89835400  0.15493000  1
  H  H43  1  0.41215600  0.60164600  0.65493000  1
  H  H44  1  0.94607800  0.03526800  0.72249400  1
  H  H45  1  0.44607800  0.46473200  0.22249400  1
  H  H46  1  0.05392200  0.96473200  0.27750600  1
  H  H47  1  0.55392200  0.53526800  0.77750600  1
  H  H48  1  0.19250900  0.13113200  0.70456400  1
  H  H49  1  0.69250900  0.36886800  0.20456400  1
  H  H50  1  0.80749100  0.86886800  0.29543600  1
  H  H51  1  0.30749100  0.63113200  0.79543600  1
  H  H52  1  0.72430200  0.11844800  0.05285400  1
  H  H53  1  0.22430200  0.38155200  0.55285400  1
  H  H54  1  0.27569800  0.88155200  0.94714600  1
  H  H55  1  0.77569800  0.61844800  0.44714600  1
  H  H56  1  0.57742100  0.21170800  0.93767600  1
  H  H57  1  0.07742100  0.28829200  0.43767600  1
  H  H58  1  0.42257900  0.78829200  0.06232400  1
  H  H59  1  0.92257900  0.71170800  0.56232400  1
  H  H60  1  0.73155700  0.02544500  0.91100300  1
  H  H61  1  0.23155700  0.47455500  0.41100300  1
  H  H62  1  0.26844300  0.97455500  0.08899700  1
  H  H63  1  0.76844300  0.52544500  0.58899700  1
  H  H64  1  0.85210100  0.22418800  0.93215500  1
  H  H65  1  0.35210100  0.27581200  0.43215500  1
  H  H66  1  0.14789900  0.77581200  0.06784500  1
  H  H67  1  0.64789900  0.72418800  0.56784500  1
