# generated using pymatgen
data_Pb3(IO6)2
_symmetry_space_group_name_H-M   'P 1'
_cell_length_a   9.50808964
_cell_length_b   8.81299100
_cell_length_c   12.58651998
_cell_angle_alpha   90.00000000
_cell_angle_beta   98.88887216
_cell_angle_gamma   90.00000000
_symmetry_Int_Tables_number   1
_chemical_formula_structural   Pb3(IO6)2
_chemical_formula_sum   'Pb12 I8 O48'
_cell_volume   1042.01690848
_cell_formula_units_Z   4
loop_
 _symmetry_equiv_pos_site_id
 _symmetry_equiv_pos_as_xyz
  1  'x, y, z'
loop_
 _atom_site_type_symbol
 _atom_site_label
 _atom_site_symmetry_multiplicity
 _atom_site_fract_x
 _atom_site_fract_y
 _atom_site_fract_z
 _atom_site_occupancy
  Pb  Pb0  1  0.14216100  0.36318700  0.64308600  1
  Pb  Pb1  1  0.85783900  0.86318700  0.85691400  1
  Pb  Pb2  1  0.85783900  0.63681300  0.35691400  1
  Pb  Pb3  1  0.14216100  0.13681300  0.14308600  1
  Pb  Pb4  1  0.26755600  0.95821300  0.51737600  1
  Pb  Pb5  1  0.73244400  0.45821300  0.98262400  1
  Pb  Pb6  1  0.73244400  0.04178700  0.48262400  1
  Pb  Pb7  1  0.26755600  0.54178700  0.01737600  1
  Pb  Pb8  1  0.35804900  0.15220800  0.86506600  1
  Pb  Pb9  1  0.64195100  0.65220800  0.63493400  1
  Pb  Pb10  1  0.64195100  0.84779200  0.13493400  1
  Pb  Pb11  1  0.35804900  0.34779100  0.36506600  1
  I  I12  1  0.01610200  0.24593500  0.85839600  1
  I  I13  1  0.98389800  0.74593500  0.64160400  1
  I  I14  1  0.98389800  0.75406500  0.14160400  1
  I  I15  1  0.01610200  0.25406500  0.35839600  1
  I  I16  1  0.49205600  0.26547000  0.65192400  1
  I  I17  1  0.50794400  0.76547000  0.84807600  1
  I  I18  1  0.50794400  0.73453000  0.34807600  1
  I  I19  1  0.49205600  0.23453000  0.15192400  1
  O  O20  1  0.07108200  0.20388500  0.51038900  1
  O  O21  1  0.92891800  0.70388500  0.98961100  1
  O  O22  1  0.92891800  0.79611500  0.48961100  1
  O  O23  1  0.07108200  0.29611500  0.01038900  1
  O  O24  1  0.01610000  0.72154100  0.79462800  1
  O  O25  1  0.98390000  0.22154100  0.70537200  1
  O  O26  1  0.98390000  0.27845900  0.20537200  1
  O  O27  1  0.01610000  0.77845900  0.29462800  1
  O  O28  1  0.14338400  0.07615400  0.88420300  1
  O  O29  1  0.85661600  0.57615400  0.61579700  1
  O  O30  1  0.85661600  0.92384600  0.11579700  1
  O  O31  1  0.14338400  0.42384600  0.38420300  1
  O  O32  1  0.10553800  0.90722900  0.64659200  1
  O  O33  1  0.89446200  0.40722900  0.85340800  1
  O  O34  1  0.89446200  0.09277100  0.35340800  1
  O  O35  1  0.10553800  0.59277100  0.14659200  1
  O  O36  1  0.13015800  0.60749500  0.61948500  1
  O  O37  1  0.86984200  0.10749500  0.88051500  1
  O  O38  1  0.86984200  0.39250600  0.38051500  1
  O  O39  1  0.13015800  0.89250500  0.11948500  1
  O  O40  1  0.18715900  0.36362900  0.83190700  1
  O  O41  1  0.81284100  0.86362900  0.66809300  1
  O  O42  1  0.81284100  0.63637100  0.16809300  1
  O  O43  1  0.18715900  0.13637100  0.33190700  1
  O  O44  1  0.32207200  0.14530800  0.67948700  1
  O  O45  1  0.67792800  0.64530800  0.82051300  1
  O  O46  1  0.67792800  0.85469200  0.32051300  1
  O  O47  1  0.32207200  0.35469200  0.17948700  1
  O  O48  1  0.35635800  0.42800300  0.61603200  1
  O  O49  1  0.64364200  0.92800300  0.88396800  1
  O  O50  1  0.64364200  0.57199700  0.38396800  1
  O  O51  1  0.35635800  0.07199700  0.11603200  1
  O  O52  1  0.43978000  0.20070300  0.50026500  1
  O  O53  1  0.56022000  0.70070300  0.99973500  1
  O  O54  1  0.56022000  0.79929700  0.49973500  1
  O  O55  1  0.43978000  0.29929700  0.00026500  1
  O  O56  1  0.51818000  0.30100800  0.80358900  1
  O  O57  1  0.48182000  0.80100800  0.69641100  1
  O  O58  1  0.48182000  0.69899200  0.19641100  1
  O  O59  1  0.51818000  0.19899200  0.30358900  1
  O  O60  1  0.61672100  0.10922100  0.65933200  1
  O  O61  1  0.38327900  0.60922100  0.84066800  1
  O  O62  1  0.38327900  0.89077900  0.34066800  1
  O  O63  1  0.61672100  0.39077900  0.15933200  1
  O  O64  1  0.62991000  0.40719400  0.62164600  1
  O  O65  1  0.37009000  0.90719400  0.87835400  1
  O  O66  1  0.37009000  0.59280600  0.37835400  1
  O  O67  1  0.62991000  0.09280600  0.12164600  1
