# generated using pymatgen
data_Rb2Mg2(WO4)3
_symmetry_space_group_name_H-M   'P 1'
_cell_length_a   11.05989400
_cell_length_b   11.05989400
_cell_length_c   11.05989400
_cell_angle_alpha   90.00000000
_cell_angle_beta   90.00000000
_cell_angle_gamma   90.00000000
_symmetry_Int_Tables_number   1
_chemical_formula_structural   Rb2Mg2(WO4)3
_chemical_formula_sum   'Rb8 Mg8 W12 O48'
_cell_volume   1352.86011747
_cell_formula_units_Z   4
loop_
 _symmetry_equiv_pos_site_id
 _symmetry_equiv_pos_as_xyz
  1  'x, y, z'
loop_
 _atom_site_type_symbol
 _atom_site_label
 _atom_site_symmetry_multiplicity
 _atom_site_fract_x
 _atom_site_fract_y
 _atom_site_fract_z
 _atom_site_occupancy
  Rb  Rb0  1  0.29576200  0.20423800  0.79576200  1
  Rb  Rb1  1  0.20423800  0.79576200  0.29576200  1
  Rb  Rb2  1  0.70423800  0.70423800  0.70423800  1
  Rb  Rb3  1  0.79576200  0.29576200  0.20423800  1
  Rb  Rb4  1  0.42926500  0.57073500  0.07073500  1
  Rb  Rb5  1  0.92926500  0.92926500  0.92926500  1
  Rb  Rb6  1  0.07073500  0.42926500  0.57073500  1
  Rb  Rb7  1  0.57073500  0.07073500  0.42926500  1
  Mg  Mg8  1  0.36372900  0.86372900  0.63627100  1
  Mg  Mg9  1  0.86372900  0.63627100  0.36372900  1
  Mg  Mg10  1  0.63627100  0.36372900  0.86372900  1
  Mg  Mg11  1  0.13627100  0.13627100  0.13627100  1
  Mg  Mg12  1  0.41264500  0.41264500  0.41264500  1
  Mg  Mg13  1  0.58735500  0.91264500  0.08735500  1
  Mg  Mg14  1  0.91264500  0.08735500  0.58735500  1
  Mg  Mg15  1  0.08735500  0.58735500  0.91264500  1
  W  W16  1  0.44934600  0.22382800  0.12707300  1
  W  W17  1  0.87292700  0.94934600  0.27617200  1
  W  W18  1  0.72382800  0.37292700  0.55065400  1
  W  W19  1  0.94934600  0.27617200  0.87292700  1
  W  W20  1  0.37292700  0.55065400  0.72382800  1
  W  W21  1  0.22382800  0.12707300  0.44934600  1
  W  W22  1  0.55065400  0.72382800  0.37292700  1
  W  W23  1  0.12707300  0.44934600  0.22382800  1
  W  W24  1  0.27617200  0.87292700  0.94934600  1
  W  W25  1  0.05065400  0.77617200  0.62707300  1
  W  W26  1  0.62707300  0.05065400  0.77617200  1
  W  W27  1  0.77617200  0.62707300  0.05065400  1
  O  O28  1  0.50243000  0.07031500  0.14660100  1
  O  O29  1  0.85339900  0.00243000  0.42968500  1
  O  O30  1  0.57031500  0.35339900  0.49757000  1
  O  O31  1  0.00243000  0.42968500  0.85339900  1
  O  O32  1  0.35339900  0.49757000  0.57031500  1
  O  O33  1  0.07031500  0.14660100  0.50243000  1
  O  O34  1  0.49757000  0.57031500  0.35339900  1
  O  O35  1  0.14660100  0.50243000  0.07031500  1
  O  O36  1  0.42968500  0.85339900  0.00243000  1
  O  O37  1  0.99757000  0.92968500  0.64660100  1
  O  O38  1  0.64660100  0.99757000  0.92968500  1
  O  O39  1  0.92968500  0.64660100  0.99757000  1
  O  O40  1  0.29267100  0.22941700  0.07785800  1
  O  O41  1  0.92214200  0.79267100  0.27058300  1
  O  O42  1  0.72941700  0.42214200  0.70732900  1
  O  O43  1  0.79267100  0.27058300  0.92214200  1
  O  O44  1  0.42214200  0.70732900  0.72941700  1
  O  O45  1  0.22941700  0.07785800  0.29267100  1
  O  O46  1  0.70732900  0.72941700  0.42214200  1
  O  O47  1  0.07785800  0.29267100  0.22941700  1
  O  O48  1  0.27058300  0.92214200  0.79267100  1
  O  O49  1  0.20732900  0.77058300  0.57785800  1
  O  O50  1  0.57785800  0.20732900  0.77058300  1
  O  O51  1  0.77058300  0.57785800  0.20732900  1
  O  O52  1  0.53918800  0.30408000  0.01562700  1
  O  O53  1  0.98437300  0.03918800  0.19592000  1
  O  O54  1  0.80408000  0.48437300  0.46081200  1
  O  O55  1  0.03918800  0.19592000  0.98437300  1
  O  O56  1  0.48437300  0.46081200  0.80408000  1
  O  O57  1  0.30408000  0.01562700  0.53918800  1
  O  O58  1  0.46081200  0.80408000  0.48437300  1
  O  O59  1  0.01562700  0.53918800  0.30408000  1
  O  O60  1  0.19592000  0.98437300  0.03918800  1
  O  O61  1  0.96081200  0.69592000  0.51562700  1
  O  O62  1  0.51562700  0.96081200  0.69592000  1
  O  O63  1  0.69592000  0.51562700  0.96081200  1
  O  O64  1  0.47122900  0.30216400  0.26953300  1
  O  O65  1  0.73046700  0.97122900  0.19783600  1
  O  O66  1  0.80216400  0.23046700  0.52877100  1
  O  O67  1  0.97122900  0.19783600  0.73046700  1
  O  O68  1  0.23046700  0.52877100  0.80216400  1
  O  O69  1  0.30216400  0.26953300  0.47122900  1
  O  O70  1  0.52877100  0.80216400  0.23046700  1
  O  O71  1  0.26953300  0.47122900  0.30216400  1
  O  O72  1  0.19783600  0.73046700  0.97122900  1
  O  O73  1  0.02877100  0.69783600  0.76953300  1
  O  O74  1  0.76953300  0.02877100  0.69783600  1
  O  O75  1  0.69783600  0.76953300  0.02877100  1
