# generated using pymatgen
data_YbH12(CN3)3
_symmetry_space_group_name_H-M   'P 1'
_cell_length_a   12.10934916
_cell_length_b   12.10934916
_cell_length_c   12.10934916
_cell_angle_alpha   109.47122063
_cell_angle_beta   109.47122063
_cell_angle_gamma   109.47122063
_symmetry_Int_Tables_number   1
_chemical_formula_structural   YbH12(CN3)3
_chemical_formula_sum   'Yb4 H48 C12 N36'
_cell_volume   1366.91187085
_cell_formula_units_Z   4
loop_
 _symmetry_equiv_pos_site_id
 _symmetry_equiv_pos_as_xyz
  1  'x, y, z'
loop_
 _atom_site_type_symbol
 _atom_site_label
 _atom_site_symmetry_multiplicity
 _atom_site_fract_x
 _atom_site_fract_y
 _atom_site_fract_z
 _atom_site_occupancy
  Yb  Yb0  1  0.50000000  0.00000000  0.00000000  1
  Yb  Yb1  1  0.00000000  0.00000000  0.50000000  1
  Yb  Yb2  1  0.00000000  0.50000000  0.00000000  1
  Yb  Yb3  1  0.50000000  0.50000000  0.50000000  1
  H  H4  1  0.42667000  0.20611900  0.37396800  1
  H  H5  1  0.16785000  0.79388100  0.22055100  1
  H  H6  1  0.83215000  0.05270200  0.62603200  1
  H  H7  1  0.57333000  0.94729800  0.77944900  1
  H  H8  1  0.37396800  0.42667000  0.20611900  1
  H  H9  1  0.22055100  0.16785000  0.79388100  1
  H  H10  1  0.62603200  0.83215000  0.05270200  1
  H  H11  1  0.77944900  0.57333000  0.94729800  1
  H  H12  1  0.20611900  0.37396800  0.42667000  1
  H  H13  1  0.79388100  0.22055100  0.16785000  1
  H  H14  1  0.05270200  0.62603200  0.83215000  1
  H  H15  1  0.94729800  0.77944900  0.57333000  1
  H  H16  1  0.57333000  0.79388100  0.62603200  1
  H  H17  1  0.83215000  0.20611900  0.77944900  1
  H  H18  1  0.16785000  0.94729800  0.37396800  1
  H  H19  1  0.42667000  0.05270200  0.22055100  1
  H  H20  1  0.62603200  0.57333000  0.79388100  1
  H  H21  1  0.77944900  0.83215000  0.20611900  1
  H  H22  1  0.37396800  0.16785000  0.94729800  1
  H  H23  1  0.22055100  0.42667000  0.05270200  1
  H  H24  1  0.79388100  0.62603200  0.57333000  1
  H  H25  1  0.20611900  0.77944900  0.83215000  1
  H  H26  1  0.94729800  0.37396800  0.16785000  1
  H  H27  1  0.05270200  0.22055100  0.42667000  1
  H  H28  1  0.63810000  0.43704100  0.32626100  1
  H  H29  1  0.88922000  0.56295900  0.20105900  1
  H  H30  1  0.11078000  0.31184000  0.67373900  1
  H  H31  1  0.36190000  0.68816000  0.79894100  1
  H  H32  1  0.32626100  0.63810000  0.43704100  1
  H  H33  1  0.20105900  0.88922000  0.56295900  1
  H  H34  1  0.67373900  0.11078000  0.31184000  1
  H  H35  1  0.79894100  0.36190000  0.68816000  1
  H  H36  1  0.43704100  0.32626100  0.63810000  1
  H  H37  1  0.56295900  0.20105900  0.88922000  1
  H  H38  1  0.31184000  0.67373900  0.11078000  1
  H  H39  1  0.68816000  0.79894100  0.36190000  1
  H  H40  1  0.36190000  0.56295900  0.67373900  1
  H  H41  1  0.11078000  0.43704100  0.79894100  1
  H  H42  1  0.88922000  0.68816000  0.32626100  1
  H  H43  1  0.63810000  0.31184000  0.20105900  1
  H  H44  1  0.67373900  0.36190000  0.56295900  1
  H  H45  1  0.79894100  0.11078000  0.43704100  1
  H  H46  1  0.32626100  0.88922000  0.68816000  1
  H  H47  1  0.20105900  0.63810000  0.31184000  1
  H  H48  1  0.56295900  0.67373900  0.36190000  1
  H  H49  1  0.43704100  0.79894100  0.11078000  1
  H  H50  1  0.68816000  0.32626100  0.88922000  1
  H  H51  1  0.31184000  0.20105900  0.63810000  1
  C  C52  1  0.52023000  0.24331300  0.27691700  1
  C  C53  1  0.03360400  0.75668700  0.27691700  1
  C  C54  1  0.96639600  0.24331300  0.72308300  1
  C  C55  1  0.47977000  0.75668700  0.72308300  1
  C  C56  1  0.27691700  0.52023000  0.24331300  1
  C  C57  1  0.27691700  0.03360400  0.75668700  1
  C  C58  1  0.72308300  0.96639600  0.24331300  1
  C  C59  1  0.72308300  0.47977000  0.75668700  1
  C  C60  1  0.24331300  0.27691700  0.52023000  1
  C  C61  1  0.75668700  0.27691700  0.03360500  1
  C  C62  1  0.24331300  0.72308300  0.96639500  1
  C  C63  1  0.75668700  0.72308300  0.47977000  1
  N  N64  1  0.49051900  0.28752600  0.37477100  1
  N  N65  1  0.08724500  0.71247400  0.20299300  1
  N  N66  1  0.91275500  0.11574800  0.62522900  1
  N  N67  1  0.50948100  0.88425200  0.79700700  1
  N  N68  1  0.37477100  0.49051900  0.28752600  1
  N  N69  1  0.20299300  0.08724500  0.71247400  1
  N  N70  1  0.62522900  0.91275500  0.11574800  1
  N  N71  1  0.79700700  0.50948100  0.88425200  1
  N  N72  1  0.28752600  0.37477100  0.49051900  1
  N  N73  1  0.71247400  0.20299300  0.08724500  1
  N  N74  1  0.11574800  0.62522900  0.91275500  1
  N  N75  1  0.88425200  0.79700700  0.50948100  1
  N  N76  1  0.50948100  0.71247400  0.62522900  1
  N  N77  1  0.91275500  0.28752600  0.79700700  1
  N  N78  1  0.08724500  0.88425200  0.37477100  1
  N  N79  1  0.49051900  0.11574800  0.20299300  1
  N  N80  1  0.62522900  0.50948100  0.71247400  1
  N  N81  1  0.79700700  0.91275500  0.28752600  1
  N  N82  1  0.37477100  0.08724500  0.88425200  1
  N  N83  1  0.20299300  0.49051900  0.11574800  1
  N  N84  1  0.71247400  0.62522900  0.50948100  1
  N  N85  1  0.28752600  0.79700700  0.91275500  1
  N  N86  1  0.88425200  0.37477100  0.08724500  1
  N  N87  1  0.11574800  0.20299300  0.49051900  1
  N  N88  1  0.58999200  0.33857900  0.25141300  1
  N  N89  1  0.91283500  0.66142100  0.25141300  1
  N  N90  1  0.08716500  0.33857900  0.74858700  1
  N  N91  1  0.41000800  0.66142100  0.74858700  1
  N  N92  1  0.25141300  0.58999200  0.33857900  1
  N  N93  1  0.25141300  0.91283500  0.66142100  1
  N  N94  1  0.74858700  0.08716500  0.33857900  1
  N  N95  1  0.74858700  0.41000800  0.66142100  1
  N  N96  1  0.33857900  0.25141300  0.58999200  1
  N  N97  1  0.66142100  0.25141300  0.91283500  1
  N  N98  1  0.33857900  0.74858700  0.08716500  1
  N  N99  1  0.66142100  0.74858700  0.41000800  1
