# generated using pymatgen
data_KNbV2O8
_symmetry_space_group_name_H-M   'P 1'
_cell_length_a   5.68247000
_cell_length_b   8.70743100
_cell_length_c   15.20182700
_cell_angle_alpha   90.00000000
_cell_angle_beta   90.00000000
_cell_angle_gamma   90.00000000
_symmetry_Int_Tables_number   1
_chemical_formula_structural   KNbV2O8
_chemical_formula_sum   'K4 Nb4 V8 O32'
_cell_volume   752.18207405
_cell_formula_units_Z   4
loop_
 _symmetry_equiv_pos_site_id
 _symmetry_equiv_pos_as_xyz
  1  'x, y, z'
loop_
 _atom_site_type_symbol
 _atom_site_label
 _atom_site_symmetry_multiplicity
 _atom_site_fract_x
 _atom_site_fract_y
 _atom_site_fract_z
 _atom_site_occupancy
  K  K0  1  0.25000000  0.94927500  0.87433700  1
  K  K1  1  0.25000000  0.55072500  0.37433700  1
  K  K2  1  0.75000000  0.05072500  0.12566300  1
  K  K3  1  0.75000000  0.44927500  0.62566300  1
  Nb  Nb4  1  0.25000000  0.81002300  0.61639000  1
  Nb  Nb5  1  0.25000000  0.68997700  0.11639000  1
  Nb  Nb6  1  0.75000000  0.18997700  0.38361000  1
  Nb  Nb7  1  0.75000000  0.31002300  0.88361000  1
  V  V8  1  0.25000000  0.51262900  0.78726600  1
  V  V9  1  0.25000000  0.98737100  0.28726600  1
  V  V10  1  0.75000000  0.48737100  0.21273400  1
  V  V11  1  0.75000000  0.01262900  0.71273400  1
  V  V12  1  0.25000000  0.20951900  0.52898800  1
  V  V13  1  0.25000000  0.29048100  0.02898800  1
  V  V14  1  0.75000000  0.79048100  0.47101200  1
  V  V15  1  0.75000000  0.70951900  0.97101200  1
  O  O16  1  0.00692500  0.89898600  0.69951500  1
  O  O17  1  0.49307500  0.60101400  0.19951500  1
  O  O18  1  0.50692500  0.10101400  0.30048500  1
  O  O19  1  0.99307500  0.39898600  0.80048500  1
  O  O20  1  0.99307500  0.10101400  0.30048500  1
  O  O21  1  0.50692500  0.39898600  0.80048500  1
  O  O22  1  0.49307500  0.89898600  0.69951500  1
  O  O23  1  0.00692500  0.60101400  0.19951500  1
  O  O24  1  0.99886800  0.73120800  0.53604800  1
  O  O25  1  0.50113200  0.76879200  0.03604800  1
  O  O26  1  0.49886800  0.26879200  0.46395200  1
  O  O27  1  0.00113200  0.23120800  0.96395200  1
  O  O28  1  0.00113200  0.26879200  0.46395200  1
  O  O29  1  0.49886800  0.23120800  0.96395200  1
  O  O30  1  0.50113200  0.73120800  0.53604800  1
  O  O31  1  0.99886800  0.76879200  0.03604800  1
  O  O32  1  0.25000000  0.61641700  0.68447100  1
  O  O33  1  0.25000000  0.88358300  0.18447100  1
  O  O34  1  0.75000000  0.38358300  0.31552900  1
  O  O35  1  0.75000000  0.11641700  0.81552900  1
  O  O36  1  0.25000000  0.01177800  0.55162800  1
  O  O37  1  0.25000000  0.48822200  0.05162800  1
  O  O38  1  0.75000000  0.98822200  0.44837200  1
  O  O39  1  0.75000000  0.51177800  0.94837200  1
  O  O40  1  0.25000000  0.64101500  0.86630000  1
  O  O41  1  0.25000000  0.85898500  0.36630000  1
  O  O42  1  0.75000000  0.35898500  0.13370000  1
  O  O43  1  0.75000000  0.14101500  0.63370000  1
  O  O44  1  0.75000000  0.81159800  0.87999400  1
  O  O45  1  0.75000000  0.68840200  0.37999400  1
  O  O46  1  0.25000000  0.18840200  0.12000600  1
  O  O47  1  0.25000000  0.31159800  0.62000600  1
