# generated using pymatgen
data_K2Nb3H11C5(Cl3O4)2
_symmetry_space_group_name_H-M   'P 1'
_cell_length_a   9.63877200
_cell_length_b   9.75957445
_cell_length_c   12.98370858
_cell_angle_alpha   76.85787304
_cell_angle_beta   79.62576989
_cell_angle_gamma   81.40921081
_symmetry_Int_Tables_number   1
_chemical_formula_structural   K2Nb3H11C5(Cl3O4)2
_chemical_formula_sum   'K4 Nb6 H22 C10 Cl12 O16'
_cell_volume   1162.42875017
_cell_formula_units_Z   2
loop_
 _symmetry_equiv_pos_site_id
 _symmetry_equiv_pos_as_xyz
  1  'x, y, z'
loop_
 _atom_site_type_symbol
 _atom_site_label
 _atom_site_symmetry_multiplicity
 _atom_site_fract_x
 _atom_site_fract_y
 _atom_site_fract_z
 _atom_site_occupancy
  K  K0  1  0.30678900  0.04653300  0.85512300  1
  K  K1  1  0.69321100  0.95346700  0.14487700  1
  K  K2  1  0.73579800  0.95774800  0.76973600  1
  K  K3  1  0.26420200  0.04225200  0.23026400  1
  Nb  Nb4  1  0.85045600  0.39663100  0.61529800  1
  Nb  Nb5  1  0.14954400  0.60336900  0.38470200  1
  Nb  Nb6  1  0.01668900  0.63215500  0.60119100  1
  Nb  Nb7  1  0.98331100  0.36784500  0.39880900  1
  Nb  Nb8  1  0.83835700  0.64279200  0.43803100  1
  Nb  Nb9  1  0.16164300  0.35720800  0.56196900  1
  H  H10  1  0.53327700  0.40288200  0.79015200  1
  H  H11  1  0.46672300  0.59711800  0.20984800  1
  H  H12  1  0.22977500  0.80334300  0.69937700  1
  H  H13  1  0.77022500  0.19665700  0.30062300  1
  H  H14  1  0.52885100  0.86240500  0.48187900  1
  H  H15  1  0.47114900  0.13759500  0.51812100  1
  H  H16  1  0.95312200  0.86793600  0.92543800  1
  H  H17  1  0.04687800  0.13206400  0.07456200  1
  H  H18  1  0.92509300  0.64191700  0.93972000  1
  H  H19  1  0.07490700  0.35808300  0.06028000  1
  H  H20  1  0.94041000  0.66041400  0.07145000  1
  H  H21  1  0.05959000  0.33958600  0.92855000  1
  H  H22  1  0.76949300  0.66021500  0.03603500  1
  H  H23  1  0.23050700  0.33978500  0.96396500  1
  H  H24  1  0.51763400  0.79635800  0.98039800  1
  H  H25  1  0.48236600  0.20364200  0.01960200  1
  H  H26  1  0.48209400  0.70182900  0.79345000  1
  H  H27  1  0.51790600  0.29817100  0.20655000  1
  H  H28  1  0.54704100  0.59109400  0.90827400  1
  H  H29  1  0.45295900  0.40890600  0.09172600  1
  H  H30  1  0.36580100  0.67189400  0.91802600  1
  H  H31  1  0.63419900  0.32810600  0.08197400  1
  C  C32  1  0.58406200  0.29152100  0.80239400  1
  C  C33  1  0.41593800  0.70847900  0.19760600  1
  C  C34  1  0.12312200  0.81600300  0.74804800  1
  C  C35  1  0.87687800  0.18399700  0.25195200  1
  C  C36  1  0.56495500  0.87946900  0.39419700  1
  C  C37  1  0.43504500  0.12053100  0.60580300  1
  C  C38  1  0.87567000  0.69417100  0.00628100  1
  C  C39  1  0.12433000  0.30582900  0.99371900  1
  C  C40  1  0.47618700  0.68688300  0.88038600  1
  C  C41  1  0.52381300  0.31311700  0.11961400  1
  Cl  Cl42  1  0.84266100  0.53257700  0.75638700  1
  Cl  Cl43  1  0.15733900  0.46742300  0.24361300  1
  Cl  Cl44  1  0.83114600  0.82653100  0.54382600  1
  Cl  Cl45  1  0.16885400  0.17346900  0.45617400  1
  Cl  Cl46  1  0.63320000  0.54787400  0.56415300  1
  Cl  Cl47  1  0.36680000  0.45212600  0.43584700  1
  Cl  Cl48  1  0.80391500  0.22220900  0.51626700  1
  Cl  Cl49  1  0.19608500  0.77779100  0.48373300  1
  Cl  Cl50  1  0.01377100  0.20988900  0.71131000  1
  Cl  Cl51  1  0.98622900  0.79011100  0.28869000  1
  Cl  Cl52  1  0.21137100  0.48837500  0.69246800  1
  Cl  Cl53  1  0.78862900  0.51162500  0.30753200  1
  O  O54  1  0.69960100  0.26547700  0.74050200  1
  O  O55  1  0.30039900  0.73452300  0.25949800  1
  O  O56  1  0.52529100  0.19898100  0.87455600  1
  O  O57  1  0.47470900  0.80101900  0.12544400  1
  O  O58  1  0.02016300  0.77480300  0.71663200  1
  O  O59  1  0.97983700  0.22519700  0.28336800  1
  O  O60  1  0.11144700  0.87035300  0.82882000  1
  O  O61  1  0.88855300  0.12964700  0.17118000  1
  O  O62  1  0.67530700  0.79810100  0.36163500  1
  O  O63  1  0.32469300  0.20189900  0.63836500  1
  O  O64  1  0.49987100  0.97373700  0.33252700  1
  O  O65  1  0.50012900  0.02626300  0.66747300  1
  O  O66  1  0.86080500  0.84586500  0.97097100  1
  O  O67  1  0.13919500  0.15413500  0.02902900  1
  O  O68  1  0.51984200  0.81055500  0.90236100  1
  O  O69  1  0.48015800  0.18944500  0.09763900  1
