# generated using pymatgen
data_VH9(NF)3
_symmetry_space_group_name_H-M   'P 1'
_cell_length_a   5.81080722
_cell_length_b   9.54507200
_cell_length_c   10.70349591
_cell_angle_alpha   90.00000000
_cell_angle_beta   89.98123755
_cell_angle_gamma   90.00000000
_symmetry_Int_Tables_number   1
_chemical_formula_structural   VH9(NF)3
_chemical_formula_sum   'V4 H36 N12 F12'
_cell_volume   593.66480156
_cell_formula_units_Z   4
loop_
 _symmetry_equiv_pos_site_id
 _symmetry_equiv_pos_as_xyz
  1  'x, y, z'
loop_
 _atom_site_type_symbol
 _atom_site_label
 _atom_site_symmetry_multiplicity
 _atom_site_fract_x
 _atom_site_fract_y
 _atom_site_fract_z
 _atom_site_occupancy
  V  V0  1  0.73802800  0.26800000  0.75849900  1
  V  V1  1  0.26197200  0.76800000  0.74150100  1
  V  V2  1  0.26197200  0.73200000  0.24150100  1
  V  V3  1  0.73802800  0.23200000  0.25849900  1
  H  H4  1  0.99043000  0.05929900  0.86214400  1
  H  H5  1  0.00957000  0.55929900  0.63785600  1
  H  H6  1  0.00957000  0.94070100  0.13785600  1
  H  H7  1  0.99043000  0.44070100  0.36214400  1
  H  H8  1  0.95955800  0.17476900  0.97405700  1
  H  H9  1  0.04044200  0.67476900  0.52594300  1
  H  H10  1  0.04044200  0.82523100  0.02594300  1
  H  H11  1  0.95955800  0.32523100  0.47405700  1
  H  H12  1  0.15688400  0.19851200  0.86645100  1
  H  H13  1  0.84311600  0.69851200  0.63354900  1
  H  H14  1  0.84311600  0.80148800  0.13354900  1
  H  H15  1  0.15688400  0.30148800  0.36645100  1
  H  H16  1  0.60917700  0.51642200  0.86037000  1
  H  H17  1  0.39082300  0.01642200  0.63963000  1
  H  H18  1  0.39082300  0.48357800  0.13963000  1
  H  H19  1  0.60917700  0.98357800  0.36037000  1
  H  H20  1  0.89593300  0.50839500  0.86190800  1
  H  H21  1  0.10406700  0.00839500  0.63809200  1
  H  H22  1  0.10406700  0.49160500  0.13809200  1
  H  H23  1  0.89593300  0.99160500  0.36190800  1
  H  H24  1  0.74297900  0.42787700  0.97197100  1
  H  H25  1  0.25702100  0.92787700  0.52802900  1
  H  H26  1  0.25702100  0.57212300  0.02802900  1
  H  H27  1  0.74297900  0.07212300  0.47197100  1
  H  H28  1  0.31969900  0.35509100  0.66448600  1
  H  H29  1  0.68030100  0.85509100  0.83551400  1
  H  H30  1  0.68030100  0.64490900  0.33551400  1
  H  H31  1  0.31969900  0.14490900  0.16448600  1
  H  H32  1  0.50752200  0.47917100  0.63618700  1
  H  H33  1  0.49247800  0.97917100  0.86381300  1
  H  H34  1  0.49247800  0.52082900  0.36381300  1
  H  H35  1  0.50752200  0.02082900  0.13618700  1
  H  H36  1  0.50156900  0.33771700  0.54754600  1
  H  H37  1  0.49843100  0.83771700  0.95245400  1
  H  H38  1  0.49843100  0.66228300  0.45245400  1
  H  H39  1  0.50156900  0.16228300  0.04754600  1
  N  N40  1  0.98984100  0.16547500  0.87981800  1
  N  N41  1  0.01015900  0.66547500  0.62018200  1
  N  N42  1  0.01015900  0.83452500  0.12018200  1
  N  N43  1  0.98984100  0.33452500  0.37981800  1
  N  N44  1  0.74816000  0.45257800  0.87821900  1
  N  N45  1  0.25184000  0.95257800  0.62178100  1
  N  N46  1  0.25184000  0.54742200  0.12178100  1
  N  N47  1  0.74816000  0.04742200  0.37821900  1
  N  N48  1  0.48784900  0.37203100  0.63837400  1
  N  N49  1  0.51215100  0.87203100  0.86162600  1
  N  N50  1  0.51215100  0.62796900  0.36162600  1
  N  N51  1  0.48784900  0.12796900  0.13837400  1
  F  F52  1  0.49514300  0.19590100  0.86597600  1
  F  F53  1  0.50485700  0.69590100  0.63402400  1
  F  F54  1  0.50485700  0.80409900  0.13402400  1
  F  F55  1  0.49514300  0.30409900  0.36597600  1
  F  F56  1  0.72761500  0.10630800  0.64787900  1
  F  F57  1  0.27238500  0.60630800  0.85212100  1
  F  F58  1  0.27238500  0.89369200  0.35212100  1
  F  F59  1  0.72761500  0.39369200  0.14787900  1
  F  F60  1  0.98361700  0.35728300  0.66387900  1
  F  F61  1  0.01638300  0.85728300  0.83612100  1
  F  F62  1  0.01638300  0.64271700  0.33612100  1
  F  F63  1  0.98361700  0.14271700  0.16387900  1
