# generated using pymatgen
data_AlZnB5H16C4(N2O5)2
_symmetry_space_group_name_H-M   'P 1'
_cell_length_a   13.63305653
_cell_length_b   14.09485803
_cell_length_c   16.48903065
_cell_angle_alpha   90.00000000
_cell_angle_beta   90.00000000
_cell_angle_gamma   90.00000000
_symmetry_Int_Tables_number   1
_chemical_formula_structural   AlZnB5H16C4(N2O5)2
_chemical_formula_sum   'Al8 Zn8 B40 H128 C32 N32 O80'
_cell_volume   3168.46611266
_cell_formula_units_Z   8
loop_
 _symmetry_equiv_pos_site_id
 _symmetry_equiv_pos_as_xyz
  1  'x, y, z'
loop_
 _atom_site_type_symbol
 _atom_site_label
 _atom_site_symmetry_multiplicity
 _atom_site_fract_x
 _atom_site_fract_y
 _atom_site_fract_z
 _atom_site_occupancy
  Al  Al0  1  0.77640172  0.56680031  0.84309009  1
  Al  Al1  1  0.27640172  0.93319969  0.15690991  1
  Al  Al2  1  0.22359828  0.06680031  0.65690991  1
  Al  Al3  1  0.72359828  0.43319969  0.34309009  1
  Al  Al4  1  0.22359828  0.43319969  0.15690991  1
  Al  Al5  1  0.72359828  0.06680031  0.84309009  1
  Al  Al6  1  0.77640172  0.93319969  0.34309009  1
  Al  Al7  1  0.27640172  0.56680031  0.65690991  1
  Zn  Zn8  1  0.70904300  0.87261249  0.60615578  1
  Zn  Zn9  1  0.20904300  0.62738751  0.39384422  1
  Zn  Zn10  1  0.29095700  0.37261249  0.89384422  1
  Zn  Zn11  1  0.79095700  0.12738751  0.10615578  1
  Zn  Zn12  1  0.29095700  0.12738751  0.39384422  1
  Zn  Zn13  1  0.79095700  0.37261249  0.60615578  1
  Zn  Zn14  1  0.70904300  0.62738751  0.10615578  1
  Zn  Zn15  1  0.20904300  0.87261249  0.89384422  1
  B  B16  1  0.48947366  0.62918170  0.63929826  1
  B  B17  1  0.98947366  0.87081830  0.36070174  1
  B  B18  1  0.51052634  0.12918170  0.86070174  1
  B  B19  1  0.01052634  0.37081830  0.13929826  1
  B  B20  1  0.51052634  0.37081830  0.36070174  1
  B  B21  1  0.01052634  0.12918170  0.63929826  1
  B  B22  1  0.48947366  0.87081830  0.13929826  1
  B  B23  1  0.98947366  0.62918170  0.86070174  1
  B  B24  1  0.65725859  0.61206925  0.69162711  1
  B  B25  1  0.15725859  0.88793075  0.30837289  1
  B  B26  1  0.34274141  0.11206925  0.80837289  1
  B  B27  1  0.84274141  0.38793075  0.19162711  1
  B  B28  1  0.34274141  0.38793075  0.30837289  1
  B  B29  1  0.84274141  0.11206925  0.69162711  1
  B  B30  1  0.65725859  0.88793075  0.19162711  1
  B  B31  1  0.15725859  0.61206925  0.80837289  1
  B  B32  1  0.63076989  0.67388970  0.55068726  1
  B  B33  1  0.13076989  0.82611030  0.44931274  1
  B  B34  1  0.36923011  0.17388970  0.94931274  1
  B  B35  1  0.86923011  0.32611030  0.05068726  1
  B  B36  1  0.36923011  0.32611030  0.44931274  1
  B  B37  1  0.86923011  0.17388970  0.55068726  1
  B  B38  1  0.63076989  0.82611030  0.05068726  1
  B  B39  1  0.13076989  0.67388970  0.94931274  1
  B  B40  1  0.68502251  0.62301942  0.41059427  1
  B  B41  1  0.18502251  0.87698058  0.58940573  1
  B  B42  1  0.31497749  0.12301942  0.08940573  1
  B  B43  1  0.81497749  0.37698058  0.91059427  1
  B  B44  1  0.31497749  0.37698058  0.58940573  1
  B  B45  1  0.81497749  0.12301942  0.41059427  1
  B  B46  1  0.68502251  0.87698058  0.91059427  1
  B  B47  1  0.18502251  0.62301942  0.08940573  1
  B  B48  1  0.68323338  0.79287550  0.44099992  1
  B  B49  1  0.18323338  0.70712450  0.55900008  1
  B  B50  1  0.31676662  0.29287550  0.05900008  1
  B  B51  1  0.81676662  0.20712450  0.94099992  1
  B  B52  1  0.31676662  0.20712450  0.55900008  1
  B  B53  1  0.81676662  0.29287550  0.44099992  1
  B  B54  1  0.68323338  0.70712450  0.94099992  1
  B  B55  1  0.18323338  0.79287550  0.05900008  1
  H  H56  1  0.94730885  0.93131517  0.65385446  1
  H  H57  1  0.44730885  0.56868483  0.34614554  1
  H  H58  1  0.05269115  0.43131517  0.84614554  1
  H  H59  1  0.55269115  0.06868483  0.15385446  1
  H  H60  1  0.05269115  0.06868483  0.34614554  1
  H  H61  1  0.55269115  0.43131517  0.65385446  1
  H  H62  1  0.94730885  0.56868483  0.15385446  1
  H  H63  1  0.44730885  0.93131517  0.84614554  1
  H  H64  1  0.99541510  0.84024960  0.59083359  1
  H  H65  1  0.49541510  0.65975040  0.40916641  1
  H  H66  1  0.00458490  0.34024960  0.90916641  1
  H  H67  1  0.50458490  0.15975040  0.09083359  1
  H  H68  1  0.00458490  0.15975040  0.40916641  1
  H  H69  1  0.50458490  0.34024960  0.59083359  1
  H  H70  1  0.99541510  0.65975040  0.09083359  1
  H  H71  1  0.49541510  0.84024960  0.90916641  1
  H  H72  1  0.87575747  0.72491635  0.64472064  1
  H  H73  1  0.37575747  0.77508365  0.35527936  1
  H  H74  1  0.12424253  0.22491635  0.85527936  1
  H  H75  1  0.62424253  0.27508365  0.14472064  1
  H  H76  1  0.12424253  0.27508365  0.35527936  1
  H  H77  1  0.62424253  0.22491635  0.64472064  1
  H  H78  1  0.87575747  0.77508365  0.14472064  1
  H  H79  1  0.37575747  0.72491635  0.85527936  1
  H  H80  1  0.93856140  0.77847879  0.72669092  1
  H  H81  1  0.43856140  0.72152121  0.27330908  1
  H  H82  1  0.06143860  0.27847879  0.77330908  1
  H  H83  1  0.56143860  0.22152121  0.22669092  1
  H  H84  1  0.06143860  0.22152121  0.27330908  1
  H  H85  1  0.56143860  0.27847879  0.72669092  1
  H  H86  1  0.93856140  0.72152121  0.22669092  1
  H  H87  1  0.43856140  0.77847879  0.77330908  1
  H  H88  1  0.57744044  0.06691557  0.67190653  1
  H  H89  1  0.07744044  0.43308443  0.32809347  1
  H  H90  1  0.42255956  0.56691557  0.82809347  1
  H  H91  1  0.92255956  0.93308443  0.17190653  1
  H  H92  1  0.42255956  0.93308443  0.32809347  1
  H  H93  1  0.92255956  0.56691557  0.67190653  1
  H  H94  1  0.57744044  0.43308443  0.17190653  1
  H  H95  1  0.07744044  0.06691557  0.82809347  1
  H  H96  1  0.51217625  0.07583754  0.57914111  1
  H  H97  1  0.01217625  0.42416246  0.42085889  1
  H  H98  1  0.48782375  0.57583754  0.92085889  1
  H  H99  1  0.98782375  0.92416246  0.07914111  1
  H  H100  1  0.48782375  0.92416246  0.42085889  1
  H  H101  1  0.98782375  0.57583754  0.57914111  1
  H  H102  1  0.51217625  0.42416246  0.07914111  1
  H  H103  1  0.01217625  0.07583754  0.92085889  1
  H  H104  1  0.47732453  0.90348682  0.58090861  1
  H  H105  1  0.97732453  0.59651318  0.41909139  1
  H  H106  1  0.52267547  0.40348682  0.91909139  1
  H  H107  1  0.02267547  0.09651318  0.08090861  1
  H  H108  1  0.52267547  0.09651318  0.41909139  1
  H  H109  1  0.02267547  0.40348682  0.58090861  1
  H  H110  1  0.47732453  0.59651318  0.08090861  1
  H  H111  1  0.97732453  0.90348682  0.91909139  1
  H  H112  1  0.44114479  0.95700905  0.67426806  1
  H  H113  1  0.94114479  0.54299095  0.32573194  1
  H  H114  1  0.55885521  0.45700905  0.82573194  1
  H  H115  1  0.05885521  0.04299095  0.17426806  1
  H  H116  1  0.55885521  0.04299095  0.32573194  1
  H  H117  1  0.05885521  0.45700905  0.67426806  1
  H  H118  1  0.44114479  0.54299095  0.17426806  1
  H  H119  1  0.94114479  0.95700905  0.82573194  1
  H  H120  1  0.75522400  0.76710329  0.73522147  1
  H  H121  1  0.25522400  0.73289671  0.26477853  1
  H  H122  1  0.24477600  0.26710329  0.76477853  1
  H  H123  1  0.74477600  0.23289671  0.23522147  1
  H  H124  1  0.24477600  0.23289671  0.26477853  1
  H  H125  1  0.74477600  0.26710329  0.73522147  1
  H  H126  1  0.75522400  0.73289671  0.23522147  1
  H  H127  1  0.25522400  0.76710329  0.76477853  1
  H  H128  1  0.79428674  0.87499040  0.75022540  1
  H  H129  1  0.29428674  0.62500960  0.24977460  1
  H  H130  1  0.20571326  0.37499040  0.74977460  1
  H  H131  1  0.70571326  0.12500960  0.25022540  1
  H  H132  1  0.20571326  0.12500960  0.24977460  1
  H  H133  1  0.70571326  0.37499040  0.75022540  1
  H  H134  1  0.79428674  0.62500960  0.25022540  1
  H  H135  1  0.29428674  0.87499040  0.74977460  1
  H  H136  1  0.86263220  0.96102204  0.53763377  1
  H  H137  1  0.36263220  0.53897796  0.46236623  1
  H  H138  1  0.13736780  0.46102204  0.96236623  1
  H  H139  1  0.63736780  0.03897796  0.03763377  1
  H  H140  1  0.13736780  0.03897796  0.46236623  1
  H  H141  1  0.63736780  0.46102204  0.53763377  1
  H  H142  1  0.86263220  0.53897796  0.03763377  1
  H  H143  1  0.36263220  0.96102204  0.96236623  1
  H  H144  1  0.86519336  0.85167481  0.50664041  1
  H  H145  1  0.36519336  0.64832519  0.49335959  1
  H  H146  1  0.13480664  0.35167481  0.99335959  1
  H  H147  1  0.63480664  0.14832519  0.00664041  1
  H  H148  1  0.13480664  0.14832519  0.49335959  1
  H  H149  1  0.63480664  0.35167481  0.50664041  1
  H  H150  1  0.86519336  0.64832519  0.00664041  1
  H  H151  1  0.36519336  0.85167481  0.99335959  1
  H  H152  1  0.64593002  0.00128832  0.51200807  1
  H  H153  1  0.14593002  0.49871168  0.48799193  1
  H  H154  1  0.35406998  0.50128832  0.98799193  1
  H  H155  1  0.85406998  0.99871168  0.01200807  1
  H  H156  1  0.35406998  0.99871168  0.48799193  1
  H  H157  1  0.85406998  0.50128832  0.51200807  1
  H  H158  1  0.64593002  0.49871168  0.01200807  1
  H  H159  1  0.14593002  0.00128832  0.98799193  1
  H  H160  1  0.70533869  0.05956868  0.58428757  1
  H  H161  1  0.20533869  0.44043132  0.41571243  1
  H  H162  1  0.29466131  0.55956868  0.91571243  1
  H  H163  1  0.79466131  0.94043132  0.08428757  1
  H  H164  1  0.29466131  0.94043132  0.41571243  1
  H  H165  1  0.79466131  0.55956868  0.58428757  1
  H  H166  1  0.70533869  0.44043132  0.08428757  1
  H  H167  1  0.20533869  0.05956868  0.91571243  1
  H  H168  1  0.58740514  0.89102443  0.73413833  1
  H  H169  1  0.08740514  0.60897557  0.26586167  1
  H  H170  1  0.41259486  0.39102443  0.76586167  1
  H  H171  1  0.91259486  0.10897557  0.23413833  1
  H  H172  1  0.41259486  0.10897557  0.26586167  1
  H  H173  1  0.91259486  0.39102443  0.73413833  1
  H  H174  1  0.58740514  0.60897557  0.23413833  1
  H  H175  1  0.08740514  0.89102443  0.76586167  1
  H  H176  1  0.54420824  0.80417097  0.67581267  1
  H  H177  1  0.04420824  0.69582903  0.32418733  1
  H  H178  1  0.45579176  0.30417097  0.82418733  1
  H  H179  1  0.95579176  0.19582903  0.17581267  1
  H  H180  1  0.45579176  0.19582903  0.32418733  1
  H  H181  1  0.95579176  0.30417097  0.67581267  1
  H  H182  1  0.54420824  0.69582903  0.17581267  1
  H  H183  1  0.04420824  0.80417097  0.82418733  1
  C  C184  1  0.92821894  0.86703118  0.61954894  1
  C  C185  1  0.42821894  0.63296882  0.38045106  1
  C  C186  1  0.07178106  0.36703118  0.88045106  1
  C  C187  1  0.57178106  0.13296882  0.11954894  1
  C  C188  1  0.07178106  0.13296882  0.38045106  1
  C  C189  1  0.57178106  0.36703118  0.61954894  1
  C  C190  1  0.92821894  0.63296882  0.11954894  1
  C  C191  1  0.42821894  0.86703118  0.88045106  1
  C  C192  1  0.88662140  0.79222093  0.67702748  1
  C  C193  1  0.38662140  0.70777907  0.32297252  1
  C  C194  1  0.11337860  0.29222093  0.82297252  1
  C  C195  1  0.61337860  0.20777907  0.17702748  1
  C  C196  1  0.11337860  0.20777907  0.32297252  1
  C  C197  1  0.61337860  0.29222093  0.67702748  1
  C  C198  1  0.88662140  0.70777907  0.17702748  1
  C  C199  1  0.38662140  0.79222093  0.82297252  1
  C  C200  1  0.56029856  0.02939024  0.61522762  1
  C  C201  1  0.06029856  0.47060976  0.38477238  1
  C  C202  1  0.43970144  0.52939024  0.88477238  1
  C  C203  1  0.93970144  0.97060976  0.11522762  1
  C  C204  1  0.43970144  0.97060976  0.38477238  1
  C  C205  1  0.93970144  0.52939024  0.61522762  1
  C  C206  1  0.56029856  0.47060976  0.11522762  1
  C  C207  1  0.06029856  0.02939024  0.88477238  1
  C  C208  1  0.50459550  0.93844240  0.63614951  1
  C  C209  1  0.00459550  0.56155760  0.36385049  1
  C  C210  1  0.49540450  0.43844240  0.86385049  1
  C  C211  1  0.99540450  0.06155760  0.13614951  1
  C  C212  1  0.49540450  0.06155760  0.36385049  1
  C  C213  1  0.99540450  0.43844240  0.63614951  1
  C  C214  1  0.50459550  0.56155760  0.13614951  1
  C  C215  1  0.00459550  0.93844240  0.86385049  1
  N  N216  1  0.78971224  0.82253331  0.70715902  1
  N  N217  1  0.28971224  0.67746669  0.29284098  1
  N  N218  1  0.21028776  0.32253331  0.79284098  1
  N  N219  1  0.71028776  0.17746669  0.20715902  1
  N  N220  1  0.21028776  0.17746669  0.29284098  1
  N  N221  1  0.71028776  0.32253331  0.70715902  1
  N  N222  1  0.78971224  0.67746669  0.20715902  1
  N  N223  1  0.28971224  0.82253331  0.79284098  1
  N  N224  1  0.85446193  0.89221399  0.55738371  1
  N  N225  1  0.35446193  0.60778601  0.44261629  1
  N  N226  1  0.14553807  0.39221399  0.94261629  1
  N  N227  1  0.64553807  0.10778601  0.05738371  1
  N  N228  1  0.14553807  0.10778601  0.44261629  1
  N  N229  1  0.64553807  0.39221399  0.55738371  1
  N  N230  1  0.85446193  0.60778601  0.05738371  1
  N  N231  1  0.35446193  0.89221399  0.94261629  1
  N  N232  1  0.65361406  0.00769566  0.57352626  1
  N  N233  1  0.15361406  0.49230434  0.42647374  1
  N  N234  1  0.34638594  0.50769566  0.92647374  1
  N  N235  1  0.84638594  0.99230434  0.07352626  1
  N  N236  1  0.34638594  0.99230434  0.42647374  1
  N  N237  1  0.84638594  0.50769566  0.57352626  1
  N  N238  1  0.65361406  0.49230434  0.07352626  1
  N  N239  1  0.15361406  0.00769566  0.92647374  1
  N  N240  1  0.57225373  0.87125780  0.67569678  1
  N  N241  1  0.07225373  0.62874220  0.32430322  1
  N  N242  1  0.42774627  0.37125780  0.82430322  1
  N  N243  1  0.92774627  0.12874220  0.17569678  1
  N  N244  1  0.42774627  0.12874220  0.32430322  1
  N  N245  1  0.92774627  0.37125780  0.67569678  1
  N  N246  1  0.57225373  0.62874220  0.17569678  1
  N  N247  1  0.07225373  0.87125780  0.82430322  1
  O  O248  1  0.39257774  0.61696317  0.65091056  1
  O  O249  1  0.89257774  0.88303683  0.34908944  1
  O  O250  1  0.60742226  0.11696317  0.84908944  1
  O  O251  1  0.10742226  0.38303683  0.15091056  1
  O  O252  1  0.60742226  0.38303683  0.34908944  1
  O  O253  1  0.10742226  0.11696317  0.65091056  1
  O  O254  1  0.39257774  0.88303683  0.15091056  1
  O  O255  1  0.89257774  0.61696317  0.84908944  1
  O  O256  1  0.55569291  0.59916062  0.70025497  1
  O  O257  1  0.05569291  0.90083938  0.29974503  1
  O  O258  1  0.44430709  0.09916062  0.79974503  1
  O  O259  1  0.94430709  0.40083938  0.20025497  1
  O  O260  1  0.44430709  0.40083938  0.29974503  1
  O  O261  1  0.94430709  0.09916062  0.70025497  1
  O  O262  1  0.55569291  0.90083938  0.20025497  1
  O  O263  1  0.05569291  0.59916062  0.79974503  1
  O  O264  1  0.72057222  0.58356032  0.74938761  1
  O  O265  1  0.22057222  0.91643968  0.25061239  1
  O  O266  1  0.27942778  0.08356032  0.75061239  1
  O  O267  1  0.77942778  0.41643968  0.24938761  1
  O  O268  1  0.27942778  0.41643968  0.25061239  1
  O  O269  1  0.77942778  0.08356032  0.74938761  1
  O  O270  1  0.72057222  0.91643968  0.24938761  1
  O  O271  1  0.22057222  0.58356032  0.75061239  1
  O  O272  1  0.52596343  0.67358255  0.57105384  1
  O  O273  1  0.02596343  0.82641745  0.42894616  1
  O  O274  1  0.47403657  0.17358255  0.92894616  1
  O  O275  1  0.97403657  0.32641745  0.07105384  1
  O  O276  1  0.47403657  0.32641745  0.42894616  1
  O  O277  1  0.97403657  0.17358255  0.57105384  1
  O  O278  1  0.52596343  0.82641745  0.07105384  1
  O  O279  1  0.02596343  0.67358255  0.92894616  1
  O  O280  1  0.69296178  0.65341548  0.62153497  1
  O  O281  1  0.19296178  0.84658452  0.37846503  1
  O  O282  1  0.30703822  0.15341548  0.87846503  1
  O  O283  1  0.80703822  0.34658452  0.12153497  1
  O  O284  1  0.30703822  0.34658452  0.37846503  1
  O  O285  1  0.80703822  0.15341548  0.62153497  1
  O  O286  1  0.69296178  0.84658452  0.12153497  1
  O  O287  1  0.19296178  0.65341548  0.87846503  1
  O  O288  1  0.65297171  0.60232989  0.48751455  1
  O  O289  1  0.15297171  0.89767011  0.51248545  1
  O  O290  1  0.34702829  0.10232989  0.01248545  1
  O  O291  1  0.84702829  0.39767011  0.98751455  1
  O  O292  1  0.34702829  0.39767011  0.51248545  1
  O  O293  1  0.84702829  0.10232989  0.48751455  1
  O  O294  1  0.65297171  0.89767011  0.98751455  1
  O  O295  1  0.15297171  0.60232989  0.01248545  1
  O  O296  1  0.65857535  0.77222238  0.52135575  1
  O  O297  1  0.15857535  0.72777762  0.47864425  1
  O  O298  1  0.34142465  0.27222238  0.97864425  1
  O  O299  1  0.84142465  0.22777762  0.02135575  1
  O  O300  1  0.34142465  0.22777762  0.47864425  1
  O  O301  1  0.84142465  0.27222238  0.52135575  1
  O  O302  1  0.65857535  0.72777762  0.02135575  1
  O  O303  1  0.15857535  0.77222238  0.97864425  1
  O  O304  1  0.71281813  0.55673828  0.35572858  1
  O  O305  1  0.21281813  0.94326172  0.64427142  1
  O  O306  1  0.28718187  0.05673828  0.14427142  1
  O  O307  1  0.78718187  0.44326172  0.85572858  1
  O  O308  1  0.28718187  0.44326172  0.64427142  1
  O  O309  1  0.78718187  0.05673828  0.35572858  1
  O  O310  1  0.71281813  0.94326172  0.85572858  1
  O  O311  1  0.21281813  0.55673828  0.14427142  1
  O  O312  1  0.69043564  0.71877454  0.38550642  1
  O  O313  1  0.19043564  0.78122546  0.61449358  1
  O  O314  1  0.30956436  0.21877454  0.11449358  1
  O  O315  1  0.80956436  0.28122546  0.88550642  1
  O  O316  1  0.30956436  0.28122546  0.61449358  1
  O  O317  1  0.80956436  0.21877454  0.38550642  1
  O  O318  1  0.69043564  0.78122546  0.88550642  1
  O  O319  1  0.19043564  0.71877454  0.11449358  1
  O  O320  1  0.70231428  0.88383954  0.42066654  1
  O  O321  1  0.20231428  0.61616046  0.57933346  1
  O  O322  1  0.29768572  0.38383954  0.07933346  1
  O  O323  1  0.79768572  0.11616046  0.92066654  1
  O  O324  1  0.29768572  0.11616046  0.57933346  1
  O  O325  1  0.79768572  0.38383954  0.42066654  1
  O  O326  1  0.70231428  0.61616046  0.92066654  1
  O  O327  1  0.20231428  0.88383954  0.07933346  1
