# generated using pymatgen
data_Na2U2O7
_symmetry_space_group_name_H-M   'P 1'
_cell_length_a   6.92819393
_cell_length_b   7.91957700
_cell_length_c   12.45284322
_cell_angle_alpha   90.00000000
_cell_angle_beta   79.33119296
_cell_angle_gamma   90.00000000
_symmetry_Int_Tables_number   1
_chemical_formula_structural   Na2U2O7
_chemical_formula_sum   'Na8 U8 O28'
_cell_volume   671.45601138
_cell_formula_units_Z   4
loop_
 _symmetry_equiv_pos_site_id
 _symmetry_equiv_pos_as_xyz
  1  'x, y, z'
loop_
 _atom_site_type_symbol
 _atom_site_label
 _atom_site_symmetry_multiplicity
 _atom_site_fract_x
 _atom_site_fract_y
 _atom_site_fract_z
 _atom_site_occupancy
  Na  Na0  1  0.50000000  0.50000000  0.50000000  1
  Na  Na1  1  0.00000000  0.00000000  0.00000000  1
  Na  Na2  1  0.00000000  0.50000000  0.00000000  1
  Na  Na3  1  0.50000000  0.00000000  0.50000000  1
  Na  Na4  1  0.99959500  0.74578900  0.50596500  1
  Na  Na5  1  0.50040500  0.24578900  0.99403500  1
  Na  Na6  1  0.00040500  0.25421100  0.49403500  1
  Na  Na7  1  0.49959500  0.75421100  0.00596500  1
  U  U8  1  0.73892600  0.75217800  0.25176200  1
  U  U9  1  0.76107400  0.25217800  0.24823800  1
  U  U10  1  0.26107400  0.24782200  0.74823800  1
  U  U11  1  0.23892600  0.74782200  0.75176200  1
  U  U12  1  0.28021500  0.50702300  0.25628900  1
  U  U13  1  0.21978500  0.00702300  0.24371100  1
  U  U14  1  0.71978500  0.49297700  0.74371100  1
  U  U15  1  0.78021500  0.99297700  0.75628900  1
  O  O16  1  0.60993400  0.49879100  0.27009300  1
  O  O17  1  0.89006600  0.99879100  0.22990700  1
  O  O18  1  0.39006600  0.50120900  0.72990700  1
  O  O19  1  0.10993400  0.00120900  0.77009300  1
  O  O20  1  0.46298300  0.18002200  0.23768000  1
  O  O21  1  0.03701700  0.68002200  0.26232000  1
  O  O22  1  0.53701700  0.81997800  0.76232000  1
  O  O23  1  0.96298300  0.31997800  0.73768000  1
  O  O24  1  0.42104800  0.78416900  0.24136800  1
  O  O25  1  0.07895200  0.28416900  0.25863200  1
  O  O26  1  0.57895200  0.21583100  0.75863200  1
  O  O27  1  0.92104800  0.71583100  0.74136800  1
  O  O28  1  0.81966300  0.27556100  0.09428200  1
  O  O29  1  0.68033700  0.77556100  0.40571800  1
  O  O30  1  0.18033700  0.72443900  0.90571800  1
  O  O31  1  0.31966300  0.22443900  0.59428200  1
  O  O32  1  0.79329700  0.72921400  0.09785400  1
  O  O33  1  0.70670300  0.22921400  0.40214600  1
  O  O34  1  0.20670300  0.27078600  0.90214600  1
  O  O35  1  0.29329700  0.77078600  0.59785400  1
  O  O36  1  0.27488100  0.00308700  0.08945100  1
  O  O37  1  0.22511900  0.50308700  0.41054900  1
  O  O38  1  0.72511900  0.99691300  0.91054900  1
  O  O39  1  0.77488100  0.49691300  0.58945100  1
  O  O40  1  0.32943000  0.50177500  0.10362200  1
  O  O41  1  0.17057000  0.00177500  0.39637800  1
  O  O42  1  0.67057000  0.49822500  0.89637800  1
  O  O43  1  0.82943000  0.99822500  0.60362200  1
