# generated using pymatgen
data_CdH14C5(NCl)3
_symmetry_space_group_name_H-M   'P 1'
_cell_length_a   11.04461844
_cell_length_b   11.04461844
_cell_length_c   12.01098888
_cell_angle_alpha   71.06314466
_cell_angle_beta   71.06314466
_cell_angle_gamma   90.80682698
_symmetry_Int_Tables_number   1
_chemical_formula_structural   CdH14C5(NCl)3
_chemical_formula_sum   'Cd4 H56 C20 N12 Cl12'
_cell_volume   1299.11366426
_cell_formula_units_Z   4
loop_
 _symmetry_equiv_pos_site_id
 _symmetry_equiv_pos_as_xyz
  1  'x, y, z'
loop_
 _atom_site_type_symbol
 _atom_site_label
 _atom_site_symmetry_multiplicity
 _atom_site_fract_x
 _atom_site_fract_y
 _atom_site_fract_z
 _atom_site_occupancy
  Cd  Cd0  1  0.33336100  0.88438400  0.07963000  1
  Cd  Cd1  1  0.11561600  0.66663900  0.42037000  1
  Cd  Cd2  1  0.66663900  0.11561600  0.92037000  1
  Cd  Cd3  1  0.88438400  0.33336100  0.57963000  1
  H  H4  1  0.62933100  0.59012200  0.02347900  1
  H  H5  1  0.40987800  0.37066900  0.47652100  1
  H  H6  1  0.37066900  0.40987800  0.97652100  1
  H  H7  1  0.59012200  0.62933100  0.52347900  1
  H  H8  1  0.65115400  0.52695800  0.90035300  1
  H  H9  1  0.47304200  0.34884600  0.59964700  1
  H  H10  1  0.34884600  0.47304200  0.09964700  1
  H  H11  1  0.52695800  0.65115400  0.40035300  1
  H  H12  1  0.64653000  0.42202200  0.04937000  1
  H  H13  1  0.57797800  0.35347000  0.45063000  1
  H  H14  1  0.35347000  0.57797800  0.95063000  1
  H  H15  1  0.42202200  0.64653000  0.54937000  1
  H  H16  1  0.99407300  0.50954100  0.83462900  1
  H  H17  1  0.49045900  0.00592700  0.66537100  1
  H  H18  1  0.00592700  0.49045900  0.16537100  1
  H  H19  1  0.50954100  0.99407300  0.33462900  1
  H  H20  1  0.85326200  0.39946100  0.87563400  1
  H  H21  1  0.60053900  0.14673800  0.62436600  1
  H  H22  1  0.14673800  0.60053900  0.12436600  1
  H  H23  1  0.39946100  0.85326200  0.37563400  1
  H  H24  1  0.88403300  0.55215300  0.75241800  1
  H  H25  1  0.44784700  0.11596700  0.74758200  1
  H  H26  1  0.11596700  0.44784700  0.24758200  1
  H  H27  1  0.55215300  0.88403300  0.25241800  1
  H  H28  1  0.74758300  0.46667300  0.17894800  1
  H  H29  1  0.53332700  0.25241700  0.32105200  1
  H  H30  1  0.25241700  0.53332700  0.82105200  1
  H  H31  1  0.46667300  0.74758300  0.67894800  1
  H  H32  1  0.77233200  0.55792100  0.26887500  1
  H  H33  1  0.44207900  0.22766800  0.23112500  1
  H  H34  1  0.22766800  0.44207900  0.73112500  1
  H  H35  1  0.55792100  0.77233200  0.76887500  1
  H  H36  1  0.63657900  0.57579800  0.21671300  1
  H  H37  1  0.42420200  0.36342100  0.28328700  1
  H  H38  1  0.36342100  0.42420200  0.78328700  1
  H  H39  1  0.57579800  0.63657900  0.71671300  1
  H  H40  1  0.88606400  0.86294300  0.00376700  1
  H  H41  1  0.13705700  0.11393600  0.49623300  1
  H  H42  1  0.11393600  0.13705700  0.99623300  1
  H  H43  1  0.86294300  0.88606400  0.50376700  1
  H  H44  1  0.76732800  0.80503400  0.15657900  1
  H  H45  1  0.19496600  0.23267200  0.34342100  1
  H  H46  1  0.23267200  0.19496600  0.84342100  1
  H  H47  1  0.80503400  0.76732800  0.65657900  1
  H  H48  1  0.93003000  0.77424700  0.13595400  1
  H  H49  1  0.22575300  0.06997000  0.36404600  1
  H  H50  1  0.06997000  0.22575300  0.86404600  1
  H  H51  1  0.77424700  0.93003000  0.63595400  1
  H  H52  1  0.04704800  0.75880300  0.91416500  1
  H  H53  1  0.24119700  0.95295200  0.58583500  1
  H  H54  1  0.95295200  0.24119700  0.08583500  1
  H  H55  1  0.75880300  0.04704800  0.41416500  1
  H  H56  1  0.01884100  0.72148800  0.79360400  1
  H  H57  1  0.27851200  0.98115900  0.70639600  1
  H  H58  1  0.98115900  0.27851200  0.20639600  1
  H  H59  1  0.72148800  0.01884100  0.29360400  1
  C  C60  1  0.67804400  0.52137100  0.98210900  1
  C  C61  1  0.47862900  0.32195600  0.51789100  1
  C  C62  1  0.32195600  0.47862900  0.01789100  1
  C  C63  1  0.52137100  0.67804400  0.48210900  1
  C  C64  1  0.89193700  0.50154800  0.84480100  1
  C  C65  1  0.49845300  0.10806300  0.65519900  1
  C  C66  1  0.10806300  0.49845300  0.15519900  1
  C  C67  1  0.50154800  0.89193700  0.34480100  1
  C  C68  1  0.73878900  0.56028300  0.19153200  1
  C  C69  1  0.43971700  0.26121100  0.30846800  1
  C  C70  1  0.26121100  0.43971700  0.80846800  1
  C  C71  1  0.56028300  0.73878900  0.69153200  1
  C  C72  1  0.85418900  0.78298200  0.09388300  1
  C  C73  1  0.21701800  0.14581100  0.40611700  1
  C  C74  1  0.14581100  0.21701800  0.90611700  1
  C  C75  1  0.78298200  0.85418900  0.59388300  1
  C  C76  1  0.87451200  0.64382700  0.96770300  1
  C  C77  1  0.35617300  0.12548800  0.53229700  1
  C  C78  1  0.12548800  0.35617300  0.03229700  1
  C  C79  1  0.64382700  0.87451200  0.46770300  1
  N  N80  1  0.81799100  0.55398800  0.93939300  1
  N  N81  1  0.44601200  0.18200900  0.56060700  1
  N  N82  1  0.18200900  0.44601200  0.06060700  1
  N  N83  1  0.55398800  0.81799100  0.43939300  1
  N  N84  1  0.98725100  0.71341100  0.88611900  1
  N  N85  1  0.28658900  0.01274900  0.61388100  1
  N  N86  1  0.01274900  0.28658900  0.11388100  1
  N  N87  1  0.71341100  0.98725100  0.38611900  1
  N  N88  1  0.81982600  0.66304600  0.07760700  1
  N  N89  1  0.33695400  0.18017400  0.42239300  1
  N  N90  1  0.18017400  0.33695400  0.92239300  1
  N  N91  1  0.66304600  0.81982600  0.57760700  1
  Cl  Cl92  1  0.24433100  0.85350600  0.91737500  1
  Cl  Cl93  1  0.14649400  0.75566900  0.58262500  1
  Cl  Cl94  1  0.75566900  0.14649400  0.08262500  1
  Cl  Cl95  1  0.85350600  0.24433100  0.41737500  1
  Cl  Cl96  1  0.33636300  0.66363700  0.25000000  1
  Cl  Cl97  1  0.66363700  0.33636300  0.75000000  1
  Cl  Cl98  1  0.11375200  0.88624800  0.25000000  1
  Cl  Cl99  1  0.88624800  0.11375200  0.75000000  1
  Cl  Cl100  1  0.41769600  0.11917000  0.04479500  1
  Cl  Cl101  1  0.88083000  0.58230400  0.45520500  1
  Cl  Cl102  1  0.58230400  0.88083000  0.95520500  1
  Cl  Cl103  1  0.11917000  0.41769600  0.54479500  1
