# generated using pymatgen
data_CaTi2MnO6
_symmetry_space_group_name_H-M   'P 1'
_cell_length_a   7.59888000
_cell_length_b   7.59888000
_cell_length_c   7.71094100
_cell_angle_alpha   90.00000000
_cell_angle_beta   90.00000000
_cell_angle_gamma   90.00000000
_symmetry_Int_Tables_number   1
_chemical_formula_structural   CaTi2MnO6
_chemical_formula_sum   'Ca4 Ti8 Mn4 O24'
_cell_volume   445.25269077
_cell_formula_units_Z   4
loop_
 _symmetry_equiv_pos_site_id
 _symmetry_equiv_pos_as_xyz
  1  'x, y, z'
loop_
 _atom_site_type_symbol
 _atom_site_label
 _atom_site_symmetry_multiplicity
 _atom_site_fract_x
 _atom_site_fract_y
 _atom_site_fract_z
 _atom_site_occupancy
  Ca  Ca0  1  0.50000000  0.50000000  0.54903900  1
  Ca  Ca1  1  0.50000000  0.50000000  0.04903900  1
  Ca  Ca2  1  0.00000000  0.00000000  0.49819300  1
  Ca  Ca3  1  0.00000000  0.00000000  0.99819300  1
  Ti  Ti4  1  0.75484200  0.74297200  0.78229900  1
  Ti  Ti5  1  0.24515800  0.25702800  0.78229900  1
  Ti  Ti6  1  0.25702800  0.75484200  0.28229900  1
  Ti  Ti7  1  0.74297200  0.24515800  0.28229900  1
  Ti  Ti8  1  0.24515800  0.74297200  0.78229900  1
  Ti  Ti9  1  0.75484200  0.25702800  0.78229900  1
  Ti  Ti10  1  0.74297200  0.75484200  0.28229900  1
  Ti  Ti11  1  0.25702800  0.24515800  0.28229900  1
  Mn  Mn12  1  0.50000000  0.00000000  0.57496200  1
  Mn  Mn13  1  0.00000000  0.50000000  0.07496200  1
  Mn  Mn14  1  0.50000000  0.00000000  0.02025000  1
  Mn  Mn15  1  0.00000000  0.50000000  0.52025000  1
  O  O16  1  0.50000000  0.69690000  0.80174600  1
  O  O17  1  0.50000000  0.30310000  0.80174600  1
  O  O18  1  0.30310000  0.50000000  0.30174600  1
  O  O19  1  0.69690000  0.50000000  0.30174600  1
  O  O20  1  0.00000000  0.70322100  0.32553900  1
  O  O21  1  0.00000000  0.29677900  0.32553900  1
  O  O22  1  0.29677900  0.00000000  0.82553900  1
  O  O23  1  0.70322100  0.00000000  0.82553900  1
  O  O24  1  0.00000000  0.80328200  0.73229700  1
  O  O25  1  0.00000000  0.19671800  0.73229700  1
  O  O26  1  0.19671800  0.00000000  0.23229700  1
  O  O27  1  0.80328200  0.00000000  0.23229700  1
  O  O28  1  0.50000000  0.78972100  0.20170700  1
  O  O29  1  0.50000000  0.21027900  0.20170700  1
  O  O30  1  0.21027900  0.50000000  0.70170700  1
  O  O31  1  0.78972100  0.50000000  0.70170700  1
  O  O32  1  0.69904700  0.80127700  0.51639500  1
  O  O33  1  0.30095300  0.19872300  0.51639500  1
  O  O34  1  0.19872300  0.69904700  0.01639500  1
  O  O35  1  0.80127700  0.30095300  0.01639500  1
  O  O36  1  0.30095300  0.80127700  0.51639500  1
  O  O37  1  0.69904700  0.19872300  0.51639500  1
  O  O38  1  0.80127700  0.69904700  0.01639500  1
  O  O39  1  0.19872300  0.30095300  0.01639500  1
