# generated using pymatgen
data_MnP2(HO)4
_symmetry_space_group_name_H-M   'P 1'
_cell_length_a   8.26694200
_cell_length_b   12.50434519
_cell_length_c   12.50434477
_cell_angle_alpha   115.28696362
_cell_angle_beta   102.73107369
_cell_angle_gamma   102.73107326
_symmetry_Int_Tables_number   1
_chemical_formula_structural   MnP2(HO)4
_chemical_formula_sum   'Mn6 P12 H24 O24'
_cell_volume   1065.06575786
_cell_formula_units_Z   6
loop_
 _symmetry_equiv_pos_site_id
 _symmetry_equiv_pos_as_xyz
  1  'x, y, z'
loop_
 _atom_site_type_symbol
 _atom_site_label
 _atom_site_symmetry_multiplicity
 _atom_site_fract_x
 _atom_site_fract_y
 _atom_site_fract_z
 _atom_site_occupancy
  Mn  Mn0  1  0.98455200  0.56125700  0.32235000  1
  Mn  Mn1  1  0.66220300  0.67765000  0.23890700  1
  Mn  Mn2  1  0.42329600  0.76109300  0.43874300  1
  Mn  Mn3  1  0.01544800  0.43874300  0.67765000  1
  Mn  Mn4  1  0.33779700  0.32235000  0.76109300  1
  Mn  Mn5  1  0.57670400  0.23890700  0.56125700  1
  P  P6  1  0.27811100  0.45361100  0.19951800  1
  P  P7  1  0.07859300  0.80048200  0.25409300  1
  P  P8  1  0.82450000  0.74590700  0.54638900  1
  P  P9  1  0.72188900  0.54638900  0.80048200  1
  P  P10  1  0.92140700  0.19951800  0.74590700  1
  P  P11  1  0.17550100  0.25409300  0.45361100  1
  P  P12  1  0.71107400  0.37442600  0.39709500  1
  P  P13  1  0.31397900  0.60290500  0.97733100  1
  P  P14  1  0.33664800  0.02266900  0.62557400  1
  P  P15  1  0.28892600  0.62557400  0.60290500  1
  P  P16  1  0.68602100  0.39709500  0.02266900  1
  P  P17  1  0.66335200  0.97733100  0.37442600  1
  H  H18  1  0.27455200  0.38695000  0.07398000  1
  H  H19  1  0.20057100  0.92602000  0.31297000  1
  H  H20  1  0.88760100  0.68703000  0.61305000  1
  H  H21  1  0.72544800  0.61305000  0.92602000  1
  H  H22  1  0.79942900  0.07398000  0.68703000  1
  H  H23  1  0.11239900  0.31297000  0.38695000  1
  H  H24  1  0.33282500  0.38265800  0.25439900  1
  H  H25  1  0.07842600  0.74560100  0.12825900  1
  H  H26  1  0.95016700  0.87174100  0.61734200  1
  H  H27  1  0.66717500  0.61734200  0.74560100  1
  H  H28  1  0.92157400  0.25439900  0.87174100  1
  H  H29  1  0.04983300  0.12825900  0.38265800  1
  H  H30  1  0.61803600  0.45988200  0.42011900  1
  H  H31  1  0.19791700  0.57988100  0.03976300  1
  H  H32  1  0.15815400  0.96023700  0.54011800  1
  H  H33  1  0.38196400  0.54011800  0.57988100  1
  H  H34  1  0.80208300  0.42011900  0.96023700  1
  H  H35  1  0.84184600  0.03976300  0.45988200  1
  H  H36  1  0.58149200  0.25695300  0.29816900  1
  H  H37  1  0.28332400  0.70183100  0.95878400  1
  H  H38  1  0.32454000  0.04121600  0.74304700  1
  H  H39  1  0.41850800  0.74304700  0.70183100  1
  H  H40  1  0.71667600  0.29816900  0.04121600  1
  H  H41  1  0.67546000  0.95878400  0.25695300  1
  O  O42  1  0.09121500  0.44682800  0.19546800  1
  O  O43  1  0.89574700  0.80453200  0.25136000  1
  O  O44  1  0.64438800  0.74864000  0.55317200  1
  O  O45  1  0.90878500  0.55317200  0.80453200  1
  O  O46  1  0.10425300  0.19546800  0.74864000  1
  O  O47  1  0.35561200  0.25136000  0.44682800  1
  O  O48  1  0.42396300  0.58518700  0.26852000  1
  O  O49  1  0.15544200  0.73148000  0.31666700  1
  O  O50  1  0.83877600  0.68333300  0.41481300  1
  O  O51  1  0.57603700  0.41481300  0.73148000  1
  O  O52  1  0.84455800  0.26852000  0.68333300  1
  O  O53  1  0.16122400  0.31666700  0.58518700  1
  O  O54  1  0.85561700  0.41458200  0.35117800  1
  O  O55  1  0.50443900  0.64882200  0.06340300  1
  O  O56  1  0.44103600  0.93659700  0.58541800  1
  O  O57  1  0.14438300  0.58541800  0.64882200  1
  O  O58  1  0.49556100  0.35117800  0.93659700  1
  O  O59  1  0.55896400  0.06340300  0.41458200  1
  O  O60  1  0.76585500  0.36000300  0.51460400  1
  O  O61  1  0.25125100  0.48539600  0.84539800  1
  O  O62  1  0.40585200  0.15460200  0.63999700  1
  O  O63  1  0.23414500  0.63999700  0.48539600  1
  O  O64  1  0.74874900  0.51460400  0.15460200  1
  O  O65  1  0.59414800  0.84539800  0.36000300  1
