# generated using pymatgen
data_B3Pb6O10F
_symmetry_space_group_name_H-M   'P 1'
_cell_length_a   6.86310000
_cell_length_b   11.40344900
_cell_length_c   17.27905200
_cell_angle_alpha   90.00000000
_cell_angle_beta   90.00000000
_cell_angle_gamma   90.00000000
_symmetry_Int_Tables_number   1
_chemical_formula_structural   B3Pb6O10F
_chemical_formula_sum   'B12 Pb24 O40 F4'
_cell_volume   1352.31063384
_cell_formula_units_Z   4
loop_
 _symmetry_equiv_pos_site_id
 _symmetry_equiv_pos_as_xyz
  1  'x, y, z'
loop_
 _atom_site_type_symbol
 _atom_site_label
 _atom_site_symmetry_multiplicity
 _atom_site_fract_x
 _atom_site_fract_y
 _atom_site_fract_z
 _atom_site_occupancy
  B  B0  1  0.80601900  0.75000000  0.72510300  1
  B  B1  1  0.19398100  0.25000000  0.27489700  1
  B  B2  1  0.80601900  0.25000000  0.77489700  1
  B  B3  1  0.19398100  0.75000000  0.22510300  1
  B  B4  1  0.22618500  0.99649000  0.49396900  1
  B  B5  1  0.77381500  0.49649000  0.50603100  1
  B  B6  1  0.22618500  0.00351000  0.00603100  1
  B  B7  1  0.77381500  0.50351000  0.99396900  1
  B  B8  1  0.77381500  0.00351000  0.50603100  1
  B  B9  1  0.22618500  0.50351000  0.49396900  1
  B  B10  1  0.77381500  0.99649000  0.99396900  1
  B  B11  1  0.22618500  0.49649000  0.00603100  1
  Pb  Pb12  1  0.03246400  0.93537000  0.65514100  1
  Pb  Pb13  1  0.96753600  0.43537000  0.34485900  1
  Pb  Pb14  1  0.03246400  0.06463000  0.84485900  1
  Pb  Pb15  1  0.96753600  0.56463000  0.15514100  1
  Pb  Pb16  1  0.96753600  0.06463000  0.34485900  1
  Pb  Pb17  1  0.03246400  0.56463000  0.65514100  1
  Pb  Pb18  1  0.96753600  0.93537000  0.15514100  1
  Pb  Pb19  1  0.03246400  0.43537000  0.84485900  1
  Pb  Pb20  1  0.43006900  0.25000000  0.46960500  1
  Pb  Pb21  1  0.56993100  0.75000000  0.53039500  1
  Pb  Pb22  1  0.43006900  0.75000000  0.03039500  1
  Pb  Pb23  1  0.56993100  0.25000000  0.96960500  1
  Pb  Pb24  1  0.91592900  0.25000000  0.56432300  1
  Pb  Pb25  1  0.08407100  0.75000000  0.43567700  1
  Pb  Pb26  1  0.91592900  0.75000000  0.93567700  1
  Pb  Pb27  1  0.08407100  0.25000000  0.06432300  1
  Pb  Pb28  1  0.50461700  0.09192800  0.66629600  1
  Pb  Pb29  1  0.49538300  0.59192800  0.33370400  1
  Pb  Pb30  1  0.50461700  0.90807200  0.83370400  1
  Pb  Pb31  1  0.49538300  0.40807200  0.16629600  1
  Pb  Pb32  1  0.49538300  0.90807200  0.33370400  1
  Pb  Pb33  1  0.50461700  0.40807200  0.66629600  1
  Pb  Pb34  1  0.49538300  0.09192800  0.16629600  1
  Pb  Pb35  1  0.50461700  0.59192800  0.83370400  1
  O  O36  1  0.58157900  0.25000000  0.59131800  1
  O  O37  1  0.41842100  0.75000000  0.40868200  1
  O  O38  1  0.58157900  0.75000000  0.90868200  1
  O  O39  1  0.41842100  0.25000000  0.09131800  1
  O  O40  1  0.90075100  0.75000000  0.65089700  1
  O  O41  1  0.09924900  0.25000000  0.34910300  1
  O  O42  1  0.90075100  0.25000000  0.84910300  1
  O  O43  1  0.09924900  0.75000000  0.15089700  1
  O  O44  1  0.77203600  0.00581200  0.58711900  1
  O  O45  1  0.22796400  0.50581200  0.41288100  1
  O  O46  1  0.77203600  0.99418800  0.91288100  1
  O  O47  1  0.22796400  0.49418800  0.08711900  1
  O  O48  1  0.22796400  0.99418800  0.41288100  1
  O  O49  1  0.77203600  0.49418800  0.58711900  1
  O  O50  1  0.22796400  0.00581200  0.08711900  1
  O  O51  1  0.77203600  0.50581200  0.91288100  1
  O  O52  1  0.17771900  0.89200100  0.53222600  1
  O  O53  1  0.82228100  0.39200100  0.46777400  1
  O  O54  1  0.17771900  0.10799900  0.96777400  1
  O  O55  1  0.82228100  0.60799900  0.03222600  1
  O  O56  1  0.82228100  0.10799900  0.46777400  1
  O  O57  1  0.17771900  0.60799900  0.53222600  1
  O  O58  1  0.82228100  0.89200100  0.03222600  1
  O  O59  1  0.17771900  0.39200100  0.96777400  1
  O  O60  1  0.26991000  0.09644400  0.53531100  1
  O  O61  1  0.73009000  0.59644400  0.46468900  1
  O  O62  1  0.26991000  0.90355600  0.96468900  1
  O  O63  1  0.73009000  0.40355600  0.03531100  1
  O  O64  1  0.73009000  0.90355600  0.46468900  1
  O  O65  1  0.26991000  0.40355600  0.53531100  1
  O  O66  1  0.73009000  0.09644400  0.03531100  1
  O  O67  1  0.26991000  0.59644400  0.96468900  1
  O  O68  1  0.77370500  0.14172800  0.74284600  1
  O  O69  1  0.22629500  0.64172800  0.25715400  1
  O  O70  1  0.77370500  0.85827200  0.75715400  1
  O  O71  1  0.22629500  0.35827200  0.24284600  1
  O  O72  1  0.22629500  0.85827200  0.25715400  1
  O  O73  1  0.77370500  0.35827200  0.74284600  1
  O  O74  1  0.22629500  0.14172800  0.24284600  1
  O  O75  1  0.77370500  0.64172800  0.75715400  1
  F  F76  1  0.33708100  0.25000000  0.73331500  1
  F  F77  1  0.66291900  0.75000000  0.26668500  1
  F  F78  1  0.33708100  0.75000000  0.76668500  1
  F  F79  1  0.66291900  0.25000000  0.23331500  1
