# generated using pymatgen
data_K5V9H20PtO37
_symmetry_space_group_name_H-M   'P 1'
_cell_length_a   10.33825800
_cell_length_b   13.01657601
_cell_length_c   13.91570105
_cell_angle_alpha   103.75638948
_cell_angle_beta   106.64149099
_cell_angle_gamma   92.54055267
_symmetry_Int_Tables_number   1
_chemical_formula_structural   K5V9H20PtO37
_chemical_formula_sum   'K10 V18 H40 Pt2 O74'
_cell_volume   1729.95557156
_cell_formula_units_Z   2
loop_
 _symmetry_equiv_pos_site_id
 _symmetry_equiv_pos_as_xyz
  1  'x, y, z'
loop_
 _atom_site_type_symbol
 _atom_site_label
 _atom_site_symmetry_multiplicity
 _atom_site_fract_x
 _atom_site_fract_y
 _atom_site_fract_z
 _atom_site_occupancy
  K  K0  1  0.80884300  0.04999400  0.19100700  1
  K  K1  1  0.19115700  0.95000600  0.80899300  1
  K  K2  1  0.66955600  0.72682100  0.00151500  1
  K  K3  1  0.33044400  0.27317900  0.99848500  1
  K  K4  1  0.71410900  0.81085300  0.75067300  1
  K  K5  1  0.28589100  0.18914700  0.24932700  1
  K  K6  1  0.85484700  0.84062200  0.48919400  1
  K  K7  1  0.14515300  0.15937800  0.51080600  1
  K  K8  1  0.67025300  0.50285000  0.37679100  1
  K  K9  1  0.32974700  0.49715000  0.62320900  1
  V  V10  1  0.92187800  0.25200800  0.03931900  1
  V  V11  1  0.07812200  0.74799200  0.96068100  1
  V  V12  1  0.93981100  0.42247400  0.64328500  1
  V  V13  1  0.06018900  0.57752600  0.35671500  1
  V  V14  1  0.63014100  0.32525600  0.53229200  1
  V  V15  1  0.36985900  0.67474400  0.46770800  1
  V  V16  1  0.61837200  0.23764900  0.72366300  1
  V  V17  1  0.38162800  0.76235100  0.27633700  1
  V  V18  1  0.61517800  0.15310700  0.91782200  1
  V  V19  1  0.38482200  0.84689300  0.08217800  1
  V  V20  1  0.84957200  0.09202500  0.81064300  1
  V  V21  1  0.15042800  0.90797500  0.18935700  1
  V  V22  1  0.85260800  0.17522200  0.61482800  1
  V  V23  1  0.14739200  0.82477800  0.38517200  1
  V  V24  1  0.71483200  0.48909700  0.75762000  1
  V  V25  1  0.28516800  0.51090300  0.24238000  1
  V  V26  1  0.70146600  0.40220700  0.95188700  1
  V  V27  1  0.29853400  0.59779300  0.04811300  1
  H  H28  1  0.08711200  0.49391300  0.84226700  1
  H  H29  1  0.91288800  0.50608700  0.15773300  1
  H  H30  1  0.07901600  0.41194700  0.02848100  1
  H  H31  1  0.92098400  0.58805300  0.97151900  1
  H  H32  1  0.83891600  0.28592600  0.31281300  1
  H  H33  1  0.16108400  0.71407400  0.68718700  1
  H  H34  1  0.86363900  0.25601400  0.41690700  1
  H  H35  1  0.13636100  0.74398600  0.58309300  1
  H  H36  1  0.65204200  0.10504400  0.38278200  1
  H  H37  1  0.34795800  0.89495600  0.61721800  1
  H  H38  1  0.57406000  0.99497700  0.30205800  1
  H  H39  1  0.42594000  0.00502300  0.69794200  1
  H  H40  1  0.87320000  0.82907300  0.22490200  1
  H  H41  1  0.12680000  0.17092700  0.77509800  1
  H  H42  1  0.73365500  0.79361300  0.23826500  1
  H  H43  1  0.26634500  0.20638700  0.76173500  1
  H  H44  1  0.88666800  0.90625800  0.00548300  1
  H  H45  1  0.11333200  0.09374200  0.99451700  1
  H  H46  1  0.77455100  0.97013100  0.94770900  1
  H  H47  1  0.22544900  0.02986900  0.05229100  1
  H  H48  1  0.45161500  0.87114500  0.77917400  1
  H  H49  1  0.54838500  0.12885500  0.22082600  1
  H  H50  1  0.50556000  0.88172900  0.89983100  1
  H  H51  1  0.49444000  0.11827100  0.10016900  1
  H  H52  1  0.65472600  0.98478900  0.60280200  1
  H  H53  1  0.34527400  0.01521100  0.39719800  1
  H  H54  1  0.56111000  0.88200200  0.52082200  1
  H  H55  1  0.43889000  0.11799800  0.47917800  1
  H  H56  1  0.77111400  0.62335100  0.23159600  1
  H  H57  1  0.22888600  0.37664900  0.76840400  1
  H  H58  1  0.61280700  0.62861800  0.21502800  1
  H  H59  1  0.38719300  0.37138200  0.78497200  1
  H  H60  1  0.62717200  0.28229600  0.19488100  1
  H  H61  1  0.37282800  0.71770400  0.80511900  1
  H  H62  1  0.72848300  0.35259100  0.16392000  1
  H  H63  1  0.27151700  0.64740900  0.83608000  1
  H  H64  1  0.69484400  0.65370800  0.57515100  1
  H  H65  1  0.30515600  0.34629200  0.42484900  1
  H  H66  1  0.84802200  0.64158400  0.62127700  1
  H  H67  1  0.15197800  0.35841600  0.37872300  1
  Pt  Pt68  1  0.92688800  0.33792600  0.84041500  1
  Pt  Pt69  1  0.07311200  0.66207400  0.15958500  1
  O  O70  1  0.77924300  0.25497600  0.86636400  1
  O  O71  1  0.22075700  0.74502400  0.13363600  1
  O  O72  1  0.78547400  0.32467600  0.70372700  1
  O  O73  1  0.21452600  0.67532400  0.29627300  1
  O  O74  1  0.96618800  0.19224200  0.76806200  1
  O  O75  1  0.03381200  0.80775800  0.23193800  1
  O  O76  1  0.84046300  0.46877100  0.89458100  1
  O  O77  1  0.15953700  0.53122900  0.10541900  1
  O  O78  1  0.72125300  0.12103100  0.68051200  1
  O  O79  1  0.27874700  0.87896900  0.31948800  1
  O  O80  1  0.60199700  0.37902600  0.79781600  1
  O  O81  1  0.39800300  0.62097400  0.20218400  1
  O  O82  1  0.06282900  0.42058800  0.79381400  1
  O  O83  1  0.93717100  0.57941200  0.20618600  1
  O  O84  1  0.05104400  0.33607000  0.98450300  1
  O  O85  1  0.94895600  0.66393000  0.01549700  1
  O  O86  1  0.78442400  0.39761500  0.52836400  1
  O  O87  1  0.21557600  0.60238500  0.47163600  1
  O  O88  1  0.52703800  0.24174100  0.60013200  1
  O  O89  1  0.47296200  0.75825900  0.39986800  1
  O  O90  1  0.52025000  0.16344400  0.77025700  1
  O  O91  1  0.47975000  0.83655600  0.22974300  1
  O  O92  1  0.76371100  0.17589700  0.03493400  1
  O  O93  1  0.23628900  0.82410300  0.96506600  1
  O  O94  1  0.95919900  0.13461400  0.94628800  1
  O  O95  1  0.04080100  0.86538600  0.05371200  1
  O  O96  1  0.70245600  0.04817800  0.84710600  1
  O  O97  1  0.29754400  0.95182200  0.15289400  1
  O  O98  1  0.71030800  0.19566000  0.50840200  1
  O  O99  1  0.28969200  0.80434000  0.49159800  1
  O  O100  1  0.97229200  0.27969200  0.60731500  1
  O  O101  1  0.02770800  0.72030800  0.39268500  1
  O  O102  1  0.85839600  0.52727500  0.71770200  1
  O  O103  1  0.14160400  0.47272500  0.28229800  1
  O  O104  1  0.59778600  0.44391400  0.62379000  1
  O  O105  1  0.40221400  0.55608600  0.37621000  1
  O  O106  1  0.84203500  0.38189100  0.06118500  1
  O  O107  1  0.15796500  0.61810900  0.93881500  1
  O  O108  1  0.58230300  0.29546200  0.95654900  1
  O  O109  1  0.41769700  0.70453800  0.04345100  1
  O  O110  1  0.02617100  0.24989200  0.15090000  1
  O  O111  1  0.97382900  0.75010800  0.84910000  1
  O  O112  1  0.05336600  0.48901300  0.61453000  1
  O  O113  1  0.94663400  0.51098700  0.38547000  1
  O  O114  1  0.51488200  0.32146100  0.42177700  1
  O  O115  1  0.48511800  0.67853900  0.57822300  1
  O  O116  1  0.49658000  0.08715100  0.94364100  1
  O  O117  1  0.50342000  0.91284900  0.05635900  1
  O  O118  1  0.90537500  0.98064700  0.76396300  1
  O  O119  1  0.09462500  0.01935300  0.23603700  1
  O  O120  1  0.90587700  0.06539600  0.56210200  1
  O  O121  1  0.09412300  0.93460400  0.43789800  1
  O  O122  1  0.66335700  0.60230500  0.80511700  1
  O  O123  1  0.33664300  0.39769500  0.19488300  1
  O  O124  1  0.65299500  0.51398400  0.00382700  1
  O  O125  1  0.34700500  0.48601600  0.99617300  1
  O  O126  1  0.88516100  0.23642000  0.35154100  1
  O  O127  1  0.11483900  0.76358000  0.64845900  1
  O  O128  1  0.62359700  0.06341000  0.30875100  1
  O  O129  1  0.37640300  0.93659000  0.69124900  1
  O  O130  1  0.77874800  0.84804700  0.21639500  1
  O  O131  1  0.22125200  0.15195300  0.78360500  1
  O  O132  1  0.78797400  0.91426400  0.98507300  1
  O  O133  1  0.21202600  0.08573600  0.01492700  1
  O  O134  1  0.48961700  0.83082000  0.83206800  1
  O  O135  1  0.51038300  0.16918000  0.16793200  1
  O  O136  1  0.64883700  0.90694000  0.57450900  1
  O  O137  1  0.35116300  0.09306000  0.42549100  1
  O  O138  1  0.70375700  0.65497500  0.26427700  1
  O  O139  1  0.29624300  0.34502500  0.73572300  1
  O  O140  1  0.69794500  0.34542100  0.22254800  1
  O  O141  1  0.30205500  0.65457900  0.77745200  1
  O  O142  1  0.78611800  0.67635300  0.57458800  1
  O  O143  1  0.21388200  0.32364700  0.42541200  1
