# generated using pymatgen
data_BaC4(O2F3)2
_symmetry_space_group_name_H-M   'P 1'
_cell_length_a   12.96673324
_cell_length_b   12.96673324
_cell_length_c   12.96673338
_cell_angle_alpha   112.75921732
_cell_angle_beta   112.75921732
_cell_angle_gamma   112.75921640
_symmetry_Int_Tables_number   1
_chemical_formula_structural   BaC4(O2F3)2
_chemical_formula_sum   'Ba6 C24 O24 F36'
_cell_volume   1438.29692412
_cell_formula_units_Z   6
loop_
 _symmetry_equiv_pos_site_id
 _symmetry_equiv_pos_as_xyz
  1  'x, y, z'
loop_
 _atom_site_type_symbol
 _atom_site_label
 _atom_site_symmetry_multiplicity
 _atom_site_fract_x
 _atom_site_fract_y
 _atom_site_fract_z
 _atom_site_occupancy
  Ba  Ba0  1  0.48599500  0.05226700  0.84483500  1
  Ba  Ba1  1  0.05226700  0.84483500  0.48599500  1
  Ba  Ba2  1  0.84483500  0.48599500  0.05226700  1
  Ba  Ba3  1  0.51400500  0.94773300  0.15516500  1
  Ba  Ba4  1  0.94773300  0.15516500  0.51400500  1
  Ba  Ba5  1  0.15516500  0.51400500  0.94773300  1
  C  C6  1  0.20765700  0.86821300  0.82574600  1
  C  C7  1  0.86821300  0.82574600  0.20765700  1
  C  C8  1  0.82574600  0.20765700  0.86821300  1
  C  C9  1  0.79234300  0.13178700  0.17425400  1
  C  C10  1  0.13178700  0.17425400  0.79234300  1
  C  C11  1  0.17425400  0.79234300  0.13178700  1
  C  C12  1  0.06875400  0.77195300  0.80266100  1
  C  C13  1  0.77195300  0.80266100  0.06875400  1
  C  C14  1  0.80266100  0.06875400  0.77195300  1
  C  C15  1  0.93124600  0.22804700  0.19733900  1
  C  C16  1  0.22804700  0.19733900  0.93124600  1
  C  C17  1  0.19733900  0.93124600  0.22804700  1
  C  C18  1  0.74207700  0.42266400  0.23678400  1
  C  C19  1  0.42266400  0.23678400  0.74207700  1
  C  C20  1  0.23678400  0.74207700  0.42266400  1
  C  C21  1  0.25792300  0.57733600  0.76321600  1
  C  C22  1  0.57733600  0.76321600  0.25792300  1
  C  C23  1  0.76321600  0.25792300  0.57733600  1
  C  C24  1  0.69829600  0.38245600  0.32023600  1
  C  C25  1  0.38245600  0.32023600  0.69829600  1
  C  C26  1  0.32023600  0.69829600  0.38245600  1
  C  C27  1  0.30170400  0.61754400  0.67976400  1
  C  C28  1  0.61754400  0.67976400  0.30170400  1
  C  C29  1  0.67976400  0.30170400  0.61754400  1
  O  O30  1  0.18823600  0.86739400  0.72198400  1
  O  O31  1  0.86739400  0.72198400  0.18823600  1
  O  O32  1  0.72198400  0.18823600  0.86739400  1
  O  O33  1  0.81176400  0.13260600  0.27801600  1
  O  O34  1  0.13260600  0.27801600  0.81176400  1
  O  O35  1  0.27801600  0.81176400  0.13260600  1
  O  O36  1  0.32745000  0.93623000  0.94339400  1
  O  O37  1  0.93623000  0.94339400  0.32745000  1
  O  O38  1  0.94339400  0.32745000  0.93623000  1
  O  O39  1  0.67255000  0.06377000  0.05660600  1
  O  O40  1  0.06377000  0.05660600  0.67255000  1
  O  O41  1  0.05660600  0.67255000  0.06377000  1
  O  O42  1  0.67453700  0.32247300  0.10640800  1
  O  O43  1  0.32247300  0.10640800  0.67453700  1
  O  O44  1  0.10640800  0.67453700  0.32247300  1
  O  O45  1  0.32546300  0.67752700  0.89359200  1
  O  O46  1  0.67752700  0.89359200  0.32546300  1
  O  O47  1  0.89359200  0.32546300  0.67752700  1
  O  O48  1  0.84462700  0.55347700  0.30974800  1
  O  O49  1  0.55347700  0.30974800  0.84462700  1
  O  O50  1  0.30974800  0.84462700  0.55347700  1
  O  O51  1  0.15537300  0.44652300  0.69025200  1
  O  O52  1  0.44652300  0.69025200  0.15537300  1
  O  O53  1  0.69025200  0.15537300  0.44652300  1
  F  F54  1  0.94958500  0.73068100  0.68925000  1
  F  F55  1  0.73068100  0.68925000  0.94958500  1
  F  F56  1  0.68925000  0.94958500  0.73068100  1
  F  F57  1  0.05041500  0.26931900  0.31075000  1
  F  F58  1  0.26931900  0.31075000  0.05041500  1
  F  F59  1  0.31075000  0.05041500  0.26931900  1
  F  F60  1  0.04699100  0.64866500  0.77537300  1
  F  F61  1  0.64866500  0.77537300  0.04699100  1
  F  F62  1  0.77537300  0.04699100  0.64866500  1
  F  F63  1  0.95300900  0.35133500  0.22462700  1
  F  F64  1  0.35133500  0.22462700  0.95300900  1
  F  F65  1  0.22462700  0.95300900  0.35133500  1
  F  F66  1  0.07886000  0.83950100  0.92045100  1
  F  F67  1  0.83950100  0.92045100  0.07886000  1
  F  F68  1  0.92045100  0.07886000  0.83950100  1
  F  F69  1  0.92114000  0.16049900  0.07954900  1
  F  F70  1  0.16049900  0.07954900  0.92114000  1
  F  F71  1  0.07954900  0.92114000  0.16049900  1
  F  F72  1  0.58560800  0.23773000  0.23371600  1
  F  F73  1  0.23773000  0.23371600  0.58560800  1
  F  F74  1  0.23371600  0.58560800  0.23773000  1
  F  F75  1  0.41439200  0.76227000  0.76628400  1
  F  F76  1  0.76227000  0.76628400  0.41439200  1
  F  F77  1  0.76628400  0.41439200  0.76227000  1
  F  F78  1  0.81104200  0.41288400  0.43139800  1
  F  F79  1  0.41288400  0.43139800  0.81104200  1
  F  F80  1  0.43139800  0.81104200  0.41288400  1
  F  F81  1  0.18895800  0.58711600  0.56860200  1
  F  F82  1  0.58711600  0.56860200  0.18895800  1
  F  F83  1  0.56860200  0.18895800  0.58711600  1
  F  F84  1  0.65743500  0.45531700  0.37435200  1
  F  F85  1  0.45531700  0.37435200  0.65743500  1
  F  F86  1  0.37435200  0.65743500  0.45531700  1
  F  F87  1  0.34256500  0.54468300  0.62564800  1
  F  F88  1  0.54468300  0.62564800  0.34256500  1
  F  F89  1  0.62564800  0.34256500  0.54468300  1
