# generated using pymatgen
data_H6C3S(NO)2
_symmetry_space_group_name_H-M   'P 1'
_cell_length_a   11.25663700
_cell_length_b   5.58705300
_cell_length_c   15.29703500
_cell_angle_alpha   90.00000000
_cell_angle_beta   125.65106806
_cell_angle_gamma   90.00000000
_symmetry_Int_Tables_number   1
_chemical_formula_structural   H6C3S(NO)2
_chemical_formula_sum   'H24 C12 S4 N8 O8'
_cell_volume   781.74604142
_cell_formula_units_Z   4
loop_
 _symmetry_equiv_pos_site_id
 _symmetry_equiv_pos_as_xyz
  1  'x, y, z'
loop_
 _atom_site_type_symbol
 _atom_site_label
 _atom_site_symmetry_multiplicity
 _atom_site_fract_x
 _atom_site_fract_y
 _atom_site_fract_z
 _atom_site_occupancy
  H  H0  1  0.38529100  0.62570800  0.06849600  1
  H  H1  1  0.38529100  0.87429200  0.56849600  1
  H  H2  1  0.61470900  0.37429200  0.93150400  1
  H  H3  1  0.61470900  0.12570800  0.43150400  1
  H  H4  1  0.47232800  0.77608200  0.01687700  1
  H  H5  1  0.47232800  0.72391800  0.51687700  1
  H  H6  1  0.52767200  0.22391800  0.98312300  1
  H  H7  1  0.52767200  0.27608200  0.48312300  1
  H  H8  1  0.28400300  0.16435400  0.13073600  1
  H  H9  1  0.28400300  0.33564600  0.63073600  1
  H  H10  1  0.71599700  0.83564600  0.86926400  1
  H  H11  1  0.71599700  0.66435400  0.36926400  1
  H  H12  1  0.01681200  0.54102000  0.12821500  1
  H  H13  1  0.01681200  0.95898000  0.62821500  1
  H  H14  1  0.98318800  0.45898000  0.87178500  1
  H  H15  1  0.98318800  0.04102000  0.37178500  1
  H  H16  1  0.02914600  0.67087500  0.24028100  1
  H  H17  1  0.02914600  0.82912500  0.74028100  1
  H  H18  1  0.97085400  0.32912500  0.75971900  1
  H  H19  1  0.97085400  0.17087500  0.25971900  1
  H  H20  1  0.18321100  0.51418200  0.26189700  1
  H  H21  1  0.18321100  0.98581800  0.76189700  1
  H  H22  1  0.81678900  0.48581800  0.73810300  1
  H  H23  1  0.81678900  0.01418200  0.23810300  1
  C  C24  1  0.08960900  0.62873400  0.20632100  1
  C  C25  1  0.08960900  0.87126600  0.70632100  1
  C  C26  1  0.91039100  0.37126600  0.79367900  1
  C  C27  1  0.91039100  0.12873400  0.29367900  1
  C  C28  1  0.38348900  0.99444100  0.07027300  1
  C  C29  1  0.38348900  0.50555900  0.57027300  1
  C  C30  1  0.61651100  0.00555900  0.92972700  1
  C  C31  1  0.61651100  0.49444100  0.42972700  1
  C  C32  1  0.24862500  0.80699200  0.13887200  1
  C  C33  1  0.24862500  0.69300800  0.63887200  1
  C  C34  1  0.75137500  0.19300800  0.86112800  1
  C  C35  1  0.75137500  0.30699200  0.36112800  1
  S  S36  1  0.15128800  0.91090200  0.19061000  1
  S  S37  1  0.15128800  0.58909800  0.69061000  1
  S  S38  1  0.84871200  0.08909800  0.80939000  1
  S  S39  1  0.84871200  0.41090200  0.30939000  1
  N  N40  1  0.41640300  0.77927100  0.05065000  1
  N  N41  1  0.41640300  0.72072900  0.55065000  1
  N  N42  1  0.58359700  0.22072900  0.94935000  1
  N  N43  1  0.58359700  0.27927100  0.44935000  1
  N  N44  1  0.30498400  0.99612000  0.11650800  1
  N  N45  1  0.30498400  0.50388000  0.61650800  1
  N  N46  1  0.69501600  0.00388000  0.88349200  1
  N  N47  1  0.69501600  0.49612000  0.38349200  1
  O  O48  1  0.41654000  0.19013300  0.05079800  1
  O  O49  1  0.41654000  0.30986700  0.55079800  1
  O  O50  1  0.58346000  0.80986700  0.94920200  1
  O  O51  1  0.58346000  0.69013300  0.44920200  1
  O  O52  1  0.26182600  0.59363800  0.12496200  1
  O  O53  1  0.26182600  0.90636200  0.62496200  1
  O  O54  1  0.73817400  0.40636200  0.87503800  1
  O  O55  1  0.73817400  0.09363800  0.37503800  1
