# generated using pymatgen
data_NiH8C4(NO3)2
_symmetry_space_group_name_H-M   'P 1'
_cell_length_a   7.61622730
_cell_length_b   10.49657500
_cell_length_c   9.10586559
_cell_angle_alpha   90.00000000
_cell_angle_beta   115.79448809
_cell_angle_gamma   90.00000000
_symmetry_Int_Tables_number   1
_chemical_formula_structural   NiH8C4(NO3)2
_chemical_formula_sum   'Ni2 H16 C8 N4 O12'
_cell_volume   655.42838361
_cell_formula_units_Z   2
loop_
 _symmetry_equiv_pos_site_id
 _symmetry_equiv_pos_as_xyz
  1  'x, y, z'
loop_
 _atom_site_type_symbol
 _atom_site_label
 _atom_site_symmetry_multiplicity
 _atom_site_fract_x
 _atom_site_fract_y
 _atom_site_fract_z
 _atom_site_occupancy
  Ni  Ni0  1  0.00000000  0.00000000  0.50000000  1
  Ni  Ni1  1  0.00000000  0.50000000  0.00000000  1
  H  H2  1  0.52935400  0.03411200  0.36978200  1
  H  H3  1  0.47064600  0.53411200  0.13021800  1
  H  H4  1  0.47064600  0.96588800  0.63021800  1
  H  H5  1  0.52935400  0.46588800  0.86978200  1
  H  H6  1  0.38148600  0.08478600  0.16790500  1
  H  H7  1  0.61851400  0.58478600  0.33209500  1
  H  H8  1  0.61851400  0.91521400  0.83209500  1
  H  H9  1  0.38148600  0.41521400  0.66790500  1
  H  H10  1  0.11589200  0.20993200  0.51713300  1
  H  H11  1  0.88410800  0.70993200  0.98286700  1
  H  H12  1  0.88410800  0.79006800  0.48286700  1
  H  H13  1  0.11589200  0.29006800  0.01713300  1
  H  H14  1  0.09791900  0.07350700  0.20023900  1
  H  H15  1  0.90208100  0.57350700  0.29976100  1
  H  H16  1  0.90208100  0.92649300  0.79976100  1
  H  H17  1  0.09791900  0.42649300  0.70023900  1
  C  C18  1  0.23618300  0.04568700  0.30372900  1
  C  C19  1  0.76381700  0.54568700  0.19627000  1
  C  C20  1  0.76381700  0.95431300  0.69627100  1
  C  C21  1  0.23618300  0.45431300  0.80372900  1
  C  C22  1  0.29770800  0.13681600  0.84646200  1
  C  C23  1  0.70229200  0.63681600  0.65353800  1
  C  C24  1  0.70229200  0.86318400  0.15353800  1
  C  C25  1  0.29770800  0.36318400  0.34646200  1
  N  N26  1  0.39376100  0.05204100  0.27664800  1
  N  N27  1  0.60623900  0.55204100  0.22335200  1
  N  N28  1  0.60623900  0.94795900  0.72335200  1
  N  N29  1  0.39376100  0.44795900  0.77664800  1
  O  O30  1  0.27191700  0.03638600  0.88388000  1
  O  O31  1  0.72808300  0.53638600  0.61612000  1
  O  O32  1  0.72808300  0.96361400  0.11612000  1
  O  O33  1  0.27191700  0.46361400  0.38388000  1
  O  O34  1  0.97640900  0.82784800  0.44784000  1
  O  O35  1  0.02359100  0.32784800  0.05216000  1
  O  O36  1  0.02359100  0.17215200  0.55216000  1
  O  O37  1  0.97640900  0.67215200  0.94784000  1
  O  O38  1  0.24108100  0.01165200  0.43800200  1
  O  O39  1  0.75891900  0.51165200  0.06199800  1
  O  O40  1  0.75891900  0.98834800  0.56199800  1
  O  O41  1  0.24108100  0.48834800  0.93800200  1
