# generated using pymatgen
data_Pr3Ge13Pt4
_symmetry_space_group_name_H-M   'P 1'
_cell_length_a   9.23712156
_cell_length_b   9.23712156
_cell_length_c   9.26305873
_cell_angle_alpha   89.70800367
_cell_angle_beta   89.70800367
_cell_angle_gamma   90.03445660
_symmetry_Int_Tables_number   1
_chemical_formula_structural   Pr3Ge13Pt4
_chemical_formula_sum   'Pr6 Ge26 Pt8'
_cell_volume   790.34438191
_cell_formula_units_Z   2
loop_
 _symmetry_equiv_pos_site_id
 _symmetry_equiv_pos_as_xyz
  1  'x, y, z'
loop_
 _atom_site_type_symbol
 _atom_site_label
 _atom_site_symmetry_multiplicity
 _atom_site_fract_x
 _atom_site_fract_y
 _atom_site_fract_z
 _atom_site_occupancy
  Pr  Pr0  1  0.00019300  0.99944000  0.50301300  1
  Pr  Pr1  1  0.99944000  0.00019300  0.00301300  1
  Pr  Pr2  1  0.74847800  0.49991300  0.25186000  1
  Pr  Pr3  1  0.49991300  0.74847800  0.75186000  1
  Pr  Pr4  1  0.49928800  0.25490500  0.75394000  1
  Pr  Pr5  1  0.25490500  0.49928800  0.25394000  1
  Ge  Ge6  1  0.00242800  0.49770600  0.74977000  1
  Ge  Ge7  1  0.49770600  0.00242800  0.24977000  1
  Ge  Ge8  1  0.15117500  0.17067100  0.25513900  1
  Ge  Ge9  1  0.17067100  0.15117500  0.75513900  1
  Ge  Ge10  1  0.16651000  0.84046700  0.75293400  1
  Ge  Ge11  1  0.84046700  0.16651000  0.25293400  1
  Ge  Ge12  1  0.68742400  0.50143600  0.61483400  1
  Ge  Ge13  1  0.50143600  0.68742400  0.11483400  1
  Ge  Ge14  1  0.38524900  0.00256000  0.50586500  1
  Ge  Ge15  1  0.00256000  0.38524900  0.00586500  1
  Ge  Ge16  1  0.99978700  0.66845500  0.10075000  1
  Ge  Ge17  1  0.66845500  0.99978700  0.60075000  1
  Ge  Ge18  1  0.50209700  0.26033900  0.14160100  1
  Ge  Ge19  1  0.26033900  0.50209700  0.64160100  1
  Ge  Ge20  1  0.00131100  0.66535500  0.40976400  1
  Ge  Ge21  1  0.66535500  0.00131100  0.90976400  1
  Ge  Ge22  1  0.21296400  0.87187400  0.25285000  1
  Ge  Ge23  1  0.87187400  0.21296400  0.75285000  1
  Ge  Ge24  1  0.37817200  0.99674500  0.98624500  1
  Ge  Ge25  1  0.99674500  0.37817200  0.48624500  1
  Ge  Ge26  1  0.66261200  0.50193300  0.91788600  1
  Ge  Ge27  1  0.50193300  0.66261200  0.41788600  1
  Ge  Ge28  1  0.88535400  0.74996700  0.75352400  1
  Ge  Ge29  1  0.74996700  0.88535400  0.25352400  1
  Ge  Ge30  1  0.49691900  0.34650400  0.42318400  1
  Ge  Ge31  1  0.34650400  0.49691900  0.92318400  1
  Pt  Pt32  1  0.74884300  0.25054800  0.50369400  1
  Pt  Pt33  1  0.25054800  0.74884300  0.00369400  1
  Pt  Pt34  1  0.25252600  0.74824000  0.50286800  1
  Pt  Pt35  1  0.74824000  0.25252600  0.00286800  1
  Pt  Pt36  1  0.75488500  0.75202500  0.50186100  1
  Pt  Pt37  1  0.75202500  0.75488500  0.00186100  1
  Pt  Pt38  1  0.24960900  0.24709300  0.00671800  1
  Pt  Pt39  1  0.24709300  0.24960900  0.50671800  1
