# generated using pymatgen
data_KB11H13C2NO
_symmetry_space_group_name_H-M   'P 1'
_cell_length_a   7.66819388
_cell_length_b   7.66819388
_cell_length_c   12.13618838
_cell_angle_alpha   82.57895456
_cell_angle_beta   82.57895456
_cell_angle_gamma   82.34046046
_symmetry_Int_Tables_number   1
_chemical_formula_structural   KB11H13C2NO
_chemical_formula_sum   'K2 B22 H26 C4 N2 O2'
_cell_volume   696.76641010
_cell_formula_units_Z   2
loop_
 _symmetry_equiv_pos_site_id
 _symmetry_equiv_pos_as_xyz
  1  'x, y, z'
loop_
 _atom_site_type_symbol
 _atom_site_label
 _atom_site_symmetry_multiplicity
 _atom_site_fract_x
 _atom_site_fract_y
 _atom_site_fract_z
 _atom_site_occupancy
  K  K0  1  0.24416200  0.24416200  0.16851200  1
  K  K1  1  0.75583800  0.75583800  0.83148800  1
  B  B2  1  0.35026800  0.35026800  0.87439500  1
  B  B3  1  0.64973200  0.64973200  0.12560500  1
  B  B4  1  0.13099300  0.13099300  0.79476800  1
  B  B5  1  0.86900700  0.86900700  0.20523200  1
  B  B6  1  0.25194800  0.42874600  0.65146100  1
  B  B7  1  0.42874600  0.25194800  0.65146100  1
  B  B8  1  0.74805200  0.57125400  0.34853900  1
  B  B9  1  0.57125400  0.74805200  0.34853900  1
  B  B10  1  0.42695500  0.42695500  0.73351900  1
  B  B11  1  0.57304500  0.57304500  0.26648100  1
  B  B12  1  0.12789000  0.30469100  0.87809100  1
  B  B13  1  0.30469100  0.12789000  0.87809100  1
  B  B14  1  0.87211000  0.69530900  0.12190900  1
  B  B15  1  0.69530900  0.87211000  0.12190900  1
  B  B16  1  0.06827800  0.35409700  0.74071000  1
  B  B17  1  0.35409700  0.06827800  0.74071000  1
  B  B18  1  0.93172200  0.64590300  0.25929000  1
  B  B19  1  0.64590300  0.93172200  0.25929000  1
  B  B20  1  0.20373300  0.48947500  0.78924500  1
  B  B21  1  0.48947500  0.20373300  0.78924500  1
  B  B22  1  0.79626700  0.51052500  0.21075500  1
  B  B23  1  0.51052500  0.79626700  0.21075500  1
  H  H24  1  0.05448500  0.05448500  0.59564900  1
  H  H25  1  0.94551500  0.94551500  0.40435100  1
  H  H26  1  0.29090200  0.29090200  0.45331800  1
  H  H27  1  0.70909800  0.70909800  0.54668200  1
  H  H28  1  0.40206100  0.40206100  0.95213800  1
  H  H29  1  0.59793900  0.59793900  0.04786200  1
  H  H30  1  0.02682400  0.02682400  0.80075500  1
  H  H31  1  0.97317600  0.97317600  0.19924500  1
  H  H32  1  0.22690900  0.51989700  0.56641500  1
  H  H33  1  0.51989700  0.22690900  0.56641500  1
  H  H34  1  0.77309100  0.48010300  0.43358500  1
  H  H35  1  0.48010300  0.77309100  0.43358500  1
  H  H36  1  0.53206300  0.53206300  0.70899000  1
  H  H37  1  0.46793700  0.46793700  0.29101000  1
  H  H38  1  0.01829800  0.32102300  0.95702900  1
  H  H39  1  0.32102300  0.01829800  0.95702900  1
  H  H40  1  0.98170200  0.67897700  0.04297100  1
  H  H41  1  0.67897700  0.98170200  0.04297100  1
  H  H42  1  0.92369100  0.39386200  0.71221100  1
  H  H43  1  0.39386200  0.92369100  0.71221100  1
  H  H44  1  0.07630900  0.60613800  0.28778900  1
  H  H45  1  0.60613800  0.07630900  0.28778900  1
  H  H46  1  0.14937300  0.63945800  0.80376000  1
  H  H47  1  0.63945800  0.14937300  0.80376000  1
  H  H48  1  0.85062700  0.36054200  0.19624000  1
  H  H49  1  0.36054200  0.85062700  0.19624000  1
  C  C50  1  0.21160800  0.21160800  0.66377400  1
  C  C51  1  0.78839200  0.78839200  0.33622600  1
  C  C52  1  0.19381700  0.19381700  0.46580300  1
  C  C53  1  0.80618300  0.80618300  0.53419700  1
  N  N54  1  0.14457600  0.14457600  0.57444100  1
  N  N55  1  0.85542400  0.85542400  0.42555900  1
  O  O56  1  0.13834500  0.13834500  0.38628400  1
  O  O57  1  0.86165500  0.86165500  0.61371600  1
