# generated using pymatgen
data_Ba5Zn2B4(O6F)2
_symmetry_space_group_name_H-M   'P 1'
_cell_length_a   13.57446159
_cell_length_b   13.57446159
_cell_length_c   8.13254455
_cell_angle_alpha   74.98776412
_cell_angle_beta   74.98776412
_cell_angle_gamma   31.48913321
_symmetry_Int_Tables_number   1
_chemical_formula_structural   Ba5Zn2B4(O6F)2
_chemical_formula_sum   'Ba10 Zn4 B8 O24 F4'
_cell_volume   753.86989389
_cell_formula_units_Z   2
loop_
 _symmetry_equiv_pos_site_id
 _symmetry_equiv_pos_as_xyz
  1  'x, y, z'
loop_
 _atom_site_type_symbol
 _atom_site_label
 _atom_site_symmetry_multiplicity
 _atom_site_fract_x
 _atom_site_fract_y
 _atom_site_fract_z
 _atom_site_occupancy
  Ba  Ba0  1  0.92660900  0.73839000  0.90071600  1
  Ba  Ba1  1  0.26161000  0.07339100  0.59928400  1
  Ba  Ba2  1  0.07339100  0.26161000  0.09928400  1
  Ba  Ba3  1  0.73839000  0.92660900  0.40071600  1
  Ba  Ba4  1  0.31424300  0.53683400  0.16455300  1
  Ba  Ba5  1  0.46316600  0.68575700  0.33544700  1
  Ba  Ba6  1  0.68575700  0.46316600  0.83544700  1
  Ba  Ba7  1  0.53683400  0.31424300  0.66455300  1
  Ba  Ba8  1  0.06944900  0.93055100  0.75000000  1
  Ba  Ba9  1  0.93055100  0.06944900  0.25000000  1
  Zn  Zn10  1  0.15518500  0.46240300  0.51671100  1
  Zn  Zn11  1  0.53759700  0.84481500  0.98328900  1
  Zn  Zn12  1  0.84481500  0.53759700  0.48328900  1
  Zn  Zn13  1  0.46240300  0.15518500  0.01671100  1
  B  B14  1  0.11443600  0.73242900  0.53017000  1
  B  B15  1  0.26757100  0.88556400  0.96983000  1
  B  B16  1  0.88556400  0.26757100  0.46983000  1
  B  B17  1  0.73242900  0.11443600  0.03017000  1
  B  B18  1  0.12205100  0.42867700  0.22449200  1
  B  B19  1  0.57132300  0.87794900  0.27550800  1
  B  B20  1  0.87794900  0.57132300  0.77550800  1
  B  B21  1  0.42867700  0.12205100  0.72449200  1
  O  O22  1  0.27746100  0.77220500  0.04118400  1
  O  O23  1  0.22779500  0.72253900  0.45881600  1
  O  O24  1  0.72253900  0.22779500  0.95881600  1
  O  O25  1  0.77220500  0.27746100  0.54118400  1
  O  O26  1  0.37538500  0.18920800  0.55720400  1
  O  O27  1  0.81079200  0.62461500  0.94279600  1
  O  O28  1  0.62461500  0.81079200  0.44279600  1
  O  O29  1  0.18920800  0.37538500  0.05720400  1
  O  O30  1  0.09258500  0.54442900  0.27168700  1
  O  O31  1  0.45557100  0.90741500  0.22831300  1
  O  O32  1  0.90741500  0.45557100  0.72831300  1
  O  O33  1  0.54442900  0.09258500  0.77168700  1
  O  O34  1  0.91883900  0.63105600  0.66452800  1
  O  O35  1  0.36894400  0.08116100  0.83547200  1
  O  O36  1  0.08116100  0.36894400  0.33547200  1
  O  O37  1  0.63105600  0.91883900  0.16452800  1
  O  O38  1  0.92860300  0.89846100  0.59102700  1
  O  O39  1  0.10153900  0.07139700  0.90897300  1
  O  O40  1  0.07139700  0.10153900  0.40897300  1
  O  O41  1  0.89846100  0.92860300  0.09102700  1
  O  O42  1  0.19784800  0.56712400  0.53184200  1
  O  O43  1  0.43287600  0.80215200  0.96815800  1
  O  O44  1  0.80215200  0.43287600  0.46815800  1
  O  O45  1  0.56712400  0.19784800  0.03184200  1
  F  F46  1  0.23690600  0.60880800  0.85134700  1
  F  F47  1  0.39119200  0.76309400  0.64865300  1
  F  F48  1  0.76309400  0.39119200  0.14865300  1
  F  F49  1  0.60880800  0.23690600  0.35134700  1
