# generated using pymatgen
data_Na2Fe3(PO4)3
_symmetry_space_group_name_H-M   'P 1'
_cell_length_a   5.00996700
_cell_length_b   12.13303400
_cell_length_c   16.07969150
_cell_angle_alpha   80.75551944
_cell_angle_beta   90.00000000
_cell_angle_gamma   90.00000000
_symmetry_Int_Tables_number   1
_chemical_formula_structural   Na2Fe3(PO4)3
_chemical_formula_sum   'Na8 Fe12 P12 O48'
_cell_volume   964.72683125
_cell_formula_units_Z   4
loop_
 _symmetry_equiv_pos_site_id
 _symmetry_equiv_pos_as_xyz
  1  'x, y, z'
loop_
 _atom_site_type_symbol
 _atom_site_label
 _atom_site_symmetry_multiplicity
 _atom_site_fract_x
 _atom_site_fract_y
 _atom_site_fract_z
 _atom_site_occupancy
  Na  Na0  1  0.51483300  0.13996700  0.84150800  1
  Na  Na1  1  0.98516700  0.13996700  0.34150800  1
  Na  Na2  1  0.48516700  0.86003300  0.15849200  1
  Na  Na3  1  0.01483300  0.86003300  0.65849200  1
  Na  Na4  1  0.50229100  0.33422800  0.66250600  1
  Na  Na5  1  0.99770900  0.33422800  0.16250600  1
  Na  Na6  1  0.49770900  0.66577200  0.33749400  1
  Na  Na7  1  0.00229100  0.66577200  0.83749400  1
  Fe  Fe8  1  0.51840700  0.94021800  0.34540000  1
  Fe  Fe9  1  0.98159300  0.94021800  0.84540000  1
  Fe  Fe10  1  0.48159300  0.05978200  0.65460000  1
  Fe  Fe11  1  0.01840700  0.05978200  0.15460000  1
  Fe  Fe12  1  0.51550100  0.60280100  0.67746800  1
  Fe  Fe13  1  0.98449900  0.60280100  0.17746800  1
  Fe  Fe14  1  0.48449900  0.39719900  0.32253200  1
  Fe  Fe15  1  0.01550100  0.39719900  0.82253200  1
  Fe  Fe16  1  0.49621900  0.72455700  0.99125300  1
  Fe  Fe17  1  0.00378100  0.72455700  0.49125300  1
  Fe  Fe18  1  0.50378100  0.27544300  0.00874700  1
  Fe  Fe19  1  0.99621900  0.27544300  0.50874700  1
  P  P20  1  0.05746300  0.81995800  0.28762100  1
  P  P21  1  0.44253700  0.81995800  0.78762100  1
  P  P22  1  0.94253700  0.18004200  0.71237900  1
  P  P23  1  0.55746300  0.18004200  0.21237900  1
  P  P24  1  0.93438300  0.84194000  0.04567800  1
  P  P25  1  0.56561700  0.84194000  0.54567800  1
  P  P26  1  0.06561700  0.15806000  0.95432200  1
  P  P27  1  0.43438300  0.15806000  0.45432200  1
  P  P28  1  0.05399200  0.48659100  0.61531800  1
  P  P29  1  0.44600800  0.48659100  0.11531800  1
  P  P30  1  0.94600800  0.51340900  0.38468200  1
  P  P31  1  0.55399200  0.51340900  0.88468200  1
  O  O32  1  0.75065700  0.82816900  0.28771800  1
  O  O33  1  0.74934300  0.82816900  0.78771800  1
  O  O34  1  0.24934300  0.17183100  0.71228200  1
  O  O35  1  0.25065700  0.17183100  0.21228200  1
  O  O36  1  0.23800300  0.82565000  0.04036600  1
  O  O37  1  0.26199700  0.82565000  0.54036600  1
  O  O38  1  0.76199700  0.17435000  0.95963400  1
  O  O39  1  0.73800300  0.17435000  0.45963400  1
  O  O40  1  0.75054400  0.49005500  0.62107400  1
  O  O41  1  0.74945600  0.49005500  0.12107400  1
  O  O42  1  0.24945600  0.50994500  0.37892600  1
  O  O43  1  0.25054400  0.50994500  0.87892600  1
  O  O44  1  0.37047200  0.06192000  0.40598700  1
  O  O45  1  0.12952800  0.06192000  0.90598700  1
  O  O46  1  0.62952800  0.93808000  0.59401300  1
  O  O47  1  0.87047200  0.93808000  0.09401300  1
  O  O48  1  0.64895300  0.60974600  0.93163900  1
  O  O49  1  0.85104700  0.60974600  0.43163900  1
  O  O50  1  0.35104700  0.39025400  0.06836100  1
  O  O51  1  0.14895300  0.39025400  0.56836100  1
  O  O52  1  0.34225600  0.73154200  0.73527700  1
  O  O53  1  0.15774400  0.73154200  0.23527700  1
  O  O54  1  0.65774400  0.26845800  0.26472300  1
  O  O55  1  0.84225600  0.26845800  0.76472300  1
  O  O56  1  0.17932500  0.79209900  0.37910200  1
  O  O57  1  0.32067500  0.79209900  0.87910200  1
  O  O58  1  0.82067500  0.20790100  0.62089800  1
  O  O59  1  0.67932500  0.20790100  0.12089800  1
  O  O60  1  0.80549900  0.06609700  0.74856700  1
  O  O61  1  0.69450100  0.06609700  0.24856700  1
  O  O62  1  0.19450100  0.93390300  0.25143300  1
  O  O63  1  0.30549900  0.93390300  0.75143300  1
  O  O64  1  0.19581000  0.46552300  0.70390100  1
  O  O65  1  0.30419000  0.46552300  0.20390100  1
  O  O66  1  0.80419000  0.53447700  0.29609900  1
  O  O67  1  0.69581000  0.53447700  0.79609900  1
  O  O68  1  0.78387800  0.73317000  0.08993200  1
  O  O69  1  0.71612200  0.73317000  0.58993200  1
  O  O70  1  0.21612200  0.26683000  0.91006800  1
  O  O71  1  0.28387800  0.26683000  0.41006800  1
  O  O72  1  0.20932300  0.14326800  0.04187900  1
  O  O73  1  0.29067700  0.14326800  0.54187900  1
  O  O74  1  0.79067700  0.85673200  0.95812100  1
  O  O75  1  0.70932300  0.85673200  0.45812100  1
  O  O76  1  0.82032000  0.39916600  0.42704500  1
  O  O77  1  0.67968000  0.39916600  0.92704500  1
  O  O78  1  0.17968000  0.60083400  0.57295500  1
  O  O79  1  0.32032000  0.60083400  0.07295500  1
