# generated using pymatgen
data_CoH10C4(NO2)4
_symmetry_space_group_name_H-M   'P 1'
_cell_length_a   8.38252700
_cell_length_b   10.00782000
_cell_length_c   12.43978000
_cell_angle_alpha   90.00000000
_cell_angle_beta   90.00000000
_cell_angle_gamma   90.00000000
_symmetry_Int_Tables_number   1
_chemical_formula_structural   CoH10C4(NO2)4
_chemical_formula_sum   'Co4 H40 C16 N16 O32'
_cell_volume   1043.58336175
_cell_formula_units_Z   4
loop_
 _symmetry_equiv_pos_site_id
 _symmetry_equiv_pos_as_xyz
  1  'x, y, z'
loop_
 _atom_site_type_symbol
 _atom_site_label
 _atom_site_symmetry_multiplicity
 _atom_site_fract_x
 _atom_site_fract_y
 _atom_site_fract_z
 _atom_site_occupancy
  Co  Co0  1  0.71724300  0.06294700  0.53781100  1
  Co  Co1  1  0.28275700  0.93705300  0.03781100  1
  Co  Co2  1  0.21724300  0.43705300  0.03781100  1
  Co  Co3  1  0.78275700  0.56294700  0.53781100  1
  H  H4  1  0.82478600  0.88926300  0.38986600  1
  H  H5  1  0.17521400  0.11073700  0.88986600  1
  H  H6  1  0.32478600  0.61073700  0.88986600  1
  H  H7  1  0.67521400  0.38926300  0.38986600  1
  H  H8  1  0.89488100  0.84524600  0.51117900  1
  H  H9  1  0.10511900  0.15475400  0.01117900  1
  H  H10  1  0.39488100  0.65475400  0.01117900  1
  H  H11  1  0.60511900  0.34524600  0.51117900  1
  H  H12  1  0.11773600  0.92981400  0.42414800  1
  H  H13  1  0.88226400  0.07018600  0.92414800  1
  H  H14  1  0.61773600  0.57018600  0.92414800  1
  H  H15  1  0.38226400  0.42981400  0.42414800  1
  H  H16  1  0.44579600  0.89785800  0.54169000  1
  H  H17  1  0.55420400  0.10214200  0.04169000  1
  H  H18  1  0.94579600  0.60214200  0.04169000  1
  H  H19  1  0.05420400  0.39785800  0.54169000  1
  H  H20  1  0.54648700  0.88408100  0.65539100  1
  H  H21  1  0.45351300  0.11591900  0.15539100  1
  H  H22  1  0.04648700  0.61591900  0.15539100  1
  H  H23  1  0.95351300  0.38408100  0.65539100  1
  H  H24  1  0.30011600  0.01018500  0.68004000  1
  H  H25  1  0.69988400  0.98981500  0.18004000  1
  H  H26  1  0.80011600  0.48981500  0.18004000  1
  H  H27  1  0.19988400  0.51018500  0.68004000  1
  H  H28  1  0.79010300  0.99279700  0.74964700  1
  H  H29  1  0.20989700  0.00720300  0.24964700  1
  H  H30  1  0.29010300  0.50720300  0.24964700  1
  H  H31  1  0.70989700  0.49279700  0.74964700  1
  H  H32  1  0.94575200  0.97603300  0.68074300  1
  H  H33  1  0.05424800  0.02396700  0.18074300  1
  H  H34  1  0.44575200  0.52396700  0.18074300  1
  H  H35  1  0.55424800  0.47603300  0.68074300  1
  H  H36  1  0.64656300  0.16141000  0.33924300  1
  H  H37  1  0.35343700  0.83859000  0.83924300  1
  H  H38  1  0.14656300  0.33859000  0.83924300  1
  H  H39  1  0.85343700  0.66141000  0.33924300  1
  H  H40  1  0.47965800  0.10867100  0.38647200  1
  H  H41  1  0.52034200  0.89132900  0.88647200  1
  H  H42  1  0.97965800  0.39132900  0.88647200  1
  H  H43  1  0.02034200  0.60867100  0.38647200  1
  C  C44  1  0.02645200  0.12099500  0.45109700  1
  C  C45  1  0.97354800  0.87900500  0.95109700  1
  C  C46  1  0.52645200  0.37900500  0.95109700  1
  C  C47  1  0.47354800  0.62099500  0.45109700  1
  C  C48  1  0.18897800  0.18451700  0.42107900  1
  C  C49  1  0.81102200  0.81548300  0.92107900  1
  C  C50  1  0.68897800  0.31548300  0.92107900  1
  C  C51  1  0.31102200  0.68451700  0.42107900  1
  C  C52  1  0.45242700  0.17274800  0.65188600  1
  C  C53  1  0.54757300  0.82725200  0.15188600  1
  C  C54  1  0.95242700  0.32725200  0.15188600  1
  C  C55  1  0.04757300  0.67274800  0.65188600  1
  C  C56  1  0.33657000  0.27316800  0.70491000  1
  C  C57  1  0.66343000  0.72683200  0.20491000  1
  C  C58  1  0.83657000  0.22683200  0.20491000  1
  C  C59  1  0.16343000  0.77316800  0.70491000  1
  N  N60  1  0.87186300  0.92493700  0.46085400  1
  N  N61  1  0.12813700  0.07506300  0.96085400  1
  N  N62  1  0.37186300  0.57506300  0.96085400  1
  N  N63  1  0.62813700  0.42493700  0.46085400  1
  N  N64  1  0.01825900  0.98876200  0.43781600  1
  N  N65  1  0.98174100  0.01123800  0.93781600  1
  N  N66  1  0.51825900  0.51123800  0.93781600  1
  N  N67  1  0.48174100  0.48876200  0.43781600  1
  N  N68  1  0.51066900  0.95183700  0.59829400  1
  N  N69  1  0.48933100  0.04816300  0.09829400  1
  N  N70  1  0.01066900  0.54816300  0.09829400  1
  N  N71  1  0.98933100  0.45183700  0.59829400  1
  N  N72  1  0.40702900  0.04529500  0.64834500  1
  N  N73  1  0.59297100  0.95470500  0.14834500  1
  N  N74  1  0.90702900  0.45470500  0.14834500  1
  N  N75  1  0.09297100  0.54529500  0.64834500  1
  O  O76  1  0.91103600  0.18936000  0.48549700  1
  O  O77  1  0.08896400  0.81064000  0.98549700  1
  O  O78  1  0.41103600  0.31064000  0.98549700  1
  O  O79  1  0.58896400  0.68936000  0.48549700  1
  O  O80  1  0.21376800  0.30135400  0.45381900  1
  O  O81  1  0.78623200  0.69864600  0.95381900  1
  O  O82  1  0.71376800  0.19864600  0.95381900  1
  O  O83  1  0.28623200  0.80135400  0.45381900  1
  O  O84  1  0.28189000  0.10915100  0.36709400  1
  O  O85  1  0.71811000  0.89084900  0.86709400  1
  O  O86  1  0.78189000  0.39084800  0.86709400  1
  O  O87  1  0.21811000  0.60915100  0.36709400  1
  O  O88  1  0.58339700  0.21230700  0.61350000  1
  O  O89  1  0.41660300  0.78769300  0.11350000  1
  O  O90  1  0.08339700  0.28769300  0.11350000  1
  O  O91  1  0.91660300  0.71230700  0.61350000  1
  O  O92  1  0.36886200  0.39561900  0.69247900  1
  O  O93  1  0.63113800  0.60438100  0.19247900  1
  O  O94  1  0.86886200  0.10438100  0.19247900  1
  O  O95  1  0.13113800  0.89561900  0.69247900  1
  O  O96  1  0.21994700  0.22396000  0.75577700  1
  O  O97  1  0.78005300  0.77604000  0.25577700  1
  O  O98  1  0.71994700  0.27604000  0.25577700  1
  O  O99  1  0.28005300  0.72396000  0.75577700  1
  O  O100  1  0.84203900  0.02469200  0.68305400  1
  O  O101  1  0.15796100  0.97530800  0.18305400  1
  O  O102  1  0.34203900  0.47530800  0.18305400  1
  O  O103  1  0.65796100  0.52469200  0.68305400  1
  O  O104  1  0.59818900  0.09956900  0.39381800  1
  O  O105  1  0.40181100  0.90043100  0.89381800  1
  O  O106  1  0.09818900  0.40043100  0.89381800  1
  O  O107  1  0.90181100  0.59956900  0.39381800  1
