# generated using pymatgen
data_AlZnB5H20C5(NO2)5
_symmetry_space_group_name_H-M   'P 1'
_cell_length_a   7.55432200
_cell_length_b   9.30669980
_cell_length_c   13.97318333
_cell_angle_alpha   77.59534267
_cell_angle_beta   76.60262579
_cell_angle_gamma   68.03949593
_symmetry_Int_Tables_number   1
_chemical_formula_structural   AlZnB5H20C5(NO2)5
_chemical_formula_sum   'Al2 Zn2 B10 H40 C10 N10 O20'
_cell_volume   877.33170134
_cell_formula_units_Z   2
loop_
 _symmetry_equiv_pos_site_id
 _symmetry_equiv_pos_as_xyz
  1  'x, y, z'
loop_
 _atom_site_type_symbol
 _atom_site_label
 _atom_site_symmetry_multiplicity
 _atom_site_fract_x
 _atom_site_fract_y
 _atom_site_fract_z
 _atom_site_occupancy
  Al  Al0  1  0.23643700  0.55454700  0.95102400  1
  Al  Al1  1  0.33219700  0.11169600  0.44869600  1
  Zn  Zn2  1  0.64937100  0.51384300  0.56505100  1
  Zn  Zn3  1  0.62501500  0.94750000  0.08870000  1
  B  B4  1  0.00478300  0.37345800  0.90866700  1
  B  B5  1  0.67853900  0.39586800  0.89437400  1
  B  B6  1  0.96333500  0.17484700  0.82509200  1
  B  B7  1  0.11613900  0.88046500  0.82567300  1
  B  B8  1  0.15915500  0.05789400  0.67023900  1
  B  B9  1  0.16751800  0.58251500  0.17364000  1
  B  B10  1  0.21533800  0.44496700  0.34176100  1
  B  B11  1  0.06142500  0.74058900  0.31697900  1
  B  B12  1  0.10628000  0.96436500  0.37236500  1
  B  B13  1  0.77827400  0.95557500  0.39716000  1
  H  H14  1  0.70026400  0.65118300  0.74522500  1
  H  H15  1  0.74793400  0.82326300  0.68340200  1
  H  H16  1  0.99268600  0.68768900  0.55688300  1
  H  H17  1  0.03717500  0.57546600  0.67464100  1
  H  H18  1  0.32766500  0.34939600  0.61521500  1
  H  H19  1  0.34480200  0.26587100  0.74078600  1
  H  H20  1  0.70287300  0.15556400  0.69638100  1
  H  H21  1  0.59086700  0.09451600  0.62031700  1
  H  H22  1  0.67738500  0.41846500  0.34723900  1
  H  H23  1  0.82985400  0.52498000  0.34501900  1
  H  H24  1  0.75229600  0.57416000  0.18321700  1
  H  H25  1  0.50097200  0.61171500  0.22648900  1
  H  H26  1  0.95294500  0.18126000  0.08524900  1
  H  H27  1  0.92607800  0.05758000  0.19856900  1
  H  H28  1  0.64269300  0.27646500  0.21912800  1
  H  H29  1  0.62216200  0.31825600  0.09212000  1
  H  H30  1  0.56861800  0.73652000  0.88538700  1
  H  H31  1  0.40185700  0.81756500  0.98794500  1
  H  H32  1  0.40267900  0.02705800  0.84013100  1
  H  H33  1  0.65491300  0.98227300  0.83658300  1
  H  H34  1  0.59264400  0.82620100  0.55346100  1
  H  H35  1  0.45212000  0.78274900  0.65494400  1
  H  H36  1  0.97280900  0.37737500  0.63173000  1
  H  H37  1  0.02171900  0.46589700  0.51690100  1
  H  H38  1  0.50823800  0.43258400  0.75123800  1
  H  H39  1  0.32466400  0.54734800  0.69768400  1
  H  H40  1  0.68790400  0.25003700  0.48604200  1
  H  H41  1  0.86595200  0.20722900  0.54417300  1
  H  H42  1  0.41461200  0.61129700  0.43019100  1
  H  H43  1  0.54278700  0.72400100  0.41843100  1
  H  H44  1  0.68383500  0.81511500  0.26625400  1
  H  H45  1  0.45242900  0.84628100  0.26538900  1
  H  H46  1  0.97789200  0.87965800  0.10932600  1
  H  H47  1  0.93657700  0.99950500  0.00221700  1
  H  H48  1  0.38274900  0.22917800  0.15513800  1
  H  H49  1  0.47766700  0.10642600  0.24515500  1
  H  H50  1  0.82008600  0.76990600  0.95114800  1
  H  H51  1  0.71817700  0.65623800  0.03002500  1
  H  H52  1  0.33259500  0.14113000  0.97726100  1
  H  H53  1  0.53515900  0.17391200  0.92978400  1
  C  C54  1  0.73851600  0.71310600  0.67149100  1
  C  C55  1  0.93711400  0.61512300  0.62067600  1
  C  C56  1  0.42011900  0.31550200  0.67226500  1
  C  C57  1  0.61473000  0.19539400  0.63716900  1
  C  C58  1  0.68148500  0.53695400  0.34107800  1
  C  C59  1  0.62989900  0.62730900  0.23979200  1
  C  C60  1  0.86582200  0.11044800  0.12980400  1
  C  C61  1  0.65585500  0.22258500  0.15380200  1
  C  C62  1  0.53769900  0.81851100  0.93793100  1
  C  C63  1  0.51777200  0.98305900  0.88566000  1
  N  N64  1  0.58733600  0.74038500  0.61295700  1
  N  N65  1  0.92908100  0.48079600  0.58351700  1
  N  N66  1  0.45225600  0.45641800  0.68686000  1
  N  N67  1  0.72054200  0.26705400  0.54890200  1
  N  N68  1  0.55245900  0.60892500  0.42849700  1
  N  N69  1  0.59153100  0.79727100  0.22926900  1
  N  N70  1  0.88427000  0.98214600  0.07755600  1
  N  N71  1  0.50975800  0.14490300  0.17107100  1
  N  N72  1  0.69311700  0.76996800  0.99792500  1
  N  N73  1  0.47912000  0.08611400  0.96102400  1
  O  O74  1  0.12108300  0.43212100  0.93549500  1
  O  O75  1  0.80240700  0.45225500  0.92424800  1
  O  O76  1  0.48547000  0.46968400  0.91200100  1
  O  O77  1  0.07713000  0.23562700  0.86870700  1
  O  O78  1  0.75423600  0.26669100  0.84483000  1
  O  O79  1  0.03063300  0.18360400  0.71576900  1
  O  O80  1  0.99289100  0.00931800  0.86961000  1
  O  O81  1  0.15168500  0.73371300  0.87450200  1
  O  O82  1  0.20268400  0.90541700  0.72502100  1
  O  O83  1  0.24389200  0.07609200  0.57488400  1
  O  O84  1  0.18913500  0.57732700  0.07611300  1
  O  O85  1  0.23197100  0.44297600  0.23966900  1
  O  O86  1  0.27682400  0.31146700  0.40484300  1
  O  O87  1  0.08138100  0.72217800  0.21211400  1
  O  O88  1  0.13509300  0.58627000  0.37855500  1
  O  O89  1  0.17508900  0.83594700  0.32327700  1
  O  O90  1  0.85140400  0.81865800  0.35566500  1
  O  O91  1  0.23113500  0.02860700  0.38437600  1
  O  O92  1  0.90566500  0.02741500  0.40757400  1
  O  O93  1  0.58605100  0.02031000  0.43017000  1
