# generated using pymatgen
data_Sm3Ge13Pt4
_symmetry_space_group_name_H-M   'P 1'
_cell_length_a   9.15346004
_cell_length_b   9.15346004
_cell_length_c   9.21294187
_cell_angle_alpha   89.60562498
_cell_angle_beta   89.60562498
_cell_angle_gamma   89.91785136
_symmetry_Int_Tables_number   1
_chemical_formula_structural   Sm3Ge13Pt4
_chemical_formula_sum   'Sm6 Ge26 Pt8'
_cell_volume   771.87667413
_cell_formula_units_Z   2
loop_
 _symmetry_equiv_pos_site_id
 _symmetry_equiv_pos_as_xyz
  1  'x, y, z'
loop_
 _atom_site_type_symbol
 _atom_site_label
 _atom_site_symmetry_multiplicity
 _atom_site_fract_x
 _atom_site_fract_y
 _atom_site_fract_z
 _atom_site_occupancy
  Sm  Sm0  1  0.00015900  0.00066100  0.49495600  1
  Sm  Sm1  1  0.00066100  0.00015900  0.99495600  1
  Sm  Sm2  1  0.50057000  0.25330500  0.75010700  1
  Sm  Sm3  1  0.25330500  0.50057000  0.25010700  1
  Sm  Sm4  1  0.74359100  0.50002200  0.24597700  1
  Sm  Sm5  1  0.50002200  0.74359100  0.74597700  1
  Ge  Ge6  1  0.50383800  0.99496900  0.24797600  1
  Ge  Ge7  1  0.99496900  0.50383800  0.74797600  1
  Ge  Ge8  1  0.82921000  0.85130900  0.74230000  1
  Ge  Ge9  1  0.85130900  0.82921000  0.24230000  1
  Ge  Ge10  1  0.15625100  0.83365200  0.24611000  1
  Ge  Ge11  1  0.83365200  0.15625100  0.74611000  1
  Ge  Ge12  1  0.49740100  0.32621900  0.39393600  1
  Ge  Ge13  1  0.32621900  0.49740100  0.89393600  1
  Ge  Ge14  1  0.99615000  0.61487600  0.48854000  1
  Ge  Ge15  1  0.61487600  0.99615000  0.98854000  1
  Ge  Ge16  1  0.33326000  0.99990300  0.89936600  1
  Ge  Ge17  1  0.99990300  0.33326000  0.39936600  1
  Ge  Ge18  1  0.73728300  0.49683000  0.85900100  1
  Ge  Ge19  1  0.49683000  0.73728300  0.35900100  1
  Ge  Ge20  1  0.32973500  0.99948600  0.59945200  1
  Ge  Ge21  1  0.99948600  0.32973500  0.09945200  1
  Ge  Ge22  1  0.12356500  0.77880500  0.74778300  1
  Ge  Ge23  1  0.77880500  0.12356500  0.24778300  1
  Ge  Ge24  1  0.00489900  0.61553100  0.01364400  1
  Ge  Ge25  1  0.61553100  0.00489900  0.51364400  1
  Ge  Ge26  1  0.49921900  0.33140500  0.09017400  1
  Ge  Ge27  1  0.33140500  0.49921900  0.59017400  1
  Ge  Ge28  1  0.25124900  0.11316300  0.24934500  1
  Ge  Ge29  1  0.11316300  0.25124900  0.74934500  1
  Ge  Ge30  1  0.65391300  0.50505100  0.58032800  1
  Ge  Ge31  1  0.50505100  0.65391300  0.08032800  1
  Pt  Pt32  1  0.74936400  0.25192300  0.49624100  1
  Pt  Pt33  1  0.25192300  0.74936400  0.99624100  1
  Pt  Pt34  1  0.25037600  0.74868200  0.49690400  1
  Pt  Pt35  1  0.74868200  0.25037600  0.99690400  1
  Pt  Pt36  1  0.24679800  0.24543900  0.49977700  1
  Pt  Pt37  1  0.24543900  0.24679800  0.99977700  1
  Pt  Pt38  1  0.75435000  0.74958800  0.99108300  1
  Pt  Pt39  1  0.74958800  0.75435000  0.49108300  1
