# generated using pymatgen
data_H18IrC6S3(ClO)3
_symmetry_space_group_name_H-M   'P 1'
_cell_length_a   9.52607800
_cell_length_b   10.60422376
_cell_length_c   10.88567443
_cell_angle_alpha   90.29745179
_cell_angle_beta   91.14738977
_cell_angle_gamma   114.22364612
_symmetry_Int_Tables_number   1
_chemical_formula_structural   H18IrC6S3(ClO)3
_chemical_formula_sum   'H36 Ir2 C12 S6 Cl6 O6'
_cell_volume   1002.50315374
_cell_formula_units_Z   2
loop_
 _symmetry_equiv_pos_site_id
 _symmetry_equiv_pos_as_xyz
  1  'x, y, z'
loop_
 _atom_site_type_symbol
 _atom_site_label
 _atom_site_symmetry_multiplicity
 _atom_site_fract_x
 _atom_site_fract_y
 _atom_site_fract_z
 _atom_site_occupancy
  H  H0  1  0.80918400  0.16961800  0.91997300  1
  H  H1  1  0.61362800  0.10995200  0.85909700  1
  H  H2  1  0.68161300  0.98967800  0.92893000  1
  H  H3  1  0.38140900  0.05928100  0.15198700  1
  H  H4  1  0.39874700  0.93015500  0.05371400  1
  H  H5  1  0.38089000  0.08078700  0.98677100  1
  H  H6  1  0.65183400  0.36274700  0.25942200  1
  H  H7  1  0.81769200  0.40026800  0.35812900  1
  H  H8  1  0.63810900  0.38653100  0.42447800  1
  H  H9  1  0.70113400  0.06350500  0.53973800  1
  H  H10  1  0.61465200  0.18041700  0.58280900  1
  H  H11  1  0.81371700  0.24785400  0.53874100  1
  H  H12  1  0.08755900  0.93922900  0.20338900  1
  H  H13  1  0.20115300  0.00766400  0.34257900  1
  H  H14  1  0.10439700  0.10140500  0.26342700  1
  H  H15  1  0.12909600  0.96959600  0.52347400  1
  H  H16  1  0.96189400  0.81796400  0.56161700  1
  H  H17  1  0.96185000  0.98751700  0.58067700  1
  H  H18  1  0.62576800  0.51473800  0.00799600  1
  H  H19  1  0.47367900  0.55867900  0.06110600  1
  H  H20  1  0.59058900  0.65407500  0.93612700  1
  H  H21  1  0.56569800  0.31370300  0.89650000  1
  H  H22  1  0.60525600  0.41939400  0.75884200  1
  H  H23  1  0.43847500  0.25867700  0.76162100  1
  H  H24  1  0.25786900  0.28077800  0.41929900  1
  H  H25  1  0.15490800  0.26304000  0.56109800  1
  H  H26  1  0.32411500  0.22669000  0.55704900  1
  H  H27  1  0.33145800  0.63210200  0.44645700  1
  H  H28  1  0.31862900  0.48447900  0.35566000  1
  H  H29  1  0.50428000  0.61486000  0.40325600  1
  H  H30  1  0.03570800  0.57748100  0.08355000  1
  H  H31  1  0.97300600  0.71257200  0.04407900  1
  H  H32  1  0.17041500  0.75744500  0.09312900  1
  H  H33  1  0.93745400  0.49591900  0.75846400  1
  H  H34  1  0.86164000  0.61566100  0.81234800  1
  H  H35  1  0.86896300  0.48216100  0.91375000  1
  Ir  Ir36  1  0.73190200  0.06650500  0.23370500  1
  Ir  Ir37  1  0.30255600  0.53014800  0.73375200  1
  C  C38  1  0.68906000  0.09540200  0.92980900  1
  C  C39  1  0.42448000  0.04003000  0.06415400  1
  C  C40  1  0.69203200  0.35040900  0.35177400  1
  C  C41  1  0.69891300  0.16466100  0.52461300  1
  C  C42  1  0.10009800  0.99945500  0.28810600  1
  C  C43  1  0.00335000  0.92320000  0.52587300  1
  C  C44  1  0.53970000  0.55378900  0.98114900  1
  C  C45  1  0.51723800  0.34703400  0.81700400  1
  C  C46  1  0.26706600  0.28976600  0.51958200  1
  C  C47  1  0.38349800  0.55951600  0.42769400  1
  C  C48  1  0.06933200  0.68073200  0.04437100  1
  C  C49  1  0.92429200  0.55233400  0.83858900  1
  S  S50  1  0.62937600  0.13519400  0.07484500  1
  S  S51  1  0.62880600  0.16819200  0.37072400  1
  S  S52  1  0.92293600  0.91211100  0.37109100  1
  S  S53  1  0.40067200  0.42667200  0.87936200  1
  S  S54  1  0.39115000  0.46494600  0.56448400  1
  S  S55  1  0.11526600  0.67402000  0.88579100  1
  Cl  Cl56  1  0.96595900  0.27020100  0.22093700  1
  Cl  Cl57  1  0.51685600  0.85238100  0.25818500  1
  Cl  Cl58  1  0.82774600  0.93904700  0.10341400  1
  Cl  Cl59  1  0.17782500  0.64483700  0.61475700  1
  Cl  Cl60  1  0.53242100  0.73767000  0.73374100  1
  Cl  Cl61  1  0.06366800  0.32945400  0.73651900  1
  O  O62  1  0.65771000  0.28327300  0.07127900  1
  O  O63  1  0.45884500  0.10970400  0.37374500  1
  O  O64  1  0.84562400  0.01630700  0.38558800  1
  O  O65  1  0.28678700  0.32275600  0.95718200  1
  O  O66  1  0.54961500  0.47229600  0.57113700  1
  O  O67  1  0.22239200  0.59587300  0.89586900  1
