# generated using pymatgen
data_CaFe5O7
_symmetry_space_group_name_H-M   'P 1'
_cell_length_a   5.39499771
_cell_length_b   6.16721836
_cell_length_c   18.02394100
_cell_angle_alpha   90.00000000
_cell_angle_beta   90.00000000
_cell_angle_gamma   106.70444981
_symmetry_Int_Tables_number   1
_chemical_formula_structural   CaFe5O7
_chemical_formula_sum   'Ca4 Fe20 O28'
_cell_volume   574.38786959
_cell_formula_units_Z   4
loop_
 _symmetry_equiv_pos_site_id
 _symmetry_equiv_pos_as_xyz
  1  'x, y, z'
loop_
 _atom_site_type_symbol
 _atom_site_label
 _atom_site_symmetry_multiplicity
 _atom_site_fract_x
 _atom_site_fract_y
 _atom_site_fract_z
 _atom_site_occupancy
  Ca  Ca0  1  0.58304700  0.89522000  0.25000000  1
  Ca  Ca1  1  0.41695300  0.10478000  0.75000000  1
  Ca  Ca2  1  0.57878400  0.39415000  0.25000000  1
  Ca  Ca3  1  0.42121600  0.60585000  0.75000000  1
  Fe  Fe4  1  0.55111300  0.13893400  0.07455000  1
  Fe  Fe5  1  0.44888700  0.86106600  0.57455000  1
  Fe  Fe6  1  0.44888700  0.86106600  0.92545000  1
  Fe  Fe7  1  0.55111300  0.13893400  0.42545000  1
  Fe  Fe8  1  0.91910000  0.22924300  0.84829600  1
  Fe  Fe9  1  0.08090000  0.77075700  0.34829600  1
  Fe  Fe10  1  0.08090000  0.77075700  0.15170400  1
  Fe  Fe11  1  0.91910000  0.22924300  0.65170400  1
  Fe  Fe12  1  0.00000000  0.00000000  0.00000000  1
  Fe  Fe13  1  0.00000000  0.00000000  0.50000000  1
  Fe  Fe14  1  0.54891400  0.63681000  0.07364700  1
  Fe  Fe15  1  0.45108600  0.36319000  0.57364700  1
  Fe  Fe16  1  0.45108600  0.36319000  0.92635300  1
  Fe  Fe17  1  0.54891400  0.63681000  0.42635300  1
  Fe  Fe18  1  0.91633000  0.72741000  0.84532100  1
  Fe  Fe19  1  0.08367000  0.27259000  0.34532100  1
  Fe  Fe20  1  0.08367000  0.27259000  0.15467900  1
  Fe  Fe21  1  0.91633000  0.72741000  0.65467900  1
  Fe  Fe22  1  0.00000000  0.50000000  0.00000000  1
  Fe  Fe23  1  0.00000000  0.50000000  0.50000000  1
  O  O24  1  0.89973100  0.22531200  0.25000000  1
  O  O25  1  0.10026900  0.77468800  0.75000000  1
  O  O26  1  0.84900400  0.95706800  0.39464900  1
  O  O27  1  0.15099600  0.04293200  0.89464900  1
  O  O28  1  0.15099600  0.04293200  0.60535100  1
  O  O29  1  0.84900400  0.95706800  0.10535100  1
  O  O30  1  0.25857000  0.82705900  0.46819200  1
  O  O31  1  0.74143000  0.17294100  0.96819200  1
  O  O32  1  0.74143000  0.17294100  0.53180800  1
  O  O33  1  0.25857000  0.82705900  0.03180800  1
  O  O34  1  0.34439900  0.08015200  0.32991100  1
  O  O35  1  0.65560100  0.91984800  0.82991100  1
  O  O36  1  0.65560100  0.91984800  0.67008900  1
  O  O37  1  0.34439900  0.08015200  0.17008900  1
  O  O38  1  0.91767900  0.72994600  0.25000000  1
  O  O39  1  0.08232100  0.27005400  0.75000000  1
  O  O40  1  0.84497500  0.46935200  0.39129900  1
  O  O41  1  0.15502500  0.53064800  0.89129900  1
  O  O42  1  0.15502500  0.53064800  0.60870100  1
  O  O43  1  0.84497500  0.46935200  0.10870100  1
  O  O44  1  0.26568700  0.30419500  0.46876100  1
  O  O45  1  0.73431300  0.69580500  0.96876100  1
  O  O46  1  0.73431300  0.69580500  0.53123900  1
  O  O47  1  0.26568700  0.30419500  0.03123900  1
  O  O48  1  0.34408100  0.59391900  0.33106500  1
  O  O49  1  0.65591900  0.40608100  0.83106500  1
  O  O50  1  0.65591900  0.40608100  0.66893500  1
  O  O51  1  0.34408100  0.59391900  0.16893500  1
