# generated using pymatgen
data_V6H2Pb4Se3O26
_symmetry_space_group_name_H-M   'P 1'
_cell_length_a   21.74142100
_cell_length_b   7.25533000
_cell_length_c   7.38695790
_cell_angle_alpha   85.24593522
_cell_angle_beta   90.00000000
_cell_angle_gamma   90.00000000
_symmetry_Int_Tables_number   1
_chemical_formula_structural   V6H2Pb4Se3O26
_chemical_formula_sum   'V12 H4 Pb8 Se6 O52'
_cell_volume   1161.21866680
_cell_formula_units_Z   2
loop_
 _symmetry_equiv_pos_site_id
 _symmetry_equiv_pos_as_xyz
  1  'x, y, z'
loop_
 _atom_site_type_symbol
 _atom_site_label
 _atom_site_symmetry_multiplicity
 _atom_site_fract_x
 _atom_site_fract_y
 _atom_site_fract_z
 _atom_site_occupancy
  V  V0  1  0.20147400  0.18319800  0.31692500  1
  V  V1  1  0.70147400  0.81680200  0.68307500  1
  V  V2  1  0.62013300  0.39828100  0.36495700  1
  V  V3  1  0.12013300  0.60171900  0.63504300  1
  V  V4  1  0.41527100  0.02156700  0.66409900  1
  V  V5  1  0.91527100  0.97843300  0.33590100  1
  V  V6  1  0.49812500  0.64627200  0.35430400  1
  V  V7  1  0.99812500  0.35372800  0.64569600  1
  V  V8  1  0.11608900  0.10184900  0.69748400  1
  V  V9  1  0.61608900  0.89815100  0.30251600  1
  V  V10  1  0.00140700  0.84501300  0.70066700  1
  V  V11  1  0.50140700  0.15498700  0.29933300  1
  H  H12  1  0.07145600  0.36672200  0.19570200  1
  H  H13  1  0.57145600  0.63327800  0.80429800  1
  H  H14  1  0.06077200  0.58114500  0.14487800  1
  H  H15  1  0.56077200  0.41885500  0.85512200  1
  Pb  Pb16  1  0.42909000  0.52382100  0.87538800  1
  Pb  Pb17  1  0.92909000  0.47617900  0.12461200  1
  Pb  Pb18  1  0.35976800  0.93100700  0.16071000  1
  Pb  Pb19  1  0.85976800  0.06899300  0.83929000  1
  Pb  Pb20  1  0.25964800  0.28698200  0.81693500  1
  Pb  Pb21  1  0.75964800  0.71301800  0.18306500  1
  Pb  Pb22  1  0.19791300  0.70146500  0.10831700  1
  Pb  Pb23  1  0.69791300  0.29853500  0.89168300  1
  Se  Se24  1  0.33418100  0.42116900  0.30972000  1
  Se  Se25  1  0.83418100  0.57883100  0.69028000  1
  Se  Se26  1  0.28469800  0.78655000  0.66984300  1
  Se  Se27  1  0.78469800  0.21345000  0.33015700  1
  Se  Se28  1  0.55843200  0.99746000  0.81890200  1
  Se  Se29  1  0.05843200  0.00254000  0.18109800  1
  O  O30  1  0.34713500  0.90370300  0.55152000  1
  O  O31  1  0.84713500  0.09629700  0.44848000  1
  O  O32  1  0.38278200  0.21031900  0.73881000  1
  O  O33  1  0.88278200  0.78968100  0.26119000  1
  O  O34  1  0.27939800  0.90174100  0.86403800  1
  O  O35  1  0.77939800  0.09825900  0.13596200  1
  O  O36  1  0.50380200  0.06843600  0.64737900  1
  O  O37  1  0.00380200  0.93156400  0.35262100  1
  O  O38  1  0.41915800  0.86593000  0.85387300  1
  O  O39  1  0.91915800  0.13407000  0.14612700  1
  O  O40  1  0.18711900  0.13190500  0.57916100  1
  O  O41  1  0.68711900  0.86809500  0.42083900  1
  O  O42  1  0.42836700  0.10169600  0.39686500  1
  O  O43  1  0.92836700  0.89830400  0.60313500  1
  O  O44  1  0.52268000  0.39079000  0.37037700  1
  O  O45  1  0.02268000  0.60921000  0.62962300  1
  O  O46  1  0.46429600  0.66313000  0.55414800  1
  O  O47  1  0.96429600  0.33687000  0.44585200  1
  O  O48  1  0.33759700  0.31592500  0.10956000  1
  O  O49  1  0.83759700  0.68407500  0.89044000  1
  O  O50  1  0.27194500  0.30303100  0.42752200  1
  O  O51  1  0.77194500  0.69696900  0.57247800  1
  O  O52  1  0.23791300  0.00548000  0.23005500  1
  O  O53  1  0.73791300  0.99452000  0.76994500  1
  O  O54  1  0.31929600  0.57925600  0.74338500  1
  O  O55  1  0.81929600  0.42074400  0.25661500  1
  O  O56  1  0.19496500  0.35550700  0.14879300  1
  O  O57  1  0.69496500  0.64449300  0.85120700  1
  O  O58  1  0.44084500  0.64447500  0.19361600  1
  O  O59  1  0.94084500  0.35552500  0.80638400  1
  O  O60  1  0.09065100  0.79592300  0.15358000  1
  O  O61  1  0.59065100  0.20407700  0.84642000  1
  O  O62  1  0.98191900  0.79612500  0.91496000  1
  O  O63  1  0.48191900  0.20387500  0.08504000  1
  O  O64  1  0.59638000  0.15083200  0.31867500  1
  O  O65  1  0.09638000  0.84916800  0.68132500  1
  O  O66  1  0.61142600  0.88937600  0.67835700  1
  O  O67  1  0.11142600  0.11062400  0.32164300  1
  O  O68  1  0.14060400  0.10472900  0.90808900  1
  O  O69  1  0.64060400  0.89527100  0.09191100  1
  O  O70  1  0.17746500  0.56410800  0.79334400  1
  O  O71  1  0.67746500  0.43589200  0.20665600  1
  O  O72  1  0.30132800  0.63511300  0.24599200  1
  O  O73  1  0.80132800  0.36488700  0.75400800  1
  O  O74  1  0.02489700  0.10055100  0.70718900  1
  O  O75  1  0.52489700  0.89944900  0.29281100  1
  O  O76  1  0.09046400  0.35323300  0.63968500  1
  O  O77  1  0.59046400  0.64676700  0.36031500  1
  O  O78  1  0.65625600  0.37655100  0.56246200  1
  O  O79  1  0.15625600  0.62344900  0.43753800  1
  O  O80  1  0.04778800  0.45512900  0.11540900  1
  O  O81  1  0.54778800  0.54487100  0.88459100  1
