# generated using pymatgen
data_Ba4Ga4SnSe12
_symmetry_space_group_name_H-M   'P 1'
_cell_length_a   13.99094800
_cell_length_b   13.99094800
_cell_length_c   6.56564900
_cell_angle_alpha   90.00000000
_cell_angle_beta   90.00000000
_cell_angle_gamma   90.00000000
_symmetry_Int_Tables_number   1
_chemical_formula_structural   Ba4Ga4SnSe12
_chemical_formula_sum   'Ba8 Ga8 Sn2 Se24'
_cell_volume   1285.20363885
_cell_formula_units_Z   2
loop_
 _symmetry_equiv_pos_site_id
 _symmetry_equiv_pos_as_xyz
  1  'x, y, z'
loop_
 _atom_site_type_symbol
 _atom_site_label
 _atom_site_symmetry_multiplicity
 _atom_site_fract_x
 _atom_site_fract_y
 _atom_site_fract_z
 _atom_site_occupancy
  Ba  Ba0  1  0.19391000  0.48063300  0.54609900  1
  Ba  Ba1  1  0.69391000  0.01936700  0.95390100  1
  Ba  Ba2  1  0.80609000  0.51936700  0.54609900  1
  Ba  Ba3  1  0.30609000  0.98063300  0.95390100  1
  Ba  Ba4  1  0.51936700  0.19391000  0.45390100  1
  Ba  Ba5  1  0.98063300  0.69391000  0.04609900  1
  Ba  Ba6  1  0.48063300  0.80609000  0.45390100  1
  Ba  Ba7  1  0.01936700  0.30609000  0.04609900  1
  Ga  Ga8  1  0.14198500  0.75485400  0.55010300  1
  Ga  Ga9  1  0.64198500  0.74514600  0.94989700  1
  Ga  Ga10  1  0.85801500  0.24514600  0.55010300  1
  Ga  Ga11  1  0.35801500  0.25485400  0.94989700  1
  Ga  Ga12  1  0.24514600  0.14198500  0.44989700  1
  Ga  Ga13  1  0.25485400  0.64198500  0.05010300  1
  Ga  Ga14  1  0.75485400  0.85801500  0.44989700  1
  Ga  Ga15  1  0.74514600  0.35801500  0.05010300  1
  Sn  Sn16  1  0.50000000  0.50000000  0.00000000  1
  Sn  Sn17  1  0.00000000  0.00000000  0.50000000  1
  Se  Se18  1  0.40705600  0.39414500  0.74624400  1
  Se  Se19  1  0.90705600  0.10585500  0.75375600  1
  Se  Se20  1  0.59294400  0.60585500  0.74624400  1
  Se  Se21  1  0.09294400  0.89414500  0.75375600  1
  Se  Se22  1  0.60585500  0.40705600  0.25375600  1
  Se  Se23  1  0.89414500  0.90705600  0.24624400  1
  Se  Se24  1  0.39414500  0.59294400  0.25375600  1
  Se  Se25  1  0.10585500  0.09294400  0.24624400  1
  Se  Se26  1  0.29149400  0.69615200  0.70427500  1
  Se  Se27  1  0.79149400  0.80384800  0.79572500  1
  Se  Se28  1  0.70850600  0.30384800  0.70427500  1
  Se  Se29  1  0.20850600  0.19615200  0.79572500  1
  Se  Se30  1  0.30384800  0.29149400  0.29572500  1
  Se  Se31  1  0.19615200  0.79149400  0.20427500  1
  Se  Se32  1  0.69615200  0.70850600  0.29572500  1
  Se  Se33  1  0.80384800  0.20850600  0.20427500  1
  Se  Se34  1  0.98506000  0.35914600  0.54386200  1
  Se  Se35  1  0.48506000  0.14085400  0.95613800  1
  Se  Se36  1  0.01494000  0.64085400  0.54386200  1
  Se  Se37  1  0.51494000  0.85914600  0.95613800  1
  Se  Se38  1  0.64085400  0.98506000  0.45613800  1
  Se  Se39  1  0.85914600  0.48506000  0.04386200  1
  Se  Se40  1  0.35914600  0.01494000  0.45613800  1
  Se  Se41  1  0.14085400  0.51494000  0.04386200  1
