# generated using pymatgen
data_K2U3MnO11
_symmetry_space_group_name_H-M   'P 1'
_cell_length_a   6.87526599
_cell_length_b   6.87526600
_cell_length_c   13.17538223
_cell_angle_alpha   74.87573652
_cell_angle_beta   74.87573783
_cell_angle_gamma   59.99999994
_symmetry_Int_Tables_number   1
_chemical_formula_structural   K2U3MnO11
_chemical_formula_sum   'K4 U6 Mn2 O22'
_cell_volume   514.29262362
_cell_formula_units_Z   2
loop_
 _symmetry_equiv_pos_site_id
 _symmetry_equiv_pos_as_xyz
  1  'x, y, z'
loop_
 _atom_site_type_symbol
 _atom_site_label
 _atom_site_symmetry_multiplicity
 _atom_site_fract_x
 _atom_site_fract_y
 _atom_site_fract_z
 _atom_site_occupancy
  K  K0  1  0.32817100  0.32817100  0.01548800  1
  K  K1  1  0.82817100  0.82817100  0.51548800  1
  K  K2  1  0.67182900  0.67182900  0.98451200  1
  K  K3  1  0.17182900  0.17182900  0.48451200  1
  U  U4  1  0.25000000  0.88673100  0.25000000  1
  U  U5  1  0.61326900  0.25000000  0.25000000  1
  U  U6  1  0.88673100  0.61326900  0.25000000  1
  U  U7  1  0.38673100  0.75000000  0.75000000  1
  U  U8  1  0.11326900  0.38673100  0.75000000  1
  U  U9  1  0.75000000  0.11326900  0.75000000  1
  Mn  Mn10  1  0.50000000  0.50000000  0.50000000  1
  Mn  Mn11  1  0.00000000  0.00000000  0.00000000  1
  O  O12  1  0.74808900  0.20689500  0.59823600  1
  O  O13  1  0.44678000  0.74808900  0.59823600  1
  O  O14  1  0.20689500  0.44678000  0.59823600  1
  O  O15  1  0.70689500  0.24808900  0.09823600  1
  O  O16  1  0.94678000  0.70689500  0.09823600  1
  O  O17  1  0.24808900  0.94678000  0.09823600  1
  O  O18  1  0.25191100  0.79310500  0.40176400  1
  O  O19  1  0.55322000  0.25191100  0.40176400  1
  O  O20  1  0.79310500  0.55322000  0.40176400  1
  O  O21  1  0.29310500  0.75191100  0.90176400  1
  O  O22  1  0.05322000  0.29310500  0.90176400  1
  O  O23  1  0.75191100  0.05322000  0.90176400  1
  O  O24  1  0.25000000  0.50124800  0.25000000  1
  O  O25  1  0.99875200  0.25000000  0.25000000  1
  O  O26  1  0.50124800  0.99875200  0.25000000  1
  O  O27  1  0.00124800  0.75000000  0.75000000  1
  O  O28  1  0.49875200  0.00124800  0.75000000  1
  O  O29  1  0.75000000  0.49875200  0.75000000  1
  O  O30  1  0.40584900  0.40584900  0.78245300  1
  O  O31  1  0.90584900  0.90584900  0.28245300  1
  O  O32  1  0.59415100  0.59415100  0.21754700  1
  O  O33  1  0.09415100  0.09415100  0.71754700  1
