# generated using pymatgen
data_BaAl2C2O11
_symmetry_space_group_name_H-M   'P 1'
_cell_length_a   6.18327800
_cell_length_b   9.45110500
_cell_length_c   16.49766700
_cell_angle_alpha   90.00000000
_cell_angle_beta   90.00000000
_cell_angle_gamma   90.00000000
_symmetry_Int_Tables_number   1
_chemical_formula_structural   BaAl2C2O11
_chemical_formula_sum   'Ba4 Al8 C8 O44'
_cell_volume   964.10402102
_cell_formula_units_Z   4
loop_
 _symmetry_equiv_pos_site_id
 _symmetry_equiv_pos_as_xyz
  1  'x, y, z'
loop_
 _atom_site_type_symbol
 _atom_site_label
 _atom_site_symmetry_multiplicity
 _atom_site_fract_x
 _atom_site_fract_y
 _atom_site_fract_z
 _atom_site_occupancy
  Ba  Ba0  1  0.75000000  0.97563000  0.91139800  1
  Ba  Ba1  1  0.75000000  0.52437000  0.41139800  1
  Ba  Ba2  1  0.25000000  0.02437000  0.08860200  1
  Ba  Ba3  1  0.25000000  0.47563000  0.58860200  1
  Al  Al4  1  0.02840500  0.15536800  0.70082700  1
  Al  Al5  1  0.47159500  0.34463100  0.20082700  1
  Al  Al6  1  0.52840500  0.84463100  0.29917300  1
  Al  Al7  1  0.97159500  0.65536900  0.79917300  1
  Al  Al8  1  0.97159500  0.84463100  0.29917300  1
  Al  Al9  1  0.52840500  0.65536900  0.79917300  1
  Al  Al10  1  0.47159500  0.15536800  0.70082700  1
  Al  Al11  1  0.02840500  0.34463100  0.20082700  1
  C  C12  1  0.25000000  0.07931000  0.84981300  1
  C  C13  1  0.25000000  0.42069000  0.34981300  1
  C  C14  1  0.75000000  0.92069000  0.15018700  1
  C  C15  1  0.75000000  0.57931000  0.65018700  1
  C  C16  1  0.25000000  0.73475900  0.94255200  1
  C  C17  1  0.25000000  0.76524100  0.44255200  1
  C  C18  1  0.75000000  0.26524100  0.05744800  1
  C  C19  1  0.75000000  0.23475900  0.55744800  1
  O  O20  1  0.06626300  0.09749300  0.81202300  1
  O  O21  1  0.43373700  0.40250700  0.31202300  1
  O  O22  1  0.56626300  0.90250700  0.18797700  1
  O  O23  1  0.93373700  0.59749300  0.68797700  1
  O  O24  1  0.93373700  0.90250700  0.18797700  1
  O  O25  1  0.56626300  0.59749300  0.68797700  1
  O  O26  1  0.43373700  0.09749300  0.81202300  1
  O  O27  1  0.06626300  0.40250700  0.31202300  1
  O  O28  1  0.25000000  0.03928200  0.92365000  1
  O  O29  1  0.25000000  0.46071800  0.42365000  1
  O  O30  1  0.75000000  0.96071800  0.07635000  1
  O  O31  1  0.75000000  0.53928200  0.57635000  1
  O  O32  1  0.06498400  0.72734900  0.90517900  1
  O  O33  1  0.43501600  0.77265100  0.40517900  1
  O  O34  1  0.56498400  0.27265100  0.09482100  1
  O  O35  1  0.93501600  0.22734900  0.59482100  1
  O  O36  1  0.93501600  0.27265100  0.09482100  1
  O  O37  1  0.56498400  0.22734900  0.59482100  1
  O  O38  1  0.43501600  0.72734900  0.90517900  1
  O  O39  1  0.06498400  0.77265100  0.40517900  1
  O  O40  1  0.25000000  0.75573500  0.01888400  1
  O  O41  1  0.25000000  0.74426500  0.51888400  1
  O  O42  1  0.75000000  0.24426500  0.98111600  1
  O  O43  1  0.75000000  0.25573500  0.48111600  1
  O  O44  1  0.25000000  0.28253800  0.70270900  1
  O  O45  1  0.25000000  0.21746200  0.20270900  1
  O  O46  1  0.75000000  0.71746200  0.29729100  1
  O  O47  1  0.75000000  0.78253800  0.79729100  1
  O  O48  1  0.75000000  0.06812400  0.71095500  1
  O  O49  1  0.75000000  0.43187600  0.21095500  1
  O  O50  1  0.25000000  0.93187600  0.28904500  1
  O  O51  1  0.25000000  0.56812400  0.78904500  1
  O  O52  1  0.25000000  0.05254900  0.65926500  1
  O  O53  1  0.25000000  0.44745100  0.15926500  1
  O  O54  1  0.75000000  0.94745100  0.34073500  1
  O  O55  1  0.75000000  0.55254900  0.84073500  1
  O  O56  1  0.75000000  0.22003600  0.73905100  1
  O  O57  1  0.75000000  0.27996400  0.23905100  1
  O  O58  1  0.25000000  0.77996400  0.26094900  1
  O  O59  1  0.25000000  0.72003600  0.76094900  1
  O  O60  1  0.25000000  0.39088400  0.95647300  1
  O  O61  1  0.25000000  0.10911600  0.45647300  1
  O  O62  1  0.75000000  0.60911600  0.04352700  1
  O  O63  1  0.75000000  0.89088400  0.54352700  1
