# generated using pymatgen
data_H3CSNOF2
_symmetry_space_group_name_H-M   'P 1'
_cell_length_a   7.34583872
_cell_length_b   7.34583872
_cell_length_c   11.40656656
_cell_angle_alpha   84.90494959
_cell_angle_beta   84.90494959
_cell_angle_gamma   66.01654552
_symmetry_Int_Tables_number   1
_chemical_formula_structural   H3CSNOF2
_chemical_formula_sum   'H12 C4 S4 N4 O4 F8'
_cell_volume   559.20957124
_cell_formula_units_Z   4
loop_
 _symmetry_equiv_pos_site_id
 _symmetry_equiv_pos_as_xyz
  1  'x, y, z'
loop_
 _atom_site_type_symbol
 _atom_site_label
 _atom_site_symmetry_multiplicity
 _atom_site_fract_x
 _atom_site_fract_y
 _atom_site_fract_z
 _atom_site_occupancy
  H  H0  1  0.66606600  0.48780800  0.83639500  1
  H  H1  1  0.51219200  0.33393400  0.66360500  1
  H  H2  1  0.33393400  0.51219200  0.16360500  1
  H  H3  1  0.48780800  0.66606600  0.33639500  1
  H  H4  1  0.55286900  0.67775100  0.93883600  1
  H  H5  1  0.32224900  0.44713100  0.56116400  1
  H  H6  1  0.44713100  0.32224900  0.06116400  1
  H  H7  1  0.67775100  0.55286900  0.43883600  1
  H  H8  1  0.56286400  0.74432500  0.78402400  1
  H  H9  1  0.25567500  0.43713600  0.71597600  1
  H  H10  1  0.43713600  0.25567500  0.21597600  1
  H  H11  1  0.74432500  0.56286400  0.28402400  1
  C  C12  1  0.64292300  0.63961300  0.85544900  1
  C  C13  1  0.36038700  0.35707700  0.64455100  1
  C  C14  1  0.35707700  0.36038700  0.14455100  1
  C  C15  1  0.63961300  0.64292300  0.35544900  1
  S  S16  1  0.88481600  0.79529300  0.91198100  1
  S  S17  1  0.20470700  0.11518400  0.58801900  1
  S  S18  1  0.11518400  0.20470700  0.08801900  1
  S  S19  1  0.79529300  0.88481600  0.41198100  1
  N  N20  1  0.84121400  0.63962500  0.86281600  1
  N  N21  1  0.36037500  0.15878600  0.63718400  1
  N  N22  1  0.15878600  0.36037500  0.13718400  1
  N  N23  1  0.63962500  0.84121400  0.36281600  1
  O  O24  1  0.08485000  0.77646900  0.91633000  1
  O  O25  1  0.22353100  0.91515000  0.58367000  1
  O  O26  1  0.91515000  0.22353100  0.08367000  1
  O  O27  1  0.77646900  0.08485000  0.41633000  1
  F  F28  1  0.77702800  0.85266500  0.04057800  1
  F  F29  1  0.14733500  0.22297200  0.45942200  1
  F  F30  1  0.22297200  0.14733500  0.95942200  1
  F  F31  1  0.85266500  0.77702800  0.54057800  1
  F  F32  1  0.75878500  0.01581900  0.85510300  1
  F  F33  1  0.98418100  0.24121500  0.64489700  1
  F  F34  1  0.24121500  0.98418100  0.14489700  1
  F  F35  1  0.01581900  0.75878500  0.35510300  1
