# generated using pymatgen
data_H26Pd5(C11O8)2
_symmetry_space_group_name_H-M   'P 1'
_cell_length_a   10.26039085
_cell_length_b   10.22226296
_cell_length_c   10.98497361
_cell_angle_alpha   93.58407672
_cell_angle_beta   112.67395108
_cell_angle_gamma   116.81824788
_symmetry_Int_Tables_number   1
_chemical_formula_structural   H26Pd5(C11O8)2
_chemical_formula_sum   'H26 Pd5 C22 O16'
_cell_volume   908.81470475
_cell_formula_units_Z   1
loop_
 _symmetry_equiv_pos_site_id
 _symmetry_equiv_pos_as_xyz
  1  'x, y, z'
loop_
 _atom_site_type_symbol
 _atom_site_label
 _atom_site_symmetry_multiplicity
 _atom_site_fract_x
 _atom_site_fract_y
 _atom_site_fract_z
 _atom_site_occupancy
  H  H0  1  0.89110000  0.58509400  0.16137200  1
  H  H1  1  0.10890000  0.41490600  0.83862800  1
  H  H2  1  0.89283600  0.66648400  0.31232600  1
  H  H3  1  0.10716400  0.33351600  0.68767400  1
  H  H4  1  0.72097000  0.60221100  0.14622900  1
  H  H5  1  0.27903000  0.39778900  0.85377100  1
  H  H6  1  0.00764200  0.92621400  0.38701200  1
  H  H7  1  0.99235800  0.07378600  0.61298800  1
  H  H8  1  0.31123300  0.31862400  0.42752200  1
  H  H9  1  0.68876700  0.68137600  0.57247800  1
  H  H10  1  0.12482900  0.26149300  0.43737100  1
  H  H11  1  0.87517100  0.73850700  0.56262900  1
  H  H12  1  0.24463800  0.17890800  0.51573100  1
  H  H13  1  0.75536200  0.82109200  0.48426900  1
  H  H14  1  0.43754700  0.79813800  0.47651500  1
  H  H15  1  0.56245300  0.20186200  0.52348500  1
  H  H16  1  0.23703900  0.68043200  0.46130400  1
  H  H17  1  0.76296100  0.31956800  0.53869600  1
  H  H18  1  0.28344600  0.84885300  0.40738800  1
  H  H19  1  0.71655400  0.15114700  0.59261200  1
  H  H20  1  0.39758000  0.52688500  0.27881900  1
  H  H21  1  0.60242000  0.47311500  0.72118100  1
  H  H22  1  0.20494500  0.52030600  0.22856500  1
  H  H23  1  0.79505500  0.47969400  0.77143500  1
  H  H24  1  0.23987300  0.44015000  0.10614500  1
  H  H25  1  0.76012700  0.55985000  0.89385500  1
  Pd  Pd26  1  0.00000000  0.00000000  0.00000000  1
  Pd  Pd27  1  0.66168000  0.04974500  0.93139300  1
  Pd  Pd28  1  0.33832000  0.95025500  0.06860700  1
  Pd  Pd29  1  0.65351400  0.96391500  0.15538900  1
  Pd  Pd30  1  0.34648600  0.03608500  0.84461100  1
  C  C31  1  0.85594000  0.65719700  0.20301400  1
  C  C32  1  0.14406000  0.34280300  0.79698600  1
  C  C33  1  0.93413100  0.81277600  0.18245300  1
  C  C34  1  0.06586900  0.18722400  0.81754700  1
  C  C35  1  0.01003900  0.94443400  0.29090200  1
  C  C36  1  0.98996100  0.05556600  0.70909800  1
  C  C37  1  0.10776800  0.09656200  0.29413900  1
  C  C38  1  0.89223200  0.90343800  0.70586100  1
  C  C39  1  0.20460600  0.22153700  0.42765300  1
  C  C40  1  0.79539400  0.77846300  0.57234700  1
  C  C41  1  0.39194700  0.88884400  0.62775700  1
  C  C42  1  0.60805300  0.11115600  0.37224300  1
  C  C43  1  0.33485900  0.79906300  0.48430800  1
  C  C44  1  0.66514100  0.20093700  0.51569200  1
  C  C45  1  0.37098800  0.68704100  0.16758800  1
  C  C46  1  0.62901200  0.31295900  0.83241200  1
  C  C47  1  0.29984400  0.53549500  0.19850000  1
  C  C48  1  0.70015600  0.46450500  0.80150000  1
  C  C49  1  0.78506700  0.16507200  0.13017300  1
  C  C50  1  0.21493300  0.83492800  0.86982700  1
  C  C51  1  0.59482300  0.84763300  0.97132800  1
  C  C52  1  0.40517700  0.15236700  0.02867200  1
  O  O53  1  0.92411400  0.80977800  0.06135300  1
  O  O54  1  0.07588600  0.19022200  0.93864700  1
  O  O55  1  0.12395100  0.14283700  0.19161900  1
  O  O56  1  0.87604900  0.85716300  0.80838100  1
  O  O57  1  0.53832500  0.93077400  0.71746200  1
  O  O58  1  0.46167500  0.06922600  0.28253800  1
  O  O59  1  0.28989100  0.91509400  0.64715500  1
  O  O60  1  0.71010900  0.08490600  0.35284500  1
  O  O61  1  0.52195900  0.75168400  0.19227900  1
  O  O62  1  0.47804100  0.24831600  0.80772100  1
  O  O63  1  0.27413100  0.73789400  0.11861700  1
  O  O64  1  0.72586900  0.26210600  0.88138300  1
  O  O65  1  0.88244000  0.29180800  0.19917900  1
  O  O66  1  0.11756000  0.70819200  0.80082100  1
  O  O67  1  0.53437000  0.71990300  0.91083400  1
  O  O68  1  0.46563000  0.28009700  0.08916600  1
