# generated using pymatgen
data_YbH12(ClO2)3
_symmetry_space_group_name_H-M   'P 1'
_cell_length_a   7.07747500
_cell_length_b   7.97676074
_cell_length_c   9.59096003
_cell_angle_alpha   91.13707436
_cell_angle_beta   90.00000000
_cell_angle_gamma   90.00000000
_symmetry_Int_Tables_number   1
_chemical_formula_structural   YbH12(ClO2)3
_chemical_formula_sum   'Yb2 H24 Cl6 O12'
_cell_volume   541.35413881
_cell_formula_units_Z   2
loop_
 _symmetry_equiv_pos_site_id
 _symmetry_equiv_pos_as_xyz
  1  'x, y, z'
loop_
 _atom_site_type_symbol
 _atom_site_label
 _atom_site_symmetry_multiplicity
 _atom_site_fract_x
 _atom_site_fract_y
 _atom_site_fract_z
 _atom_site_occupancy
  Yb  Yb0  1  0.69266600  0.75000000  0.75000000  1
  Yb  Yb1  1  0.30733400  0.25000000  0.25000000  1
  H  H2  1  0.43483300  0.07679800  0.75957400  1
  H  H3  1  0.43483300  0.42320200  0.74042600  1
  H  H4  1  0.56516700  0.92320200  0.24042600  1
  H  H5  1  0.56516700  0.57679800  0.25957400  1
  H  H6  1  0.60487700  0.10579400  0.85915800  1
  H  H7  1  0.60487700  0.39420600  0.64084200  1
  H  H8  1  0.39512300  0.89420600  0.14084200  1
  H  H9  1  0.39512300  0.60579400  0.35915800  1
  H  H10  1  0.03443900  0.63406900  0.60472000  1
  H  H11  1  0.03443900  0.86593100  0.89528000  1
  H  H12  1  0.96556100  0.36593100  0.39528000  1
  H  H13  1  0.96556100  0.13406900  0.10472000  1
  H  H14  1  0.97894200  0.47561700  0.68407800  1
  H  H15  1  0.97894200  0.02438300  0.81592200  1
  H  H16  1  0.02105800  0.52438300  0.31592200  1
  H  H17  1  0.02105800  0.97561700  0.18407800  1
  H  H18  1  0.82786000  0.84272700  0.45590200  1
  H  H19  1  0.82786000  0.65727300  0.04409800  1
  H  H20  1  0.17214000  0.15727300  0.54409800  1
  H  H21  1  0.17214000  0.34272700  0.95590200  1
  H  H22  1  0.76344200  0.00468500  0.53463400  1
  H  H23  1  0.76344200  0.49531500  0.96536600  1
  H  H24  1  0.23655800  0.99531500  0.46536600  1
  H  H25  1  0.23655800  0.50468500  0.03463400  1
  Cl  Cl26  1  0.32434900  0.73664400  0.88902400  1
  Cl  Cl27  1  0.32434900  0.76335600  0.61097600  1
  Cl  Cl28  1  0.67565100  0.26335600  0.11097600  1
  Cl  Cl29  1  0.67565100  0.23664400  0.38902400  1
  Cl  Cl30  1  0.85931700  0.75000000  0.25000000  1
  Cl  Cl31  1  0.14068300  0.25000000  0.75000000  1
  O  O32  1  0.56657400  0.04318000  0.77529500  1
  O  O33  1  0.56657400  0.45682000  0.72470500  1
  O  O34  1  0.43342600  0.95682000  0.22470500  1
  O  O35  1  0.43342600  0.54318000  0.27529500  1
  O  O36  1  0.92357400  0.57715300  0.64318600  1
  O  O37  1  0.92357400  0.92284700  0.85681400  1
  O  O38  1  0.07642600  0.42284700  0.35681400  1
  O  O39  1  0.07642600  0.07715300  0.14318600  1
  O  O40  1  0.79737000  0.88779200  0.55044500  1
  O  O41  1  0.79737000  0.61220800  0.94955500  1
  O  O42  1  0.20263000  0.11220800  0.44955500  1
  O  O43  1  0.20263000  0.38779200  0.05044500  1
