# generated using pymatgen
data_PPbO3
_symmetry_space_group_name_H-M   'P 1'
_cell_length_a   9.18988449
_cell_length_b   9.18988449
_cell_length_c   8.19584100
_cell_angle_alpha   90.00000000
_cell_angle_beta   90.00000000
_cell_angle_gamma   103.89161198
_symmetry_Int_Tables_number   1
_chemical_formula_structural   PPbO3
_chemical_formula_sum   'P8 Pb8 O24'
_cell_volume   671.92648959
_cell_formula_units_Z   8
loop_
 _symmetry_equiv_pos_site_id
 _symmetry_equiv_pos_as_xyz
  1  'x, y, z'
loop_
 _atom_site_type_symbol
 _atom_site_label
 _atom_site_symmetry_multiplicity
 _atom_site_fract_x
 _atom_site_fract_y
 _atom_site_fract_z
 _atom_site_occupancy
  P  P0  1  0.79656100  0.20343900  0.27145700  1
  P  P1  1  0.20343900  0.79656100  0.77145700  1
  P  P2  1  0.72650200  0.78878300  0.41540900  1
  P  P3  1  0.21121700  0.27349800  0.41540900  1
  P  P4  1  0.27349800  0.21121700  0.91540900  1
  P  P5  1  0.78878300  0.72650200  0.91540900  1
  P  P6  1  0.70262700  0.29737300  0.81121900  1
  P  P7  1  0.29737300  0.70262700  0.31121900  1
  Pb  Pb8  1  0.49475000  0.05139600  0.50973400  1
  Pb  Pb9  1  0.94860400  0.50525000  0.50973400  1
  Pb  Pb10  1  0.50525000  0.94860400  0.00973400  1
  Pb  Pb11  1  0.05139600  0.49475000  0.00973400  1
  Pb  Pb12  1  0.46163600  0.53836400  0.68066900  1
  Pb  Pb13  1  0.53836400  0.46163600  0.18066900  1
  Pb  Pb14  1  0.92288500  0.07711500  0.68793200  1
  Pb  Pb15  1  0.07711500  0.92288500  0.18793200  1
  O  O16  1  0.63317000  0.13738600  0.21275600  1
  O  O17  1  0.86261400  0.36683000  0.21275600  1
  O  O18  1  0.36683000  0.86261400  0.71275600  1
  O  O19  1  0.13738600  0.63317000  0.71275600  1
  O  O20  1  0.65284900  0.61697600  0.42531500  1
  O  O21  1  0.38302400  0.34715100  0.42531500  1
  O  O22  1  0.34715100  0.38302400  0.92531500  1
  O  O23  1  0.61697600  0.65284900  0.92531500  1
  O  O24  1  0.65279000  0.87635900  0.54086400  1
  O  O25  1  0.12364100  0.34721000  0.54086400  1
  O  O26  1  0.34721000  0.12364100  0.04086400  1
  O  O27  1  0.87635900  0.65279000  0.04086400  1
  O  O28  1  0.62430900  0.37569100  0.68338700  1
  O  O29  1  0.37569100  0.62430900  0.18338700  1
  O  O30  1  0.65284300  0.12291500  0.79442100  1
  O  O31  1  0.87708500  0.34715700  0.79442100  1
  O  O32  1  0.34715700  0.87708500  0.29442100  1
  O  O33  1  0.12291500  0.65284300  0.29442100  1
  O  O34  1  0.89906800  0.82647700  0.43454500  1
  O  O35  1  0.17352300  0.10093200  0.43454500  1
  O  O36  1  0.10093200  0.17352300  0.93454500  1
  O  O37  1  0.82647700  0.89906800  0.93454500  1
  O  O38  1  0.80083000  0.19917000  0.46122600  1
  O  O39  1  0.19917000  0.80083000  0.96122600  1
