# generated using pymatgen
data_AgI3O8
_symmetry_space_group_name_H-M   'P 1'
_cell_length_a   8.24278400
_cell_length_b   8.26658000
_cell_length_c   12.04796300
_cell_angle_alpha   90.00000000
_cell_angle_beta   90.00000000
_cell_angle_gamma   90.00000000
_symmetry_Int_Tables_number   1
_chemical_formula_structural   AgI3O8
_chemical_formula_sum   'Ag4 I12 O32'
_cell_volume   820.94378154
_cell_formula_units_Z   4
loop_
 _symmetry_equiv_pos_site_id
 _symmetry_equiv_pos_as_xyz
  1  'x, y, z'
loop_
 _atom_site_type_symbol
 _atom_site_label
 _atom_site_symmetry_multiplicity
 _atom_site_fract_x
 _atom_site_fract_y
 _atom_site_fract_z
 _atom_site_occupancy
  Ag  Ag0  1  0.50000000  0.00000000  0.03275200  1
  Ag  Ag1  1  0.00000000  0.00000000  0.53275200  1
  Ag  Ag2  1  0.50000000  0.50000000  0.00275100  1
  Ag  Ag3  1  0.00000000  0.50000000  0.50275100  1
  I  I4  1  0.72085100  0.24799300  0.82664100  1
  I  I5  1  0.27914900  0.75200700  0.82664100  1
  I  I6  1  0.22085200  0.75200700  0.32664100  1
  I  I7  1  0.77914900  0.24799300  0.32664100  1
  I  I8  1  0.00000000  0.00000000  0.95209400  1
  I  I9  1  0.50000000  0.00000000  0.45209400  1
  I  I10  1  0.74541500  0.77138500  0.20797900  1
  I  I11  1  0.25458500  0.22861500  0.20797900  1
  I  I12  1  0.24541500  0.22861500  0.70797900  1
  I  I13  1  0.75458500  0.77138500  0.70797900  1
  I  I14  1  0.00000000  0.50000000  0.07898700  1
  I  I15  1  0.50000000  0.50000000  0.57898700  1
  O  O16  1  0.75995500  0.42571500  0.91229300  1
  O  O17  1  0.24004500  0.57428500  0.91229300  1
  O  O18  1  0.25995500  0.57428500  0.41229300  1
  O  O19  1  0.74004500  0.42571500  0.41229300  1
  O  O20  1  0.50450800  0.23009000  0.85122400  1
  O  O21  1  0.49549200  0.76991000  0.85122400  1
  O  O22  1  0.00450800  0.76991000  0.35122400  1
  O  O23  1  0.99549200  0.23009000  0.35122400  1
  O  O24  1  0.76211300  0.08536400  0.94298900  1
  O  O25  1  0.23788700  0.91463600  0.94298900  1
  O  O26  1  0.26211300  0.91463600  0.44298900  1
  O  O27  1  0.73788700  0.08536400  0.44298900  1
  O  O28  1  0.04805100  0.16728100  0.85679600  1
  O  O29  1  0.95194900  0.83271900  0.85679600  1
  O  O30  1  0.54805100  0.83271900  0.35679600  1
  O  O31  1  0.45194900  0.16728100  0.35679600  1
  O  O32  1  0.56777000  0.73246100  0.12149600  1
  O  O33  1  0.43223000  0.26753900  0.12149600  1
  O  O34  1  0.06777000  0.26753900  0.62149600  1
  O  O35  1  0.93223000  0.73246100  0.62149600  1
  O  O36  1  0.76172000  0.98734000  0.18556300  1
  O  O37  1  0.23828000  0.01266000  0.18556300  1
  O  O38  1  0.26172000  0.01266000  0.68556300  1
  O  O39  1  0.73828000  0.98734000  0.68556300  1
  O  O40  1  0.90845300  0.73310500  0.09058200  1
  O  O41  1  0.09154700  0.26689500  0.09058200  1
  O  O42  1  0.40845300  0.26689500  0.59058200  1
  O  O43  1  0.59154700  0.73310500  0.59058200  1
  O  O44  1  0.83317200  0.44497500  0.17320000  1
  O  O45  1  0.16682800  0.55502500  0.17320000  1
  O  O46  1  0.33317200  0.55502500  0.67320000  1
  O  O47  1  0.66682800  0.44497500  0.67320000  1
