# generated using pymatgen
data_CdH7C3NO6
_symmetry_space_group_name_H-M   'P 1'
_cell_length_a   7.12442800
_cell_length_b   9.73125400
_cell_length_c   11.13210400
_cell_angle_alpha   90.00000000
_cell_angle_beta   90.00000000
_cell_angle_gamma   90.00000000
_symmetry_Int_Tables_number   1
_chemical_formula_structural   CdH7C3NO6
_chemical_formula_sum   'Cd4 H28 C12 N4 O24'
_cell_volume   771.78452312
_cell_formula_units_Z   4
loop_
 _symmetry_equiv_pos_site_id
 _symmetry_equiv_pos_as_xyz
  1  'x, y, z'
loop_
 _atom_site_type_symbol
 _atom_site_label
 _atom_site_symmetry_multiplicity
 _atom_site_fract_x
 _atom_site_fract_y
 _atom_site_fract_z
 _atom_site_occupancy
  Cd  Cd0  1  0.60113600  0.00461200  0.96805500  1
  Cd  Cd1  1  0.39886400  0.99538800  0.46805500  1
  Cd  Cd2  1  0.89886400  0.50461200  0.46805500  1
  Cd  Cd3  1  0.10113600  0.49538800  0.96805500  1
  H  H4  1  0.54193700  0.25993500  0.81454800  1
  H  H5  1  0.45806300  0.74006500  0.31454800  1
  H  H6  1  0.95806300  0.75993500  0.31454800  1
  H  H7  1  0.04193700  0.24006500  0.81454800  1
  H  H8  1  0.62700700  0.72755300  0.09075700  1
  H  H9  1  0.37299300  0.27244700  0.59075700  1
  H  H10  1  0.87299300  0.22755300  0.59075700  1
  H  H11  1  0.12700700  0.77244700  0.09075700  1
  H  H12  1  0.26335000  0.53993800  0.66762800  1
  H  H13  1  0.73665000  0.46006200  0.16762800  1
  H  H14  1  0.23665000  0.03993800  0.16762800  1
  H  H15  1  0.76335000  0.96006200  0.66762800  1
  H  H16  1  0.31113100  0.69659200  0.61614500  1
  H  H17  1  0.68886900  0.30340800  0.11614500  1
  H  H18  1  0.18886900  0.19659200  0.11614500  1
  H  H19  1  0.81113100  0.80340800  0.61614500  1
  H  H20  1  0.77992600  0.01661100  0.32834500  1
  H  H21  1  0.22007400  0.98338900  0.82834500  1
  H  H22  1  0.72007400  0.51661100  0.82834500  1
  H  H23  1  0.27992600  0.48338900  0.32834500  1
  H  H24  1  0.49141900  0.59267300  0.66261400  1
  H  H25  1  0.50858100  0.40732700  0.16261400  1
  H  H26  1  0.00858100  0.09267300  0.16261400  1
  H  H27  1  0.99141900  0.90732700  0.66261400  1
  H  H28  1  0.33921600  0.66287500  0.76353300  1
  H  H29  1  0.66078400  0.33712500  0.26353300  1
  H  H30  1  0.16078400  0.16287500  0.26353300  1
  H  H31  1  0.83921600  0.83712500  0.76353300  1
  C  C32  1  0.68460800  0.03106600  0.25077000  1
  C  C33  1  0.31539200  0.96893400  0.75077000  1
  C  C34  1  0.81539200  0.53106600  0.75077000  1
  C  C35  1  0.18460800  0.46893400  0.25077000  1
  C  C36  1  0.74348600  0.70702300  0.02674300  1
  C  C37  1  0.25651400  0.29297700  0.52674300  1
  C  C38  1  0.75651400  0.20702300  0.52674300  1
  C  C39  1  0.24348600  0.79297700  0.02674300  1
  C  C40  1  0.43918700  0.29057900  0.88474700  1
  C  C41  1  0.56081300  0.70942100  0.38474700  1
  C  C42  1  0.06081300  0.79057900  0.38474700  1
  C  C43  1  0.93918700  0.20942100  0.88474700  1
  N  N44  1  0.35224300  0.62363800  0.67780400  1
  N  N45  1  0.64775700  0.37636200  0.17780400  1
  N  N46  1  0.14775700  0.12363800  0.17780400  1
  N  N47  1  0.85224300  0.87636200  0.67780400  1
  O  O48  1  0.42361800  0.21226900  0.97591500  1
  O  O49  1  0.57638200  0.78773100  0.47591500  1
  O  O50  1  0.07638200  0.71226900  0.47591500  1
  O  O51  1  0.92361800  0.28773100  0.97591500  1
  O  O52  1  0.77292100  0.79459300  0.94455500  1
  O  O53  1  0.22707900  0.20540700  0.44455500  1
  O  O54  1  0.72707900  0.29459300  0.44455500  1
  O  O55  1  0.27292100  0.70540700  0.94455500  1
  O  O56  1  0.76455400  0.04460400  0.14827600  1
  O  O57  1  0.23544600  0.95539600  0.64827600  1
  O  O58  1  0.73544600  0.54460400  0.64827600  1
  O  O59  1  0.26455400  0.45539600  0.14827600  1
  O  O60  1  0.34880000  0.40003100  0.86433500  1
  O  O61  1  0.65120000  0.59996900  0.36433500  1
  O  O62  1  0.15120000  0.90003100  0.36433500  1
  O  O63  1  0.84880000  0.09996900  0.86433500  1
  O  O64  1  0.48984500  0.96675900  0.76930700  1
  O  O65  1  0.51015500  0.03324100  0.26930700  1
  O  O66  1  0.01015500  0.46675900  0.26930700  1
  O  O67  1  0.98984500  0.53324100  0.76930700  1
  O  O68  1  0.33275300  0.90388200  0.04582200  1
  O  O69  1  0.66724700  0.09611800  0.54582200  1
  O  O70  1  0.16724700  0.40388200  0.54582200  1
  O  O71  1  0.83275300  0.59611800  0.04582200  1
