# generated using pymatgen
data_KNaV4H4O11
_symmetry_space_group_name_H-M   'P 1'
_cell_length_a   8.37513564
_cell_length_b   8.42076230
_cell_length_c   9.06735393
_cell_angle_alpha   90.10186933
_cell_angle_beta   62.49479798
_cell_angle_gamma   90.22058527
_symmetry_Int_Tables_number   1
_chemical_formula_structural   KNaV4H4O11
_chemical_formula_sum   'K2 Na2 V8 H8 O22'
_cell_volume   567.19057128
_cell_formula_units_Z   2
loop_
 _symmetry_equiv_pos_site_id
 _symmetry_equiv_pos_as_xyz
  1  'x, y, z'
loop_
 _atom_site_type_symbol
 _atom_site_label
 _atom_site_symmetry_multiplicity
 _atom_site_fract_x
 _atom_site_fract_y
 _atom_site_fract_z
 _atom_site_occupancy
  K  K0  1  0.51246400  0.75000000  0.97507200  1
  K  K1  1  0.48753600  0.25000000  0.02492800  1
  Na  Na2  1  0.84730900  0.75000000  0.30538300  1
  Na  Na3  1  0.15269100  0.25000000  0.69461700  1
  V  V4  1  0.99882000  0.34402200  0.41595300  1
  V  V5  1  0.58522700  0.15597800  0.41595300  1
  V  V6  1  0.00118000  0.65597800  0.58404700  1
  V  V7  1  0.41477300  0.84402200  0.58404700  1
  V  V8  1  0.80048200  0.03844200  0.59187100  1
  V  V9  1  0.60764700  0.46155800  0.59187100  1
  V  V10  1  0.19951800  0.96155800  0.40812900  1
  V  V11  1  0.39235300  0.53844200  0.40812900  1
  H  H12  1  0.86999600  0.82068900  0.97515200  1
  H  H13  1  0.15485200  0.67931100  0.97515200  1
  H  H14  1  0.13000400  0.17931100  0.02484800  1
  H  H15  1  0.84514800  0.32068900  0.02484800  1
  H  H16  1  0.76998300  0.96490400  0.09573900  1
  H  H17  1  0.13427800  0.53509600  0.09573900  1
  H  H18  1  0.23001700  0.03509700  0.90426100  1
  H  H19  1  0.86572200  0.46490400  0.90426100  1
  O  O20  1  0.14245600  0.46037500  0.50393400  1
  O  O21  1  0.35361000  0.03962500  0.50393400  1
  O  O22  1  0.85754400  0.53962500  0.49606700  1
  O  O23  1  0.64639000  0.96037500  0.49606700  1
  O  O24  1  0.03579100  0.14472000  0.50914600  1
  O  O25  1  0.45506200  0.35528000  0.50914600  1
  O  O26  1  0.96420900  0.85528000  0.49085400  1
  O  O27  1  0.54493800  0.64472000  0.49085400  1
  O  O28  1  0.74445200  0.25000000  0.51109500  1
  O  O29  1  0.25554800  0.75000000  0.48890500  1
  O  O30  1  0.10185500  0.33781400  0.20887400  1
  O  O31  1  0.68927200  0.16218600  0.20887400  1
  O  O32  1  0.89814500  0.66218600  0.79112600  1
  O  O33  1  0.31072800  0.83781400  0.79112600  1
  O  O34  1  0.69466200  0.02464800  0.79712300  1
  O  O35  1  0.50821500  0.47535200  0.79712300  1
  O  O36  1  0.30533800  0.97535200  0.20287700  1
  O  O37  1  0.49178500  0.52464800  0.20287700  1
  O  O38  1  0.79460000  0.85015600  0.09119700  1
  O  O39  1  0.11420300  0.64984400  0.09119700  1
  O  O40  1  0.20540000  0.14984400  0.90880300  1
  O  O41  1  0.88579700  0.35015600  0.90880300  1
