# generated using pymatgen
data_CsY(PO3)4
_symmetry_space_group_name_H-M   'P 1'
_cell_length_a   8.98454200
_cell_length_b   10.45860400
_cell_length_c   13.00909359
_cell_angle_alpha   56.51958159
_cell_angle_beta   90.00000000
_cell_angle_gamma   90.00000000
_symmetry_Int_Tables_number   1
_chemical_formula_structural   CsY(PO3)4
_chemical_formula_sum   'Cs4 Y4 P16 O48'
_cell_volume   1019.58043996
_cell_formula_units_Z   4
loop_
 _symmetry_equiv_pos_site_id
 _symmetry_equiv_pos_as_xyz
  1  'x, y, z'
loop_
 _atom_site_type_symbol
 _atom_site_label
 _atom_site_symmetry_multiplicity
 _atom_site_fract_x
 _atom_site_fract_y
 _atom_site_fract_z
 _atom_site_occupancy
  Cs  Cs0  1  0.56577400  0.28030800  0.03875000  1
  Cs  Cs1  1  0.93422600  0.28030800  0.53875000  1
  Cs  Cs2  1  0.43422600  0.71969200  0.96125000  1
  Cs  Cs3  1  0.06577400  0.71969200  0.46125000  1
  Y  Y4  1  0.72563400  0.81566300  0.68118600  1
  Y  Y5  1  0.77436600  0.81566300  0.18118600  1
  Y  Y6  1  0.27436600  0.18433700  0.31881400  1
  Y  Y7  1  0.22563400  0.18433700  0.81881400  1
  P  P8  1  0.41043700  0.89035500  0.25657100  1
  P  P9  1  0.08956300  0.89035500  0.75657100  1
  P  P10  1  0.58956300  0.10964500  0.74342900  1
  P  P11  1  0.91043700  0.10964500  0.24342900  1
  P  P12  1  0.67308400  0.17076200  0.36897700  1
  P  P13  1  0.82691600  0.17076200  0.86897700  1
  P  P14  1  0.32691600  0.82923800  0.63102300  1
  P  P15  1  0.17308400  0.82923800  0.13102300  1
  P  P16  1  0.47147000  0.53327100  0.71216300  1
  P  P17  1  0.02853000  0.53327100  0.21216300  1
  P  P18  1  0.52853000  0.46672900  0.28783700  1
  P  P19  1  0.97147000  0.46672900  0.78783700  1
  P  P20  1  0.10963800  0.29866700  0.02736700  1
  P  P21  1  0.39036200  0.29866700  0.52736700  1
  P  P22  1  0.89036200  0.70133300  0.97263300  1
  P  P23  1  0.60963800  0.70133300  0.47263300  1
  O  O24  1  0.54358400  0.54506300  0.59224500  1
  O  O25  1  0.95641600  0.54506300  0.09224500  1
  O  O26  1  0.45641600  0.45493700  0.40775500  1
  O  O27  1  0.04358400  0.45493700  0.90775500  1
  O  O28  1  0.58300900  0.57996400  0.77210500  1
  O  O29  1  0.91699100  0.57996400  0.27210500  1
  O  O30  1  0.41699100  0.42003600  0.22789500  1
  O  O31  1  0.08300900  0.42003600  0.72789500  1
  O  O32  1  0.79282600  0.21560300  0.25978300  1
  O  O33  1  0.70717400  0.21560300  0.75978300  1
  O  O34  1  0.20717400  0.78439700  0.74021700  1
  O  O35  1  0.29282600  0.78439700  0.24021700  1
  O  O36  1  0.54379600  0.92214000  0.17643700  1
  O  O37  1  0.95620400  0.92214000  0.67643700  1
  O  O38  1  0.45620400  0.07786000  0.82356300  1
  O  O39  1  0.04379600  0.07786000  0.32356300  1
  O  O40  1  0.74312800  0.06712800  0.49270300  1
  O  O41  1  0.75687200  0.06712800  0.99270300  1
  O  O42  1  0.25687200  0.93287200  0.50729700  1
  O  O43  1  0.24312800  0.93287200  0.00729700  1
  O  O44  1  0.40314400  0.37766900  0.79105900  1
  O  O45  1  0.09685600  0.37766900  0.29105900  1
  O  O46  1  0.59685600  0.62233100  0.20894100  1
  O  O47  1  0.90314400  0.62233100  0.70894100  1
  O  O48  1  0.32733300  0.02179500  0.24482800  1
  O  O49  1  0.17266700  0.02179500  0.74482800  1
  O  O50  1  0.67266700  0.97820500  0.75517200  1
  O  O51  1  0.82733300  0.97820500  0.25517200  1
  O  O52  1  0.21272000  0.33460200  0.09909800  1
  O  O53  1  0.28728000  0.33460200  0.59909800  1
  O  O54  1  0.78728000  0.66539800  0.90090200  1
  O  O55  1  0.71272000  0.66539800  0.40090200  1
  O  O56  1  0.16884500  0.20227800  0.98389100  1
  O  O57  1  0.33115500  0.20227800  0.48389100  1
  O  O58  1  0.83115500  0.79772200  0.01610900  1
  O  O59  1  0.66884500  0.79772200  0.51610900  1
  O  O60  1  0.52968000  0.12936800  0.33565800  1
  O  O61  1  0.97032000  0.12936800  0.83565800  1
  O  O62  1  0.47032000  0.87063200  0.66434200  1
  O  O63  1  0.02968000  0.87063200  0.16434200  1
  O  O64  1  0.83955500  0.33876400  0.84855100  1
  O  O65  1  0.66044500  0.33876400  0.34855100  1
  O  O66  1  0.16044500  0.66123600  0.15144900  1
  O  O67  1  0.33955500  0.66123600  0.65144900  1
  O  O68  1  0.95336500  0.22978200  0.10077400  1
  O  O69  1  0.54663500  0.22978200  0.60077400  1
  O  O70  1  0.04663500  0.77021800  0.89922600  1
  O  O71  1  0.45336500  0.77021800  0.39922600  1
