# generated using pymatgen
data_Yb5Al17(Fe2Si3)2
_symmetry_space_group_name_H-M   'P 1'
_cell_length_a   11.58165800
_cell_length_b   11.58165800
_cell_length_c   4.02091300
_cell_angle_alpha   90.00000000
_cell_angle_beta   90.00000000
_cell_angle_gamma   90.00000000
_symmetry_Int_Tables_number   1
_chemical_formula_structural   Yb5Al17(Fe2Si3)2
_chemical_formula_sum   'Yb5 Al17 Fe4 Si6'
_cell_volume   539.34436923
_cell_formula_units_Z   1
loop_
 _symmetry_equiv_pos_site_id
 _symmetry_equiv_pos_as_xyz
  1  'x, y, z'
loop_
 _atom_site_type_symbol
 _atom_site_label
 _atom_site_symmetry_multiplicity
 _atom_site_fract_x
 _atom_site_fract_y
 _atom_site_fract_z
 _atom_site_occupancy
  Yb  Yb0  1  0.25811800  0.50000000  0.00000000  1
  Yb  Yb1  1  0.74188200  0.50000000  0.00000000  1
  Yb  Yb2  1  0.50000000  0.74188200  0.00000000  1
  Yb  Yb3  1  0.50000000  0.25811800  0.00000000  1
  Yb  Yb4  1  0.00000000  0.00000000  0.00000000  1
  Al  Al5  1  0.20284000  0.20284000  0.00000000  1
  Al  Al6  1  0.79716000  0.79716000  0.00000000  1
  Al  Al7  1  0.20284000  0.79716000  0.00000000  1
  Al  Al8  1  0.79716000  0.20284000  0.00000000  1
  Al  Al9  1  0.50000000  0.50000000  0.50000000  1
  Al  Al10  1  0.11236500  0.37207500  0.50000000  1
  Al  Al11  1  0.88763500  0.62792500  0.50000000  1
  Al  Al12  1  0.11236500  0.62792500  0.50000000  1
  Al  Al13  1  0.88763500  0.37207500  0.50000000  1
  Al  Al14  1  0.37207500  0.88763500  0.50000000  1
  Al  Al15  1  0.62792500  0.11236500  0.50000000  1
  Al  Al16  1  0.37207500  0.11236500  0.50000000  1
  Al  Al17  1  0.62792500  0.88763500  0.50000000  1
  Al  Al18  1  0.32897200  0.32897200  0.50000000  1
  Al  Al19  1  0.67102800  0.67102800  0.50000000  1
  Al  Al20  1  0.32897200  0.67102800  0.50000000  1
  Al  Al21  1  0.67102800  0.32897200  0.50000000  1
  Fe  Fe22  1  0.29616800  0.00000000  0.00000000  1
  Fe  Fe23  1  0.70383200  0.00000000  0.00000000  1
  Fe  Fe24  1  0.00000000  0.70383200  0.00000000  1
  Fe  Fe25  1  0.00000000  0.29616800  0.00000000  1
  Si  Si26  1  0.17997500  0.00000000  0.50000000  1
  Si  Si27  1  0.82002500  0.00000000  0.50000000  1
  Si  Si28  1  0.00000000  0.82002500  0.50000000  1
  Si  Si29  1  0.00000000  0.17997500  0.50000000  1
  Si  Si30  1  0.00000000  0.50000000  0.00000000  1
  Si  Si31  1  0.50000000  0.00000000  0.00000000  1
