# generated using pymatgen
data_K5Mo4O14F
_symmetry_space_group_name_H-M   'P 1'
_cell_length_a   10.62028164
_cell_length_b   10.62028164
_cell_length_c   8.63326645
_cell_angle_alpha   83.10812244
_cell_angle_beta   83.10812244
_cell_angle_gamma   61.81216345
_symmetry_Int_Tables_number   1
_chemical_formula_structural   K5Mo4O14F
_chemical_formula_sum   'K10 Mo8 O28 F2'
_cell_volume   849.83147996
_cell_formula_units_Z   2
loop_
 _symmetry_equiv_pos_site_id
 _symmetry_equiv_pos_as_xyz
  1  'x, y, z'
loop_
 _atom_site_type_symbol
 _atom_site_label
 _atom_site_symmetry_multiplicity
 _atom_site_fract_x
 _atom_site_fract_y
 _atom_site_fract_z
 _atom_site_occupancy
  K  K0  1  0.32303000  0.11742700  0.90914500  1
  K  K1  1  0.88257300  0.67697000  0.59085500  1
  K  K2  1  0.67697000  0.88257300  0.09085500  1
  K  K3  1  0.11742700  0.32303000  0.40914500  1
  K  K4  1  0.05899900  0.94100100  0.75000000  1
  K  K5  1  0.94100100  0.05899900  0.25000000  1
  K  K6  1  0.68194300  0.54594200  0.22786700  1
  K  K7  1  0.45405800  0.31805700  0.27213300  1
  K  K8  1  0.31805700  0.45405800  0.77213300  1
  K  K9  1  0.54594200  0.68194300  0.72786700  1
  Mo  Mo10  1  0.36860700  0.93326700  0.39622800  1
  Mo  Mo11  1  0.06673300  0.63139300  0.10377200  1
  Mo  Mo12  1  0.63139300  0.06673300  0.60377200  1
  Mo  Mo13  1  0.93326700  0.36860700  0.89622800  1
  Mo  Mo14  1  0.20671600  0.69814600  0.42885000  1
  Mo  Mo15  1  0.30185400  0.79328400  0.07115000  1
  Mo  Mo16  1  0.79328400  0.30185400  0.57115000  1
  Mo  Mo17  1  0.69814600  0.20671600  0.92885000  1
  O  O18  1  0.24903400  0.87350200  0.30869800  1
  O  O19  1  0.12649800  0.75096600  0.19130200  1
  O  O20  1  0.75096600  0.12649800  0.69130200  1
  O  O21  1  0.87350200  0.24903400  0.80869800  1
  O  O22  1  0.32275600  0.67919400  0.57091100  1
  O  O23  1  0.32080600  0.67724400  0.92908900  1
  O  O24  1  0.67724400  0.32080600  0.42908900  1
  O  O25  1  0.67919400  0.32275600  0.07091100  1
  O  O26  1  0.03506300  0.82189500  0.50526000  1
  O  O27  1  0.17810500  0.96493700  0.99474000  1
  O  O28  1  0.96493700  0.17810500  0.49474000  1
  O  O29  1  0.82189500  0.03506300  0.00526000  1
  O  O30  1  0.19694900  0.53334200  0.45026700  1
  O  O31  1  0.46665800  0.80305100  0.04973300  1
  O  O32  1  0.80305100  0.46665800  0.54973300  1
  O  O33  1  0.53334200  0.19694900  0.95026700  1
  O  O34  1  0.36351000  0.08487000  0.27774200  1
  O  O35  1  0.91513000  0.63649000  0.22225800  1
  O  O36  1  0.63649000  0.91513000  0.72225800  1
  O  O37  1  0.08487000  0.36351000  0.77774200  1
  O  O38  1  0.54890200  0.79671100  0.40028600  1
  O  O39  1  0.20328900  0.45109800  0.09971400  1
  O  O40  1  0.45109800  0.20328900  0.59971400  1
  O  O41  1  0.79671100  0.54890200  0.90028600  1
  O  O42  1  0.30325400  0.98410100  0.58898200  1
  O  O43  1  0.01589900  0.69674600  0.91101800  1
  O  O44  1  0.69674600  0.01589900  0.41101800  1
  O  O45  1  0.98410100  0.30325400  0.08898200  1
  F  F46  1  0.39225700  0.60774300  0.25000000  1
  F  F47  1  0.60774300  0.39225700  0.75000000  1
