# generated using pymatgen
data_Ca2Co2O5
_symmetry_space_group_name_H-M   'P 1'
_cell_length_a   5.36656100
_cell_length_b   11.14595800
_cell_length_c   14.77482678
_cell_angle_alpha   89.92465175
_cell_angle_beta   90.00000000
_cell_angle_gamma   90.00000000
_symmetry_Int_Tables_number   1
_chemical_formula_structural   Ca2Co2O5
_chemical_formula_sum   'Ca16 Co16 O40'
_cell_volume   883.76234769
_cell_formula_units_Z   8
loop_
 _symmetry_equiv_pos_site_id
 _symmetry_equiv_pos_as_xyz
  1  'x, y, z'
loop_
 _atom_site_type_symbol
 _atom_site_label
 _atom_site_symmetry_multiplicity
 _atom_site_fract_x
 _atom_site_fract_y
 _atom_site_fract_z
 _atom_site_occupancy
  Ca  Ca0  1  0.98675700  0.76079500  0.60511600  1
  Ca  Ca1  1  0.98675700  0.73920500  0.39488400  1
  Ca  Ca2  1  0.01324300  0.23920500  0.39488400  1
  Ca  Ca3  1  0.01324300  0.26079500  0.60511600  1
  Ca  Ca4  1  0.98361600  0.76300700  0.88992100  1
  Ca  Ca5  1  0.98361600  0.73699300  0.11007900  1
  Ca  Ca6  1  0.01638400  0.23699300  0.11007900  1
  Ca  Ca7  1  0.01638400  0.26300700  0.88992100  1
  Ca  Ca8  1  0.51419600  0.98930500  0.89012600  1
  Ca  Ca9  1  0.51419600  0.51069500  0.10987400  1
  Ca  Ca10  1  0.48580400  0.01069500  0.10987400  1
  Ca  Ca11  1  0.48580400  0.48930500  0.89012600  1
  Ca  Ca12  1  0.51265000  0.98926100  0.60508400  1
  Ca  Ca13  1  0.51265000  0.51073900  0.39491600  1
  Ca  Ca14  1  0.48735000  0.01073900  0.39491600  1
  Ca  Ca15  1  0.48735000  0.48926100  0.60508400  1
  Co  Co16  1  0.44739900  0.71700300  0.74600000  1
  Co  Co17  1  0.44739900  0.78299700  0.25400000  1
  Co  Co18  1  0.55260100  0.28299700  0.25400000  1
  Co  Co19  1  0.55260100  0.21700300  0.74600000  1
  Co  Co20  1  0.95442600  0.53099200  0.74735600  1
  Co  Co21  1  0.95442600  0.96900800  0.25264400  1
  Co  Co22  1  0.04557400  0.46900800  0.25264400  1
  Co  Co23  1  0.04557400  0.03099200  0.74735600  1
  Co  Co24  1  0.00000000  0.50000000  0.00000000  1
  Co  Co25  1  0.00000000  0.00000000  0.00000000  1
  Co  Co26  1  0.00000000  0.50000000  0.50000000  1
  Co  Co27  1  0.00000000  0.00000000  0.50000000  1
  Co  Co28  1  0.49392500  0.75000000  0.00000000  1
  Co  Co29  1  0.50607500  0.25000000  0.00000000  1
  Co  Co30  1  0.49419400  0.75000000  0.50000000  1
  Co  Co31  1  0.50580600  0.25000000  0.50000000  1
  O  O32  1  0.59135500  0.55805000  0.74822900  1
  O  O33  1  0.59135500  0.94195000  0.25177100  1
  O  O34  1  0.40864500  0.44195000  0.25177100  1
  O  O35  1  0.40864500  0.05805000  0.74822900  1
  O  O36  1  0.08672000  0.69282300  0.74843900  1
  O  O37  1  0.08672000  0.80717700  0.25156100  1
  O  O38  1  0.91328000  0.30717700  0.25156100  1
  O  O39  1  0.91328000  0.19282300  0.74843900  1
  O  O40  1  0.51578100  0.78512700  0.85420900  1
  O  O41  1  0.51578100  0.71487300  0.14579100  1
  O  O42  1  0.48421900  0.21487300  0.14579100  1
  O  O43  1  0.48421900  0.28512700  0.85420900  1
  O  O44  1  0.50398800  0.77918400  0.63347800  1
  O  O45  1  0.50398800  0.72081600  0.36652200  1
  O  O46  1  0.49601200  0.22081600  0.36652200  1
  O  O47  1  0.49601200  0.27918400  0.63347800  1
  O  O48  1  0.02372200  0.46922900  0.63655200  1
  O  O49  1  0.02372200  0.03077100  0.36344800  1
  O  O50  1  0.97627800  0.53077100  0.36344800  1
  O  O51  1  0.97627800  0.96922900  0.63655200  1
  O  O52  1  0.76046800  0.37349200  0.48630900  1
  O  O53  1  0.76046800  0.12650800  0.51369100  1
  O  O54  1  0.23953200  0.62650800  0.51369100  1
  O  O55  1  0.23953200  0.87349200  0.48630900  1
  O  O56  1  0.74502300  0.62185100  0.51683900  1
  O  O57  1  0.74502300  0.87814900  0.48316100  1
  O  O58  1  0.25497700  0.37814900  0.48316100  1
  O  O59  1  0.25497700  0.12185100  0.51683900  1
  O  O60  1  0.75329900  0.36930100  0.01089800  1
  O  O61  1  0.75329900  0.13069900  0.98910200  1
  O  O62  1  0.24670100  0.63069900  0.98910200  1
  O  O63  1  0.24670100  0.86930100  0.01089800  1
  O  O64  1  0.73948600  0.62832100  0.98453100  1
  O  O65  1  0.73948600  0.87167900  0.01546900  1
  O  O66  1  0.26051400  0.37167900  0.01546900  1
  O  O67  1  0.26051400  0.12832100  0.98453100  1
  O  O68  1  0.02445000  0.46920100  0.85820000  1
  O  O69  1  0.02445000  0.03079900  0.14180000  1
  O  O70  1  0.97555000  0.53079900  0.14180000  1
  O  O71  1  0.97555000  0.96920100  0.85820000  1
