# generated using pymatgen
data_SiH14C6(NO2)2
_symmetry_space_group_name_H-M   'P 1'
_cell_length_a   6.93253100
_cell_length_b   8.24889000
_cell_length_c   20.66838100
_cell_angle_alpha   90.00000000
_cell_angle_beta   90.00000000
_cell_angle_gamma   90.00000000
_symmetry_Int_Tables_number   1
_chemical_formula_structural   SiH14C6(NO2)2
_chemical_formula_sum   'Si4 H56 C24 N8 O16'
_cell_volume   1181.93553857
_cell_formula_units_Z   4
loop_
 _symmetry_equiv_pos_site_id
 _symmetry_equiv_pos_as_xyz
  1  'x, y, z'
loop_
 _atom_site_type_symbol
 _atom_site_label
 _atom_site_symmetry_multiplicity
 _atom_site_fract_x
 _atom_site_fract_y
 _atom_site_fract_z
 _atom_site_occupancy
  Si  Si0  1  0.21020500  0.31253300  0.67801400  1
  Si  Si1  1  0.28979500  0.68746700  0.17801400  1
  Si  Si2  1  0.71020500  0.18746700  0.32198600  1
  Si  Si3  1  0.78979500  0.81253300  0.82198600  1
  H  H4  1  0.28568200  0.14531400  0.57831500  1
  H  H5  1  0.21431800  0.85468600  0.07831500  1
  H  H6  1  0.78568200  0.35468600  0.42168500  1
  H  H7  1  0.71431800  0.64531400  0.92168500  1
  H  H8  1  0.28092800  0.60857100  0.66458300  1
  H  H9  1  0.21907200  0.39142900  0.16458300  1
  H  H10  1  0.78092800  0.89142900  0.33541700  1
  H  H11  1  0.71907200  0.10857100  0.83541700  1
  H  H12  1  0.17797100  0.52814600  0.59303700  1
  H  H13  1  0.32202900  0.47185400  0.09303700  1
  H  H14  1  0.67797100  0.97185400  0.40696300  1
  H  H15  1  0.82202900  0.02814600  0.90696300  1
  H  H16  1  0.27635300  0.02211400  0.64845800  1
  H  H17  1  0.22364700  0.97788600  0.14845800  1
  H  H18  1  0.77635300  0.47788600  0.35154200  1
  H  H19  1  0.72364700  0.52211400  0.85154200  1
  H  H20  1  0.77999800  0.65768800  0.51341300  1
  H  H21  1  0.72000200  0.34231200  0.01341300  1
  H  H22  1  0.27999800  0.84231200  0.48658700  1
  H  H23  1  0.22000200  0.15768800  0.98658700  1
  H  H24  1  0.35367200  0.16554500  0.77167400  1
  H  H25  1  0.14632800  0.83445500  0.27167400  1
  H  H26  1  0.85367200  0.33445500  0.22832600  1
  H  H27  1  0.64632800  0.66554500  0.72832600  1
  H  H28  1  0.77996100  0.46635600  0.54971500  1
  H  H29  1  0.72003900  0.53364400  0.04971500  1
  H  H30  1  0.27996100  0.03364400  0.45028500  1
  H  H31  1  0.22003900  0.96635600  0.95028500  1
  H  H32  1  0.64553800  0.13256600  0.52238600  1
  H  H33  1  0.85446200  0.86743400  0.02238600  1
  H  H34  1  0.14553800  0.36743400  0.47761400  1
  H  H35  1  0.35446200  0.63256600  0.97761400  1
  H  H36  1  0.53642300  0.26674900  0.72640700  1
  H  H37  1  0.96357700  0.73325100  0.22640700  1
  H  H38  1  0.03642300  0.23325100  0.27359300  1
  H  H39  1  0.46357700  0.76674900  0.77359300  1
  H  H40  1  0.70159500  0.96707600  0.57218700  1
  H  H41  1  0.79840500  0.03292400  0.07218700  1
  H  H42  1  0.20159500  0.53292400  0.42781300  1
  H  H43  1  0.29840500  0.46707600  0.92781300  1
  H  H44  1  0.38445800  0.37842200  0.77935500  1
  H  H45  1  0.11554200  0.62157800  0.27935500  1
  H  H46  1  0.88445800  0.12157800  0.22064500  1
  H  H47  1  0.61554200  0.87842200  0.72064500  1
  H  H48  1  0.97265500  0.42547300  0.75561000  1
  H  H49  1  0.52734500  0.57452700  0.25561000  1
  H  H50  1  0.47265500  0.07452700  0.24439000  1
  H  H51  1  0.02734500  0.92547300  0.74439000  1
  H  H52  1  0.86290100  0.39742500  0.67821400  1
  H  H53  1  0.63709900  0.60257500  0.17821400  1
  H  H54  1  0.36290100  0.10257500  0.32178600  1
  H  H55  1  0.13709900  0.89742500  0.82178600  1
  H  H56  1  0.90376000  0.22888000  0.72996800  1
  H  H57  1  0.59624000  0.77112000  0.22996800  1
  H  H58  1  0.40376000  0.27112000  0.27003200  1
  H  H59  1  0.09624000  0.72888000  0.77003200  1
  C  C60  1  0.54328500  0.61214400  0.56966300  1
  C  C61  1  0.95671500  0.38785600  0.06966300  1
  C  C62  1  0.04328500  0.88785600  0.43033700  1
  C  C63  1  0.45671500  0.11214400  0.93033700  1
  C  C64  1  0.90583400  0.14944600  0.56798400  1
  C  C65  1  0.59416600  0.85055400  0.06798400  1
  C  C66  1  0.40583400  0.35055400  0.43201600  1
  C  C67  1  0.09416600  0.64944600  0.93201600  1
  C  C68  1  0.28183600  0.50298100  0.63191900  1
  C  C69  1  0.21816400  0.49701900  0.13191900  1
  C  C70  1  0.78183600  0.99701900  0.36808100  1
  C  C71  1  0.71816400  0.00298100  0.86808100  1
  C  C72  1  0.96382300  0.34497700  0.71337900  1
  C  C73  1  0.53617700  0.65502300  0.21337900  1
  C  C74  1  0.46382300  0.15502300  0.28662100  1
  C  C75  1  0.03617700  0.84497700  0.78662100  1
  C  C76  1  0.20667300  0.12413200  0.62363800  1
  C  C77  1  0.29332700  0.87586800  0.12363800  1
  C  C78  1  0.70667300  0.37586800  0.37636200  1
  C  C79  1  0.79332700  0.62413200  0.87636200  1
  C  C80  1  0.38844900  0.27689600  0.74490000  1
  C  C81  1  0.11155100  0.72310400  0.24490000  1
  C  C82  1  0.88844900  0.22310400  0.25510000  1
  C  C83  1  0.61155100  0.77689600  0.75510000  1
  N  N84  1  0.71972500  0.57895900  0.54559300  1
  N  N85  1  0.78027500  0.42104100  0.04559300  1
  N  N86  1  0.21972500  0.92104100  0.45440700  1
  N  N87  1  0.28027500  0.07895900  0.95440700  1
  N  N88  1  0.73462900  0.07945800  0.55545100  1
  N  N89  1  0.76537100  0.92054200  0.05545100  1
  N  N90  1  0.23462900  0.42054200  0.44454900  1
  N  N91  1  0.26537100  0.57945800  0.94454900  1
  O  O92  1  0.95859500  0.28300000  0.54562100  1
  O  O93  1  0.54140500  0.71700000  0.04562100  1
  O  O94  1  0.45859500  0.21700000  0.45437900  1
  O  O95  1  0.04140500  0.78300000  0.95437900  1
  O  O96  1  0.45491900  0.74154000  0.56275800  1
  O  O97  1  0.04508100  0.25846000  0.06275800  1
  O  O98  1  0.95491900  0.75846000  0.43724200  1
  O  O99  1  0.54508100  0.24154000  0.93724200  1
  O  O100  1  0.01513300  0.06015400  0.60879600  1
  O  O101  1  0.48486700  0.93984600  0.10879600  1
  O  O102  1  0.51513300  0.43984600  0.39120400  1
  O  O103  1  0.98486700  0.56015400  0.89120400  1
  O  O104  1  0.47364700  0.48315400  0.60468400  1
  O  O105  1  0.02635300  0.51684600  0.10468400  1
  O  O106  1  0.97364700  0.01684600  0.39531600  1
  O  O107  1  0.52635300  0.98315400  0.89531600  1
