# generated using pymatgen
data_MnBe2Fe2(P2O11)2
_symmetry_space_group_name_H-M   'P 1'
_cell_length_a   9.96990698
_cell_length_b   9.96990698
_cell_length_c   16.81697000
_cell_angle_alpha   90.00000000
_cell_angle_beta   90.00000000
_cell_angle_gamma   120.00000650
_symmetry_Int_Tables_number   1
_chemical_formula_structural   MnBe2Fe2(P2O11)2
_chemical_formula_sum   'Mn3 Be6 Fe6 P12 O66'
_cell_volume   1447.63996872
_cell_formula_units_Z   3
loop_
 _symmetry_equiv_pos_site_id
 _symmetry_equiv_pos_as_xyz
  1  'x, y, z'
loop_
 _atom_site_type_symbol
 _atom_site_label
 _atom_site_symmetry_multiplicity
 _atom_site_fract_x
 _atom_site_fract_y
 _atom_site_fract_z
 _atom_site_occupancy
  Mn  Mn0  1  0.04555200  0.98320900  0.46742600  1
  Mn  Mn1  1  0.01679100  0.06234300  0.80076000  1
  Mn  Mn2  1  0.93765700  0.95444800  0.13409300  1
  Be  Be3  1  0.77911900  0.07754500  0.39711700  1
  Be  Be4  1  0.92245500  0.70157500  0.73045100  1
  Be  Be5  1  0.29842500  0.22088100  0.06378400  1
  Be  Be6  1  0.21547300  0.31525500  0.27278600  1
  Be  Be7  1  0.68474500  0.90021800  0.60611900  1
  Be  Be8  1  0.09978200  0.78452700  0.93945300  1
  Fe  Fe9  1  0.53230100  0.42162600  0.45625600  1
  Fe  Fe10  1  0.57837400  0.11067500  0.78958900  1
  Fe  Fe11  1  0.88932500  0.46769900  0.12292200  1
  Fe  Fe12  1  0.44546200  0.87547900  0.23884000  1
  Fe  Fe13  1  0.12452100  0.56998300  0.57217400  1
  Fe  Fe14  1  0.43001700  0.55453800  0.90550700  1
  P  P15  1  0.18377900  0.36083700  0.44233100  1
  P  P16  1  0.63916300  0.82294200  0.77566400  1
  P  P17  1  0.17705800  0.81622100  0.10899800  1
  P  P18  1  0.79671100  0.17002100  0.22880700  1
  P  P19  1  0.82997900  0.62669000  0.56214000  1
  P  P20  1  0.37331000  0.20328900  0.89547300  1
  P  P21  1  0.68707000  0.78201900  0.46689900  1
  P  P22  1  0.21798100  0.90505000  0.80023300  1
  P  P23  1  0.09495000  0.31293000  0.13356600  1
  P  P24  1  0.32010600  0.11943300  0.20304400  1
  P  P25  1  0.88056700  0.20067300  0.53637700  1
  P  P26  1  0.79932700  0.67989400  0.86971000  1
  O  O27  1  0.03134300  0.20610100  0.48450400  1
  O  O28  1  0.79389900  0.82524100  0.81783800  1
  O  O29  1  0.17475900  0.96865700  0.15117100  1
  O  O30  1  0.94782200  0.16942400  0.18356900  1
  O  O31  1  0.83057600  0.77839900  0.51690300  1
  O  O32  1  0.22160100  0.05217800  0.85023600  1
  O  O33  1  0.19342100  0.50536900  0.47460500  1
  O  O34  1  0.49463100  0.68805200  0.80793900  1
  O  O35  1  0.31194800  0.80657900  0.14127200  1
  O  O36  1  0.81843100  0.33025400  0.21185100  1
  O  O37  1  0.66974600  0.48817700  0.54518400  1
  O  O38  1  0.51182300  0.18156900  0.87851700  1
  O  O39  1  0.31198600  0.32586200  0.46643600  1
  O  O40  1  0.67413800  0.98612300  0.79976900  1
  O  O41  1  0.01387700  0.68801400  0.13310300  1
  O  O42  1  0.65951600  0.03274900  0.19234700  1
  O  O43  1  0.96725100  0.62676700  0.52568100  1
  O  O44  1  0.37323300  0.34048400  0.85901400  1
  O  O45  1  0.15919500  0.34252700  0.35269600  1
  O  O46  1  0.65747300  0.81666800  0.68602900  1
  O  O47  1  0.18333200  0.84080500  0.01936300  1
  O  O48  1  0.82061000  0.15407400  0.31676900  1
  O  O49  1  0.84592600  0.66653600  0.65010200  1
  O  O50  1  0.33346400  0.17939000  0.98343500  1
  O  O51  1  0.59454700  0.81010700  0.53010600  1
  O  O52  1  0.18989300  0.78444000  0.86343900  1
  O  O53  1  0.21556000  0.40545300  0.19677200  1
  O  O54  1  0.40176300  0.23762100  0.13616800  1
  O  O55  1  0.76237900  0.16414200  0.46950100  1
  O  O56  1  0.83585800  0.59823700  0.80283400  1
  O  O57  1  0.25021000  0.88795700  0.38832400  1
  O  O58  1  0.11204300  0.36225300  0.72165800  1
  O  O59  1  0.63774700  0.74979000  0.05499100  1
  O  O60  1  0.78058200  0.66556000  0.24849200  1
  O  O61  1  0.33444000  0.11502200  0.58182500  1
  O  O62  1  0.88497800  0.21941800  0.91515900  1
  O  O63  1  0.59872100  0.63496500  0.41984900  1
  O  O64  1  0.36503500  0.96375600  0.75318200  1
  O  O65  1  0.03624400  0.40127900  0.08651500  1
  O  O66  1  0.41479200  0.06408200  0.24533700  1
  O  O67  1  0.93591800  0.35071000  0.57867000  1
  O  O68  1  0.64929000  0.58520800  0.91200300  1
  O  O69  1  0.78938600  0.92635000  0.41466700  1
  O  O70  1  0.07365000  0.86303700  0.74800000  1
  O  O71  1  0.13696300  0.21061400  0.08133300  1
  O  O72  1  0.23272800  0.17022000  0.25949400  1
  O  O73  1  0.82978000  0.06250800  0.59282700  1
  O  O74  1  0.93749200  0.76727200  0.92616100  1
  O  O75  1  0.54003400  0.23914500  0.40443800  1
  O  O76  1  0.76085500  0.30088900  0.73777100  1
  O  O77  1  0.69911100  0.45996600  0.07110500  1
  O  O78  1  0.49332100  0.74455200  0.27317000  1
  O  O79  1  0.25544800  0.74876900  0.60650400  1
  O  O80  1  0.25123100  0.50667900  0.93983700  1
  O  O81  1  0.61352000  0.36402600  0.35863600  1
  O  O82  1  0.63597400  0.24949500  0.69197000  1
  O  O83  1  0.75050500  0.38648000  0.02530300  1
  O  O84  1  0.26110500  0.79548500  0.33703800  1
  O  O85  1  0.20451500  0.46562000  0.67037100  1
  O  O86  1  0.53438000  0.73889500  0.00370500  1
  O  O87  1  0.10702300  0.89296500  0.37921800  1
  O  O88  1  0.10703500  0.21405800  0.71255200  1
  O  O89  1  0.78594200  0.89297700  0.04588500  1
  O  O90  1  0.86187300  0.81060400  0.24880200  1
  O  O91  1  0.18939600  0.05127000  0.58213500  1
  O  O92  1  0.94873000  0.13812700  0.91546800  1
