# generated using pymatgen
data_MnBi2(IO)8
_symmetry_space_group_name_H-M   'P 1'
_cell_length_a   12.85151200
_cell_length_b   7.55112100
_cell_length_c   14.96676038
_cell_angle_alpha   76.48533753
_cell_angle_beta   90.00000000
_cell_angle_gamma   90.00000000
_symmetry_Int_Tables_number   1
_chemical_formula_structural   MnBi2(IO)8
_chemical_formula_sum   'Mn2 Bi4 I16 O16'
_cell_volume   1412.20673928
_cell_formula_units_Z   2
loop_
 _symmetry_equiv_pos_site_id
 _symmetry_equiv_pos_as_xyz
  1  'x, y, z'
loop_
 _atom_site_type_symbol
 _atom_site_label
 _atom_site_symmetry_multiplicity
 _atom_site_fract_x
 _atom_site_fract_y
 _atom_site_fract_z
 _atom_site_occupancy
  Mn  Mn0  1  0.50000000  0.50000000  0.50000000  1
  Mn  Mn1  1  0.00000000  0.50000000  0.00000000  1
  Bi  Bi2  1  0.54833800  0.77583300  0.93562300  1
  Bi  Bi3  1  0.04833800  0.22416700  0.56437700  1
  Bi  Bi4  1  0.45166200  0.22416700  0.06437700  1
  Bi  Bi5  1  0.95166200  0.77583300  0.43562300  1
  I  I6  1  0.34319400  0.89129700  0.04448500  1
  I  I7  1  0.84319400  0.10870300  0.45551500  1
  I  I8  1  0.65680600  0.10870300  0.95551500  1
  I  I9  1  0.15680600  0.89129700  0.54448500  1
  I  I10  1  0.63386100  0.52593400  0.09825000  1
  I  I11  1  0.13386100  0.47406600  0.40175000  1
  I  I12  1  0.36613900  0.47406600  0.90175000  1
  I  I13  1  0.86613900  0.52593400  0.59825000  1
  I  I14  1  0.67080800  0.73008700  0.77848700  1
  I  I15  1  0.17080800  0.26991300  0.72151300  1
  I  I16  1  0.32919200  0.26991300  0.22151300  1
  I  I17  1  0.82919200  0.73008700  0.27848700  1
  I  I18  1  0.43176300  0.14954600  0.62710200  1
  I  I19  1  0.93176300  0.85045400  0.87289800  1
  I  I20  1  0.56823700  0.85045400  0.37289800  1
  I  I21  1  0.06823700  0.14954600  0.12710200  1
  O  O22  1  0.47853400  0.34935200  0.66364100  1
  O  O23  1  0.97853400  0.65064800  0.83635900  1
  O  O24  1  0.52146600  0.65064800  0.33635900  1
  O  O25  1  0.02146600  0.34935200  0.16364100  1
  O  O26  1  0.62623600  0.72007700  0.47928000  1
  O  O27  1  0.12623600  0.27992300  0.02072000  1
  O  O28  1  0.37376400  0.27992300  0.52072000  1
  O  O29  1  0.87376400  0.72007700  0.97928000  1
  O  O30  1  0.40903600  0.73087700  0.50260500  1
  O  O31  1  0.90903600  0.26912300  0.99739500  1
  O  O32  1  0.59096400  0.26912300  0.49739500  1
  O  O33  1  0.09096400  0.73087700  0.00260500  1
  O  O34  1  0.57211400  0.11051300  0.56552000  1
  O  O35  1  0.07211400  0.88948700  0.93448000  1
  O  O36  1  0.42788600  0.88948700  0.43448000  1
  O  O37  1  0.92788600  0.11051300  0.06552000  1
