# generated using pymatgen
data_Ba2V2CuBrO8
_symmetry_space_group_name_H-M   'P 1'
_cell_length_a   6.24943500
_cell_length_b   9.79876700
_cell_length_c   15.18055000
_cell_angle_alpha   90.00000000
_cell_angle_beta   90.00000000
_cell_angle_gamma   90.00000000
_symmetry_Int_Tables_number   1
_chemical_formula_structural   Ba2V2CuBrO8
_chemical_formula_sum   'Ba8 V8 Cu4 Br4 O32'
_cell_volume   929.60765826
_cell_formula_units_Z   4
loop_
 _symmetry_equiv_pos_site_id
 _symmetry_equiv_pos_as_xyz
  1  'x, y, z'
loop_
 _atom_site_type_symbol
 _atom_site_label
 _atom_site_symmetry_multiplicity
 _atom_site_fract_x
 _atom_site_fract_y
 _atom_site_fract_z
 _atom_site_occupancy
  Ba  Ba0  1  0.75000000  0.14191100  0.53225000  1
  Ba  Ba1  1  0.75000000  0.35808900  0.03225000  1
  Ba  Ba2  1  0.25000000  0.85808900  0.46775000  1
  Ba  Ba3  1  0.25000000  0.64191100  0.96775000  1
  Ba  Ba4  1  0.75000000  0.46231100  0.75263800  1
  Ba  Ba5  1  0.75000000  0.03768900  0.25263800  1
  Ba  Ba6  1  0.25000000  0.53768900  0.24736200  1
  Ba  Ba7  1  0.25000000  0.96231100  0.74736200  1
  V  V8  1  0.25000000  0.28899200  0.63121800  1
  V  V9  1  0.25000000  0.21100800  0.13121800  1
  V  V10  1  0.75000000  0.71100800  0.36878200  1
  V  V11  1  0.75000000  0.78899200  0.86878200  1
  V  V12  1  0.25000000  0.29253300  0.86849400  1
  V  V13  1  0.25000000  0.20746700  0.36849400  1
  V  V14  1  0.75000000  0.70746700  0.13150600  1
  V  V15  1  0.75000000  0.79253300  0.63150600  1
  Cu  Cu16  1  0.00000000  0.50000000  0.50000000  1
  Cu  Cu17  1  0.50000000  0.00000000  0.00000000  1
  Cu  Cu18  1  0.50000000  0.50000000  0.50000000  1
  Cu  Cu19  1  0.00000000  0.00000000  0.00000000  1
  Br  Br20  1  0.25000000  0.61877000  0.75014000  1
  Br  Br21  1  0.25000000  0.88123000  0.25014000  1
  Br  Br22  1  0.75000000  0.38123000  0.24986000  1
  Br  Br23  1  0.75000000  0.11877000  0.74986000  1
  O  O24  1  0.25000000  0.12955900  0.58926000  1
  O  O25  1  0.25000000  0.37044100  0.08926000  1
  O  O26  1  0.75000000  0.87044100  0.41074000  1
  O  O27  1  0.75000000  0.62955900  0.91074000  1
  O  O28  1  0.01237600  0.36937500  0.59856600  1
  O  O29  1  0.48762400  0.13062500  0.09856600  1
  O  O30  1  0.51237600  0.63062500  0.40143400  1
  O  O31  1  0.98762400  0.86937500  0.90143400  1
  O  O32  1  0.98762400  0.63062500  0.40143400  1
  O  O33  1  0.51237600  0.86937500  0.90143400  1
  O  O34  1  0.48762400  0.36937500  0.59856600  1
  O  O35  1  0.01237600  0.13062500  0.09856600  1
  O  O36  1  0.47356700  0.38367700  0.89829500  1
  O  O37  1  0.02643300  0.11632300  0.39829500  1
  O  O38  1  0.97356700  0.61632300  0.10170500  1
  O  O39  1  0.52643300  0.88367700  0.60170500  1
  O  O40  1  0.52643300  0.61632300  0.10170500  1
  O  O41  1  0.97356700  0.88367700  0.60170500  1
  O  O42  1  0.02643300  0.38367700  0.89829500  1
  O  O43  1  0.47356700  0.11632300  0.39829500  1
  O  O44  1  0.25000000  0.26166400  0.74834200  1
  O  O45  1  0.25000000  0.23833600  0.24834200  1
  O  O46  1  0.75000000  0.73833600  0.25165800  1
  O  O47  1  0.75000000  0.76166400  0.75165800  1
  O  O48  1  0.75000000  0.63287400  0.58689500  1
  O  O49  1  0.75000000  0.86712600  0.08689500  1
  O  O50  1  0.25000000  0.36712600  0.41310500  1
  O  O51  1  0.25000000  0.13287400  0.91310500  1
  O  O52  1  0.25000000  0.58260500  0.53401700  1
  O  O53  1  0.25000000  0.91739500  0.03401700  1
  O  O54  1  0.75000000  0.41739500  0.46598300  1
  O  O55  1  0.75000000  0.08260500  0.96598300  1
