# generated using pymatgen
data_Rb3Sb2I9
_symmetry_space_group_name_H-M   'P 1'
_cell_length_a   8.44735200
_cell_length_b   15.03963500
_cell_length_c   25.87042706
_cell_angle_alpha   54.48855570
_cell_angle_beta   90.00000000
_cell_angle_gamma   90.00000000
_symmetry_Int_Tables_number   1
_chemical_formula_structural   Rb3Sb2I9
_chemical_formula_sum   'Rb12 Sb8 I36'
_cell_volume   2675.38095021
_cell_formula_units_Z   4
loop_
 _symmetry_equiv_pos_site_id
 _symmetry_equiv_pos_as_xyz
  1  'x, y, z'
loop_
 _atom_site_type_symbol
 _atom_site_label
 _atom_site_symmetry_multiplicity
 _atom_site_fract_x
 _atom_site_fract_y
 _atom_site_fract_z
 _atom_site_occupancy
  Rb  Rb0  1  0.51746900  0.75669500  0.77251500  1
  Rb  Rb1  1  0.98253100  0.75669500  0.27251500  1
  Rb  Rb2  1  0.48253100  0.24330500  0.22748500  1
  Rb  Rb3  1  0.01746900  0.24330500  0.72748500  1
  Rb  Rb4  1  0.51042000  0.74949400  0.43194700  1
  Rb  Rb5  1  0.98958000  0.74949400  0.93194700  1
  Rb  Rb6  1  0.48958000  0.25050600  0.56805300  1
  Rb  Rb7  1  0.01042000  0.25050600  0.06805300  1
  Rb  Rb8  1  0.47481300  0.25782900  0.89419200  1
  Rb  Rb9  1  0.02518700  0.25782900  0.39419200  1
  Rb  Rb10  1  0.52518700  0.74217100  0.10580800  1
  Rb  Rb11  1  0.97481300  0.74217100  0.60580800  1
  Sb  Sb12  1  0.50746200  0.00401200  0.15816300  1
  Sb  Sb13  1  0.99253800  0.00401200  0.65816300  1
  Sb  Sb14  1  0.49253800  0.99598800  0.84183700  1
  Sb  Sb15  1  0.00746200  0.99598800  0.34183700  1
  Sb  Sb16  1  0.49131500  0.50740100  0.65894100  1
  Sb  Sb17  1  0.00868500  0.50740100  0.15894100  1
  Sb  Sb18  1  0.50868500  0.49259900  0.34105900  1
  Sb  Sb19  1  0.99131500  0.49259900  0.84105900  1
  I  I20  1  0.06858500  0.74885800  0.74820300  1
  I  I21  1  0.43141500  0.74885800  0.24820300  1
  I  I22  1  0.93141500  0.25114200  0.25179700  1
  I  I23  1  0.56858500  0.25114200  0.75179700  1
  I  I24  1  0.05730400  0.75864000  0.41822900  1
  I  I25  1  0.44269600  0.75864000  0.91822900  1
  I  I26  1  0.94269600  0.24136000  0.58177100  1
  I  I27  1  0.55730400  0.24136000  0.08177100  1
  I  I28  1  0.93338600  0.25736900  0.92024800  1
  I  I29  1  0.56661400  0.25736900  0.42024800  1
  I  I30  1  0.06661400  0.74263100  0.07975200  1
  I  I31  1  0.43338600  0.74263100  0.57975200  1
  I  I32  1  0.80689000  0.97703400  0.43941600  1
  I  I33  1  0.69311000  0.97703400  0.93941600  1
  I  I34  1  0.19311000  0.02296600  0.56058400  1
  I  I35  1  0.30689000  0.02296600  0.06058400  1
  I  I36  1  0.79426300  0.52648200  0.92140400  1
  I  I37  1  0.70573700  0.52648200  0.42140400  1
  I  I38  1  0.20573700  0.47351800  0.07859600  1
  I  I39  1  0.29426300  0.47351800  0.57859600  1
  I  I40  1  0.79308700  0.96591300  0.10968900  1
  I  I41  1  0.70691300  0.96591300  0.60968900  1
  I  I42  1  0.20691300  0.03408700  0.89031100  1
  I  I43  1  0.29308700  0.03408700  0.39031100  1
  I  I44  1  0.77761500  0.53250800  0.58762400  1
  I  I45  1  0.72238500  0.53250800  0.08762400  1
  I  I46  1  0.22238500  0.46749200  0.41237600  1
  I  I47  1  0.27761500  0.46749200  0.91237600  1
  I  I48  1  0.79790200  0.96727300  0.77742400  1
  I  I49  1  0.70209800  0.96727300  0.27742400  1
  I  I50  1  0.20209800  0.03272700  0.22257600  1
  I  I51  1  0.29790200  0.03272700  0.72257600  1
  I  I52  1  0.81694600  0.53859600  0.25555300  1
  I  I53  1  0.68305400  0.53859600  0.75555300  1
  I  I54  1  0.18305400  0.46140400  0.74444700  1
  I  I55  1  0.31694600  0.46140400  0.24444700  1
