# generated using pymatgen
data_K4Ge(PSe3)4
_symmetry_space_group_name_H-M   'P 1'
_cell_length_a   7.40728100
_cell_length_b   14.31039000
_cell_length_c   24.53616700
_cell_angle_alpha   90.00000000
_cell_angle_beta   90.00000000
_cell_angle_gamma   90.00000000
_symmetry_Int_Tables_number   1
_chemical_formula_structural   K4Ge(PSe3)4
_chemical_formula_sum   'K16 Ge4 P16 Se48'
_cell_volume   2600.86019982
_cell_formula_units_Z   4
loop_
 _symmetry_equiv_pos_site_id
 _symmetry_equiv_pos_as_xyz
  1  'x, y, z'
loop_
 _atom_site_type_symbol
 _atom_site_label
 _atom_site_symmetry_multiplicity
 _atom_site_fract_x
 _atom_site_fract_y
 _atom_site_fract_z
 _atom_site_occupancy
  K  K0  1  0.69716000  0.52593900  0.93610400  1
  K  K1  1  0.30284000  0.47406100  0.43610400  1
  K  K2  1  0.69716000  0.97406100  0.43610400  1
  K  K3  1  0.30284000  0.02593900  0.93610400  1
  K  K4  1  0.81841900  0.87566400  0.84064500  1
  K  K5  1  0.18158100  0.12433600  0.34064500  1
  K  K6  1  0.81841900  0.62433600  0.34064500  1
  K  K7  1  0.18158100  0.37566400  0.84064500  1
  K  K8  1  0.82762000  0.17535000  0.71843300  1
  K  K9  1  0.17238000  0.82465000  0.21843300  1
  K  K10  1  0.82762000  0.32465000  0.21843300  1
  K  K11  1  0.17238000  0.67535000  0.71843300  1
  K  K12  1  0.80032500  0.33604200  0.56027200  1
  K  K13  1  0.19967500  0.66395800  0.06027200  1
  K  K14  1  0.80032500  0.16395800  0.06027200  1
  K  K15  1  0.19967500  0.83604200  0.56027200  1
  Ge  Ge16  1  0.65646500  0.58008100  0.63177800  1
  Ge  Ge17  1  0.34353500  0.41991900  0.13177800  1
  Ge  Ge18  1  0.65646500  0.91991900  0.13177800  1
  Ge  Ge19  1  0.34353500  0.08008100  0.63177800  1
  P  P20  1  0.68706000  0.59391000  0.78046400  1
  P  P21  1  0.31294000  0.40609000  0.28046400  1
  P  P22  1  0.68706000  0.90609000  0.28046400  1
  P  P23  1  0.31294000  0.09391000  0.78046400  1
  P  P24  1  0.25095300  0.94801700  0.74452200  1
  P  P25  1  0.74904700  0.05198300  0.24452200  1
  P  P26  1  0.25095300  0.55198300  0.24452200  1
  P  P27  1  0.74904700  0.44801700  0.74452200  1
  P  P28  1  0.86553800  0.60696600  0.50015800  1
  P  P29  1  0.13446200  0.39303400  0.00015800  1
  P  P30  1  0.86553800  0.89303400  0.00015800  1
  P  P31  1  0.13446200  0.10696600  0.50015800  1
  P  P32  1  0.63943400  0.71374400  0.51457600  1
  P  P33  1  0.36056600  0.28625600  0.01457600  1
  P  P34  1  0.63943400  0.78625600  0.01457600  1
  P  P35  1  0.36056600  0.21374400  0.51457600  1
  Se  Se36  1  0.42688800  0.58914200  0.81921500  1
  Se  Se37  1  0.57311200  0.41085800  0.31921500  1
  Se  Se38  1  0.42688800  0.91085800  0.31921500  1
  Se  Se39  1  0.57311200  0.08914200  0.81921500  1
  Se  Se40  1  0.91684900  0.63324200  0.82966100  1
  Se  Se41  1  0.08315100  0.36675800  0.32966100  1
  Se  Se42  1  0.91684900  0.86675800  0.32966100  1
  Se  Se43  1  0.08315100  0.13324200  0.82966100  1
  Se  Se44  1  0.68701100  0.69328800  0.70381800  1
  Se  Se45  1  0.31298900  0.30671200  0.20381800  1
  Se  Se46  1  0.68701100  0.80671200  0.20381800  1
  Se  Se47  1  0.31298900  0.19328800  0.70381800  1
  Se  Se48  1  0.32157400  0.84612900  0.80495400  1
  Se  Se49  1  0.67842600  0.15387100  0.30495400  1
  Se  Se50  1  0.32157400  0.65387100  0.30495400  1
  Se  Se51  1  0.67842600  0.34612900  0.80495400  1
  Se  Se52  1  0.98175600  0.94021200  0.70985500  1
  Se  Se53  1  0.01824400  0.05978800  0.20985500  1
  Se  Se54  1  0.98175600  0.55978800  0.20985500  1
  Se  Se55  1  0.01824400  0.44021200  0.70985500  1
  Se  Se56  1  0.45932000  0.94019300  0.67366100  1
  Se  Se57  1  0.54068000  0.05980700  0.17366100  1
  Se  Se58  1  0.45932000  0.55980700  0.17366100  1
  Se  Se59  1  0.54068000  0.44019300  0.67366100  1
  Se  Se60  1  0.94863400  0.56380800  0.58859500  1
  Se  Se61  1  0.05136600  0.43619200  0.08859500  1
  Se  Se62  1  0.94863400  0.93619200  0.08859500  1
  Se  Se63  1  0.05136600  0.06380800  0.58859500  1
  Se  Se64  1  0.76857700  0.01422500  0.95618000  1
  Se  Se65  1  0.23142300  0.98577500  0.45618000  1
  Se  Se66  1  0.76857700  0.48577500  0.45618000  1
  Se  Se67  1  0.23142300  0.51422500  0.95618000  1
  Se  Se68  1  0.90938700  0.31876200  0.96379100  1
  Se  Se69  1  0.09061300  0.68123800  0.46379100  1
  Se  Se70  1  0.90938700  0.18123800  0.46379100  1
  Se  Se71  1  0.09061300  0.81876200  0.96379100  1
  Se  Se72  1  0.43618600  0.61822000  0.56337200  1
  Se  Se73  1  0.56381400  0.38178000  0.06337200  1
  Se  Se74  1  0.43618600  0.88178000  0.06337200  1
  Se  Se75  1  0.56381400  0.11822000  0.56337200  1
  Se  Se76  1  0.52724500  0.75078900  0.93683500  1
  Se  Se77  1  0.47275500  0.24921100  0.43683500  1
  Se  Se78  1  0.52724500  0.74921100  0.43683500  1
  Se  Se79  1  0.47275500  0.25078900  0.93683500  1
  Se  Se80  1  0.72891700  0.82545500  0.56775100  1
  Se  Se81  1  0.27108300  0.17454500  0.06775100  1
  Se  Se82  1  0.72891700  0.67454500  0.06775100  1
  Se  Se83  1  0.27108300  0.32545500  0.56775100  1
