# generated using pymatgen
data_C3F5
_symmetry_space_group_name_H-M   'P 1'
_cell_length_a   7.33052800
_cell_length_b   9.83936993
_cell_length_c   12.17350503
_cell_angle_alpha   113.72885929
_cell_angle_beta   89.92098092
_cell_angle_gamma   90.35412333
_symmetry_Int_Tables_number   1
_chemical_formula_structural   C3F5
_chemical_formula_sum   'C24 F40'
_cell_volume   803.80176422
_cell_formula_units_Z   8
loop_
 _symmetry_equiv_pos_site_id
 _symmetry_equiv_pos_as_xyz
  1  'x, y, z'
loop_
 _atom_site_type_symbol
 _atom_site_label
 _atom_site_symmetry_multiplicity
 _atom_site_fract_x
 _atom_site_fract_y
 _atom_site_fract_z
 _atom_site_occupancy
  C  C0  1  0.68907900  0.97519900  0.72322600  1
  C  C1  1  0.31092100  0.02480100  0.27677400  1
  C  C2  1  0.52205500  0.06811000  0.79079500  1
  C  C3  1  0.47794500  0.93189000  0.20920500  1
  C  C4  1  0.35950300  0.05267400  0.70361500  1
  C  C5  1  0.64049700  0.94732600  0.29638500  1
  C  C6  1  0.33079300  0.89506300  0.61551300  1
  C  C7  1  0.66920700  0.10493700  0.38448700  1
  C  C8  1  0.63771700  0.80779000  0.65240100  1
  C  C9  1  0.36228300  0.19221000  0.34759900  1
  C  C10  1  0.45493700  0.78700200  0.59188600  1
  C  C11  1  0.54506300  0.21299800  0.40811400  1
  C  C12  1  0.85837300  0.30985500  0.14915200  1
  C  C13  1  0.14162700  0.69014500  0.85084800  1
  C  C14  1  0.82017700  0.47596800  0.22846000  1
  C  C15  1  0.17982300  0.52403200  0.77154000  1
  C  C16  1  0.99606200  0.55865000  0.29569700  1
  C  C17  1  0.00393800  0.44135000  0.70430300  1
  C  C18  1  0.16243500  0.51488700  0.21744400  1
  C  C19  1  0.83756500  0.48511300  0.78255600  1
  C  C20  1  0.01592300  0.29095900  0.05727300  1
  C  C21  1  0.98407700  0.70904100  0.94272700  1
  C  C22  1  0.17118200  0.39701600  0.11163300  1
  C  C23  1  0.82881800  0.60298400  0.88836700  1
  F  F24  1  0.16868300  0.86841000  0.55981300  1
  F  F25  1  0.83131700  0.13159000  0.44018700  1
  F  F26  1  0.39235900  0.14308400  0.64319700  1
  F  F27  1  0.60764100  0.85691600  0.35680300  1
  F  F28  1  0.20463400  0.10405400  0.76997300  1
  F  F29  1  0.79536600  0.89594600  0.23002700  1
  F  F30  1  0.56992800  0.21342700  0.84842400  1
  F  F31  1  0.43007200  0.78657300  0.15157600  1
  F  F32  1  0.46646900  0.01665000  0.87464700  1
  F  F33  1  0.53353100  0.98335000  0.12535300  1
  F  F34  1  0.42099300  0.64852500  0.51172600  1
  F  F35  1  0.57900700  0.35147500  0.48827400  1
  F  F36  1  0.63783700  0.73825600  0.73116200  1
  F  F37  1  0.36216300  0.26174400  0.26883800  1
  F  F38  1  0.77101800  0.74125400  0.56946200  1
  F  F39  1  0.22898200  0.25874600  0.43053800  1
  F  F40  1  0.75060300  0.03046900  0.64293600  1
  F  F41  1  0.24939700  0.96953100  0.35706400  1
  F  F42  1  0.82551200  0.98764600  0.80225700  1
  F  F43  1  0.17448800  0.01235400  0.19774300  1
  F  F44  1  0.30838400  0.60223000  0.26231700  1
  F  F45  1  0.69161600  0.39777000  0.73768300  1
  F  F46  1  0.02138500  0.52823600  0.39564200  1
  F  F47  1  0.97861500  0.47176400  0.60435800  1
  F  F48  1  0.96987400  0.70876400  0.33565000  1
  F  F49  1  0.03012600  0.29123600  0.66435000  1
  F  F50  1  0.75977100  0.54210800  0.15561500  1
  F  F51  1  0.24022900  0.45789200  0.84438500  1
  F  F52  1  0.68678300  0.48683600  0.30947800  1
  F  F53  1  0.31321700  0.51316400  0.69052200  1
  F  F54  1  0.32560000  0.36482000  0.04730500  1
  F  F55  1  0.67440000  0.63518000  0.95269500  1
  F  F56  1  0.94549900  0.31115900  0.95966100  1
  F  F57  1  0.05450100  0.68884100  0.04033900  1
  F  F58  1  0.07762700  0.14783900  0.01566200  1
  F  F59  1  0.92237300  0.85216100  0.98433800  1
  F  F60  1  0.90872100  0.24221900  0.22334200  1
  F  F61  1  0.09127900  0.75778100  0.77665800  1
  F  F62  1  0.70407100  0.24219100  0.08989600  1
  F  F63  1  0.29592900  0.75780900  0.91010400  1
