# generated using pymatgen
data_TmH9C5(NO4)2
_symmetry_space_group_name_H-M   'P 1'
_cell_length_a   6.71505800
_cell_length_b   8.53143000
_cell_length_c   9.72906564
_cell_angle_alpha   90.00000000
_cell_angle_beta   110.18807876
_cell_angle_gamma   90.00000000
_symmetry_Int_Tables_number   1
_chemical_formula_structural   TmH9C5(NO4)2
_chemical_formula_sum   'Tm2 H18 C10 N4 O16'
_cell_volume   523.12685742
_cell_formula_units_Z   2
loop_
 _symmetry_equiv_pos_site_id
 _symmetry_equiv_pos_as_xyz
  1  'x, y, z'
loop_
 _atom_site_type_symbol
 _atom_site_label
 _atom_site_symmetry_multiplicity
 _atom_site_fract_x
 _atom_site_fract_y
 _atom_site_fract_z
 _atom_site_occupancy
  Tm  Tm0  1  0.85782800  0.75000000  0.71565700  1
  Tm  Tm1  1  0.14217200  0.25000000  0.28434300  1
  H  H2  1  0.31316700  0.75000000  0.62633400  1
  H  H3  1  0.68683300  0.25000000  0.37366600  1
  H  H4  1  0.07642700  0.44051100  0.57960300  1
  H  H5  1  0.49682300  0.55948900  0.42039700  1
  H  H6  1  0.92357300  0.94051100  0.42039700  1
  H  H7  1  0.50317700  0.05948900  0.57960300  1
  H  H8  1  0.76566400  0.00000000  0.00000000  1
  H  H9  1  0.23433600  0.50000000  0.00000000  1
  H  H10  1  0.65522100  0.75000000  0.31044100  1
  H  H11  1  0.34477900  0.25000000  0.68955900  1
  H  H12  1  0.65852200  0.67061900  0.01143900  1
  H  H13  1  0.64708300  0.32938100  0.98856100  1
  H  H14  1  0.34147800  0.17061900  0.98856100  1
  H  H15  1  0.35291700  0.82938100  0.01143900  1
  H  H16  1  0.82867800  0.60193200  0.18562900  1
  H  H17  1  0.64304800  0.39806800  0.81437100  1
  H  H18  1  0.17132200  0.10193200  0.81437100  1
  H  H19  1  0.35695200  0.89806800  0.18562900  1
  C  C20  1  0.37380700  0.75000000  0.74761400  1
  C  C21  1  0.62619300  0.25000000  0.25238600  1
  C  C22  1  0.00613500  0.52433800  0.48855000  1
  C  C23  1  0.51758400  0.47566200  0.51145000  1
  C  C24  1  0.99386500  0.02433800  0.51145000  1
  C  C25  1  0.48241600  0.97566200  0.48855000  1
  C  C26  1  0.93039800  0.00000000  0.00000000  1
  C  C27  1  0.06960200  0.50000000  0.00000000  1
  C  C28  1  0.59529600  0.75000000  0.19059200  1
  C  C29  1  0.40470400  0.25000000  0.80940800  1
  N  N30  1  0.69910000  0.66612600  0.12344800  1
  N  N31  1  0.57565200  0.33387400  0.87655200  1
  N  N32  1  0.30090000  0.16612600  0.87655200  1
  N  N33  1  0.42434800  0.83387400  0.12344800  1
  O  O34  1  0.97042800  0.92526700  0.90032600  1
  O  O35  1  0.07010200  0.07473300  0.09967400  1
  O  O36  1  0.02957200  0.42526700  0.09967400  1
  O  O37  1  0.92989800  0.57473300  0.90032600  1
  O  O38  1  0.24005200  0.73483600  0.81262300  1
  O  O39  1  0.42742800  0.26516400  0.18737700  1
  O  O40  1  0.75994800  0.23483600  0.18737700  1
  O  O41  1  0.57257200  0.76516400  0.81262300  1
  O  O42  1  0.93169900  0.65227200  0.51701600  1
  O  O43  1  0.41468300  0.34772800  0.48298400  1
  O  O44  1  0.06830100  0.15227200  0.48298400  1
  O  O45  1  0.58531700  0.84772800  0.51701600  1
  O  O46  1  0.99494900  0.98457800  0.63727100  1
  O  O47  1  0.35767800  0.01542200  0.36272900  1
  O  O48  1  0.00505100  0.48457800  0.36272900  1
  O  O49  1  0.64232200  0.51542200  0.63727100  1
