# generated using pymatgen
data_ErH10C6S6N3O17F18
_symmetry_space_group_name_H-M   'P 1'
_cell_length_a   13.26043584
_cell_length_b   13.26094371
_cell_length_c   18.81905721
_cell_angle_alpha   90.00000000
_cell_angle_beta   90.00000000
_cell_angle_gamma   94.29636325
_symmetry_Int_Tables_number   1
_chemical_formula_structural   ErH10C6S6N3O17F18
_chemical_formula_sum   'Er4 H40 C24 S24 N12 O68 F72'
_cell_volume   3299.95456058
_cell_formula_units_Z   4
loop_
 _symmetry_equiv_pos_site_id
 _symmetry_equiv_pos_as_xyz
  1  'x, y, z'
loop_
 _atom_site_type_symbol
 _atom_site_label
 _atom_site_symmetry_multiplicity
 _atom_site_fract_x
 _atom_site_fract_y
 _atom_site_fract_z
 _atom_site_occupancy
  Er  Er0  1  0.15149676  0.21395421  0.25409180  1
  Er  Er1  1  0.65149676  0.71395421  0.24590820  1
  Er  Er2  1  0.84850324  0.78604579  0.74590820  1
  Er  Er3  1  0.34850324  0.28604579  0.75409180  1
  H  H4  1  0.34562383  0.10759240  0.23509803  1
  H  H5  1  0.84562383  0.60759240  0.26490197  1
  H  H6  1  0.65437617  0.89240760  0.76490197  1
  H  H7  1  0.15437617  0.39240760  0.73509803  1
  H  H8  1  0.36010179  0.22096567  0.20580713  1
  H  H9  1  0.86010179  0.72096567  0.29419287  1
  H  H10  1  0.63989821  0.77903433  0.79419287  1
  H  H11  1  0.13989821  0.27903433  0.70580713  1
  H  H12  1  0.10714585  0.18886814  0.41116682  1
  H  H13  1  0.60714585  0.68886814  0.08883318  1
  H  H14  1  0.89285415  0.81113186  0.58883318  1
  H  H15  1  0.39285415  0.31113186  0.91116682  1
  H  H16  1  0.21554272  0.24545673  0.40311231  1
  H  H17  1  0.71554272  0.74545673  0.09688769  1
  H  H18  1  0.78445728  0.75454327  0.59688769  1
  H  H19  1  0.28445728  0.25454327  0.90311231  1
  H  H20  1  0.18236333  0.99083884  0.25318858  1
  H  H21  1  0.68236333  0.49083884  0.24681142  1
  H  H22  1  0.81763667  0.00916116  0.74681142  1
  H  H23  1  0.31763667  0.50916116  0.75318858  1
  H  H24  1  0.13016132  0.01272336  0.32755380  1
  H  H25  1  0.63016132  0.51272336  0.17244620  1
  H  H26  1  0.86983868  0.98727664  0.67244620  1
  H  H27  1  0.36983868  0.48727664  0.82755380  1
  H  H28  1  0.96513257  0.07704660  0.27667281  1
  H  H29  1  0.46513257  0.57704660  0.22332719  1
  H  H30  1  0.03486743  0.92295340  0.72332719  1
  H  H31  1  0.53486743  0.42295340  0.77667281  1
  H  H32  1  0.93586786  0.18587254  0.30198783  1
  H  H33  1  0.43586786  0.68587254  0.19801217  1
  H  H34  1  0.06413214  0.81412746  0.69801217  1
  H  H35  1  0.56413214  0.31412746  0.80198783  1
  H  H36  1  0.09451513  0.14695800  0.10715931  1
  H  H37  1  0.59451513  0.64695800  0.39284069  1
  H  H38  1  0.90548487  0.85304200  0.89284069  1
  H  H39  1  0.40548487  0.35304200  0.60715931  1
  H  H40  1  0.06962573  0.05088095  0.15403554  1
  H  H41  1  0.56962573  0.55088095  0.34596446  1
  H  H42  1  0.93037427  0.94911905  0.84596446  1
  H  H43  1  0.43037427  0.44911905  0.65403554  1
  C  C44  1  0.27787186  0.52705614  0.36345327  1
  C  C45  1  0.77787186  0.02705614  0.13654673  1
  C  C46  1  0.72212814  0.47294386  0.63654673  1
  C  C47  1  0.22212814  0.97294386  0.86345327  1
  C  C48  1  0.51877443  0.23675321  0.40421265  1
  C  C49  1  0.01877443  0.73675321  0.09578735  1
  C  C50  1  0.48122557  0.76324679  0.59578735  1
  C  C51  1  0.98122557  0.26324679  0.90421265  1
  C  C52  1  0.25898947  0.48390258  0.09083145  1
  C  C53  1  0.75898947  0.98390258  0.40916855  1
  C  C54  1  0.74101053  0.51609742  0.90916855  1
  C  C55  1  0.24101053  0.01609742  0.59083145  1
  C  C56  1  0.56117781  0.25328765  0.11552432  1
  C  C57  1  0.06117781  0.75328765  0.38447568  1
  C  C58  1  0.43882219  0.74671235  0.88447568  1
  C  C59  1  0.93882219  0.24671235  0.61552432  1
  C  C60  1  0.91499497  0.38378993  0.14520369  1
  C  C61  1  0.41499497  0.88378993  0.35479631  1
  C  C62  1  0.08500503  0.61621007  0.85479631  1
  C  C63  1  0.58500503  0.11621007  0.64520369  1
  C  C64  1  0.85498492  0.42893976  0.41780624  1
  C  C65  1  0.35498492  0.92893976  0.08219376  1
  C  C66  1  0.14501508  0.57106024  0.58219376  1
  C  C67  1  0.64501508  0.07106024  0.91780624  1
  S  S68  1  0.33822105  0.41359779  0.32906491  1
  S  S69  1  0.83822105  0.91359779  0.17093509  1
  S  S70  1  0.66177895  0.58640221  0.67093509  1
  S  S71  1  0.16177895  0.08640221  0.82906491  1
  S  S72  1  0.46173218  0.35119975  0.44082932  1
  S  S73  1  0.96173218  0.85119975  0.05917068  1
  S  S74  1  0.53826782  0.64880025  0.55917068  1
  S  S75  1  0.03826782  0.14880025  0.94082932  1
  S  S76  1  0.27581538  0.34463157  0.09264335  1
  S  S77  1  0.77581538  0.84463157  0.40735665  1
  S  S78  1  0.72418462  0.65536843  0.90735665  1
  S  S79  1  0.22418462  0.15536843  0.59264335  1
  S  S80  1  0.48811712  0.35562862  0.07759668  1
  S  S81  1  0.98811712  0.85562862  0.42240332  1
  S  S82  1  0.51188288  0.64437138  0.92240332  1
  S  S83  1  0.01188288  0.14437138  0.57759668  1
  S  S84  1  0.98282958  0.42790664  0.22831187  1
  S  S85  1  0.48282958  0.92790664  0.27168813  1
  S  S86  1  0.01717042  0.57209336  0.77168813  1
  S  S87  1  0.51717042  0.07209336  0.72831187  1
  S  S88  1  0.82172031  0.38224118  0.32631386  1
  S  S89  1  0.32172031  0.88224118  0.17368614  1
  S  S90  1  0.17827969  0.61775882  0.67368614  1
  S  S91  1  0.67827969  0.11775882  0.82631386  1
  N  N92  1  0.35633092  0.34811361  0.39712707  1
  N  N93  1  0.85633092  0.84811361  0.10287293  1
  N  N94  1  0.64366908  0.65188639  0.60287293  1
  N  N95  1  0.14366908  0.15188639  0.89712707  1
  N  N96  1  0.38579545  0.33446337  0.12351998  1
  N  N97  1  0.88579545  0.83446337  0.37648002  1
  N  N98  1  0.61420455  0.66553663  0.87648002  1
  N  N99  1  0.11420455  0.16553663  0.62351998  1
  N  N100  1  0.89392455  0.45736978  0.27877274  1
  N  N101  1  0.39392455  0.95736978  0.22122726  1
  N  N102  1  0.10607545  0.54263022  0.72122726  1
  N  N103  1  0.60607545  0.04263022  0.77877274  1
  O  O104  1  0.31686506  0.17381694  0.23476444  1
  O  O105  1  0.81686506  0.67381694  0.26523556  1
  O  O106  1  0.68313494  0.82618306  0.76523556  1
  O  O107  1  0.18313494  0.32618306  0.73476444  1
  O  O108  1  0.15582017  0.21866282  0.37646285  1
  O  O109  1  0.65582017  0.71866282  0.12353715  1
  O  O110  1  0.84417983  0.78133718  0.62353715  1
  O  O111  1  0.34417983  0.28133718  0.87646285  1
  O  O112  1  0.16508079  0.04472195  0.28635842  1
  O  O113  1  0.66508079  0.54472195  0.21364158  1
  O  O114  1  0.83491921  0.95527805  0.71364158  1
  O  O115  1  0.33491921  0.45527805  0.78635842  1
  O  O116  1  0.99253178  0.14400941  0.29220687  1
  O  O117  1  0.49253178  0.64400941  0.20779313  1
  O  O118  1  0.00746822  0.85599059  0.70779313  1
  O  O119  1  0.50746822  0.35599059  0.79220687  1
  O  O120  1  0.09780165  0.12123604  0.15614981  1
  O  O121  1  0.59780165  0.62123604  0.34385019  1
  O  O122  1  0.90219835  0.87876396  0.84385019  1
  O  O123  1  0.40219835  0.37876396  0.65614981  1
  O  O124  1  0.25682413  0.36071175  0.28806100  1
  O  O125  1  0.75682413  0.86071175  0.21193900  1
  O  O126  1  0.74317587  0.63928825  0.71193900  1
  O  O127  1  0.24317587  0.13928825  0.78806100  1
  O  O128  1  0.42528867  0.45532750  0.28953816  1
  O  O129  1  0.92528867  0.95532750  0.21046184  1
  O  O130  1  0.57471133  0.54467250  0.71046184  1
  O  O131  1  0.07471133  0.04467250  0.78953816  1
  O  O132  1  0.43881668  0.32607330  0.51388117  1
  O  O133  1  0.93881668  0.82607330  0.98611883  1
  O  O134  1  0.56118332  0.67392670  0.48611883  1
  O  O135  1  0.06118332  0.17392670  0.01388117  1
  O  O136  1  0.53311621  0.43541956  0.42448184  1
  O  O137  1  0.03311621  0.93541956  0.07551816  1
  O  O138  1  0.46688379  0.56458044  0.57551816  1
  O  O139  1  0.96688379  0.06458044  0.92448184  1
  O  O140  1  0.20450601  0.30471133  0.14689201  1
  O  O141  1  0.70450601  0.80471133  0.35310799  1
  O  O142  1  0.79549399  0.69528867  0.85310799  1
  O  O143  1  0.29549399  0.19528867  0.64689201  1
  O  O144  1  0.25746537  0.31311007  0.02031252  1
  O  O145  1  0.75746537  0.81311007  0.47968748  1
  O  O146  1  0.74253463  0.68688993  0.97968748  1
  O  O147  1  0.24253463  0.18688993  0.52031252  1
  O  O148  1  0.47887842  0.33502978  0.00227715  1
  O  O149  1  0.97887842  0.83502978  0.49772285  1
  O  O150  1  0.52112158  0.66497022  0.99772285  1
  O  O151  1  0.02112158  0.16497022  0.50227715  1
  O  O152  1  0.54496819  0.44755101  0.10003015  1
  O  O153  1  0.04496819  0.94755101  0.39996985  1
  O  O154  1  0.45503181  0.55244899  0.89996985  1
  O  O155  1  0.95503181  0.05244899  0.60003015  1
  O  O156  1  0.03354431  0.33830736  0.25049639  1
  O  O157  1  0.53354431  0.83830736  0.24950361  1
  O  O158  1  0.96645569  0.66169264  0.74950361  1
  O  O159  1  0.46645569  0.16169264  0.75049639  1
  O  O160  1  0.04452314  0.51741161  0.21022572  1
  O  O161  1  0.54452314  0.01741161  0.28977428  1
  O  O162  1  0.95547686  0.48258839  0.78977428  1
  O  O163  1  0.45547686  0.98258839  0.71022572  1
  O  O164  1  0.84342264  0.27681213  0.32640118  1
  O  O165  1  0.34342264  0.77681213  0.17359882  1
  O  O166  1  0.15657736  0.72318787  0.67359882  1
  O  O167  1  0.65657736  0.22318787  0.82640118  1
  O  O168  1  0.71829628  0.40697513  0.31572176  1
  O  O169  1  0.21829628  0.90697513  0.18427824  1
  O  O170  1  0.28170372  0.59302487  0.68427824  1
  O  O171  1  0.78170372  0.09302487  0.81572176  1
  F  F172  1  0.26090016  0.58843371  0.30815447  1
  F  F173  1  0.76090016  0.08843371  0.19184553  1
  F  F174  1  0.73909984  0.41156629  0.69184553  1
  F  F175  1  0.23909984  0.91156629  0.80815447  1
  F  F176  1  0.18944391  0.49992638  0.39605968  1
  F  F177  1  0.68944391  0.99992638  0.10394032  1
  F  F178  1  0.81055609  0.50007362  0.60394032  1
  F  F179  1  0.31055609  0.00007362  0.89605968  1
  F  F180  1  0.34111903  0.57659154  0.40997209  1
  F  F181  1  0.84111903  0.07659154  0.09002791  1
  F  F182  1  0.65888097  0.42340846  0.59002791  1
  F  F183  1  0.15888097  0.92340846  0.90997209  1
  F  F184  1  0.45868627  0.15290078  0.41894423  1
  F  F185  1  0.95868627  0.65290078  0.08105577  1
  F  F186  1  0.54131373  0.84709922  0.58105577  1
  F  F187  1  0.04131373  0.34709922  0.91894423  1
  F  F188  1  0.61014160  0.22968161  0.43468597  1
  F  F189  1  0.11014160  0.72968161  0.06531403  1
  F  F190  1  0.38985840  0.77031839  0.56531403  1
  F  F191  1  0.88985840  0.27031839  0.93468597  1
  F  F192  1  0.53030683  0.24530205  0.33324849  1
  F  F193  1  0.03030683  0.74530205  0.16675151  1
  F  F194  1  0.46969317  0.75469795  0.66675151  1
  F  F195  1  0.96969317  0.25469795  0.83324849  1
  F  F196  1  0.26974034  0.52454690  0.15626513  1
  F  F197  1  0.76974034  0.02454690  0.34373487  1
  F  F198  1  0.73025966  0.47545310  0.84373487  1
  F  F199  1  0.23025966  0.97545310  0.65626513  1
  F  F200  1  0.32999930  0.52879638  0.04741057  1
  F  F201  1  0.82999930  0.02879638  0.45258943  1
  F  F202  1  0.67000070  0.47120362  0.95258943  1
  F  F203  1  0.17000070  0.97120362  0.54741057  1
  F  F204  1  0.16659167  0.49906642  0.06522724  1
  F  F205  1  0.66659167  0.99906642  0.43477276  1
  F  F206  1  0.83340833  0.50093358  0.93477276  1
  F  F207  1  0.33340833  0.00093358  0.56522724  1
  F  F208  1  0.51441803  0.16093537  0.10337064  1
  F  F209  1  0.01441803  0.66093537  0.39662936  1
  F  F210  1  0.48558197  0.83906463  0.89662936  1
  F  F211  1  0.98558197  0.33906463  0.60337064  1
  F  F212  1  0.57271410  0.26640243  0.18635536  1
  F  F213  1  0.07271410  0.76640243  0.31364464  1
  F  F214  1  0.42728590  0.73359757  0.81364464  1
  F  F215  1  0.92728590  0.23359757  0.68635536  1
  F  F216  1  0.65293836  0.25928513  0.08425202  1
  F  F217  1  0.15293836  0.75928513  0.41574798  1
  F  F218  1  0.34706164  0.74071487  0.91574798  1
  F  F219  1  0.84706164  0.24071487  0.58425202  1
  F  F220  1  0.85264923  0.30055189  0.15877341  1
  F  F221  1  0.35264923  0.80055189  0.34122659  1
  F  F222  1  0.14735077  0.69944811  0.84122659  1
  F  F223  1  0.64735077  0.19944811  0.65877341  1
  F  F224  1  0.85965598  0.45744671  0.12057758  1
  F  F225  1  0.35965598  0.95744671  0.37942242  1
  F  F226  1  0.14034402  0.54255329  0.87942242  1
  F  F227  1  0.64034402  0.04255329  0.62057758  1
  F  F228  1  0.98366369  0.36104337  0.09630423  1
  F  F229  1  0.48366369  0.86104337  0.40369577  1
  F  F230  1  0.01633631  0.63895663  0.90369577  1
  F  F231  1  0.51633631  0.13895663  0.59630423  1
  F  F232  1  0.95449823  0.42194475  0.43029238  1
  F  F233  1  0.45449823  0.92194475  0.06970762  1
  F  F234  1  0.04550177  0.57805525  0.56970762  1
  F  F235  1  0.54550177  0.07805525  0.93029238  1
  F  F236  1  0.80055310  0.37103833  0.46478068  1
  F  F237  1  0.30055310  0.87103833  0.03521932  1
  F  F238  1  0.19944690  0.62896167  0.53521932  1
  F  F239  1  0.69944690  0.12896167  0.96478068  1
  F  F240  1  0.83299264  0.52617164  0.42494370  1
  F  F241  1  0.33299264  0.02617164  0.07505630  1
  F  F242  1  0.16700736  0.47382836  0.57505630  1
  F  F243  1  0.66700736  0.97382836  0.92494370  1
