# generated using pymatgen
data_Na2FeH4(SO5)2
_symmetry_space_group_name_H-M   'P 1'
_cell_length_a   13.26184700
_cell_length_b   5.55047500
_cell_length_c   5.81428490
_cell_angle_alpha   73.48837708
_cell_angle_beta   90.00000000
_cell_angle_gamma   90.00000000
_symmetry_Int_Tables_number   1
_chemical_formula_structural   Na2FeH4(SO5)2
_chemical_formula_sum   'Na4 Fe2 H8 S4 O20'
_cell_volume   410.33761550
_cell_formula_units_Z   2
loop_
 _symmetry_equiv_pos_site_id
 _symmetry_equiv_pos_as_xyz
  1  'x, y, z'
loop_
 _atom_site_type_symbol
 _atom_site_label
 _atom_site_symmetry_multiplicity
 _atom_site_fract_x
 _atom_site_fract_y
 _atom_site_fract_z
 _atom_site_occupancy
  Na  Na0  1  0.61803600  0.24031700  0.57747100  1
  Na  Na1  1  0.11803600  0.25968300  0.42252900  1
  Na  Na2  1  0.38196400  0.75968300  0.42252900  1
  Na  Na3  1  0.88196400  0.74031700  0.57747100  1
  Fe  Fe4  1  0.50000000  0.50000000  0.00000000  1
  Fe  Fe5  1  0.00000000  0.00000000  0.00000000  1
  H  H6  1  0.20130000  0.99335300  0.09032000  1
  H  H7  1  0.70130000  0.50664700  0.90967900  1
  H  H8  1  0.79870000  0.00664700  0.90967900  1
  H  H9  1  0.29870000  0.49335300  0.09032000  1
  H  H10  1  0.15028800  0.81738300  0.32418900  1
  H  H11  1  0.65028800  0.68261700  0.67581100  1
  H  H12  1  0.84971200  0.18261700  0.67581100  1
  H  H13  1  0.34971200  0.31738300  0.32418900  1
  S  S14  1  0.61716000  0.92450200  0.22287600  1
  S  S15  1  0.11716000  0.57549800  0.77712400  1
  S  S16  1  0.38284000  0.07549800  0.77712400  1
  S  S17  1  0.88284000  0.42450200  0.22287600  1
  O  O18  1  0.67249600  0.98467100  0.99354900  1
  O  O19  1  0.17249600  0.51532900  0.00645100  1
  O  O20  1  0.32750400  0.01532900  0.00645100  1
  O  O21  1  0.82750400  0.48467100  0.99354900  1
  O  O22  1  0.55854400  0.68246200  0.26089200  1
  O  O23  1  0.05854400  0.81753800  0.73910800  1
  O  O24  1  0.44145600  0.31753800  0.73910800  1
  O  O25  1  0.94145600  0.18246200  0.26089200  1
  O  O26  1  0.54351200  0.12957600  0.22756000  1
  O  O27  1  0.04351200  0.37042400  0.77244000  1
  O  O28  1  0.45648800  0.87042400  0.77244000  1
  O  O29  1  0.95648800  0.62957600  0.22756000  1
  O  O30  1  0.68723800  0.89619600  0.43008400  1
  O  O31  1  0.18723800  0.60380400  0.56991600  1
  O  O32  1  0.31276200  0.10380400  0.56991600  1
  O  O33  1  0.81276200  0.39619600  0.43008400  1
  O  O34  1  0.63868500  0.52687800  0.81172500  1
  O  O35  1  0.13868500  0.97312200  0.18827500  1
  O  O36  1  0.36131500  0.47312200  0.18827500  1
  O  O37  1  0.86131500  0.02687800  0.81172500  1
