# generated using pymatgen
data_Th(SeO3)2
_symmetry_space_group_name_H-M   'P 1'
_cell_length_a   6.75701700
_cell_length_b   7.29690300
_cell_length_c   11.29477600
_cell_angle_alpha   90.00000000
_cell_angle_beta   90.00000000
_cell_angle_gamma   90.00000000
_symmetry_Int_Tables_number   1
_chemical_formula_structural   Th(SeO3)2
_chemical_formula_sum   'Th4 Se8 O24'
_cell_volume   556.89229221
_cell_formula_units_Z   4
loop_
 _symmetry_equiv_pos_site_id
 _symmetry_equiv_pos_as_xyz
  1  'x, y, z'
loop_
 _atom_site_type_symbol
 _atom_site_label
 _atom_site_symmetry_multiplicity
 _atom_site_fract_x
 _atom_site_fract_y
 _atom_site_fract_z
 _atom_site_occupancy
  Th  Th0  1  0.05524700  0.64744600  0.85424100  1
  Th  Th1  1  0.55524700  0.35255400  0.14575900  1
  Th  Th2  1  0.55524700  0.85255400  0.35424100  1
  Th  Th3  1  0.05524700  0.14744600  0.64575900  1
  Se  Se4  1  0.06649600  0.54823400  0.18373100  1
  Se  Se5  1  0.56649600  0.45176600  0.81626900  1
  Se  Se6  1  0.56649600  0.95176600  0.68373100  1
  Se  Se7  1  0.06649600  0.04823400  0.31626900  1
  Se  Se8  1  0.10933300  0.64561900  0.54196700  1
  Se  Se9  1  0.60933300  0.35438100  0.45803300  1
  Se  Se10  1  0.60933300  0.85438100  0.04196700  1
  Se  Se11  1  0.10933300  0.14561900  0.95803300  1
  O  O12  1  0.08209300  0.81125200  0.65492800  1
  O  O13  1  0.58209300  0.18874800  0.34507200  1
  O  O14  1  0.58209300  0.68874800  0.15492800  1
  O  O15  1  0.08209300  0.31125200  0.84507200  1
  O  O16  1  0.17127900  0.57038500  0.04355300  1
  O  O17  1  0.67127900  0.42961500  0.95644700  1
  O  O18  1  0.67127900  0.92961500  0.54355300  1
  O  O19  1  0.17127900  0.07038500  0.45644700  1
  O  O20  1  0.15692600  0.46837300  0.64072900  1
  O  O21  1  0.65692600  0.53162700  0.35927100  1
  O  O22  1  0.65692600  0.03162700  0.14072900  1
  O  O23  1  0.15692600  0.96837300  0.85927100  1
  O  O24  1  0.33957600  0.69301500  0.48795100  1
  O  O25  1  0.83957600  0.30698500  0.51204900  1
  O  O26  1  0.83957600  0.80698500  0.98795100  1
  O  O27  1  0.33957600  0.19301500  0.01204900  1
  O  O28  1  0.25775200  0.42806400  0.25005800  1
  O  O29  1  0.75775200  0.57193600  0.74994200  1
  O  O30  1  0.75775200  0.07193600  0.75005800  1
  O  O31  1  0.25775200  0.92806400  0.24994200  1
  O  O32  1  0.89798800  0.37450700  0.15848600  1
  O  O33  1  0.39798800  0.62549300  0.84151400  1
  O  O34  1  0.39798800  0.12549300  0.65848600  1
  O  O35  1  0.89798800  0.87450700  0.34151400  1
