# generated using pymatgen
data_MgH30C2(SO9)2
_symmetry_space_group_name_H-M   'P 1'
_cell_length_a   8.97935041
_cell_length_b   8.97935041
_cell_length_c   8.97935015
_cell_angle_alpha   63.26554358
_cell_angle_beta   63.26554358
_cell_angle_gamma   63.26554761
_symmetry_Int_Tables_number   1
_chemical_formula_structural   MgH30C2(SO9)2
_chemical_formula_sum   'Mg1 H30 C2 S2 O18'
_cell_volume   548.97798138
_cell_formula_units_Z   1
loop_
 _symmetry_equiv_pos_site_id
 _symmetry_equiv_pos_as_xyz
  1  'x, y, z'
loop_
 _atom_site_type_symbol
 _atom_site_label
 _atom_site_symmetry_multiplicity
 _atom_site_fract_x
 _atom_site_fract_y
 _atom_site_fract_z
 _atom_site_occupancy
  Mg  Mg0  1  0.00000000  0.00000000  0.00000000  1
  H  H1  1  0.12348600  0.07668800  0.64275000  1
  H  H2  1  0.64275000  0.12348600  0.07668800  1
  H  H3  1  0.07668800  0.64275000  0.12348600  1
  H  H4  1  0.87651400  0.92331200  0.35725000  1
  H  H5  1  0.35725000  0.87651400  0.92331200  1
  H  H6  1  0.92331200  0.35725000  0.87651400  1
  H  H7  1  0.11800600  0.88029700  0.71928500  1
  H  H8  1  0.71928500  0.11800600  0.88029700  1
  H  H9  1  0.88029700  0.71928500  0.11800600  1
  H  H10  1  0.88199400  0.11970300  0.28071500  1
  H  H11  1  0.28071500  0.88199400  0.11970300  1
  H  H12  1  0.11970300  0.28071500  0.88199400  1
  H  H13  1  0.27564200  0.49560700  0.40441600  1
  H  H14  1  0.40441600  0.27564200  0.49560700  1
  H  H15  1  0.49560700  0.40441600  0.27564200  1
  H  H16  1  0.72435800  0.50439300  0.59558400  1
  H  H17  1  0.59558400  0.72435800  0.50439300  1
  H  H18  1  0.50439300  0.59558400  0.72435800  1
  H  H19  1  0.05784500  0.71875600  0.61399700  1
  H  H20  1  0.61399700  0.05784500  0.71875600  1
  H  H21  1  0.71875600  0.61399700  0.05784500  1
  H  H22  1  0.94215500  0.28124400  0.38600300  1
  H  H23  1  0.38600300  0.94215500  0.28124400  1
  H  H24  1  0.28124400  0.38600300  0.94215500  1
  H  H25  1  0.21166000  0.59321800  0.69781500  1
  H  H26  1  0.69781500  0.21166000  0.59321800  1
  H  H27  1  0.59321800  0.69781500  0.21166000  1
  H  H28  1  0.78834000  0.40678200  0.30218500  1
  H  H29  1  0.30218500  0.78834000  0.40678200  1
  H  H30  1  0.40678200  0.30218500  0.78834000  1
  C  C31  1  0.37591700  0.37591700  0.37591700  1
  C  C32  1  0.62408300  0.62408300  0.62408300  1
  S  S33  1  0.29300200  0.29300200  0.29300200  1
  S  S34  1  0.70699800  0.70699800  0.70699800  1
  O  O35  1  0.10690300  0.97733500  0.75115300  1
  O  O36  1  0.75115300  0.10690300  0.97733500  1
  O  O37  1  0.97733500  0.75115300  0.10690300  1
  O  O38  1  0.89309700  0.02266500  0.24884700  1
  O  O39  1  0.24884700  0.89309700  0.02266500  1
  O  O40  1  0.02266500  0.24884700  0.89309700  1
  O  O41  1  0.13154500  0.25678900  0.43141300  1
  O  O42  1  0.43141300  0.13154500  0.25678900  1
  O  O43  1  0.25678900  0.43141300  0.13154500  1
  O  O44  1  0.86845500  0.74321100  0.56858700  1
  O  O45  1  0.56858700  0.86845500  0.74321100  1
  O  O46  1  0.74321100  0.56858700  0.86845500  1
  O  O47  1  0.16447100  0.71536800  0.62458900  1
  O  O48  1  0.62458900  0.16447100  0.71536800  1
  O  O49  1  0.71536800  0.62458900  0.16447100  1
  O  O50  1  0.83552900  0.28463200  0.37541100  1
  O  O51  1  0.37541100  0.83552900  0.28463200  1
  O  O52  1  0.28463200  0.37541100  0.83552900  1
