# generated using pymatgen
data_La2B5H7(C2O7)2
_symmetry_space_group_name_H-M   'P 1'
_cell_length_a   6.49545598
_cell_length_b   11.11826264
_cell_length_c   11.74352156
_cell_angle_alpha   61.74617218
_cell_angle_beta   89.58252261
_cell_angle_gamma   89.11805759
_symmetry_Int_Tables_number   1
_chemical_formula_structural   La2B5H7(C2O7)2
_chemical_formula_sum   'La4 B10 H14 C8 O28'
_cell_volume   746.96443079
_cell_formula_units_Z   2
loop_
 _symmetry_equiv_pos_site_id
 _symmetry_equiv_pos_as_xyz
  1  'x, y, z'
loop_
 _atom_site_type_symbol
 _atom_site_label
 _atom_site_symmetry_multiplicity
 _atom_site_fract_x
 _atom_site_fract_y
 _atom_site_fract_z
 _atom_site_occupancy
  La  La0  1  0.67186400  0.61452400  0.51921600  1
  La  La1  1  0.17186400  0.13374000  0.48078400  1
  La  La2  1  0.83397900  0.20786500  0.86652900  1
  La  La3  1  0.33397900  0.07439400  0.13347100  1
  B  B4  1  0.17979900  0.41273200  0.58504100  1
  B  B5  1  0.67979900  0.99777300  0.41495900  1
  B  B6  1  0.28386900  0.21906200  0.80460900  1
  B  B7  1  0.78386900  0.02367100  0.19539100  1
  B  B8  1  0.52700100  0.30464200  0.61762400  1
  B  B9  1  0.02700100  0.92226600  0.38237600  1
  B  B10  1  0.13332400  0.67268300  0.51687300  1
  B  B11  1  0.63332400  0.18955700  0.48312700  1
  B  B12  1  0.86670400  0.35942100  0.49326300  1
  B  B13  1  0.36670400  0.85268500  0.50673700  1
  H  H14  1  0.43211000  0.64644400  0.79574800  1
  H  H15  1  0.93211000  0.44219200  0.20425200  1
  H  H16  1  0.24878600  0.51157600  0.86850600  1
  H  H17  1  0.74878600  0.38008200  0.13149400  1
  H  H18  1  0.42646700  0.53764500  0.96801300  1
  H  H19  1  0.92646700  0.50565800  0.03198700  1
  H  H20  1  0.79821900  0.75280600  0.89250000  1
  H  H21  1  0.29821900  0.64530500  0.10750000  1
  H  H22  1  0.82376200  0.81372000  0.72181700  1
  H  H23  1  0.32376200  0.53553700  0.27818300  1
  H  H24  1  0.04779000  0.76348900  0.82282000  1
  H  H25  1  0.54779000  0.58630800  0.17718000  1
  H  H26  1  0.66560400  0.49497200  0.35399200  1
  H  H27  1  0.16560400  0.84896500  0.64600800  1
  C  C28  1  0.55207100  0.44033800  0.86414200  1
  C  C29  1  0.05207100  0.30448000  0.13585800  1
  C  C30  1  0.91666200  0.95696100  0.78420200  1
  C  C31  1  0.41666200  0.74116300  0.21579800  1
  C  C32  1  0.40723400  0.54250000  0.87304500  1
  C  C33  1  0.90723400  0.41554600  0.12695500  1
  C  C34  1  0.89417000  0.81183500  0.80768700  1
  C  C35  1  0.39417000  0.61952200  0.19231300  1
  O  O36  1  0.06953200  0.54297800  0.55383200  1
  O  O37  1  0.56953200  0.09681000  0.44616800  1
  O  O38  1  0.14279600  0.32003500  0.72589900  1
  O  O39  1  0.64279600  0.04593400  0.27410100  1
  O  O40  1  0.40280800  0.43163600  0.56154600  1
  O  O41  1  0.90280800  0.99318200  0.43845400  1
  O  O42  1  0.21601700  0.13039600  0.92415600  1
  O  O43  1  0.71601700  0.05455200  0.07584400  1
  O  O44  1  0.47968500  0.21711000  0.75697200  1
  O  O45  1  0.97968500  0.97408200  0.24302800  1
  O  O46  1  0.98332800  0.77157500  0.45395200  1
  O  O47  1  0.48332800  0.22552600  0.54604800  1
  O  O48  1  0.74763700  0.33441300  0.61164000  1
  O  O49  1  0.24763700  0.94605300  0.38836000  1
  O  O50  1  0.82125900  0.25130500  0.45377900  1
  O  O51  1  0.32125900  0.70508400  0.54622100  1
  O  O52  1  0.80036400  0.49720200  0.38866700  1
  O  O53  1  0.30036400  0.88586800  0.61133300  1
  O  O54  1  0.08673700  0.35348400  0.50922400  1
  O  O55  1  0.58673700  0.86270900  0.49077600  1
  O  O56  1  0.54797600  0.31654300  0.95261900  1
  O  O57  1  0.04797600  0.26916200  0.04738100  1
  O  O58  1  0.67883500  0.47796500  0.76884300  1
  O  O59  1  0.17883500  0.24680800  0.23115700  1
  O  O60  1  0.82098500  0.99426400  0.85639200  1
  O  O61  1  0.32098500  0.85065600  0.14360800  1
  O  O62  1  0.03211600  0.03618500  0.69057800  1
  O  O63  1  0.53211600  0.72676300  0.30942200  1
