# generated using pymatgen
data_K2Fe2B2O7
_symmetry_space_group_name_H-M   'P 1'
_cell_length_a   8.85979428
_cell_length_b   8.85979428
_cell_length_c   8.70620700
_cell_angle_alpha   90.00000000
_cell_angle_beta   90.00000000
_cell_angle_gamma   120.00000209
_symmetry_Int_Tables_number   1
_chemical_formula_structural   K2Fe2B2O7
_chemical_formula_sum   'K6 Fe6 B6 O21'
_cell_volume   591.84350666
_cell_formula_units_Z   3
loop_
 _symmetry_equiv_pos_site_id
 _symmetry_equiv_pos_as_xyz
  1  'x, y, z'
loop_
 _atom_site_type_symbol
 _atom_site_label
 _atom_site_symmetry_multiplicity
 _atom_site_fract_x
 _atom_site_fract_y
 _atom_site_fract_z
 _atom_site_occupancy
  K  K0  1  0.68104000  0.68104000  0.00000000  1
  K  K1  1  0.00000000  0.31896000  0.00000000  1
  K  K2  1  0.31896000  0.00000000  0.00000000  1
  K  K3  1  0.64766600  0.64766600  0.50000000  1
  K  K4  1  0.00000000  0.35233400  0.50000000  1
  K  K5  1  0.35233400  0.00000000  0.50000000  1
  Fe  Fe6  1  0.00000000  0.00000000  0.28717300  1
  Fe  Fe7  1  0.00000000  0.00000000  0.71282700  1
  Fe  Fe8  1  0.66666700  0.33333300  0.19264700  1
  Fe  Fe9  1  0.33333300  0.66666700  0.80735300  1
  Fe  Fe10  1  0.33333300  0.66666700  0.23496800  1
  Fe  Fe11  1  0.66666700  0.33333300  0.76503200  1
  B  B12  1  0.00151300  0.66559700  0.25897800  1
  B  B13  1  0.66408400  0.99848700  0.25897800  1
  B  B14  1  0.33440300  0.33591600  0.25897800  1
  B  B15  1  0.33591600  0.33440300  0.74102200  1
  B  B16  1  0.99848700  0.66408400  0.74102200  1
  B  B17  1  0.66559700  0.00151300  0.74102200  1
  O  O18  1  0.00000000  0.00000000  0.50000000  1
  O  O19  1  0.33333300  0.66666700  0.02120000  1
  O  O20  1  0.66666700  0.33333300  0.97880000  1
  O  O21  1  0.56486200  0.82518700  0.30177300  1
  O  O22  1  0.26032500  0.43513800  0.30177300  1
  O  O23  1  0.17481300  0.73967500  0.30177300  1
  O  O24  1  0.73967500  0.17481300  0.69822700  1
  O  O25  1  0.43513800  0.26032500  0.69822700  1
  O  O26  1  0.82518700  0.56486200  0.69822700  1
  O  O27  1  0.89911200  0.48617400  0.25845800  1
  O  O28  1  0.58706200  0.10088800  0.25845800  1
  O  O29  1  0.51382600  0.41293800  0.25845800  1
  O  O30  1  0.41293800  0.51382600  0.74154200  1
  O  O31  1  0.10088800  0.58706200  0.74154200  1
  O  O32  1  0.48617400  0.89911200  0.74154200  1
  O  O33  1  0.23017100  0.16284700  0.21777300  1
  O  O34  1  0.93267500  0.76982900  0.21777300  1
  O  O35  1  0.83715300  0.06732500  0.21777300  1
  O  O36  1  0.06732500  0.83715300  0.78222700  1
  O  O37  1  0.76982900  0.93267500  0.78222700  1
  O  O38  1  0.16284700  0.23017100  0.78222700  1
