# generated using pymatgen
data_Sb2H12Pd(CCl)4
_symmetry_space_group_name_H-M   'P 1'
_cell_length_a   10.45607800
_cell_length_b   10.20566900
_cell_length_c   14.00170449
_cell_angle_alpha   74.57511873
_cell_angle_beta   90.00000000
_cell_angle_gamma   90.00000000
_symmetry_Int_Tables_number   1
_chemical_formula_structural   Sb2H12Pd(CCl)4
_chemical_formula_sum   'Sb8 H48 Pd4 C16 Cl16'
_cell_volume   1440.32076231
_cell_formula_units_Z   4
loop_
 _symmetry_equiv_pos_site_id
 _symmetry_equiv_pos_as_xyz
  1  'x, y, z'
loop_
 _atom_site_type_symbol
 _atom_site_label
 _atom_site_symmetry_multiplicity
 _atom_site_fract_x
 _atom_site_fract_y
 _atom_site_fract_z
 _atom_site_occupancy
  Sb  Sb0  1  0.57156100  0.79781600  0.39354800  1
  Sb  Sb1  1  0.07156100  0.20218400  0.10645200  1
  Sb  Sb2  1  0.42843900  0.20218400  0.60645200  1
  Sb  Sb3  1  0.92843900  0.79781600  0.89354800  1
  Sb  Sb4  1  0.24944900  0.64420200  0.38692800  1
  Sb  Sb5  1  0.74944900  0.35579800  0.11307200  1
  Sb  Sb6  1  0.75055100  0.35579800  0.61307200  1
  Sb  Sb7  1  0.25055100  0.64420200  0.88692800  1
  H  H8  1  0.72874400  0.97177800  0.44999900  1
  H  H9  1  0.22874400  0.02822200  0.05000100  1
  H  H10  1  0.27125600  0.02822200  0.55000100  1
  H  H11  1  0.77125600  0.97177800  0.94999900  1
  H  H12  1  0.82043400  0.86566500  0.38979300  1
  H  H13  1  0.32043400  0.13433500  0.11020700  1
  H  H14  1  0.17956600  0.13433500  0.61020700  1
  H  H15  1  0.67956600  0.86566500  0.88979300  1
  H  H16  1  0.76872300  0.80087700  0.51722400  1
  H  H17  1  0.26872300  0.19912300  0.98277600  1
  H  H18  1  0.23127700  0.19912300  0.48277600  1
  H  H19  1  0.73127700  0.80087700  0.01722400  1
  H  H20  1  0.69964000  0.80380700  0.22529500  1
  H  H21  1  0.19964000  0.19619300  0.27470500  1
  H  H22  1  0.30036000  0.19619300  0.77470500  1
  H  H23  1  0.80036000  0.80380700  0.72529500  1
  H  H24  1  0.57214100  0.92804100  0.19921000  1
  H  H25  1  0.07214100  0.07195900  0.30079000  1
  H  H26  1  0.42785900  0.07195900  0.80079000  1
  H  H27  1  0.92785900  0.92804100  0.69921000  1
  H  H28  1  0.53775500  0.75015500  0.21398800  1
  H  H29  1  0.03775500  0.24984500  0.28601200  1
  H  H30  1  0.46224500  0.24984500  0.78601200  1
  H  H31  1  0.96224500  0.75015500  0.71398800  1
  H  H32  1  0.30747000  0.69808700  0.19173100  1
  H  H33  1  0.80747000  0.30191300  0.30826900  1
  H  H34  1  0.69253000  0.30191300  0.80826900  1
  H  H35  1  0.19253000  0.69808700  0.69173100  1
  H  H36  1  0.30618200  0.85353200  0.23117200  1
  H  H37  1  0.80618200  0.14646800  0.26882800  1
  H  H38  1  0.69381800  0.14646800  0.76882800  1
  H  H39  1  0.19381800  0.85353200  0.73117200  1
  H  H40  1  0.15760000  0.77669500  0.20870400  1
  H  H41  1  0.65760000  0.22330500  0.29129600  1
  H  H42  1  0.84240000  0.22330500  0.79129600  1
  H  H43  1  0.34240000  0.77669500  0.70870400  1
  H  H44  1  0.10743300  0.41929800  0.45796200  1
  H  H45  1  0.60743300  0.58070200  0.04203800  1
  H  H46  1  0.89256700  0.58070200  0.54203800  1
  H  H47  1  0.39256700  0.41929800  0.95796200  1
  H  H48  1  0.12153000  0.45848000  0.32382700  1
  H  H49  1  0.62153000  0.54152000  0.17617300  1
  H  H50  1  0.87847000  0.54152000  0.67617300  1
  H  H51  1  0.37847000  0.45848000  0.82382700  1
  H  H52  1  0.01118600  0.55247300  0.37924400  1
  H  H53  1  0.51118600  0.44752700  0.12075600  1
  H  H54  1  0.98881400  0.44752700  0.62075600  1
  H  H55  1  0.48881400  0.55247300  0.87924400  1
  Pd  Pd56  1  0.43089500  0.62147400  0.51047400  1
  Pd  Pd57  1  0.93089500  0.37852600  0.98952600  1
  Pd  Pd58  1  0.56910500  0.37852600  0.48952600  1
  Pd  Pd59  1  0.06910500  0.62147400  0.01047400  1
  C  C60  1  0.74599200  0.86817100  0.44452400  1
  C  C61  1  0.24599200  0.13182900  0.05547600  1
  C  C62  1  0.25400800  0.13182900  0.55547600  1
  C  C63  1  0.75400800  0.86817100  0.94452400  1
  C  C64  1  0.59849300  0.82346000  0.23710200  1
  C  C65  1  0.09849300  0.17654000  0.26289800  1
  C  C66  1  0.40150700  0.17654000  0.76289800  1
  C  C67  1  0.90150700  0.82346000  0.73710200  1
  C  C68  1  0.25688100  0.75802800  0.23415800  1
  C  C69  1  0.75688100  0.24197200  0.26584200  1
  C  C70  1  0.74311900  0.24197200  0.76584200  1
  C  C71  1  0.24311900  0.75802800  0.73415800  1
  C  C72  1  0.10266600  0.49796000  0.38795900  1
  C  C73  1  0.60266600  0.50204000  0.11204100  1
  C  C74  1  0.89733400  0.50204000  0.61204100  1
  C  C75  1  0.39733400  0.49796000  0.88795900  1
  Cl  Cl76  1  0.45432400  0.01023400  0.36648600  1
  Cl  Cl77  1  0.95432400  0.98976600  0.13351400  1
  Cl  Cl78  1  0.54567600  0.98976600  0.63351400  1
  Cl  Cl79  1  0.04567600  0.01023400  0.86648600  1
  Cl  Cl80  1  0.11319900  0.80223400  0.44147300  1
  Cl  Cl81  1  0.61319900  0.19776600  0.05852700  1
  Cl  Cl82  1  0.88680100  0.19776600  0.55852700  1
  Cl  Cl83  1  0.38680100  0.80223400  0.94147300  1
  Cl  Cl84  1  0.58802800  0.59490100  0.63966100  1
  Cl  Cl85  1  0.08802800  0.40509900  0.86033900  1
  Cl  Cl86  1  0.41197200  0.40509900  0.36033900  1
  Cl  Cl87  1  0.91197200  0.59490100  0.13966100  1
  Cl  Cl88  1  0.28957800  0.45778500  0.61320400  1
  Cl  Cl89  1  0.78957800  0.54221500  0.88679600  1
  Cl  Cl90  1  0.71042200  0.54221500  0.38679600  1
  Cl  Cl91  1  0.21042200  0.45778500  0.11320400  1
