# generated using pymatgen
data_KVOF3
_symmetry_space_group_name_H-M   'P 1'
_cell_length_a   7.35983600
_cell_length_b   7.68137400
_cell_length_c   13.42850700
_cell_angle_alpha   90.00000000
_cell_angle_beta   90.00000000
_cell_angle_gamma   90.00000000
_symmetry_Int_Tables_number   1
_chemical_formula_structural   KVOF3
_chemical_formula_sum   'K8 V8 O8 F24'
_cell_volume   759.16255363
_cell_formula_units_Z   8
loop_
 _symmetry_equiv_pos_site_id
 _symmetry_equiv_pos_as_xyz
  1  'x, y, z'
loop_
 _atom_site_type_symbol
 _atom_site_label
 _atom_site_symmetry_multiplicity
 _atom_site_fract_x
 _atom_site_fract_y
 _atom_site_fract_z
 _atom_site_occupancy
  K  K0  1  0.40940000  0.25000000  0.10287600  1
  K  K1  1  0.90940000  0.25000000  0.39712400  1
  K  K2  1  0.59060000  0.75000000  0.89712400  1
  K  K3  1  0.09060000  0.75000000  0.60287600  1
  K  K4  1  0.67439300  0.25000000  0.85523500  1
  K  K5  1  0.17439300  0.25000000  0.64476500  1
  K  K6  1  0.32560700  0.75000000  0.14476500  1
  K  K7  1  0.82560700  0.75000000  0.35523500  1
  V  V8  1  0.13569700  0.99586400  0.89696200  1
  V  V9  1  0.63569700  0.50413600  0.60303800  1
  V  V10  1  0.86430300  0.49586400  0.10303800  1
  V  V11  1  0.36430300  0.00413600  0.39696200  1
  V  V12  1  0.86430300  0.00413600  0.10303800  1
  V  V13  1  0.36430300  0.49586400  0.39696200  1
  V  V14  1  0.13569700  0.50413600  0.89696200  1
  V  V15  1  0.63569700  0.99586400  0.60303800  1
  O  O16  1  0.11893900  0.95831000  0.77719100  1
  O  O17  1  0.61893900  0.54169000  0.72280900  1
  O  O18  1  0.88106100  0.45831000  0.22280900  1
  O  O19  1  0.38106100  0.04169000  0.27719100  1
  O  O20  1  0.88106100  0.04169000  0.22280900  1
  O  O21  1  0.38106100  0.45831000  0.27719100  1
  O  O22  1  0.11893900  0.54169000  0.77719100  1
  O  O23  1  0.61893900  0.95831000  0.72280900  1
  F  F24  1  0.07337400  0.25000000  0.88848800  1
  F  F25  1  0.57337400  0.25000000  0.61151200  1
  F  F26  1  0.92662600  0.75000000  0.11151200  1
  F  F27  1  0.42662600  0.75000000  0.38848800  1
  F  F28  1  0.19917000  0.75000000  0.93987900  1
  F  F29  1  0.69917000  0.75000000  0.56012100  1
  F  F30  1  0.80083000  0.25000000  0.06012100  1
  F  F31  1  0.30083000  0.25000000  0.43987900  1
  F  F32  1  0.38475100  0.05245800  0.91641900  1
  F  F33  1  0.88475100  0.44754200  0.58358100  1
  F  F34  1  0.61524900  0.55245800  0.08358100  1
  F  F35  1  0.11524900  0.94754200  0.41641900  1
  F  F36  1  0.61524900  0.94754200  0.08358100  1
  F  F37  1  0.11524900  0.55245800  0.41641900  1
  F  F38  1  0.38475100  0.44754200  0.91641900  1
  F  F39  1  0.88475100  0.05245800  0.58358100  1
  F  F40  1  0.87695300  0.96440100  0.94025300  1
  F  F41  1  0.37695300  0.53559900  0.55974700  1
  F  F42  1  0.12304700  0.46440100  0.05974700  1
  F  F43  1  0.62304700  0.03559900  0.44025300  1
  F  F44  1  0.12304700  0.03559900  0.05974700  1
  F  F45  1  0.62304700  0.46440100  0.44025300  1
  F  F46  1  0.87695300  0.53559900  0.94025300  1
  F  F47  1  0.37695300  0.96440100  0.55974700  1
