# generated using pymatgen
data_Zn9(As3O14)2
_symmetry_space_group_name_H-M   'P 1'
_cell_length_a   6.63273600
_cell_length_b   9.37426147
_cell_length_c   10.37372774
_cell_angle_alpha   71.45287715
_cell_angle_beta   78.42518868
_cell_angle_gamma   75.97804080
_symmetry_Int_Tables_number   1
_chemical_formula_structural   Zn9(As3O14)2
_chemical_formula_sum   'Zn9 As6 O28'
_cell_volume   587.90720701
_cell_formula_units_Z   1
loop_
 _symmetry_equiv_pos_site_id
 _symmetry_equiv_pos_as_xyz
  1  'x, y, z'
loop_
 _atom_site_type_symbol
 _atom_site_label
 _atom_site_symmetry_multiplicity
 _atom_site_fract_x
 _atom_site_fract_y
 _atom_site_fract_z
 _atom_site_occupancy
  Zn  Zn0  1  0.00000000  0.00000000  0.50000000  1
  Zn  Zn1  1  0.56150500  0.84157500  0.72092800  1
  Zn  Zn2  1  0.43849500  0.15842500  0.27907200  1
  Zn  Zn3  1  0.95692500  0.24612000  0.66630900  1
  Zn  Zn4  1  0.04307500  0.75388000  0.33369100  1
  Zn  Zn5  1  0.20739700  0.37955100  0.97171100  1
  Zn  Zn6  1  0.79260300  0.62044900  0.02828900  1
  Zn  Zn7  1  0.52995300  0.49616900  0.70026700  1
  Zn  Zn8  1  0.47004700  0.50383100  0.29973300  1
  As  As9  1  0.74284500  0.27824800  0.98393400  1
  As  As10  1  0.25715500  0.72175200  0.01606600  1
  As  As11  1  0.97968200  0.60878700  0.69341100  1
  As  As12  1  0.02031800  0.39121300  0.30658900  1
  As  As13  1  0.50388900  0.20485200  0.57651000  1
  As  As14  1  0.49611100  0.79514800  0.42349000  1
  O  O15  1  0.00673100  0.75578600  0.54403400  1
  O  O16  1  0.99326900  0.24421400  0.45596600  1
  O  O17  1  0.52175700  0.38654000  0.90716700  1
  O  O18  1  0.47824300  0.61346000  0.09283300  1
  O  O19  1  0.67221700  0.15708400  0.13803600  1
  O  O20  1  0.32778300  0.84291600  0.86196400  1
  O  O21  1  0.48684100  0.27815000  0.40151300  1
  O  O22  1  0.51315900  0.72185000  0.59848700  1
  O  O23  1  0.62855800  0.31573800  0.62517200  1
  O  O24  1  0.37144200  0.68426200  0.37482800  1
  O  O25  1  0.90993500  0.17228700  0.88142800  1
  O  O26  1  0.09006500  0.82771300  0.11857200  1
  O  O27  1  0.88389200  0.40674600  0.99414600  1
  O  O28  1  0.11610800  0.59325400  0.00585400  1
  O  O29  1  0.66318600  0.02358000  0.59275100  1
  O  O30  1  0.33681400  0.97642000  0.40724900  1
  O  O31  1  0.80465000  0.69807500  0.80765000  1
  O  O32  1  0.19535000  0.30192500  0.19235000  1
  O  O33  1  0.21181900  0.51188400  0.75393800  1
  O  O34  1  0.78818100  0.48811600  0.24606200  1
  O  O35  1  0.27173700  0.18661400  0.67928000  1
  O  O36  1  0.72826300  0.81338600  0.32072000  1
  O  O37  1  0.86453900  0.47617300  0.66436700  1
  O  O38  1  0.13546100  0.52382700  0.33563300  1
  O  O39  1  0.99519300  0.98584300  0.31902500  1
  O  O40  1  0.00480700  0.01415700  0.68097500  1
  O  O41  1  0.22124900  0.17494800  0.93170400  1
  O  O42  1  0.77875100  0.82505200  0.06829600  1
