# generated using pymatgen
data_NaIn3S5
_symmetry_space_group_name_H-M   'P 1'
_cell_length_a   3.85191700
_cell_length_b   12.66737000
_cell_length_c   16.32018200
_cell_angle_alpha   90.00000000
_cell_angle_beta   90.00000000
_cell_angle_gamma   90.00000000
_symmetry_Int_Tables_number   1
_chemical_formula_structural   NaIn3S5
_chemical_formula_sum   'Na4 In12 S20'
_cell_volume   796.32137653
_cell_formula_units_Z   4
loop_
 _symmetry_equiv_pos_site_id
 _symmetry_equiv_pos_as_xyz
  1  'x, y, z'
loop_
 _atom_site_type_symbol
 _atom_site_label
 _atom_site_symmetry_multiplicity
 _atom_site_fract_x
 _atom_site_fract_y
 _atom_site_fract_z
 _atom_site_occupancy
  Na  Na0  1  0.00000000  0.74981600  0.37422000  1
  Na  Na1  1  0.00000000  0.25018400  0.62578000  1
  Na  Na2  1  0.00000000  0.24981600  0.12578000  1
  Na  Na3  1  0.00000000  0.75018400  0.87422000  1
  In  In4  1  0.50000000  0.79261400  0.12274500  1
  In  In5  1  0.50000000  0.20738600  0.87725500  1
  In  In6  1  0.50000000  0.29261400  0.37725500  1
  In  In7  1  0.50000000  0.70738600  0.62274500  1
  In  In8  1  0.00000000  0.53971800  0.19792300  1
  In  In9  1  0.00000000  0.46028200  0.80207700  1
  In  In10  1  0.00000000  0.03971800  0.30207700  1
  In  In11  1  0.00000000  0.96028200  0.69792300  1
  In  In12  1  0.50000000  0.50000000  0.00000000  1
  In  In13  1  0.50000000  0.00000000  0.50000000  1
  In  In14  1  0.00000000  0.50000000  0.50000000  1
  In  In15  1  0.00000000  0.00000000  0.00000000  1
  S  S16  1  0.50000000  0.63860000  0.47515500  1
  S  S17  1  0.50000000  0.36140000  0.52484500  1
  S  S18  1  0.50000000  0.13860000  0.02484500  1
  S  S19  1  0.50000000  0.86140000  0.97515500  1
  S  S20  1  0.50000000  0.66981700  0.24649200  1
  S  S21  1  0.50000000  0.33018300  0.75350800  1
  S  S22  1  0.50000000  0.16981700  0.25350800  1
  S  S23  1  0.50000000  0.83018300  0.74649200  1
  S  S24  1  0.50000000  0.91716100  0.35837500  1
  S  S25  1  0.50000000  0.08283900  0.64162500  1
  S  S26  1  0.50000000  0.41716100  0.14162500  1
  S  S27  1  0.50000000  0.58283900  0.85837500  1
  S  S28  1  0.00000000  0.63762200  0.05504200  1
  S  S29  1  0.00000000  0.36237800  0.94495800  1
  S  S30  1  0.00000000  0.13762200  0.44495800  1
  S  S31  1  0.00000000  0.86237800  0.55504200  1
  S  S32  1  0.00000000  0.92498800  0.15753400  1
  S  S33  1  0.00000000  0.07501200  0.84246600  1
  S  S34  1  0.00000000  0.42498800  0.34246600  1
  S  S35  1  0.00000000  0.57501200  0.65753400  1
