# generated using pymatgen
data_K4H6W2S2O9
_symmetry_space_group_name_H-M   'P 1'
_cell_length_a   6.57171616
_cell_length_b   6.57171616
_cell_length_c   19.01911481
_cell_angle_alpha   82.89493883
_cell_angle_beta   82.89493883
_cell_angle_gamma   79.78925156
_symmetry_Int_Tables_number   1
_chemical_formula_structural   K4H6W2S2O9
_chemical_formula_sum   'K8 H12 W4 S4 O18'
_cell_volume   797.80400508
_cell_formula_units_Z   2
loop_
 _symmetry_equiv_pos_site_id
 _symmetry_equiv_pos_as_xyz
  1  'x, y, z'
loop_
 _atom_site_type_symbol
 _atom_site_label
 _atom_site_symmetry_multiplicity
 _atom_site_fract_x
 _atom_site_fract_y
 _atom_site_fract_z
 _atom_site_occupancy
  K  K0  1  0.19510300  0.22162200  0.71631600  1
  K  K1  1  0.77837800  0.80489700  0.78368400  1
  K  K2  1  0.80489700  0.77837800  0.28368400  1
  K  K3  1  0.22162200  0.19510300  0.21631600  1
  K  K4  1  0.12920900  0.73785600  0.56123200  1
  K  K5  1  0.26214400  0.87079100  0.93876800  1
  K  K6  1  0.87079100  0.26214400  0.43876800  1
  K  K7  1  0.73785600  0.12920900  0.06123200  1
  H  H8  1  0.79083800  0.71951800  0.96098300  1
  H  H9  1  0.28048200  0.20916200  0.53901700  1
  H  H10  1  0.20916200  0.28048200  0.03901700  1
  H  H11  1  0.71951800  0.79083800  0.46098300  1
  H  H12  1  0.93277900  0.55323700  0.91751600  1
  H  H13  1  0.44676300  0.06722100  0.58248400  1
  H  H14  1  0.06722100  0.44676300  0.08248400  1
  H  H15  1  0.55323700  0.93277900  0.41751600  1
  H  H16  1  0.29342300  0.72068500  0.78956500  1
  H  H17  1  0.27931500  0.70657700  0.71043500  1
  H  H18  1  0.70657700  0.27931500  0.21043500  1
  H  H19  1  0.72068500  0.29342300  0.28956500  1
  W  W20  1  0.69026600  0.45800400  0.62049400  1
  W  W21  1  0.54199600  0.30973400  0.87950600  1
  W  W22  1  0.30973400  0.54199600  0.37950600  1
  W  W23  1  0.45800400  0.69026600  0.12049400  1
  S  S24  1  0.10715400  0.75754400  0.12376100  1
  S  S25  1  0.24245600  0.89284600  0.37623900  1
  S  S26  1  0.89284600  0.24245600  0.87623900  1
  S  S27  1  0.75754400  0.10715400  0.62376100  1
  O  O28  1  0.85819400  0.53949800  0.67584500  1
  O  O29  1  0.46050200  0.14180600  0.82415500  1
  O  O30  1  0.14180600  0.46050200  0.32415500  1
  O  O31  1  0.53949800  0.85819400  0.17584500  1
  O  O32  1  0.75160000  0.56862200  0.53004400  1
  O  O33  1  0.43137800  0.24840000  0.96995600  1
  O  O34  1  0.24840000  0.43137800  0.46995600  1
  O  O35  1  0.56862200  0.75160000  0.03004400  1
  O  O36  1  0.41691600  0.54149400  0.64991200  1
  O  O37  1  0.45850600  0.58308400  0.85008800  1
  O  O38  1  0.58308400  0.45850600  0.35008800  1
  O  O39  1  0.54149400  0.41691600  0.14991200  1
  O  O40  1  0.91430900  0.70140600  0.92530700  1
  O  O41  1  0.29859400  0.08569100  0.57469300  1
  O  O42  1  0.08569100  0.29859400  0.07469300  1
  O  O43  1  0.70140600  0.91430900  0.42530700  1
  O  O44  1  0.21128200  0.78871800  0.75000000  1
  O  O45  1  0.78871800  0.21128200  0.25000000  1
