# generated using pymatgen
data_Cu7Te6(O9F)2
_symmetry_space_group_name_H-M   'P 1'
_cell_length_a   5.05712535
_cell_length_b   9.64518972
_cell_length_c   10.03004218
_cell_angle_alpha   82.47523498
_cell_angle_beta   76.69168367
_cell_angle_gamma   80.48458617
_symmetry_Int_Tables_number   1
_chemical_formula_structural   Cu7Te6(O9F)2
_chemical_formula_sum   'Cu7 Te6 O18 F2'
_cell_volume   467.34109531
_cell_formula_units_Z   1
loop_
 _symmetry_equiv_pos_site_id
 _symmetry_equiv_pos_as_xyz
  1  'x, y, z'
loop_
 _atom_site_type_symbol
 _atom_site_label
 _atom_site_symmetry_multiplicity
 _atom_site_fract_x
 _atom_site_fract_y
 _atom_site_fract_z
 _atom_site_occupancy
  Cu  Cu0  1  0.00000000  0.00000000  0.00000000  1
  Cu  Cu1  1  0.56302500  0.18082500  0.78885700  1
  Cu  Cu2  1  0.43697500  0.81917500  0.21114300  1
  Cu  Cu3  1  0.81834700  0.43569600  0.92774200  1
  Cu  Cu4  1  0.18165300  0.56430400  0.07225800  1
  Cu  Cu5  1  0.88101100  0.65373600  0.43056700  1
  Cu  Cu6  1  0.11898900  0.34626400  0.56943300  1
  Te  Te7  1  0.66142300  0.77703400  0.90890500  1
  Te  Te8  1  0.33857700  0.22296600  0.09109500  1
  Te  Te9  1  0.40077700  0.57085200  0.67566500  1
  Te  Te10  1  0.59922300  0.42914800  0.32433500  1
  Te  Te11  1  0.16957700  0.01787300  0.64174200  1
  Te  Te12  1  0.83042300  0.98212700  0.35825800  1
  O  O13  1  0.64455500  0.26876800  0.93776200  1
  O  O14  1  0.35544500  0.73123200  0.06223800  1
  O  O15  1  0.06590300  0.92134400  0.82216600  1
  O  O16  1  0.93409700  0.07865600  0.17783400  1
  O  O17  1  0.28036700  0.12078700  0.94576100  1
  O  O18  1  0.71963300  0.87921300  0.05423900  1
  O  O19  1  0.93707900  0.19546900  0.67979100  1
  O  O20  1  0.06292100  0.80453100  0.32020900  1
  O  O21  1  0.55357300  0.56543100  0.83577800  1
  O  O22  1  0.44642700  0.43456900  0.16422200  1
  O  O23  1  0.73275200  0.49583700  0.55333800  1
  O  O24  1  0.26724800  0.50416300  0.44666200  1
  O  O25  1  0.94341900  0.62182400  0.93695300  1
  O  O26  1  0.05658100  0.37817600  0.06304700  1
  O  O27  1  0.25248000  0.39782100  0.72673400  1
  O  O28  1  0.74752000  0.60217900  0.27326500  1
  O  O29  1  0.50284000  0.07228400  0.65335400  1
  O  O30  1  0.49716000  0.92771600  0.34664600  1
  F  F31  1  0.75964800  0.77723500  0.58400900  1
  F  F32  1  0.24035200  0.22276500  0.41599100  1
