# generated using pymatgen
data_MgSiO3
_symmetry_space_group_name_H-M   'P 1'
_cell_length_a   8.89642100
_cell_length_b   5.22871000
_cell_length_c   9.40671259
_cell_angle_alpha   86.05147106
_cell_angle_beta   90.00000000
_cell_angle_gamma   90.00000000
_symmetry_Int_Tables_number   1
_chemical_formula_structural   MgSiO3
_chemical_formula_sum   'Mg8 Si8 O24'
_cell_volume   436.53156477
_cell_formula_units_Z   8
loop_
 _symmetry_equiv_pos_site_id
 _symmetry_equiv_pos_as_xyz
  1  'x, y, z'
loop_
 _atom_site_type_symbol
 _atom_site_label
 _atom_site_symmetry_multiplicity
 _atom_site_fract_x
 _atom_site_fract_y
 _atom_site_fract_z
 _atom_site_occupancy
  Mg  Mg0  1  0.59895800  0.25000000  0.00000000  1
  Mg  Mg1  1  0.40104200  0.75000000  0.00000000  1
  Mg  Mg2  1  0.23778500  0.25000000  0.00000000  1
  Mg  Mg3  1  0.76221500  0.75000000  0.00000000  1
  Mg  Mg4  1  0.09902900  0.25000000  0.50000000  1
  Mg  Mg5  1  0.90097100  0.75000000  0.50000000  1
  Mg  Mg6  1  0.73470600  0.25000000  0.50000000  1
  Mg  Mg7  1  0.26529400  0.75000000  0.50000000  1
  Si  Si8  1  0.58992300  0.63588300  0.70535800  1
  Si  Si9  1  0.58992300  0.86411700  0.29464200  1
  Si  Si10  1  0.41007700  0.36411700  0.29464200  1
  Si  Si11  1  0.41007700  0.13588300  0.70535800  1
  Si  Si12  1  0.91034000  0.06044000  0.79110800  1
  Si  Si13  1  0.91034000  0.43956000  0.20889200  1
  Si  Si14  1  0.08966000  0.93956000  0.20889200  1
  Si  Si15  1  0.08966000  0.56044000  0.79110800  1
  O  O16  1  0.59196600  0.60340100  0.87973900  1
  O  O17  1  0.59196600  0.89659900  0.12026100  1
  O  O18  1  0.40803400  0.39659900  0.12026100  1
  O  O19  1  0.40803400  0.10340100  0.87973900  1
  O  O20  1  0.73926800  0.55278500  0.62222300  1
  O  O21  1  0.73926800  0.94721500  0.37777700  1
  O  O22  1  0.26073200  0.44721500  0.37777700  1
  O  O23  1  0.26073200  0.05278500  0.62222300  1
  O  O24  1  0.45289400  0.44081300  0.65082700  1
  O  O25  1  0.45289400  0.05918700  0.34917300  1
  O  O26  1  0.54710600  0.55918700  0.34917300  1
  O  O27  1  0.54710600  0.94081300  0.65082700  1
  O  O28  1  0.09206600  0.57549000  0.61692600  1
  O  O29  1  0.09206600  0.92451000  0.38307400  1
  O  O30  1  0.90793400  0.42451000  0.38307400  1
  O  O31  1  0.90793400  0.07549000  0.61692600  1
  O  O32  1  0.24155900  0.58858900  0.87947100  1
  O  O33  1  0.24155900  0.91141100  0.12052900  1
  O  O34  1  0.75844100  0.41141100  0.12052900  1
  O  O35  1  0.75844100  0.08858900  0.87947100  1
  O  O36  1  0.95858700  0.75850300  0.84614500  1
  O  O37  1  0.95858700  0.74149700  0.15385500  1
  O  O38  1  0.04141300  0.24149700  0.15385500  1
  O  O39  1  0.04141300  0.25850300  0.84614500  1
