# generated using pymatgen
data_KNb2PSe10
_symmetry_space_group_name_H-M   'P 1'
_cell_length_a   16.09096900
_cell_length_b   7.54524800
_cell_length_c   13.78024985
_cell_angle_alpha   73.39587427
_cell_angle_beta   90.00000000
_cell_angle_gamma   90.00000000
_symmetry_Int_Tables_number   1
_chemical_formula_structural   KNb2PSe10
_chemical_formula_sum   'K4 Nb8 P4 Se40'
_cell_volume   1603.30151778
_cell_formula_units_Z   4
loop_
 _symmetry_equiv_pos_site_id
 _symmetry_equiv_pos_as_xyz
  1  'x, y, z'
loop_
 _atom_site_type_symbol
 _atom_site_label
 _atom_site_symmetry_multiplicity
 _atom_site_fract_x
 _atom_site_fract_y
 _atom_site_fract_z
 _atom_site_occupancy
  K  K0  1  0.24498000  0.17439500  0.67762600  1
  K  K1  1  0.75502000  0.17439500  0.17762600  1
  K  K2  1  0.25387700  0.14739700  0.20608500  1
  K  K3  1  0.74612300  0.14739700  0.70608500  1
  Nb  Nb4  1  0.03610300  0.73164100  0.95801600  1
  Nb  Nb5  1  0.96389700  0.73164100  0.45801600  1
  Nb  Nb6  1  0.02272100  0.72528700  0.66531100  1
  Nb  Nb7  1  0.97727900  0.72528700  0.16531100  1
  Nb  Nb8  1  0.52577200  0.71277700  0.94945000  1
  Nb  Nb9  1  0.47422800  0.71277700  0.44945000  1
  Nb  Nb10  1  0.53508300  0.70639600  0.65624200  1
  Nb  Nb11  1  0.46491700  0.70639600  0.15624200  1
  P  P12  1  0.20195500  0.58160300  0.82681300  1
  P  P13  1  0.79804500  0.58160300  0.32681300  1
  P  P14  1  0.70298500  0.56195100  0.83752200  1
  P  P15  1  0.29701500  0.56195100  0.33752200  1
  Se  Se16  1  0.05722000  0.99497400  0.50018800  1
  Se  Se17  1  0.94278000  0.99497400  0.00018800  1
  Se  Se18  1  0.02963800  0.98287900  0.77205700  1
  Se  Se19  1  0.97036200  0.98287900  0.27205700  1
  Se  Se20  1  0.08123600  0.97935700  0.05115500  1
  Se  Se21  1  0.91876400  0.97935700  0.55115500  1
  Se  Se22  1  0.44104300  0.97363100  0.53685900  1
  Se  Se23  1  0.55895700  0.97363100  0.03685900  1
  Se  Se24  1  0.53132700  0.96417600  0.76470400  1
  Se  Se25  1  0.46867300  0.96417600  0.26470400  1
  Se  Se26  1  0.42103500  0.96228700  0.98765500  1
  Se  Se27  1  0.57896500  0.96228700  0.48765500  1
  Se  Se28  1  0.20306800  0.77974100  0.92131600  1
  Se  Se29  1  0.79693200  0.77974100  0.42131600  1
  Se  Se30  1  0.08318300  0.77443400  0.31133700  1
  Se  Se31  1  0.91681700  0.77443400  0.81133700  1
  Se  Se32  1  0.69435500  0.76404300  0.92889000  1
  Se  Se33  1  0.30564500  0.76404300  0.42889000  1
  Se  Se34  1  0.41791500  0.75454000  0.79106600  1
  Se  Se35  1  0.58208500  0.75454000  0.29106600  1
  Se  Se36  1  0.19580200  0.72987600  0.66049000  1
  Se  Se37  1  0.80419800  0.72987600  0.16049000  1
  Se  Se38  1  0.29116600  0.70193300  0.16950700  1
  Se  Se39  1  0.70883400  0.70193300  0.66950700  1
  Se  Se40  1  0.08330400  0.47955800  0.13176900  1
  Se  Se41  1  0.91669600  0.47955800  0.63176900  1
  Se  Se42  1  0.06959500  0.47555200  0.85078200  1
  Se  Se43  1  0.93040500  0.47555200  0.35078200  1
  Se  Se44  1  0.05326900  0.46086500  0.57511000  1
  Se  Se45  1  0.94673100  0.46086500  0.07511000  1
  Se  Se46  1  0.43299300  0.45686800  0.62326300  1
  Se  Se47  1  0.56700700  0.45686800  0.12326300  1
  Se  Se48  1  0.57048800  0.45678800  0.84555300  1
  Se  Se49  1  0.42951200  0.45678800  0.34555300  1
  Se  Se50  1  0.56834700  0.44420400  0.56160100  1
  Se  Se51  1  0.43165300  0.44420400  0.06160100  1
  Se  Se52  1  0.29966000  0.37450200  0.86599700  1
  Se  Se53  1  0.70034000  0.37450200  0.36599700  1
  Se  Se54  1  0.79999700  0.35647500  0.89151500  1
  Se  Se55  1  0.20000300  0.35647500  0.39151500  1
