# generated using pymatgen
data_La4(YS2)11
_symmetry_space_group_name_H-M   'P 1'
_cell_length_a   19.85295513
_cell_length_b   19.85295513
_cell_length_c   11.44709179
_cell_angle_alpha   88.44478713
_cell_angle_beta   88.44478713
_cell_angle_gamma   11.54354994
_symmetry_Int_Tables_number   1
_chemical_formula_structural   La4(YS2)11
_chemical_formula_sum   'La4 Y11 S22'
_cell_volume   902.52348544
_cell_formula_units_Z   1
loop_
 _symmetry_equiv_pos_site_id
 _symmetry_equiv_pos_as_xyz
  1  'x, y, z'
loop_
 _atom_site_type_symbol
 _atom_site_label
 _atom_site_symmetry_multiplicity
 _atom_site_fract_x
 _atom_site_fract_y
 _atom_site_fract_z
 _atom_site_occupancy
  La  La0  1  0.10422400  0.10422400  0.98845100  1
  La  La1  1  0.89577600  0.89577600  0.01154900  1
  La  La2  1  0.36718300  0.36718300  0.65307700  1
  La  La3  1  0.63281700  0.63281700  0.34692300  1
  Y  Y4  1  0.79786600  0.79786600  0.94197700  1
  Y  Y5  1  0.20213400  0.20213400  0.05802300  1
  Y  Y6  1  0.46205400  0.46205400  0.72884400  1
  Y  Y7  1  0.53794600  0.53794600  0.27115600  1
  Y  Y8  1  0.65772100  0.65772100  0.69876200  1
  Y  Y9  1  0.34227900  0.34227900  0.30123800  1
  Y  Y10  1  0.26388700  0.26388700  0.64813200  1
  Y  Y11  1  0.73611300  0.73611300  0.35186800  1
  Y  Y12  1  0.06958800  0.06958800  0.63948900  1
  Y  Y13  1  0.93041200  0.93041200  0.36051100  1
  Y  Y14  1  0.00000000  0.00000000  0.00000000  1
  S  S15  1  0.08748100  0.08748100  0.24835000  1
  S  S16  1  0.91251900  0.91251900  0.75165000  1
  S  S17  1  0.18883000  0.18883000  0.30826500  1
  S  S18  1  0.81117000  0.81117000  0.69173500  1
  S  S19  1  0.27985500  0.27985500  0.40993000  1
  S  S20  1  0.72014500  0.72014500  0.59007000  1
  S  S21  1  0.44537200  0.44537200  0.50485700  1
  S  S22  1  0.55462800  0.55462800  0.49514300  1
  S  S23  1  0.13482500  0.13482500  0.54639900  1
  S  S24  1  0.86517500  0.86517500  0.45360100  1
  S  S25  1  0.59286500  0.59286500  0.78790600  1
  S  S26  1  0.40713500  0.40713500  0.21209400  1
  S  S27  1  0.45309300  0.45309300  0.96886300  1
  S  S28  1  0.54690700  0.54690700  0.03113700  1
  S  S29  1  0.35064500  0.35064500  0.90866100  1
  S  S30  1  0.64935500  0.64935500  0.09133900  1
  S  S31  1  0.16829800  0.16829800  0.84869000  1
  S  S32  1  0.83170200  0.83170200  0.15131000  1
  S  S33  1  0.00777300  0.00777300  0.76098500  1
  S  S34  1  0.99222700  0.99222700  0.23901500  1
  S  S35  1  0.25532200  0.25532200  0.88119800  1
  S  S36  1  0.74467800  0.74467800  0.11880200  1
