# generated using pymatgen
data_Dy2Cu(SO6)2
_symmetry_space_group_name_H-M   'P 1'
_cell_length_a   6.84328400
_cell_length_b   6.37218000
_cell_length_c   10.43700485
_cell_angle_alpha   82.13618612
_cell_angle_beta   90.00000000
_cell_angle_gamma   90.00000000
_symmetry_Int_Tables_number   1
_chemical_formula_structural   Dy2Cu(SO6)2
_chemical_formula_sum   'Dy4 Cu2 S4 O24'
_cell_volume   450.84274513
_cell_formula_units_Z   2
loop_
 _symmetry_equiv_pos_site_id
 _symmetry_equiv_pos_as_xyz
  1  'x, y, z'
loop_
 _atom_site_type_symbol
 _atom_site_label
 _atom_site_symmetry_multiplicity
 _atom_site_fract_x
 _atom_site_fract_y
 _atom_site_fract_z
 _atom_site_occupancy
  Dy  Dy0  1  0.50530200  0.92219200  0.32218400  1
  Dy  Dy1  1  0.00530200  0.07780800  0.17781600  1
  Dy  Dy2  1  0.49469800  0.07780800  0.67781600  1
  Dy  Dy3  1  0.99469800  0.92219200  0.82218400  1
  Cu  Cu4  1  0.50000000  0.00000000  0.00000000  1
  Cu  Cu5  1  0.00000000  0.00000000  0.50000000  1
  S  S6  1  0.32896400  0.36769500  0.37326500  1
  S  S7  1  0.82896400  0.63230500  0.12673500  1
  S  S8  1  0.67103600  0.63230500  0.62673500  1
  S  S9  1  0.17103600  0.36769500  0.87326500  1
  O  O10  1  0.66483300  0.06099900  0.13011300  1
  O  O11  1  0.16483300  0.93900100  0.36988700  1
  O  O12  1  0.33516700  0.93900100  0.86988700  1
  O  O13  1  0.83516700  0.06099900  0.63011300  1
  O  O14  1  0.67870800  0.05864400  0.87261400  1
  O  O15  1  0.17870800  0.94135600  0.62738600  1
  O  O16  1  0.32129200  0.94135600  0.12738600  1
  O  O17  1  0.82129200  0.05864400  0.37261400  1
  O  O18  1  0.30559700  0.25238400  0.25351900  1
  O  O19  1  0.80559700  0.74761600  0.24648100  1
  O  O20  1  0.69440300  0.74761600  0.74648100  1
  O  O21  1  0.19440300  0.25238400  0.75351900  1
  O  O22  1  0.43948000  0.56291400  0.33123800  1
  O  O23  1  0.93948000  0.43708600  0.16876200  1
  O  O24  1  0.56052000  0.43708600  0.66876200  1
  O  O25  1  0.06052000  0.56291400  0.83123800  1
  O  O26  1  0.45972000  0.21168200  0.45698100  1
  O  O27  1  0.95972000  0.78831800  0.04301900  1
  O  O28  1  0.54028000  0.78831800  0.54301900  1
  O  O29  1  0.04028000  0.21168200  0.95698100  1
  O  O30  1  0.14436200  0.40006900  0.43353800  1
  O  O31  1  0.64436200  0.59993100  0.06646200  1
  O  O32  1  0.85563800  0.59993100  0.56646200  1
  O  O33  1  0.35563800  0.40006900  0.93353800  1
