# generated using pymatgen
data_Ga41Mo8
_symmetry_space_group_name_H-M   'P 1'
_cell_length_a   9.60437027
_cell_length_b   9.60437027
_cell_length_c   9.60437072
_cell_angle_alpha   94.87584563
_cell_angle_beta   94.87584563
_cell_angle_gamma   94.87584080
_symmetry_Int_Tables_number   1
_chemical_formula_structural   Ga41Mo8
_chemical_formula_sum   'Ga41 Mo8'
_cell_volume   875.74138800
_cell_formula_units_Z   1
loop_
 _symmetry_equiv_pos_site_id
 _symmetry_equiv_pos_as_xyz
  1  'x, y, z'
loop_
 _atom_site_type_symbol
 _atom_site_label
 _atom_site_symmetry_multiplicity
 _atom_site_fract_x
 _atom_site_fract_y
 _atom_site_fract_z
 _atom_site_occupancy
  Ga  Ga0  1  0.00000000  0.00000000  0.00000000  1
  Ga  Ga1  1  0.50000000  0.50000000  0.50000000  1
  Ga  Ga2  1  0.00000000  0.50000000  0.50000000  1
  Ga  Ga3  1  0.50000000  0.00000000  0.50000000  1
  Ga  Ga4  1  0.50000000  0.50000000  0.00000000  1
  Ga  Ga5  1  0.26586900  0.63417700  0.61114100  1
  Ga  Ga6  1  0.61114100  0.26586900  0.63417700  1
  Ga  Ga7  1  0.63417700  0.61114100  0.26586900  1
  Ga  Ga8  1  0.73413100  0.36582300  0.38885900  1
  Ga  Ga9  1  0.38885900  0.73413100  0.36582300  1
  Ga  Ga10  1  0.36582300  0.38885900  0.73413100  1
  Ga  Ga11  1  0.67522600  0.77855000  0.53874300  1
  Ga  Ga12  1  0.53874300  0.67522600  0.77855000  1
  Ga  Ga13  1  0.77855000  0.53874300  0.67522600  1
  Ga  Ga14  1  0.32477400  0.22145000  0.46125700  1
  Ga  Ga15  1  0.46125700  0.32477400  0.22145000  1
  Ga  Ga16  1  0.22145000  0.46125700  0.32477400  1
  Ga  Ga17  1  0.77806400  0.07454100  0.44924700  1
  Ga  Ga18  1  0.44924700  0.77806400  0.07454100  1
  Ga  Ga19  1  0.07454100  0.44924700  0.77806400  1
  Ga  Ga20  1  0.22193600  0.92545900  0.55075300  1
  Ga  Ga21  1  0.55075300  0.22193600  0.92545900  1
  Ga  Ga22  1  0.92545900  0.55075300  0.22193600  1
  Ga  Ga23  1  0.96866800  0.78654700  0.59891000  1
  Ga  Ga24  1  0.59891000  0.96866800  0.78654700  1
  Ga  Ga25  1  0.78654700  0.59891000  0.96866800  1
  Ga  Ga26  1  0.03133200  0.21345300  0.40109000  1
  Ga  Ga27  1  0.40109000  0.03133200  0.21345300  1
  Ga  Ga28  1  0.21345300  0.40109000  0.03133200  1
  Ga  Ga29  1  0.05706800  0.73905600  0.87381300  1
  Ga  Ga30  1  0.87381300  0.05706800  0.73905600  1
  Ga  Ga31  1  0.73905600  0.87381300  0.05706800  1
  Ga  Ga32  1  0.94293200  0.26094400  0.12618700  1
  Ga  Ga33  1  0.12618700  0.94293200  0.26094400  1
  Ga  Ga34  1  0.26094400  0.12618700  0.94293200  1
  Ga  Ga35  1  0.12441700  0.17614500  0.67931100  1
  Ga  Ga36  1  0.67931100  0.12441700  0.17614500  1
  Ga  Ga37  1  0.17614500  0.67931100  0.12441700  1
  Ga  Ga38  1  0.87558300  0.82385500  0.32068900  1
  Ga  Ga39  1  0.32068900  0.87558300  0.82385500  1
  Ga  Ga40  1  0.82385500  0.32068900  0.87558300  1
  Mo  Mo41  1  0.80168500  0.80168500  0.80168500  1
  Mo  Mo42  1  0.19831500  0.19831500  0.19831500  1
  Mo  Mo43  1  0.29250000  0.61245500  0.88744900  1
  Mo  Mo44  1  0.88744900  0.29250000  0.61245500  1
  Mo  Mo45  1  0.61245500  0.88744900  0.29250000  1
  Mo  Mo46  1  0.70750000  0.38754500  0.11255100  1
  Mo  Mo47  1  0.11255100  0.70750000  0.38754500  1
  Mo  Mo48  1  0.38754500  0.11255100  0.70750000  1
