# generated using pymatgen
data_ZnN6
_symmetry_space_group_name_H-M   'P 1'
_cell_length_a   6.15059207
_cell_length_b   6.15059207
_cell_length_c   19.13693000
_cell_angle_alpha   90.00000000
_cell_angle_beta   90.00000000
_cell_angle_gamma   120.00000074
_symmetry_Int_Tables_number   1
_chemical_formula_structural   ZnN6
_chemical_formula_sum   'Zn6 N36'
_cell_volume   626.95554031
_cell_formula_units_Z   6
loop_
 _symmetry_equiv_pos_site_id
 _symmetry_equiv_pos_as_xyz
  1  'x, y, z'
loop_
 _atom_site_type_symbol
 _atom_site_label
 _atom_site_symmetry_multiplicity
 _atom_site_fract_x
 _atom_site_fract_y
 _atom_site_fract_z
 _atom_site_occupancy
  Zn  Zn0  1  0.84688500  0.65461900  0.64142200  1
  Zn  Zn1  1  0.34538100  0.19226600  0.30808900  1
  Zn  Zn2  1  0.80773400  0.15311500  0.97475500  1
  Zn  Zn3  1  0.65461900  0.84688500  0.35857800  1
  Zn  Zn4  1  0.19226600  0.34538100  0.69191100  1
  Zn  Zn5  1  0.15311500  0.80773400  0.02524500  1
  N  N6  1  0.57065200  0.54318700  0.71355700  1
  N  N7  1  0.45681300  0.02746500  0.38022400  1
  N  N8  1  0.97253500  0.42934800  0.04689000  1
  N  N9  1  0.54318700  0.57065200  0.28644300  1
  N  N10  1  0.02746500  0.45681300  0.61977600  1
  N  N11  1  0.42934800  0.97253500  0.95311000  1
  N  N12  1  0.62838200  0.63809400  0.77184400  1
  N  N13  1  0.36190600  0.99028800  0.43851000  1
  N  N14  1  0.00971200  0.37161800  0.10517700  1
  N  N15  1  0.63809400  0.62838200  0.22815600  1
  N  N16  1  0.99028800  0.36190600  0.56149000  1
  N  N17  1  0.37161800  0.00971200  0.89482300  1
  N  N18  1  0.68113000  0.72704500  0.82670800  1
  N  N19  1  0.27295500  0.95408500  0.49337400  1
  N  N20  1  0.04591500  0.31887000  0.16004100  1
  N  N21  1  0.72704500  0.68113000  0.17329200  1
  N  N22  1  0.95408500  0.27295500  0.50662600  1
  N  N23  1  0.31887000  0.04591500  0.83995900  1
  N  N24  1  0.14139600  0.00000000  0.66666700  1
  N  N25  1  0.00000000  0.14139600  0.33333300  1
  N  N26  1  0.85860400  0.85860400  0.00000000  1
  N  N27  1  0.34160400  0.00000000  0.66666700  1
  N  N28  1  0.00000000  0.34160400  0.33333300  1
  N  N29  1  0.65839600  0.65839600  0.00000000  1
  N  N30  1  0.52833100  0.00000000  0.66666700  1
  N  N31  1  0.00000000  0.52833100  0.33333300  1
  N  N32  1  0.47166900  0.47166900  0.00000000  1
  N  N33  1  0.62034900  0.59874800  0.56112200  1
  N  N34  1  0.40125200  0.02160100  0.22778900  1
  N  N35  1  0.97839900  0.37965100  0.89445500  1
  N  N36  1  0.59874800  0.62034900  0.43887800  1
  N  N37  1  0.02160100  0.40125200  0.77221100  1
  N  N38  1  0.37965100  0.97839900  0.10554500  1
  N  N39  1  0.61695200  0.61695200  0.50000000  1
  N  N40  1  0.38304800  0.00000000  0.16666700  1
  N  N41  1  0.00000000  0.38304800  0.83333300  1
