# generated using pymatgen
data_H12C4IN(OF)2
_symmetry_space_group_name_H-M   'P 1'
_cell_length_a   9.50678120
_cell_length_b   9.50678120
_cell_length_c   5.63556707
_cell_angle_alpha   88.75665674
_cell_angle_beta   88.75665674
_cell_angle_gamma   107.25938908
_symmetry_Int_Tables_number   1
_chemical_formula_structural   H12C4IN(OF)2
_chemical_formula_sum   'H24 C8 I2 N2 O4 F4'
_cell_volume   486.07582019
_cell_formula_units_Z   2
loop_
 _symmetry_equiv_pos_site_id
 _symmetry_equiv_pos_as_xyz
  1  'x, y, z'
loop_
 _atom_site_type_symbol
 _atom_site_label
 _atom_site_symmetry_multiplicity
 _atom_site_fract_x
 _atom_site_fract_y
 _atom_site_fract_z
 _atom_site_occupancy
  H  H0  1  0.15770300  0.58102300  0.97547000  1
  H  H1  1  0.58102300  0.15770300  0.97547000  1
  H  H2  1  0.84229700  0.41897700  0.02453000  1
  H  H3  1  0.41897700  0.84229700  0.02453000  1
  H  H4  1  0.07092800  0.66132500  0.74971300  1
  H  H5  1  0.66132500  0.07092800  0.74971300  1
  H  H6  1  0.92907200  0.33867500  0.25028700  1
  H  H7  1  0.33867500  0.92907200  0.25028700  1
  H  H8  1  0.26819200  0.69234600  0.73831000  1
  H  H9  1  0.69234600  0.26819200  0.73831000  1
  H  H10  1  0.73180800  0.30765400  0.26169000  1
  H  H11  1  0.30765400  0.73180800  0.26169000  1
  H  H12  1  0.22533600  0.03801900  0.94995100  1
  H  H13  1  0.03801900  0.22533600  0.94995100  1
  H  H14  1  0.77466400  0.96198100  0.05004900  1
  H  H15  1  0.96198100  0.77466400  0.05004900  1
  H  H16  1  0.30730700  0.95437100  0.72363100  1
  H  H17  1  0.95437100  0.30730700  0.72363100  1
  H  H18  1  0.69269300  0.04562900  0.27636900  1
  H  H19  1  0.04562900  0.69269300  0.27636900  1
  H  H20  1  0.11106100  0.92413800  0.73479700  1
  H  H21  1  0.92413800  0.11106100  0.73479700  1
  H  H22  1  0.88893900  0.07586200  0.26520300  1
  H  H23  1  0.07586200  0.88893900  0.26520300  1
  C  C24  1  0.16992400  0.67563500  0.85333200  1
  C  C25  1  0.67563500  0.16992400  0.85333200  1
  C  C26  1  0.83007600  0.32436500  0.14666800  1
  C  C27  1  0.32436500  0.83007600  0.14666800  1
  C  C28  1  0.21001000  0.94158200  0.83941800  1
  C  C29  1  0.94158200  0.21001000  0.83941800  1
  C  C30  1  0.78999000  0.05841800  0.16058200  1
  C  C31  1  0.05841800  0.78999000  0.16058200  1
  I  I32  1  0.33218500  0.33218500  0.37632000  1
  I  I33  1  0.66781500  0.66781500  0.62368000  1
  N  N34  1  0.19081800  0.80918200  0.00000000  1
  N  N35  1  0.80918200  0.19081800  0.00000000  1
  O  O36  1  0.36954500  0.36954500  0.68360500  1
  O  O37  1  0.63045500  0.63045500  0.31639500  1
  O  O38  1  0.17242900  0.17242900  0.37470300  1
  O  O39  1  0.82757100  0.82757100  0.62529700  1
  F  F40  1  0.47076200  0.20194700  0.35498100  1
  F  F41  1  0.20194700  0.47076200  0.35498100  1
  F  F42  1  0.52923800  0.79805300  0.64501900  1
  F  F43  1  0.79805300  0.52923800  0.64501900  1
