# generated using pymatgen
data_Na4FeO3
_symmetry_space_group_name_H-M   'P 1'
_cell_length_a   8.27161625
_cell_length_b   10.73510173
_cell_length_c   11.80443700
_cell_angle_alpha   90.00000000
_cell_angle_beta   90.00000000
_cell_angle_gamma   110.32355269
_symmetry_Int_Tables_number   1
_chemical_formula_structural   Na4FeO3
_chemical_formula_sum   'Na32 Fe8 O24'
_cell_volume   982.94032510
_cell_formula_units_Z   8
loop_
 _symmetry_equiv_pos_site_id
 _symmetry_equiv_pos_as_xyz
  1  'x, y, z'
loop_
 _atom_site_type_symbol
 _atom_site_label
 _atom_site_symmetry_multiplicity
 _atom_site_fract_x
 _atom_site_fract_y
 _atom_site_fract_z
 _atom_site_occupancy
  Na  Na0  1  0.87633800  0.37422100  0.29010800  1
  Na  Na1  1  0.12366200  0.12577900  0.79010800  1
  Na  Na2  1  0.12366200  0.62577900  0.70989200  1
  Na  Na3  1  0.87633800  0.87422100  0.20989200  1
  Na  Na4  1  0.92612500  0.35627900  0.80829800  1
  Na  Na5  1  0.07387500  0.14372100  0.30829800  1
  Na  Na6  1  0.07387500  0.64372100  0.19170200  1
  Na  Na7  1  0.92612500  0.85627900  0.69170200  1
  Na  Na8  1  0.69306600  0.02794000  0.70699700  1
  Na  Na9  1  0.30693400  0.47206000  0.20699700  1
  Na  Na10  1  0.30693400  0.97206000  0.29300300  1
  Na  Na11  1  0.69306600  0.52794000  0.79300300  1
  Na  Na12  1  0.60752500  0.13088000  0.96139400  1
  Na  Na13  1  0.39247500  0.36912000  0.46139400  1
  Na  Na14  1  0.39247500  0.86912000  0.03860600  1
  Na  Na15  1  0.60752500  0.63088000  0.53860600  1
  Na  Na16  1  0.80213400  0.45965400  0.02974100  1
  Na  Na17  1  0.19786600  0.04034600  0.52974100  1
  Na  Na18  1  0.19786600  0.54034600  0.97025900  1
  Na  Na19  1  0.80213400  0.95965400  0.47025900  1
  Na  Na20  1  0.41685400  0.35777100  0.95326200  1
  Na  Na21  1  0.58314600  0.14222900  0.45326200  1
  Na  Na22  1  0.58314600  0.64222900  0.04673800  1
  Na  Na23  1  0.41685400  0.85777100  0.54673800  1
  Na  Na24  1  0.31993000  0.43396900  0.72529600  1
  Na  Na25  1  0.68007000  0.06603100  0.22529600  1
  Na  Na26  1  0.68007000  0.56603100  0.27470400  1
  Na  Na27  1  0.31993000  0.93396900  0.77470400  1
  Na  Na28  1  0.82544100  0.44409200  0.53695900  1
  Na  Na29  1  0.17455900  0.05590800  0.03695900  1
  Na  Na30  1  0.17455900  0.55590800  0.46304100  1
  Na  Na31  1  0.82544100  0.94409200  0.96304100  1
  Fe  Fe32  1  0.53734300  0.25600000  0.69756300  1
  Fe  Fe33  1  0.46265700  0.24400000  0.19756300  1
  Fe  Fe34  1  0.46265700  0.74400000  0.30243700  1
  Fe  Fe35  1  0.53734300  0.75600000  0.80243700  1
  Fe  Fe36  1  0.98822800  0.24396200  0.55888200  1
  Fe  Fe37  1  0.01177200  0.25603800  0.05888200  1
  Fe  Fe38  1  0.01177200  0.75603800  0.44111800  1
  Fe  Fe39  1  0.98822800  0.74396200  0.94111800  1
  O  O40  1  0.45751200  0.08246800  0.63235100  1
  O  O41  1  0.54248800  0.41753200  0.13235100  1
  O  O42  1  0.54248800  0.91753200  0.36764900  1
  O  O43  1  0.45751200  0.58246800  0.86764900  1
  O  O44  1  0.62330300  0.30030800  0.84805400  1
  O  O45  1  0.37669700  0.19969200  0.34805400  1
  O  O46  1  0.37669700  0.69969200  0.15194600  1
  O  O47  1  0.62330300  0.80030800  0.65194600  1
  O  O48  1  0.56472600  0.42025600  0.61826700  1
  O  O49  1  0.43527400  0.07974400  0.11826700  1
  O  O50  1  0.43527400  0.57974400  0.38173300  1
  O  O51  1  0.56472600  0.92025600  0.88173300  1
  O  O52  1  0.92251300  0.07945600  0.12227200  1
  O  O53  1  0.07748700  0.42054400  0.62227200  1
  O  O54  1  0.07748700  0.92054400  0.87772800  1
  O  O55  1  0.92251300  0.57945600  0.37772800  1
  O  O56  1  0.97236600  0.08087500  0.62991800  1
  O  O57  1  0.02763400  0.41912500  0.12991800  1
  O  O58  1  0.02763400  0.91912500  0.37008200  1
  O  O59  1  0.97236600  0.58087500  0.87008200  1
  O  O60  1  0.87632100  0.21888800  0.41441900  1
  O  O61  1  0.12367900  0.28111200  0.91441900  1
  O  O62  1  0.12367900  0.78111200  0.58558100  1
  O  O63  1  0.87632100  0.71888800  0.08558100  1
