# generated using pymatgen
data_KTe2O9
_symmetry_space_group_name_H-M   'P 1'
_cell_length_a   8.80174000
_cell_length_b   5.43085600
_cell_length_c   16.63221595
_cell_angle_alpha   81.39118919
_cell_angle_beta   90.00000000
_cell_angle_gamma   90.00000000
_symmetry_Int_Tables_number   1
_chemical_formula_structural   KTe2O9
_chemical_formula_sum   'K4 Te8 O36'
_cell_volume   786.07888747
_cell_formula_units_Z   4
loop_
 _symmetry_equiv_pos_site_id
 _symmetry_equiv_pos_as_xyz
  1  'x, y, z'
loop_
 _atom_site_type_symbol
 _atom_site_label
 _atom_site_symmetry_multiplicity
 _atom_site_fract_x
 _atom_site_fract_y
 _atom_site_fract_z
 _atom_site_occupancy
  K  K0  1  0.10014100  0.51370300  0.78486400  1
  K  K1  1  0.60014100  0.48629700  0.71513600  1
  K  K2  1  0.89985900  0.48629700  0.21513600  1
  K  K3  1  0.39985900  0.51370300  0.28486400  1
  Te  Te4  1  0.79915400  0.95874700  0.89053700  1
  Te  Te5  1  0.29915400  0.04125300  0.60946300  1
  Te  Te6  1  0.20084600  0.04125300  0.10946300  1
  Te  Te7  1  0.70084600  0.95874700  0.39053700  1
  Te  Te8  1  0.91719800  0.86363800  0.57286800  1
  Te  Te9  1  0.41719800  0.13636200  0.92713200  1
  Te  Te10  1  0.08280200  0.13636200  0.42713200  1
  Te  Te11  1  0.58280200  0.86363800  0.07286800  1
  O  O12  1  0.05443100  0.79135600  0.48433400  1
  O  O13  1  0.55443100  0.20864400  0.01566600  1
  O  O14  1  0.94556900  0.20864400  0.51566600  1
  O  O15  1  0.44556900  0.79135600  0.98433400  1
  O  O16  1  0.60022600  0.09671900  0.85758200  1
  O  O17  1  0.10022600  0.90328100  0.64241800  1
  O  O18  1  0.39977400  0.90328100  0.14241800  1
  O  O19  1  0.89977400  0.09671900  0.35758200  1
  O  O20  1  0.73729200  0.82251900  0.50321800  1
  O  O21  1  0.23729200  0.17748100  0.99678200  1
  O  O22  1  0.26270800  0.17748100  0.49678200  1
  O  O23  1  0.76270800  0.82251900  0.00321800  1
  O  O24  1  0.01060800  0.84692600  0.89236800  1
  O  O25  1  0.51060800  0.15307400  0.60763200  1
  O  O26  1  0.98939200  0.15307400  0.10763200  1
  O  O27  1  0.48939200  0.84692600  0.39236800  1
  O  O28  1  0.88854700  0.54087900  0.63195100  1
  O  O29  1  0.38854700  0.45912100  0.86804900  1
  O  O30  1  0.11145300  0.45912100  0.36804900  1
  O  O31  1  0.61145300  0.54087900  0.13195100  1
  O  O32  1  0.88518000  0.27433700  0.91319200  1
  O  O33  1  0.38518000  0.72566300  0.58680800  1
  O  O34  1  0.11482000  0.72566300  0.08680800  1
  O  O35  1  0.61482000  0.27433700  0.41319200  1
  O  O36  1  0.78480100  0.92822500  0.65838100  1
  O  O37  1  0.28480100  0.07177500  0.84161900  1
  O  O38  1  0.21519900  0.07177500  0.34161900  1
  O  O39  1  0.71519900  0.92822500  0.15838100  1
  O  O40  1  0.89356900  0.11594400  0.78860400  1
  O  O41  1  0.39356900  0.88405600  0.71139600  1
  O  O42  1  0.10643100  0.88405600  0.21139600  1
  O  O43  1  0.60643100  0.11594400  0.28860400  1
  O  O44  1  0.76194300  0.65574300  0.84719600  1
  O  O45  1  0.26194300  0.34425700  0.65280400  1
  O  O46  1  0.23805700  0.34425700  0.15280400  1
  O  O47  1  0.73805700  0.65574300  0.34719600  1
