# generated using pymatgen
data_Cu2BO6
_symmetry_space_group_name_H-M   'P 1'
_cell_length_a   5.59655600
_cell_length_b   8.24630800
_cell_length_c   9.47227700
_cell_angle_alpha   90.00000000
_cell_angle_beta   90.00000000
_cell_angle_gamma   90.00000000
_symmetry_Int_Tables_number   1
_chemical_formula_structural   Cu2BO6
_chemical_formula_sum   'Cu8 B4 O24'
_cell_volume   437.15434081
_cell_formula_units_Z   4
loop_
 _symmetry_equiv_pos_site_id
 _symmetry_equiv_pos_as_xyz
  1  'x, y, z'
loop_
 _atom_site_type_symbol
 _atom_site_label
 _atom_site_symmetry_multiplicity
 _atom_site_fract_x
 _atom_site_fract_y
 _atom_site_fract_z
 _atom_site_occupancy
  Cu  Cu0  1  0.00059500  0.57668200  0.75198600  1
  Cu  Cu1  1  0.49940500  0.92331800  0.25198600  1
  Cu  Cu2  1  0.50059500  0.42331800  0.24801400  1
  Cu  Cu3  1  0.99940500  0.07668200  0.74801400  1
  Cu  Cu4  1  0.99940500  0.42331800  0.24801400  1
  Cu  Cu5  1  0.50059500  0.07668200  0.74801400  1
  Cu  Cu6  1  0.49940500  0.57668200  0.75198600  1
  Cu  Cu7  1  0.00059500  0.92331800  0.25198600  1
  B  B8  1  0.25000000  0.32852900  0.51066700  1
  B  B9  1  0.25000000  0.17147100  0.01066700  1
  B  B10  1  0.75000000  0.67147100  0.48933300  1
  B  B11  1  0.75000000  0.82852900  0.98933300  1
  O  O12  1  0.05104000  0.31906800  0.59222100  1
  O  O13  1  0.44896000  0.18093200  0.09222100  1
  O  O14  1  0.55104000  0.68093200  0.40777900  1
  O  O15  1  0.94896000  0.81906800  0.90777900  1
  O  O16  1  0.94896000  0.68093200  0.40777900  1
  O  O17  1  0.55104000  0.81906800  0.90777900  1
  O  O18  1  0.44896000  0.31906800  0.59222100  1
  O  O19  1  0.05104000  0.18093200  0.09222100  1
  O  O20  1  0.25000000  0.49929700  0.85639600  1
  O  O21  1  0.25000000  0.00070300  0.35639600  1
  O  O22  1  0.75000000  0.50070300  0.14360400  1
  O  O23  1  0.75000000  0.99929700  0.64360400  1
  O  O24  1  0.75000000  0.48278100  0.84875300  1
  O  O25  1  0.75000000  0.01721900  0.34875300  1
  O  O26  1  0.25000000  0.51721900  0.15124700  1
  O  O27  1  0.25000000  0.98278100  0.65124700  1
  O  O28  1  0.25000000  0.15402800  0.86416100  1
  O  O29  1  0.25000000  0.34597200  0.36416100  1
  O  O30  1  0.75000000  0.84597200  0.13583900  1
  O  O31  1  0.75000000  0.65402800  0.63583900  1
  O  O32  1  0.75000000  0.16404900  0.84478100  1
  O  O33  1  0.75000000  0.33595100  0.34478100  1
  O  O34  1  0.25000000  0.83595100  0.15521900  1
  O  O35  1  0.25000000  0.66404900  0.65521900  1
