# generated using pymatgen
data_CuAg(AsO4)2
_symmetry_space_group_name_H-M   'P 1'
_cell_length_a   7.55811200
_cell_length_b   9.14767800
_cell_length_c   9.57311105
_cell_angle_alpha   74.83214971
_cell_angle_beta   90.00000000
_cell_angle_gamma   90.00000000
_symmetry_Int_Tables_number   1
_chemical_formula_structural   CuAg(AsO4)2
_chemical_formula_sum   'Cu4 Ag4 As8 O32'
_cell_volume   638.81949544
_cell_formula_units_Z   4
loop_
 _symmetry_equiv_pos_site_id
 _symmetry_equiv_pos_as_xyz
  1  'x, y, z'
loop_
 _atom_site_type_symbol
 _atom_site_label
 _atom_site_symmetry_multiplicity
 _atom_site_fract_x
 _atom_site_fract_y
 _atom_site_fract_z
 _atom_site_occupancy
  Cu  Cu0  1  0.31961300  0.60975200  0.99572500  1
  Cu  Cu1  1  0.81961300  0.39024800  0.50427500  1
  Cu  Cu2  1  0.68038700  0.39024800  0.00427500  1
  Cu  Cu3  1  0.18038700  0.60975200  0.49572500  1
  Ag  Ag4  1  0.75026200  0.79649200  0.49011500  1
  Ag  Ag5  1  0.25026200  0.20350800  0.00988500  1
  Ag  Ag6  1  0.24973800  0.20350800  0.50988500  1
  Ag  Ag7  1  0.74973800  0.79649200  0.99011500  1
  As  As8  1  0.20780200  0.94360600  0.33200200  1
  As  As9  1  0.70780200  0.05639400  0.16799800  1
  As  As10  1  0.79219800  0.05639400  0.66799800  1
  As  As11  1  0.29219800  0.94360600  0.83200200  1
  As  As12  1  0.00859300  0.51477700  0.80969900  1
  As  As13  1  0.50859300  0.48522300  0.69030100  1
  As  As14  1  0.99140700  0.48522300  0.19030100  1
  As  As15  1  0.49140700  0.51477700  0.30969900  1
  O  O16  1  0.40572600  0.91341400  0.42186900  1
  O  O17  1  0.90572600  0.08658600  0.07813100  1
  O  O18  1  0.59427400  0.08658600  0.57813100  1
  O  O19  1  0.09427400  0.91341400  0.92186900  1
  O  O20  1  0.06208300  0.78923300  0.39534800  1
  O  O21  1  0.56208300  0.21076700  0.10465200  1
  O  O22  1  0.93791700  0.21076700  0.60465200  1
  O  O23  1  0.43791700  0.78923300  0.89534800  1
  O  O24  1  0.26069000  0.97336600  0.15014800  1
  O  O25  1  0.76069000  0.02663400  0.34985200  1
  O  O26  1  0.73931000  0.02663400  0.84985200  1
  O  O27  1  0.23931000  0.97336600  0.65014800  1
  O  O28  1  0.11390100  0.11024100  0.35270500  1
  O  O29  1  0.61390100  0.88975900  0.14729500  1
  O  O30  1  0.88609900  0.88975900  0.64729500  1
  O  O31  1  0.38609900  0.11024100  0.85270500  1
  O  O32  1  0.04780200  0.32631900  0.86508200  1
  O  O33  1  0.54780200  0.67368100  0.63491800  1
  O  O34  1  0.95219800  0.67368100  0.13491800  1
  O  O35  1  0.45219800  0.32631900  0.36508200  1
  O  O36  1  0.17104000  0.63889800  0.83665700  1
  O  O37  1  0.67104000  0.36110200  0.66334300  1
  O  O38  1  0.82896000  0.36110200  0.16334300  1
  O  O39  1  0.32896000  0.63889800  0.33665700  1
  O  O40  1  0.98089800  0.57824700  0.62116500  1
  O  O41  1  0.48089800  0.42175300  0.87883500  1
  O  O42  1  0.01910200  0.42175300  0.37883500  1
  O  O43  1  0.51910200  0.57824700  0.12116500  1
  O  O44  1  0.80792100  0.55695000  0.88687400  1
  O  O45  1  0.30792100  0.44305000  0.61312600  1
  O  O46  1  0.19207900  0.44305000  0.11312600  1
  O  O47  1  0.69207900  0.55695000  0.38687400  1
