# generated using pymatgen
data_SrCuTe2O7
_symmetry_space_group_name_H-M   'P 1'
_cell_length_a   5.51777200
_cell_length_b   7.23501100
_cell_length_c   15.48998200
_cell_angle_alpha   90.00000000
_cell_angle_beta   90.00000000
_cell_angle_gamma   90.00000000
_symmetry_Int_Tables_number   1
_chemical_formula_structural   SrCuTe2O7
_chemical_formula_sum   'Sr4 Cu4 Te8 O28'
_cell_volume   618.37775730
_cell_formula_units_Z   4
loop_
 _symmetry_equiv_pos_site_id
 _symmetry_equiv_pos_as_xyz
  1  'x, y, z'
loop_
 _atom_site_type_symbol
 _atom_site_label
 _atom_site_symmetry_multiplicity
 _atom_site_fract_x
 _atom_site_fract_y
 _atom_site_fract_z
 _atom_site_occupancy
  Sr  Sr0  1  0.75000000  0.77376500  0.45792100  1
  Sr  Sr1  1  0.25000000  0.22623500  0.54207900  1
  Sr  Sr2  1  0.25000000  0.77376500  0.04207900  1
  Sr  Sr3  1  0.75000000  0.22623500  0.95792100  1
  Cu  Cu4  1  0.25000000  0.73890900  0.61366400  1
  Cu  Cu5  1  0.75000000  0.26109100  0.38633600  1
  Cu  Cu6  1  0.75000000  0.73890900  0.88633600  1
  Cu  Cu7  1  0.25000000  0.26109100  0.11366400  1
  Te  Te8  1  0.75000000  0.99192400  0.67128100  1
  Te  Te9  1  0.25000000  0.00807600  0.32871900  1
  Te  Te10  1  0.25000000  0.99192400  0.82871900  1
  Te  Te11  1  0.75000000  0.00807600  0.17128100  1
  Te  Te12  1  0.75000000  0.48644800  0.67478900  1
  Te  Te13  1  0.25000000  0.51355200  0.32521100  1
  Te  Te14  1  0.25000000  0.48644800  0.82521100  1
  Te  Te15  1  0.75000000  0.51355200  0.17478900  1
  O  O16  1  0.75000000  0.23254700  0.61148500  1
  O  O17  1  0.25000000  0.76745300  0.38851500  1
  O  O18  1  0.25000000  0.23254700  0.88851500  1
  O  O19  1  0.75000000  0.76745300  0.11148500  1
  O  O20  1  0.00952600  0.54029000  0.59855700  1
  O  O21  1  0.50952600  0.45971000  0.40144300  1
  O  O22  1  0.99047400  0.54029000  0.90144300  1
  O  O23  1  0.49047400  0.45971000  0.09855700  1
  O  O24  1  0.99047400  0.45971000  0.40144300  1
  O  O25  1  0.49047400  0.54029000  0.59855700  1
  O  O26  1  0.00952600  0.45971000  0.09855700  1
  O  O27  1  0.50952600  0.54029000  0.90144300  1
  O  O28  1  0.75000000  0.75699500  0.73046700  1
  O  O29  1  0.25000000  0.24300500  0.26953300  1
  O  O30  1  0.25000000  0.75699500  0.76953300  1
  O  O31  1  0.75000000  0.24300500  0.23046700  1
  O  O32  1  0.99995900  0.92359700  0.58944800  1
  O  O33  1  0.49995900  0.07640300  0.41055200  1
  O  O34  1  0.00004100  0.92359700  0.91055200  1
  O  O35  1  0.50004100  0.07640300  0.08944800  1
  O  O36  1  0.00004100  0.07640300  0.41055200  1
  O  O37  1  0.50004100  0.92359700  0.58944800  1
  O  O38  1  0.99995900  0.07640300  0.08944800  1
  O  O39  1  0.49995900  0.92359700  0.91055200  1
  O  O40  1  0.50000000  0.10518300  0.75000000  1
  O  O41  1  0.00000000  0.89481700  0.25000000  1
  O  O42  1  0.50000000  0.89481700  0.25000000  1
  O  O43  1  0.00000000  0.10518300  0.75000000  1
