# generated using pymatgen
data_Rb3V(SO5)2
_symmetry_space_group_name_H-M   'P 1'
_cell_length_a   8.56773800
_cell_length_b   11.80987700
_cell_length_c   12.30783440
_cell_angle_alpha   70.43904526
_cell_angle_beta   90.00000000
_cell_angle_gamma   90.00000000
_symmetry_Int_Tables_number   1
_chemical_formula_structural   Rb3V(SO5)2
_chemical_formula_sum   'Rb12 V4 S8 O40'
_cell_volume   1173.48044840
_cell_formula_units_Z   4
loop_
 _symmetry_equiv_pos_site_id
 _symmetry_equiv_pos_as_xyz
  1  'x, y, z'
loop_
 _atom_site_type_symbol
 _atom_site_label
 _atom_site_symmetry_multiplicity
 _atom_site_fract_x
 _atom_site_fract_y
 _atom_site_fract_z
 _atom_site_occupancy
  Rb  Rb0  1  0.28399700  0.01447400  0.04905200  1
  Rb  Rb1  1  0.28399700  0.98552600  0.45094800  1
  Rb  Rb2  1  0.71600300  0.98552600  0.95094800  1
  Rb  Rb3  1  0.71600300  0.01447400  0.54905200  1
  Rb  Rb4  1  0.85237700  0.37608900  0.64373700  1
  Rb  Rb5  1  0.85237700  0.62391100  0.85626300  1
  Rb  Rb6  1  0.14762300  0.62391100  0.35626300  1
  Rb  Rb7  1  0.14762300  0.37608900  0.14373700  1
  Rb  Rb8  1  0.69155000  0.50000000  0.25000000  1
  Rb  Rb9  1  0.30845000  0.50000000  0.75000000  1
  Rb  Rb10  1  0.88490500  0.00000000  0.25000000  1
  Rb  Rb11  1  0.11509500  0.00000000  0.75000000  1
  V  V12  1  0.67045100  0.32576000  0.02392200  1
  V  V13  1  0.67045100  0.67424000  0.47607800  1
  V  V14  1  0.32954900  0.67424000  0.97607800  1
  V  V15  1  0.32954900  0.32576000  0.52392200  1
  S  S16  1  0.51047300  0.18314500  0.21240800  1
  S  S17  1  0.51047300  0.81685500  0.28759200  1
  S  S18  1  0.48952700  0.81685500  0.78759200  1
  S  S19  1  0.48952700  0.18314500  0.71240800  1
  S  S20  1  0.97878300  0.23536100  0.93425000  1
  S  S21  1  0.97878300  0.76463900  0.56575000  1
  S  S22  1  0.02121700  0.76463900  0.06575000  1
  S  S23  1  0.02121700  0.23536100  0.43425000  1
  O  O24  1  0.34715500  0.14723900  0.21089800  1
  O  O25  1  0.34715500  0.85276100  0.28910200  1
  O  O26  1  0.65284500  0.85276100  0.78910200  1
  O  O27  1  0.65284500  0.14723900  0.71089800  1
  O  O28  1  0.02860400  0.35782800  0.86709900  1
  O  O29  1  0.02860400  0.64217200  0.63290100  1
  O  O30  1  0.97139600  0.64217200  0.13290100  1
  O  O31  1  0.97139600  0.35782800  0.36709900  1
  O  O32  1  0.79681700  0.23659600  0.94722400  1
  O  O33  1  0.79681700  0.76340400  0.55277600  1
  O  O34  1  0.20318300  0.76340400  0.05277600  1
  O  O35  1  0.20318300  0.23659600  0.44722400  1
  O  O36  1  0.58226500  0.13751700  0.32633600  1
  O  O37  1  0.58226500  0.86248300  0.17366400  1
  O  O38  1  0.41773500  0.86248300  0.67366400  1
  O  O39  1  0.41773500  0.13751700  0.82633600  1
  O  O40  1  0.56683300  0.41116400  0.91432200  1
  O  O41  1  0.56683300  0.58883600  0.58567800  1
  O  O42  1  0.43316700  0.58883600  0.08567800  1
  O  O43  1  0.43316700  0.41116400  0.41432200  1
  O  O44  1  0.04689600  0.19189000  0.05145300  1
  O  O45  1  0.04689600  0.80811000  0.44854700  1
  O  O46  1  0.95310400  0.80811000  0.94854700  1
  O  O47  1  0.95310400  0.19189000  0.55145300  1
  O  O48  1  0.47464700  0.31999700  0.65974800  1
  O  O49  1  0.47464700  0.68000300  0.84025200  1
  O  O50  1  0.52535300  0.68000300  0.34025200  1
  O  O51  1  0.52535300  0.31999700  0.15974800  1
  O  O52  1  0.80802000  0.40783500  0.05724100  1
  O  O53  1  0.80802000  0.59216500  0.44275900  1
  O  O54  1  0.19198000  0.59216500  0.94275900  1
  O  O55  1  0.19198000  0.40783500  0.55724100  1
  O  O56  1  0.60740100  0.14783200  0.12320300  1
  O  O57  1  0.60740100  0.85216800  0.37679700  1
  O  O58  1  0.39259900  0.85216800  0.87679700  1
  O  O59  1  0.39259900  0.14783200  0.62320300  1
  O  O60  1  0.00513100  0.85180200  0.62677400  1
  O  O61  1  0.00513100  0.14819800  0.87322600  1
  O  O62  1  0.99486900  0.14819800  0.37322600  1
  O  O63  1  0.99486900  0.85180200  0.12677400  1
