# generated using pymatgen
data_La2P3(HO3)3
_symmetry_space_group_name_H-M   'P 1'
_cell_length_a   7.11930500
_cell_length_b   8.41220500
_cell_length_c   14.89649700
_cell_angle_alpha   90.00000000
_cell_angle_beta   90.00000000
_cell_angle_gamma   90.00000000
_symmetry_Int_Tables_number   1
_chemical_formula_structural   La2P3(HO3)3
_chemical_formula_sum   'La8 P12 H12 O36'
_cell_volume   892.13710010
_cell_formula_units_Z   4
loop_
 _symmetry_equiv_pos_site_id
 _symmetry_equiv_pos_as_xyz
  1  'x, y, z'
loop_
 _atom_site_type_symbol
 _atom_site_label
 _atom_site_symmetry_multiplicity
 _atom_site_fract_x
 _atom_site_fract_y
 _atom_site_fract_z
 _atom_site_occupancy
  La  La0  1  0.34677000  0.29906100  0.42578700  1
  La  La1  1  0.15323000  0.79906100  0.07421300  1
  La  La2  1  0.65323000  0.70093900  0.92578700  1
  La  La3  1  0.84677000  0.20093900  0.57421300  1
  La  La4  1  0.65323000  0.70093900  0.57421300  1
  La  La5  1  0.84677000  0.20093900  0.92578700  1
  La  La6  1  0.34677000  0.29906100  0.07421300  1
  La  La7  1  0.15323000  0.79906100  0.42578700  1
  P  P8  1  0.33674800  0.04814900  0.59935500  1
  P  P9  1  0.16325200  0.54814900  0.90064500  1
  P  P10  1  0.66325200  0.95185100  0.09935500  1
  P  P11  1  0.83674800  0.45185100  0.40064500  1
  P  P12  1  0.66325200  0.95185100  0.40064500  1
  P  P13  1  0.83674800  0.45185100  0.09935500  1
  P  P14  1  0.33674800  0.04814900  0.90064500  1
  P  P15  1  0.16325200  0.54814900  0.59935500  1
  P  P16  1  0.11504000  0.03195000  0.25000000  1
  P  P17  1  0.38496000  0.53195000  0.25000000  1
  P  P18  1  0.88496000  0.96805000  0.75000000  1
  P  P19  1  0.61504000  0.46805000  0.75000000  1
  H  H20  1  0.26594500  0.09800300  0.68276700  1
  H  H21  1  0.23405500  0.59800300  0.81723300  1
  H  H22  1  0.73405500  0.90199700  0.18276700  1
  H  H23  1  0.76594500  0.40199700  0.31723300  1
  H  H24  1  0.73405500  0.90199700  0.31723300  1
  H  H25  1  0.76594500  0.40199700  0.18276700  1
  H  H26  1  0.26594500  0.09800300  0.81723300  1
  H  H27  1  0.23405500  0.59800300  0.68276700  1
  H  H28  1  0.94148000  0.11388300  0.25000000  1
  H  H29  1  0.55852000  0.61388300  0.25000000  1
  H  H30  1  0.05852000  0.88611700  0.75000000  1
  H  H31  1  0.44148000  0.38611700  0.75000000  1
  O  O32  1  0.21456100  0.07311900  0.33871100  1
  O  O33  1  0.28543900  0.57311900  0.16128900  1
  O  O34  1  0.78543900  0.92688100  0.83871100  1
  O  O35  1  0.71456100  0.42688100  0.66128900  1
  O  O36  1  0.78543900  0.92688100  0.66128900  1
  O  O37  1  0.71456100  0.42688100  0.83871100  1
  O  O38  1  0.21456100  0.07311900  0.16128900  1
  O  O39  1  0.28543900  0.57311900  0.33871100  1
  O  O40  1  0.10652000  0.37443100  0.89139900  1
  O  O41  1  0.39348000  0.87443100  0.60860100  1
  O  O42  1  0.89348000  0.62556900  0.39139900  1
  O  O43  1  0.60652000  0.12556900  0.10860100  1
  O  O44  1  0.89348000  0.62556900  0.10860100  1
  O  O45  1  0.60652000  0.12556900  0.39139900  1
  O  O46  1  0.10652000  0.37443100  0.60860100  1
  O  O47  1  0.39348000  0.87443100  0.89139900  1
  O  O48  1  0.49520400  0.16351200  0.57102300  1
  O  O49  1  0.00479600  0.66351200  0.92897700  1
  O  O50  1  0.50479600  0.83648800  0.07102300  1
  O  O51  1  0.99520400  0.33648800  0.42897700  1
  O  O52  1  0.50479600  0.83648800  0.42897700  1
  O  O53  1  0.99520400  0.33648800  0.07102300  1
  O  O54  1  0.49520400  0.16351200  0.92897700  1
  O  O55  1  0.00479600  0.66351200  0.57102300  1
  O  O56  1  0.17391200  0.06446400  0.52932700  1
  O  O57  1  0.32608800  0.56446400  0.97067300  1
  O  O58  1  0.82608800  0.93553600  0.02932700  1
  O  O59  1  0.67391200  0.43553600  0.47067300  1
  O  O60  1  0.82608800  0.93553600  0.47067300  1
  O  O61  1  0.67391200  0.43553600  0.02932700  1
  O  O62  1  0.17391200  0.06446400  0.97067300  1
  O  O63  1  0.32608800  0.56446400  0.52932700  1
  O  O64  1  0.07993600  0.85090800  0.25000000  1
  O  O65  1  0.42006400  0.35090800  0.25000000  1
  O  O66  1  0.92006400  0.14909200  0.75000000  1
  O  O67  1  0.57993600  0.64909200  0.75000000  1
