# generated using pymatgen
data_KMg2(AsO6)2
_symmetry_space_group_name_H-M   'P 1'
_cell_length_a   6.50538598
_cell_length_b   9.57690867
_cell_length_c   9.57690867
_cell_angle_alpha   81.95183698
_cell_angle_beta   107.91229646
_cell_angle_gamma   107.91229646
_symmetry_Int_Tables_number   1
_chemical_formula_structural   KMg2(AsO6)2
_chemical_formula_sum   'K2 Mg4 As4 O24'
_cell_volume   539.53588298
_cell_formula_units_Z   2
loop_
 _symmetry_equiv_pos_site_id
 _symmetry_equiv_pos_as_xyz
  1  'x, y, z'
loop_
 _atom_site_type_symbol
 _atom_site_label
 _atom_site_symmetry_multiplicity
 _atom_site_fract_x
 _atom_site_fract_y
 _atom_site_fract_z
 _atom_site_occupancy
  K  K0  1  0.25000000  0.06417800  0.93582200  1
  K  K1  1  0.75000000  0.93582200  0.06417800  1
  Mg  Mg2  1  0.12121100  0.37407000  0.05456000  1
  Mg  Mg3  1  0.37878900  0.94543900  0.62593000  1
  Mg  Mg4  1  0.87878900  0.62593000  0.94543900  1
  Mg  Mg5  1  0.62121100  0.05456000  0.37407000  1
  As  As6  1  0.38693200  0.64995900  0.87217700  1
  As  As7  1  0.11306800  0.12782300  0.35004100  1
  As  As8  1  0.61306800  0.35004100  0.12782300  1
  As  As9  1  0.88693200  0.87217700  0.64995900  1
  O  O10  1  0.60598900  0.16942000  0.18314700  1
  O  O11  1  0.89401100  0.81685300  0.83058000  1
  O  O12  1  0.39401100  0.83058000  0.81685300  1
  O  O13  1  0.10598900  0.18314700  0.16942000  1
  O  O14  1  0.25420700  0.52742200  0.39035100  1
  O  O15  1  0.24579300  0.60964900  0.47257800  1
  O  O16  1  0.74579300  0.47257800  0.60964900  1
  O  O17  1  0.75420700  0.39035100  0.52742200  1
  O  O18  1  0.36824100  0.34449700  0.98786800  1
  O  O19  1  0.13175900  0.01213200  0.65550300  1
  O  O20  1  0.63175900  0.65550300  0.01213200  1
  O  O21  1  0.86824100  0.98786800  0.34449700  1
  O  O22  1  0.83709100  0.42112400  0.04982500  1
  O  O23  1  0.66290900  0.95017500  0.57887600  1
  O  O24  1  0.16290900  0.57887600  0.95017500  1
  O  O25  1  0.33709100  0.04982500  0.42112400  1
  O  O26  1  0.85502000  0.20290700  0.83930500  1
  O  O27  1  0.64498000  0.16069500  0.79709300  1
  O  O28  1  0.14498000  0.79709300  0.16069500  1
  O  O29  1  0.35502000  0.83930500  0.20290700  1
  O  O30  1  0.12943500  0.26600800  0.45225900  1
  O  O31  1  0.37056500  0.54774100  0.73399200  1
  O  O32  1  0.87056500  0.73399200  0.54774100  1
  O  O33  1  0.62943500  0.45225900  0.26600800  1
