# generated using pymatgen
data_V6H2Pb4Se3O26
_symmetry_space_group_name_H-M   'P 1'
_cell_length_a   7.23889900
_cell_length_b   7.39455774
_cell_length_c   21.97576794
_cell_angle_alpha   89.59607567
_cell_angle_beta   97.83481999
_cell_angle_gamma   94.36350478
_symmetry_Int_Tables_number   1
_chemical_formula_structural   V6H2Pb4Se3O26
_chemical_formula_sum   'V12 H4 Pb8 Se6 O52'
_cell_volume   1161.96369344
_cell_formula_units_Z   2
loop_
 _symmetry_equiv_pos_site_id
 _symmetry_equiv_pos_as_xyz
  1  'x, y, z'
loop_
 _atom_site_type_symbol
 _atom_site_label
 _atom_site_symmetry_multiplicity
 _atom_site_fract_x
 _atom_site_fract_y
 _atom_site_fract_z
 _atom_site_occupancy
  V  V0  1  0.92141000  0.70165600  0.30461700  1
  V  V1  1  0.07859000  0.29834400  0.69538300  1
  V  V2  1  0.12966800  0.69751000  0.18991100  1
  V  V3  1  0.87033200  0.30249000  0.81008900  1
  V  V4  1  0.87781500  0.32276900  0.39093100  1
  V  V5  1  0.12218500  0.67723100  0.60906900  1
  V  V6  1  0.95922700  0.32821100  0.10557800  1
  V  V7  1  0.04077300  0.67178900  0.89442200  1
  V  V8  1  0.42310200  0.63712500  0.30954100  1
  V  V9  1  0.57689800  0.36287500  0.69045900  1
  V  V10  1  0.61966100  0.64039700  0.18750100  1
  V  V11  1  0.38033900  0.35960300  0.81249900  1
  H  H12  1  0.63701200  0.18637900  0.26071000  1
  H  H13  1  0.36298800  0.81362100  0.73929000  1
  H  H14  1  0.41884500  0.13265900  0.24994100  1
  H  H15  1  0.58115500  0.86734100  0.75005900  1
  Pb  Pb16  1  0.46366100  0.11716700  0.11866200  1
  Pb  Pb17  1  0.53633900  0.88283300  0.88133800  1
  Pb  Pb18  1  0.35928000  0.11461200  0.38918800  1
  Pb  Pb19  1  0.64072000  0.88538800  0.61081200  1
  Pb  Pb20  1  0.16154900  0.16562700  0.95204200  1
  Pb  Pb21  1  0.83845100  0.83437300  0.04795800  1
  Pb  Pb22  1  0.80308800  0.82399800  0.44674000  1
  Pb  Pb23  1  0.19691200  0.17600200  0.55326000  1
  Se  Se24  1  0.67114500  0.31562700  0.97543800  1
  Se  Se25  1  0.32885500  0.68437300  0.02456200  1
  Se  Se26  1  0.30289000  0.67289900  0.47575000  1
  Se  Se27  1  0.69711000  0.32710100  0.52425000  1
  Se  Se28  1  0.00203300  0.18212100  0.24887500  1
  Se  Se29  1  0.99796700  0.81787900  0.75112500  1
  O  O30  1  0.48244100  0.79913900  0.36550600  1
  O  O31  1  0.51755900  0.20086100  0.63449400  1
  O  O32  1  0.80776000  0.13888900  0.11070300  1
  O  O33  1  0.19224000  0.86111100  0.88929700  1
  O  O34  1  0.47686600  0.24882600  0.01039600  1
  O  O35  1  0.52313400  0.75117400  0.98960400  1
  O  O36  1  0.58960700  0.79694800  0.12913100  1
  O  O37  1  0.41039300  0.20305200  0.87086900  1
  O  O38  1  0.78002700  0.11769600  0.97180300  1
  O  O39  1  0.21997300  0.88230400  0.02819700  1
  O  O40  1  0.52907400  0.74525600  0.50681500  1
  O  O41  1  0.47092600  0.25474400  0.49318500  1
  O  O42  1  0.21387500  0.56084900  0.53915100  1
  O  O43  1  0.78612500  0.43915100  0.46084900  1
  O  O44  1  0.17243900  0.91148500  0.17092100  1
  O  O45  1  0.82756100  0.08851500  0.82907900  1
  O  O46  1  0.13414500  0.25124300  0.07277800  1
  O  O47  1  0.86585500  0.74875700  0.92722200  1
  O  O48  1  0.70484400  0.15307900  0.38652900  1
  O  O49  1  0.29515600  0.84692100  0.61347100  1
  O  O50  1  0.62613500  0.43814900  0.15552600  1
  O  O51  1  0.37386500  0.56185100  0.84447400  1
  O  O52  1  0.92820900  0.91366300  0.32826900  1
  O  O53  1  0.07179100  0.08633700  0.67173100  1
  O  O54  1  0.07102200  0.23900200  0.42828100  1
  O  O55  1  0.92897800  0.76099800  0.57171900  1
  O  O56  1  0.18984400  0.87068500  0.47028400  1
  O  O57  1  0.81015600  0.12931500  0.52971600  1
  O  O58  1  0.88350600  0.70541800  0.21362300  1
  O  O59  1  0.11649400  0.29458200  0.78637700  1
  O  O60  1  0.65981000  0.64124200  0.27980300  1
  O  O61  1  0.34019000  0.35875800  0.72019700  1
  O  O62  1  0.91604500  0.32315800  0.30222100  1
  O  O63  1  0.08395500  0.67684200  0.69777900  1
  O  O64  1  0.04795500  0.35085600  0.19373200  1
  O  O65  1  0.95204500  0.64914400  0.80626800  1
  O  O66  1  0.81289000  0.43689200  0.03745400  1
  O  O67  1  0.18711000  0.56310800  0.96254600  1
  O  O68  1  0.22272900  0.15497100  0.28132900  1
  O  O69  1  0.77727100  0.84502900  0.71867100  1
  O  O70  1  0.92193000  0.58583100  0.37600900  1
  O  O71  1  0.07807000  0.41416900  0.62399100  1
  O  O72  1  0.04582200  0.59734600  0.11767300  1
  O  O73  1  0.95417800  0.40265400  0.88232700  1
  O  O74  1  0.16491300  0.68256100  0.28508000  1
  O  O75  1  0.83508700  0.31743900  0.71492000  1
  O  O76  1  0.37505600  0.62614500  0.21238400  1
  O  O77  1  0.62494400  0.37385500  0.78761600  1
  O  O78  1  0.41888800  0.44128800  0.34649500  1
  O  O79  1  0.58111200  0.55871200  0.65350500  1
  O  O80  1  0.54050000  0.10574500  0.23665700  1
  O  O81  1  0.45950000  0.89425500  0.76334300  1
