# generated using pymatgen
data_NdH5(SeO4)2
_symmetry_space_group_name_H-M   'P 1'
_cell_length_a   6.86486700
_cell_length_b   7.23498500
_cell_length_c   16.61809100
_cell_angle_alpha   90.00000000
_cell_angle_beta   90.00000000
_cell_angle_gamma   90.00000000
_symmetry_Int_Tables_number   1
_chemical_formula_structural   NdH5(SeO4)2
_chemical_formula_sum   'Nd4 H20 Se8 O32'
_cell_volume   825.37421171
_cell_formula_units_Z   4
loop_
 _symmetry_equiv_pos_site_id
 _symmetry_equiv_pos_as_xyz
  1  'x, y, z'
loop_
 _atom_site_type_symbol
 _atom_site_label
 _atom_site_symmetry_multiplicity
 _atom_site_fract_x
 _atom_site_fract_y
 _atom_site_fract_z
 _atom_site_occupancy
  Nd  Nd0  1  0.86796200  0.88615500  0.21431500  1
  Nd  Nd1  1  0.63203800  0.11384500  0.71431500  1
  Nd  Nd2  1  0.36796200  0.61384500  0.78568500  1
  Nd  Nd3  1  0.13203800  0.38615500  0.28568500  1
  H  H4  1  0.20301800  0.32780800  0.95690700  1
  H  H5  1  0.29698200  0.67219200  0.45690700  1
  H  H6  1  0.70301800  0.17219200  0.04309300  1
  H  H7  1  0.79698200  0.82780800  0.54309300  1
  H  H8  1  0.96927900  0.57593300  0.09707800  1
  H  H9  1  0.53072100  0.42406700  0.59707800  1
  H  H10  1  0.46927900  0.92406700  0.90292200  1
  H  H11  1  0.03072100  0.07593300  0.40292200  1
  H  H12  1  0.83762900  0.70431700  0.04124300  1
  H  H13  1  0.66237100  0.29568300  0.54124300  1
  H  H14  1  0.33762900  0.79568300  0.95875700  1
  H  H15  1  0.16237100  0.20431700  0.45875700  1
  H  H16  1  0.61031900  0.06243500  0.46817900  1
  H  H17  1  0.88968100  0.93756500  0.96817900  1
  H  H18  1  0.11031900  0.43756500  0.53182100  1
  H  H19  1  0.38968100  0.56243500  0.03182100  1
  H  H20  1  0.64852500  0.18397300  0.39212700  1
  H  H21  1  0.85147500  0.81602700  0.89212700  1
  H  H22  1  0.14852500  0.31602700  0.60787300  1
  H  H23  1  0.35147500  0.68397300  0.10787300  1
  Se  Se24  1  0.33302100  0.88721300  0.27336400  1
  Se  Se25  1  0.16697900  0.11278700  0.77336400  1
  Se  Se26  1  0.83302100  0.61278700  0.72663600  1
  Se  Se27  1  0.66697900  0.38721300  0.22663600  1
  Se  Se28  1  0.13432700  0.18876100  0.08017300  1
  Se  Se29  1  0.36567300  0.81123900  0.58017300  1
  Se  Se30  1  0.63432700  0.31123900  0.91982700  1
  Se  Se31  1  0.86567300  0.68876100  0.41982700  1
  O  O32  1  0.19020100  0.70999800  0.23339300  1
  O  O33  1  0.30979900  0.29000200  0.73339300  1
  O  O34  1  0.69020100  0.79000200  0.76660700  1
  O  O35  1  0.80979900  0.20999800  0.26660700  1
  O  O36  1  0.52642400  0.89351700  0.20951000  1
  O  O37  1  0.97357600  0.10648300  0.70951000  1
  O  O38  1  0.02642400  0.60648300  0.79049000  1
  O  O39  1  0.47357600  0.39351700  0.29049000  1
  O  O40  1  0.18263700  0.06311100  0.23591700  1
  O  O41  1  0.31736300  0.93688900  0.73591700  1
  O  O42  1  0.68263700  0.43688900  0.76408300  1
  O  O43  1  0.81736300  0.56311100  0.26408300  1
  O  O44  1  0.90942700  0.08733500  0.09216500  1
  O  O45  1  0.59057300  0.91266500  0.59216500  1
  O  O46  1  0.40942700  0.41266500  0.90783500  1
  O  O47  1  0.09057300  0.58733500  0.40783500  1
  O  O48  1  0.12499300  0.38417300  0.13809600  1
  O  O49  1  0.37500700  0.61582700  0.63809600  1
  O  O50  1  0.62499300  0.11582700  0.86190400  1
  O  O51  1  0.87500700  0.88417300  0.36190400  1
  O  O52  1  0.07691800  0.29059300  0.98350700  1
  O  O53  1  0.42308200  0.70940700  0.48350700  1
  O  O54  1  0.57691800  0.20940700  0.01649300  1
  O  O55  1  0.92308200  0.79059300  0.51649300  1
  O  O56  1  0.86340200  0.66893500  0.09793100  1
  O  O57  1  0.63659800  0.33106500  0.59793100  1
  O  O58  1  0.36340200  0.83106500  0.90206900  1
  O  O59  1  0.13659800  0.16893500  0.40206900  1
  O  O60  1  0.60178800  0.18890700  0.44795100  1
  O  O61  1  0.89821200  0.81109300  0.94795100  1
  O  O62  1  0.10178800  0.31109300  0.55204900  1
  O  O63  1  0.39821200  0.68890700  0.05204900  1
