# generated using pymatgen
data_AgHPbC2SN2O
_symmetry_space_group_name_H-M   'P 1'
_cell_length_a   4.11075400
_cell_length_b   7.36186300
_cell_length_c   21.94678300
_cell_angle_alpha   90.00000000
_cell_angle_beta   90.00000000
_cell_angle_gamma   90.00000000
_symmetry_Int_Tables_number   1
_chemical_formula_structural   AgHPbC2SN2O
_chemical_formula_sum   'Ag4 H4 Pb4 C8 S4 N8 O4'
_cell_volume   664.17127520
_cell_formula_units_Z   4
loop_
 _symmetry_equiv_pos_site_id
 _symmetry_equiv_pos_as_xyz
  1  'x, y, z'
loop_
 _atom_site_type_symbol
 _atom_site_label
 _atom_site_symmetry_multiplicity
 _atom_site_fract_x
 _atom_site_fract_y
 _atom_site_fract_z
 _atom_site_occupancy
  Ag  Ag0  1  0.25000000  0.50995700  0.30173000  1
  Ag  Ag1  1  0.25000000  0.99004300  0.80173000  1
  Ag  Ag2  1  0.75000000  0.49004300  0.69827000  1
  Ag  Ag3  1  0.75000000  0.00995700  0.19827000  1
  H  H4  1  0.25000000  0.78948100  0.54788000  1
  H  H5  1  0.25000000  0.71051900  0.04788000  1
  H  H6  1  0.75000000  0.21051900  0.45212000  1
  H  H7  1  0.75000000  0.28948100  0.95212000  1
  Pb  Pb8  1  0.25000000  0.19161600  0.54349300  1
  Pb  Pb9  1  0.25000000  0.30838400  0.04349300  1
  Pb  Pb10  1  0.75000000  0.80838400  0.45650700  1
  Pb  Pb11  1  0.75000000  0.69161600  0.95650700  1
  C  C12  1  0.25000000  0.46279200  0.39666900  1
  C  C13  1  0.25000000  0.03720800  0.89666900  1
  C  C14  1  0.75000000  0.53720800  0.60333100  1
  C  C15  1  0.75000000  0.96279200  0.10333100  1
  C  C16  1  0.75000000  0.53756900  0.17702000  1
  C  C17  1  0.75000000  0.96243100  0.67702000  1
  C  C18  1  0.25000000  0.46243100  0.82298000  1
  C  C19  1  0.25000000  0.03756900  0.32298000  1
  S  S20  1  0.75000000  0.64534400  0.24313400  1
  S  S21  1  0.75000000  0.85465600  0.74313400  1
  S  S22  1  0.25000000  0.35465600  0.75686600  1
  S  S23  1  0.25000000  0.14534400  0.25686600  1
  N  N24  1  0.75000000  0.46137600  0.12958200  1
  N  N25  1  0.75000000  0.03862400  0.62958200  1
  N  N26  1  0.25000000  0.53862400  0.87041800  1
  N  N27  1  0.25000000  0.96137600  0.37041800  1
  N  N28  1  0.25000000  0.40984900  0.44718300  1
  N  N29  1  0.25000000  0.09015100  0.94718300  1
  N  N30  1  0.75000000  0.59015100  0.55281700  1
  N  N31  1  0.75000000  0.90984900  0.05281700  1
  O  O32  1  0.25000000  0.87282400  0.51323700  1
  O  O33  1  0.25000000  0.62717600  0.01323700  1
  O  O34  1  0.75000000  0.12717600  0.48676300  1
  O  O35  1  0.75000000  0.37282400  0.98676300  1
