# generated using pymatgen
data_BaAl2O6
_symmetry_space_group_name_H-M   'P 1'
_cell_length_a   5.53875500
_cell_length_b   9.83075500
_cell_length_c   10.98332200
_cell_angle_alpha   90.00000000
_cell_angle_beta   90.00000000
_cell_angle_gamma   90.00000000
_symmetry_Int_Tables_number   1
_chemical_formula_structural   BaAl2O6
_chemical_formula_sum   'Ba4 Al8 O24'
_cell_volume   598.04345802
_cell_formula_units_Z   4
loop_
 _symmetry_equiv_pos_site_id
 _symmetry_equiv_pos_as_xyz
  1  'x, y, z'
loop_
 _atom_site_type_symbol
 _atom_site_label
 _atom_site_symmetry_multiplicity
 _atom_site_fract_x
 _atom_site_fract_y
 _atom_site_fract_z
 _atom_site_occupancy
  Ba  Ba0  1  0.62190900  0.95829400  0.33343300  1
  Ba  Ba1  1  0.37809100  0.04170600  0.83343300  1
  Ba  Ba2  1  0.87809100  0.45829400  0.83343300  1
  Ba  Ba3  1  0.12190900  0.54170600  0.33343300  1
  Al  Al4  1  0.61071900  0.65721500  0.15051700  1
  Al  Al5  1  0.38928100  0.34278500  0.65051700  1
  Al  Al6  1  0.88928100  0.15721500  0.65051700  1
  Al  Al7  1  0.11071900  0.84278500  0.15051700  1
  Al  Al8  1  0.67595400  0.32931900  0.18475500  1
  Al  Al9  1  0.32404600  0.67068100  0.68475500  1
  Al  Al10  1  0.82404600  0.82931900  0.68475500  1
  Al  Al11  1  0.17595400  0.17068100  0.18475500  1
  O  O12  1  0.61034400  0.49742200  0.22445500  1
  O  O13  1  0.38965600  0.50257800  0.72445500  1
  O  O14  1  0.88965600  0.99742200  0.72445500  1
  O  O15  1  0.11034400  0.00257800  0.22445500  1
  O  O16  1  0.61992500  0.60183400  0.99571700  1
  O  O17  1  0.38007500  0.39816600  0.49571700  1
  O  O18  1  0.88007500  0.10183400  0.49571700  1
  O  O19  1  0.11992500  0.89816600  0.99571700  1
  O  O20  1  0.35611300  0.74631200  0.20091400  1
  O  O21  1  0.64388700  0.25368800  0.70091400  1
  O  O22  1  0.14388700  0.24631200  0.70091400  1
  O  O23  1  0.85611300  0.75368800  0.20091400  1
  O  O24  1  0.59118800  0.11266700  0.08123100  1
  O  O25  1  0.40881200  0.88733300  0.58123100  1
  O  O26  1  0.90881200  0.61266700  0.58123100  1
  O  O27  1  0.09118800  0.38733300  0.08123100  1
  O  O28  1  0.46186800  0.21484000  0.24978500  1
  O  O29  1  0.53813200  0.78516000  0.74978500  1
  O  O30  1  0.03813200  0.71484000  0.74978500  1
  O  O31  1  0.96186800  0.28516000  0.24978500  1
  O  O32  1  0.79608400  0.81110400  0.52119200  1
  O  O33  1  0.20391600  0.18889600  0.02119200  1
  O  O34  1  0.70391600  0.31110400  0.02119200  1
  O  O35  1  0.29608400  0.68889600  0.52119200  1
