# generated using pymatgen
data_CeH8(SO6)2
_symmetry_space_group_name_H-M   'P 1'
_cell_length_a   5.84778900
_cell_length_b   6.75959441
_cell_length_c   13.84625404
_cell_angle_alpha   84.75918279
_cell_angle_beta   77.80915214
_cell_angle_gamma   64.37019631
_symmetry_Int_Tables_number   1
_chemical_formula_structural   CeH8(SO6)2
_chemical_formula_sum   'Ce2 H16 S4 O24'
_cell_volume   482.34369224
_cell_formula_units_Z   2
loop_
 _symmetry_equiv_pos_site_id
 _symmetry_equiv_pos_as_xyz
  1  'x, y, z'
loop_
 _atom_site_type_symbol
 _atom_site_label
 _atom_site_symmetry_multiplicity
 _atom_site_fract_x
 _atom_site_fract_y
 _atom_site_fract_z
 _atom_site_occupancy
  Ce  Ce0  1  0.00000000  0.00000000  0.00000000  1
  Ce  Ce1  1  0.75000000  0.50000000  0.50000000  1
  H  H2  1  0.73688700  0.74491900  0.13929800  1
  H  H3  1  0.62110300  0.25508100  0.86070200  1
  H  H4  1  0.51819500  0.74491900  0.86070200  1
  H  H5  1  0.12381500  0.25508100  0.13929800  1
  H  H6  1  0.01311300  0.75508100  0.36070200  1
  H  H7  1  0.12889700  0.24491900  0.63929800  1
  H  H8  1  0.23180500  0.75508100  0.63929800  1
  H  H9  1  0.62618500  0.24491900  0.36070200  1
  H  H10  1  0.66941800  0.95287100  0.20366600  1
  H  H11  1  0.82595500  0.04712900  0.79633400  1
  H  H12  1  0.37771100  0.95287100  0.79633400  1
  H  H13  1  0.12691700  0.04712900  0.20366600  1
  H  H14  1  0.08058200  0.54712900  0.29633400  1
  H  H15  1  0.92404500  0.45287100  0.70366600  1
  H  H16  1  0.37228900  0.54712900  0.70366600  1
  H  H17  1  0.62308300  0.45287100  0.29633400  1
  S  S18  1  0.05768700  0.50000000  0.88462600  1
  S  S19  1  0.44231300  0.50000000  0.11537400  1
  S  S20  1  0.69231300  0.00000000  0.61537400  1
  S  S21  1  0.30768700  0.00000000  0.38462600  1
  O  O22  1  0.08452100  0.30526500  0.95066200  1
  O  O23  1  0.34044800  0.69473500  0.04933800  1
  O  O24  1  0.61021400  0.30526500  0.04933800  1
  O  O25  1  0.96481700  0.69473500  0.95066200  1
  O  O26  1  0.66547900  0.19473500  0.54933800  1
  O  O27  1  0.40955200  0.80526500  0.45066200  1
  O  O28  1  0.13978600  0.19473500  0.45066200  1
  O  O29  1  0.78518300  0.80526500  0.54933800  1
  O  O30  1  0.31452800  0.45656700  0.82377300  1
  O  O31  1  0.59486800  0.54343300  0.17622700  1
  O  O32  1  0.22890500  0.45656700  0.17622700  1
  O  O33  1  0.86169900  0.54343300  0.82377300  1
  O  O34  1  0.43547200  0.04343300  0.67622700  1
  O  O35  1  0.15513200  0.95656700  0.32377300  1
  O  O36  1  0.52109500  0.04343300  0.32377300  1
  O  O37  1  0.88830100  0.95656700  0.67622700  1
  O  O38  1  0.76610800  0.87837400  0.13917400  1
  O  O39  1  0.78365700  0.12162600  0.86082600  1
  O  O40  1  0.35551800  0.87837400  0.86082600  1
  O  O41  1  0.09471800  0.12162600  0.13917400  1
  O  O42  1  0.98389200  0.62162600  0.36082600  1
  O  O43  1  0.96634300  0.37837400  0.63917400  1
  O  O44  1  0.39448200  0.62162600  0.63917400  1
  O  O45  1  0.65528200  0.37837400  0.36082600  1
