# generated using pymatgen
data_Cs3Cu3Cl8O
_symmetry_space_group_name_H-M   'P 1'
_cell_length_a   9.80334800
_cell_length_b   13.81870200
_cell_length_c   13.82655738
_cell_angle_alpha   65.91013895
_cell_angle_beta   90.00000000
_cell_angle_gamma   90.00000000
_symmetry_Int_Tables_number   1
_chemical_formula_structural   Cs3Cu3Cl8O
_chemical_formula_sum   'Cs12 Cu12 Cl32 O4'
_cell_volume   1709.94441287
_cell_formula_units_Z   4
loop_
 _symmetry_equiv_pos_site_id
 _symmetry_equiv_pos_as_xyz
  1  'x, y, z'
loop_
 _atom_site_type_symbol
 _atom_site_label
 _atom_site_symmetry_multiplicity
 _atom_site_fract_x
 _atom_site_fract_y
 _atom_site_fract_z
 _atom_site_occupancy
  Cs  Cs0  1  0.90223100  0.07439000  0.30847700  1
  Cs  Cs1  1  0.40223100  0.42561000  0.69152300  1
  Cs  Cs2  1  0.09776900  0.92561000  0.69152300  1
  Cs  Cs3  1  0.59776900  0.57439000  0.30847700  1
  Cs  Cs4  1  0.88096200  0.30185600  0.56552100  1
  Cs  Cs5  1  0.38096200  0.19814400  0.43447900  1
  Cs  Cs6  1  0.11903800  0.69814400  0.43447900  1
  Cs  Cs7  1  0.61903800  0.80185600  0.56552100  1
  Cs  Cs8  1  0.59497800  0.31163400  0.06745600  1
  Cs  Cs9  1  0.09497800  0.18836600  0.93254400  1
  Cs  Cs10  1  0.40502200  0.68836600  0.93254400  1
  Cs  Cs11  1  0.90502200  0.81163400  0.06745600  1
  Cu  Cu12  1  0.89210000  0.41100000  0.22552400  1
  Cu  Cu13  1  0.39210000  0.08900000  0.77447600  1
  Cu  Cu14  1  0.10790000  0.58900000  0.77447600  1
  Cu  Cu15  1  0.60790000  0.91100000  0.22552400  1
  Cu  Cu16  1  0.15447700  0.49006300  0.26955500  1
  Cu  Cu17  1  0.65447700  0.00993700  0.73044500  1
  Cu  Cu18  1  0.84552300  0.50993700  0.73044500  1
  Cu  Cu19  1  0.34552300  0.99006300  0.26955500  1
  Cu  Cu20  1  0.15295800  0.36517700  0.13459900  1
  Cu  Cu21  1  0.65295800  0.13482300  0.86540100  1
  Cu  Cu22  1  0.84704200  0.63482300  0.86540100  1
  Cu  Cu23  1  0.34704200  0.86517700  0.13459900  1
  Cl  Cl24  1  0.03415300  0.28189000  0.35233300  1
  Cl  Cl25  1  0.53415300  0.21811000  0.64766700  1
  Cl  Cl26  1  0.96584700  0.71811000  0.64766700  1
  Cl  Cl27  1  0.46584700  0.78189000  0.35233300  1
  Cl  Cl28  1  0.95798000  0.30978900  0.08500500  1
  Cl  Cl29  1  0.45798000  0.19021100  0.91499500  1
  Cl  Cl30  1  0.04202000  0.69021100  0.91499500  1
  Cl  Cl31  1  0.54202000  0.80978900  0.08500500  1
  Cl  Cl32  1  0.70585400  0.32497600  0.31396000  1
  Cl  Cl33  1  0.20585400  0.17502400  0.68604000  1
  Cl  Cl34  1  0.29414600  0.67502400  0.68604000  1
  Cl  Cl35  1  0.79414600  0.82497600  0.31396000  1
  Cl  Cl36  1  0.23562600  0.71818200  0.14872500  1
  Cl  Cl37  1  0.73562600  0.78181800  0.85127500  1
  Cl  Cl38  1  0.76437400  0.28181800  0.85127500  1
  Cl  Cl39  1  0.26437400  0.21818200  0.14872500  1
  Cl  Cl40  1  0.33745000  0.43582100  0.18417200  1
  Cl  Cl41  1  0.83745000  0.06417900  0.81582800  1
  Cl  Cl42  1  0.66255000  0.56417900  0.81582800  1
  Cl  Cl43  1  0.16255000  0.93582100  0.18417200  1
  Cl  Cl44  1  0.76423700  0.53565700  0.09630100  1
  Cl  Cl45  1  0.26423700  0.96434300  0.90369900  1
  Cl  Cl46  1  0.23576300  0.46434300  0.90369900  1
  Cl  Cl47  1  0.73576300  0.03565700  0.09630100  1
  Cl  Cl48  1  0.28110400  0.47272900  0.41335100  1
  Cl  Cl49  1  0.78110400  0.02727100  0.58664900  1
  Cl  Cl50  1  0.71889600  0.52727100  0.58664900  1
  Cl  Cl51  1  0.21889600  0.97272900  0.41335100  1
  Cl  Cl52  1  0.95777500  0.55069900  0.32150900  1
  Cl  Cl53  1  0.45777500  0.94930100  0.67849100  1
  Cl  Cl54  1  0.04222500  0.44930100  0.67849100  1
  Cl  Cl55  1  0.54222500  0.05069900  0.32150900  1
  O  O56  1  0.05607300  0.47468500  0.15571600  1
  O  O57  1  0.55607300  0.02531500  0.84428400  1
  O  O58  1  0.94392700  0.52531500  0.84428400  1
  O  O59  1  0.44392700  0.97468500  0.15571600  1
