# generated using pymatgen
data_SrYb4Si5O17
_symmetry_space_group_name_H-M   'P 1'
_cell_length_a   19.80220000
_cell_length_b   5.63764600
_cell_length_c   6.99024725
_cell_angle_alpha   73.77867570
_cell_angle_beta   90.00000000
_cell_angle_gamma   90.00000000
_symmetry_Int_Tables_number   1
_chemical_formula_structural   SrYb4Si5O17
_chemical_formula_sum   'Sr2 Yb8 Si10 O34'
_cell_volume   749.30885182
_cell_formula_units_Z   2
loop_
 _symmetry_equiv_pos_site_id
 _symmetry_equiv_pos_as_xyz
  1  'x, y, z'
loop_
 _atom_site_type_symbol
 _atom_site_label
 _atom_site_symmetry_multiplicity
 _atom_site_fract_x
 _atom_site_fract_y
 _atom_site_fract_z
 _atom_site_occupancy
  Sr  Sr0  1  0.25000000  0.75736100  0.75061500  1
  Sr  Sr1  1  0.75000000  0.24263900  0.24938500  1
  Yb  Yb2  1  0.04307100  0.70166700  0.11250100  1
  Yb  Yb3  1  0.54307100  0.29833300  0.88749900  1
  Yb  Yb4  1  0.95692900  0.29833300  0.88749900  1
  Yb  Yb5  1  0.45692900  0.70166700  0.11250100  1
  Yb  Yb6  1  0.16208100  0.35705000  0.46796300  1
  Yb  Yb7  1  0.66208100  0.64295000  0.53203700  1
  Yb  Yb8  1  0.83791900  0.64295000  0.53203700  1
  Yb  Yb9  1  0.33791900  0.35705000  0.46796300  1
  Si  Si10  1  0.25000000  0.92602800  0.27048000  1
  Si  Si11  1  0.75000000  0.07397200  0.72952000  1
  Si  Si12  1  0.13909500  0.22854100  0.00072600  1
  Si  Si13  1  0.63909500  0.77145900  0.99927400  1
  Si  Si14  1  0.86090500  0.77145900  0.99927400  1
  Si  Si15  1  0.36090500  0.22854100  0.00072600  1
  Si  Si16  1  0.06013800  0.80030000  0.59480200  1
  Si  Si17  1  0.56013800  0.19970000  0.40519800  1
  Si  Si18  1  0.93986200  0.19970000  0.40519800  1
  Si  Si19  1  0.43986200  0.80030000  0.59480200  1
  O  O20  1  0.25000000  0.11225200  0.41181500  1
  O  O21  1  0.75000000  0.88774800  0.58818500  1
  O  O22  1  0.25000000  0.64409300  0.41024200  1
  O  O23  1  0.75000000  0.35590700  0.58975800  1
  O  O24  1  0.18428600  0.97627200  0.11510200  1
  O  O25  1  0.68428600  0.02372800  0.88489800  1
  O  O26  1  0.81571400  0.02372800  0.88489800  1
  O  O27  1  0.31571400  0.97627200  0.11510200  1
  O  O28  1  0.17973500  0.36802100  0.79577100  1
  O  O29  1  0.67973500  0.63197900  0.20422900  1
  O  O30  1  0.82026500  0.63197900  0.20422900  1
  O  O31  1  0.32026500  0.36802100  0.79577100  1
  O  O32  1  0.06635200  0.11851600  0.95357100  1
  O  O33  1  0.56635200  0.88148400  0.04642900  1
  O  O34  1  0.93364800  0.88148400  0.04642900  1
  O  O35  1  0.43364800  0.11851600  0.95357100  1
  O  O36  1  0.12947300  0.40732000  0.14467200  1
  O  O37  1  0.62947300  0.59268000  0.85532800  1
  O  O38  1  0.87052700  0.59268000  0.85532800  1
  O  O39  1  0.37052700  0.40732000  0.14467200  1
  O  O40  1  0.12906900  0.94556200  0.62870000  1
  O  O41  1  0.62906900  0.05443800  0.37130000  1
  O  O42  1  0.87093100  0.05443800  0.37130000  1
  O  O43  1  0.37093100  0.94556200  0.62870000  1
  O  O44  1  0.02952400  0.63344700  0.80466800  1
  O  O45  1  0.52952400  0.36655300  0.19533200  1
  O  O46  1  0.97047600  0.36655300  0.19533200  1
  O  O47  1  0.47047600  0.63344700  0.80466800  1
  O  O48  1  0.00000000  0.00000000  0.50000000  1
  O  O49  1  0.50000000  0.00000000  0.50000000  1
  O  O50  1  0.07778200  0.64572100  0.43790800  1
  O  O51  1  0.57778200  0.35427900  0.56209200  1
  O  O52  1  0.92221800  0.35427900  0.56209200  1
  O  O53  1  0.42221800  0.64572100  0.43790800  1
