# generated using pymatgen
data_NaBeSi3O8
_symmetry_space_group_name_H-M   'P 1'
_cell_length_a   7.41117500
_cell_length_b   12.79872000
_cell_length_c   13.83893300
_cell_angle_alpha   90.00000000
_cell_angle_beta   90.00000000
_cell_angle_gamma   90.00000000
_symmetry_Int_Tables_number   1
_chemical_formula_structural   NaBeSi3O8
_chemical_formula_sum   'Na8 Be8 Si24 O64'
_cell_volume   1312.67197441
_cell_formula_units_Z   8
loop_
 _symmetry_equiv_pos_site_id
 _symmetry_equiv_pos_as_xyz
  1  'x, y, z'
loop_
 _atom_site_type_symbol
 _atom_site_label
 _atom_site_symmetry_multiplicity
 _atom_site_fract_x
 _atom_site_fract_y
 _atom_site_fract_z
 _atom_site_occupancy
  Na  Na0  1  0.99897500  0.60119800  0.06857700  1
  Na  Na1  1  0.50102500  0.10119800  0.43142300  1
  Na  Na2  1  0.00102500  0.39880200  0.56857700  1
  Na  Na3  1  0.49897500  0.89880200  0.93142300  1
  Na  Na4  1  0.00102500  0.39880200  0.93142300  1
  Na  Na5  1  0.49897500  0.89880200  0.56857700  1
  Na  Na6  1  0.99897500  0.60119800  0.43142300  1
  Na  Na7  1  0.50102500  0.10119800  0.06857700  1
  Be  Be8  1  0.15636200  0.99474200  0.99960900  1
  Be  Be9  1  0.34363800  0.49474200  0.50039100  1
  Be  Be10  1  0.84363800  0.00525800  0.49960900  1
  Be  Be11  1  0.65636200  0.50525800  0.00039100  1
  Be  Be12  1  0.84363800  0.00525800  0.00039100  1
  Be  Be13  1  0.65636200  0.50525800  0.49960900  1
  Be  Be14  1  0.15636200  0.99474200  0.50039100  1
  Be  Be15  1  0.34363800  0.49474200  0.99960900  1
  Si  Si16  1  0.48416600  0.65908200  0.13808800  1
  Si  Si17  1  0.01583400  0.15908200  0.36191200  1
  Si  Si18  1  0.51583400  0.34091800  0.63808800  1
  Si  Si19  1  0.98416600  0.84091800  0.86191200  1
  Si  Si20  1  0.51583400  0.34091800  0.86191200  1
  Si  Si21  1  0.98416600  0.84091800  0.63808800  1
  Si  Si22  1  0.48416600  0.65908200  0.36191200  1
  Si  Si23  1  0.01583400  0.15908200  0.13808800  1
  Si  Si24  1  0.76784100  0.84423300  0.13699600  1
  Si  Si25  1  0.73215900  0.34423300  0.36300400  1
  Si  Si26  1  0.23215900  0.15576700  0.63699600  1
  Si  Si27  1  0.26784100  0.65576700  0.86300400  1
  Si  Si28  1  0.23215900  0.15576700  0.86300400  1
  Si  Si29  1  0.26784100  0.65576700  0.63699600  1
  Si  Si30  1  0.76784100  0.84423300  0.36300400  1
  Si  Si31  1  0.73215900  0.34423300  0.13699600  1
  Si  Si32  1  0.19505800  0.83320000  0.13814800  1
  Si  Si33  1  0.30494200  0.33320000  0.36185200  1
  Si  Si34  1  0.80494200  0.16680000  0.63814800  1
  Si  Si35  1  0.69505800  0.66680000  0.86185200  1
  Si  Si36  1  0.80494200  0.16680000  0.86185200  1
  Si  Si37  1  0.69505800  0.66680000  0.63814800  1
  Si  Si38  1  0.19505800  0.83320000  0.36185200  1
  Si  Si39  1  0.30494200  0.33320000  0.13814800  1
  O  O40  1  0.50046100  0.61995200  0.25000000  1
  O  O41  1  0.99953900  0.11995200  0.25000000  1
  O  O42  1  0.49953900  0.38004800  0.75000000  1
  O  O43  1  0.00046100  0.88004800  0.75000000  1
  O  O44  1  0.28827100  0.71685600  0.12299800  1
  O  O45  1  0.21172900  0.21685600  0.37700200  1
  O  O46  1  0.71172900  0.28314400  0.62299800  1
  O  O47  1  0.78827100  0.78314400  0.87700200  1
  O  O48  1  0.71172900  0.28314400  0.87700200  1
  O  O49  1  0.78827100  0.78314400  0.62299800  1
  O  O50  1  0.28827100  0.71685600  0.37700200  1
  O  O51  1  0.21172900  0.21685600  0.12299800  1
  O  O52  1  0.49343400  0.56053000  0.06575600  1
  O  O53  1  0.00656600  0.06053000  0.43424400  1
  O  O54  1  0.50656600  0.43947000  0.56575600  1
  O  O55  1  0.99343400  0.93947000  0.93424400  1
  O  O56  1  0.50656600  0.43947000  0.93424400  1
  O  O57  1  0.99343400  0.93947000  0.56575600  1
  O  O58  1  0.49343400  0.56053000  0.43424400  1
  O  O59  1  0.00656600  0.06053000  0.06575600  1
  O  O60  1  0.65167200  0.73769300  0.11435900  1
  O  O61  1  0.84832800  0.23769300  0.38564100  1
  O  O62  1  0.34832800  0.26230700  0.61435900  1
  O  O63  1  0.15167200  0.76230700  0.88564100  1
  O  O64  1  0.34832800  0.26230700  0.88564100  1
  O  O65  1  0.15167200  0.76230700  0.61435900  1
  O  O66  1  0.65167200  0.73769300  0.38564100  1
  O  O67  1  0.84832800  0.23769300  0.11435900  1
  O  O68  1  0.71041000  0.93542700  0.06326900  1
  O  O69  1  0.78959000  0.43542700  0.43673100  1
  O  O70  1  0.28959000  0.06457300  0.56326900  1
  O  O71  1  0.21041000  0.56457300  0.93673100  1
  O  O72  1  0.28959000  0.06457300  0.93673100  1
  O  O73  1  0.21041000  0.56457300  0.56326900  1
  O  O74  1  0.71041000  0.93542700  0.43673100  1
  O  O75  1  0.78959000  0.43542700  0.06326900  1
  O  O76  1  0.73325900  0.87884500  0.25000000  1
  O  O77  1  0.76674100  0.37884500  0.25000000  1
  O  O78  1  0.26674100  0.12115500  0.75000000  1
  O  O79  1  0.23325900  0.62115500  0.75000000  1
  O  O80  1  0.97900900  0.80504200  0.12445000  1
  O  O81  1  0.52099100  0.30504200  0.37555000  1
  O  O82  1  0.02099100  0.19495800  0.62445000  1
  O  O83  1  0.47900900  0.69495800  0.87555000  1
  O  O84  1  0.02099100  0.19495800  0.87555000  1
  O  O85  1  0.47900900  0.69495800  0.62445000  1
  O  O86  1  0.97900900  0.80504200  0.37555000  1
  O  O87  1  0.52099100  0.30504200  0.12445000  1
  O  O88  1  0.23224100  0.87100300  0.25000000  1
  O  O89  1  0.26775900  0.37100300  0.25000000  1
  O  O90  1  0.76775900  0.12899700  0.75000000  1
  O  O91  1  0.73224100  0.62899700  0.75000000  1
  O  O92  1  0.27330000  0.91578000  0.06185700  1
  O  O93  1  0.22670000  0.41578000  0.43814300  1
  O  O94  1  0.72670000  0.08422000  0.56185700  1
  O  O95  1  0.77330000  0.58422000  0.93814300  1
  O  O96  1  0.72670000  0.08422000  0.93814300  1
  O  O97  1  0.77330000  0.58422000  0.56185700  1
  O  O98  1  0.27330000  0.91578000  0.43814300  1
  O  O99  1  0.22670000  0.41578000  0.06185700  1
  O  O100  1  0.01014000  0.55947300  0.25000000  1
  O  O101  1  0.48986000  0.05947300  0.25000000  1
  O  O102  1  0.98986000  0.44052700  0.75000000  1
  O  O103  1  0.51014000  0.94052700  0.75000000  1
