# generated using pymatgen
data_KFe2P2O11
_symmetry_space_group_name_H-M   'P 1'
_cell_length_a   9.67933200
_cell_length_b   9.61650500
_cell_length_c   12.33397982
_cell_angle_alpha   50.57498934
_cell_angle_beta   90.00000000
_cell_angle_gamma   90.00000000
_symmetry_Int_Tables_number   1
_chemical_formula_structural   KFe2P2O11
_chemical_formula_sum   'K4 Fe8 P8 O44'
_cell_volume   886.82897334
_cell_formula_units_Z   4
loop_
 _symmetry_equiv_pos_site_id
 _symmetry_equiv_pos_as_xyz
  1  'x, y, z'
loop_
 _atom_site_type_symbol
 _atom_site_label
 _atom_site_symmetry_multiplicity
 _atom_site_fract_x
 _atom_site_fract_y
 _atom_site_fract_z
 _atom_site_occupancy
  K  K0  1  0.69468500  0.37489400  0.01788700  1
  K  K1  1  0.80531500  0.37489400  0.51788700  1
  K  K2  1  0.30531500  0.62510600  0.98211300  1
  K  K3  1  0.19468500  0.62510600  0.48211300  1
  Fe  Fe4  1  0.05271600  0.97530900  0.90025800  1
  Fe  Fe5  1  0.44728400  0.97530900  0.40025800  1
  Fe  Fe6  1  0.94728400  0.02469100  0.09974200  1
  Fe  Fe7  1  0.55271600  0.02469100  0.59974200  1
  Fe  Fe8  1  0.73752000  0.72786200  0.09053000  1
  Fe  Fe9  1  0.76248000  0.72786200  0.59053000  1
  Fe  Fe10  1  0.26248000  0.27213800  0.90947000  1
  Fe  Fe11  1  0.23752000  0.27213800  0.40947000  1
  P  P12  1  0.02878700  0.63430200  0.21557100  1
  P  P13  1  0.47121300  0.63430200  0.71557100  1
  P  P14  1  0.97121300  0.36569800  0.78442900  1
  P  P15  1  0.52878700  0.36569800  0.28442900  1
  P  P16  1  0.82791600  0.85037800  0.78269800  1
  P  P17  1  0.67208400  0.85037800  0.28269800  1
  P  P18  1  0.17208400  0.14962200  0.21730200  1
  P  P19  1  0.32791600  0.14962200  0.71730200  1
  O  O20  1  0.10070800  0.72151400  0.07323800  1
  O  O21  1  0.39929200  0.72151400  0.57323800  1
  O  O22  1  0.89929200  0.27848600  0.92676200  1
  O  O23  1  0.60070800  0.27848600  0.42676200  1
  O  O24  1  0.61630700  0.51794200  0.15844900  1
  O  O25  1  0.88369300  0.51794200  0.65844900  1
  O  O26  1  0.38369300  0.48205800  0.84155100  1
  O  O27  1  0.11630700  0.48205800  0.34155100  1
  O  O28  1  0.98652100  0.23032600  0.75394700  1
  O  O29  1  0.51347900  0.23032600  0.25394700  1
  O  O30  1  0.01347900  0.76967400  0.24605300  1
  O  O31  1  0.48652100  0.76967400  0.74605300  1
  O  O32  1  0.88454300  0.55693400  0.22303700  1
  O  O33  1  0.61545700  0.55693400  0.72303700  1
  O  O34  1  0.11545700  0.44306600  0.77696300  1
  O  O35  1  0.38454300  0.44306600  0.27696300  1
  O  O36  1  0.76787300  0.72520600  0.93323700  1
  O  O37  1  0.73212700  0.72520600  0.43323700  1
  O  O38  1  0.23212700  0.27479400  0.06676300  1
  O  O39  1  0.26787300  0.27479400  0.56676300  1
  O  O40  1  0.97444500  0.91152800  0.78761000  1
  O  O41  1  0.52555500  0.91152800  0.28761000  1
  O  O42  1  0.02555500  0.08847200  0.21239000  1
  O  O43  1  0.47444500  0.08847200  0.71239000  1
  O  O44  1  0.23462900  0.98484300  0.81969600  1
  O  O45  1  0.26537100  0.98484300  0.31969600  1
  O  O46  1  0.76537100  0.01515700  0.18030400  1
  O  O47  1  0.73462900  0.01515700  0.68030400  1
  O  O48  1  0.65714200  0.73392500  0.23591600  1
  O  O49  1  0.84285800  0.73392500  0.73591600  1
  O  O50  1  0.34285800  0.26607500  0.76408400  1
  O  O51  1  0.15714200  0.26607500  0.26408400  1
  O  O52  1  0.87177200  0.92832200  0.00890100  1
  O  O53  1  0.62822800  0.92832200  0.50890100  1
  O  O54  1  0.12822800  0.07167800  0.99109900  1
  O  O55  1  0.37177200  0.07167800  0.49109900  1
  O  O56  1  0.55722800  0.88380700  0.98959700  1
  O  O57  1  0.94277200  0.88380700  0.48959700  1
  O  O58  1  0.44277200  0.11619300  0.01040300  1
  O  O59  1  0.05722800  0.11619300  0.51040300  1
  O  O60  1  0.61709900  0.14199500  0.84998100  1
  O  O61  1  0.88290100  0.14199500  0.34998100  1
  O  O62  1  0.38290100  0.85800500  0.15001900  1
  O  O63  1  0.11709900  0.85800500  0.65001900  1
