# generated using pymatgen
data_KH2AuC4N4O
_symmetry_space_group_name_H-M   'P 1'
_cell_length_a   6.82344400
_cell_length_b   7.50578000
_cell_length_c   17.51149300
_cell_angle_alpha   90.00000000
_cell_angle_beta   90.00000000
_cell_angle_gamma   90.00000000
_symmetry_Int_Tables_number   1
_chemical_formula_structural   KH2AuC4N4O
_chemical_formula_sum   'K4 H8 Au4 C16 N16 O4'
_cell_volume   896.85583345
_cell_formula_units_Z   4
loop_
 _symmetry_equiv_pos_site_id
 _symmetry_equiv_pos_as_xyz
  1  'x, y, z'
loop_
 _atom_site_type_symbol
 _atom_site_label
 _atom_site_symmetry_multiplicity
 _atom_site_fract_x
 _atom_site_fract_y
 _atom_site_fract_z
 _atom_site_occupancy
  K  K0  1  0.73991900  0.46794400  0.98265600  1
  K  K1  1  0.76008100  0.53205600  0.48265600  1
  K  K2  1  0.23991900  0.03205600  0.01734400  1
  K  K3  1  0.26008100  0.96794400  0.51734400  1
  H  H4  1  0.31469800  0.68761100  0.93035700  1
  H  H5  1  0.18530200  0.31238900  0.43035700  1
  H  H6  1  0.81469800  0.81238900  0.06964300  1
  H  H7  1  0.68530200  0.18761100  0.56964300  1
  H  H8  1  0.27701300  0.59263100  0.00808900  1
  H  H9  1  0.22298700  0.40736900  0.50808900  1
  H  H10  1  0.77701300  0.90736900  0.99191100  1
  H  H11  1  0.72298700  0.09263100  0.49191100  1
  Au  Au12  1  0.24222900  0.42816200  0.73902100  1
  Au  Au13  1  0.25777100  0.57183800  0.23902100  1
  Au  Au14  1  0.74222900  0.07183800  0.26097900  1
  Au  Au15  1  0.75777100  0.92816200  0.76097900  1
  C  C16  1  0.34880000  0.52414000  0.64025700  1
  C  C17  1  0.15120000  0.47586000  0.14025700  1
  C  C18  1  0.84880000  0.97586000  0.35974300  1
  C  C19  1  0.65120000  0.02414000  0.85974300  1
  C  C20  1  0.99820500  0.35282100  0.68355900  1
  C  C21  1  0.50179500  0.64717900  0.18355900  1
  C  C22  1  0.49820500  0.14717900  0.31644100  1
  C  C23  1  0.00179500  0.85282100  0.81644100  1
  C  C24  1  0.13509000  0.33639900  0.83866200  1
  C  C25  1  0.36491000  0.66360100  0.33866200  1
  C  C26  1  0.63509000  0.16360100  0.16133800  1
  C  C27  1  0.86491000  0.83639900  0.66133800  1
  C  C28  1  0.48868400  0.50038600  0.79388400  1
  C  C29  1  0.01131600  0.49961400  0.29388400  1
  C  C30  1  0.98868400  0.99961400  0.20611600  1
  C  C31  1  0.51131600  0.00038600  0.70611600  1
  N  N32  1  0.41180700  0.57756100  0.58267400  1
  N  N33  1  0.08819300  0.42243900  0.08267400  1
  N  N34  1  0.91180700  0.92243900  0.41732600  1
  N  N35  1  0.58819300  0.07756100  0.91732600  1
  N  N36  1  0.85970800  0.30476000  0.65042700  1
  N  N37  1  0.64029200  0.69524000  0.15042700  1
  N  N38  1  0.35970800  0.19524000  0.34957300  1
  N  N39  1  0.14029200  0.80476000  0.84957300  1
  N  N40  1  0.08015200  0.28680000  0.89809600  1
  N  N41  1  0.41984800  0.71320000  0.39809600  1
  N  N42  1  0.58015200  0.21320000  0.10190400  1
  N  N43  1  0.91984800  0.78680000  0.60190400  1
  N  N44  1  0.62915100  0.54229600  0.82738100  1
  N  N45  1  0.87084900  0.45770400  0.32738100  1
  N  N46  1  0.12915100  0.95770400  0.17261900  1
  N  N47  1  0.37084900  0.04229600  0.67261900  1
  O  O48  1  0.37408700  0.66378000  0.98052500  1
  O  O49  1  0.12591300  0.33622000  0.48052500  1
  O  O50  1  0.87408700  0.83622000  0.01947500  1
  O  O51  1  0.62591300  0.16378000  0.51947500  1
