# generated using pymatgen
data_Si10(H3C)19
_symmetry_space_group_name_H-M   'P 1'
_cell_length_a   10.37661900
_cell_length_b   14.22913857
_cell_length_c   15.99254538
_cell_angle_alpha   106.20883236
_cell_angle_beta   99.51982542
_cell_angle_gamma   110.88977030
_symmetry_Int_Tables_number   1
_chemical_formula_structural   Si10(H3C)19
_chemical_formula_sum   'Si20 H114 C38'
_cell_volume   2023.93111700
_cell_formula_units_Z   2
loop_
 _symmetry_equiv_pos_site_id
 _symmetry_equiv_pos_as_xyz
  1  'x, y, z'
loop_
 _atom_site_type_symbol
 _atom_site_label
 _atom_site_symmetry_multiplicity
 _atom_site_fract_x
 _atom_site_fract_y
 _atom_site_fract_z
 _atom_site_occupancy
  Si  Si0  1  0.62118800  0.39513200  0.69936200  1
  Si  Si1  1  0.37881200  0.60486800  0.30063800  1
  Si  Si2  1  0.87734500  0.49241300  0.72953900  1
  Si  Si3  1  0.12265500  0.50758700  0.27046100  1
  Si  Si4  1  0.95263800  0.66772200  0.72176100  1
  Si  Si5  1  0.04736200  0.33227800  0.27823900  1
  Si  Si6  1  0.88395100  0.78047400  0.82444100  1
  Si  Si7  1  0.11604900  0.21952600  0.17555900  1
  Si  Si8  1  0.63771500  0.69018000  0.80774800  1
  Si  Si9  1  0.36228500  0.30982000  0.19225200  1
  Si  Si10  1  0.56610500  0.51401900  0.81359600  1
  Si  Si11  1  0.43389500  0.48598100  0.18640400  1
  Si  Si12  1  0.52716800  0.19985800  0.67436100  1
  Si  Si13  1  0.47283200  0.80014200  0.32563900  1
  Si  Si14  1  0.50447700  0.09032100  0.51790200  1
  Si  Si15  1  0.49552300  0.90967900  0.48209800  1
  Si  Si16  1  0.66531100  0.17174900  0.79274900  1
  Si  Si17  1  0.33468900  0.82825100  0.20725100  1
  Si  Si18  1  0.28581900  0.14439500  0.68722500  1
  Si  Si19  1  0.71418100  0.85560500  0.31277500  1
  H  H20  1  0.56280100  0.36227700  0.53100600  1
  H  H21  1  0.43719900  0.63772300  0.46899400  1
  H  H22  1  0.41457900  0.36610700  0.57187900  1
  H  H23  1  0.58542100  0.63389300  0.42812100  1
  H  H24  1  0.56675600  0.48810700  0.59380100  1
  H  H25  1  0.43324400  0.51189300  0.40619900  1
  H  H26  1  0.94016900  0.34263700  0.65371900  1
  H  H27  1  0.05983100  0.65736300  0.34628100  1
  H  H28  1  0.90073400  0.40228500  0.57456900  1
  H  H29  1  0.09926600  0.59771500  0.42543100  1
  H  H30  1  0.06855600  0.46945400  0.66173100  1
  H  H31  1  0.93144400  0.53054600  0.33826900  1
  H  H32  1  0.10006800  0.55284000  0.85662500  1
  H  H33  1  0.89993200  0.44716000  0.14337500  1
  H  H34  1  0.95871900  0.56238100  0.90250500  1
  H  H35  1  0.04128100  0.43761900  0.09749500  1
  H  H36  1  0.96175000  0.43486300  0.85551300  1
  H  H37  1  0.03825000  0.56513700  0.14448700  1
  H  H38  1  0.91607300  0.60663000  0.55358000  1
  H  H39  1  0.08392700  0.39337000  0.44642000  1
  H  H40  1  0.76733200  0.63134600  0.57740800  1
  H  H41  1  0.23266800  0.36865400  0.42259200  1
  H  H42  1  0.93446800  0.74123100  0.59706500  1
  H  H43  1  0.06553200  0.25876900  0.40293500  1
  H  H44  1  0.19991700  0.81319800  0.75520800  1
  H  H45  1  0.80008300  0.18680200  0.24479200  1
  H  H46  1  0.21149800  0.72964000  0.81760900  1
  H  H47  1  0.78850200  0.27036000  0.18239100  1
  H  H48  1  0.19217600  0.68437200  0.69877200  1
  H  H49  1  0.80782400  0.31562800  0.30122800  1
  H  H50  1  0.95698100  0.86841500  0.99421900  1
  H  H51  1  0.04301900  0.13158500  0.00578100  1
  H  H52  1  0.98647100  0.74946000  0.96435300  1
  H  H53  1  0.01352900  0.25054000  0.03564700  1
  H  H54  1  0.10907300  0.86898400  0.95613800  1
  H  H55  1  0.89092700  0.13101600  0.04386200  1
  H  H56  1  0.03621000  0.95767100  0.81701500  1
  H  H57  1  0.96379000  0.04232900  0.18298500  1
  H  H58  1  0.86466800  0.89925900  0.73424400  1
  H  H59  1  0.13533200  0.10074100  0.26575600  1
  H  H60  1  0.88285600  0.96130700  0.85121000  1
  H  H61  1  0.11714400  0.03869300  0.14879000  1
  H  H62  1  0.47187900  0.73469300  0.89349600  1
  H  H63  1  0.52812100  0.26530700  0.10650400  1
  H  H64  1  0.64203400  0.77577300  0.97227800  1
  H  H65  1  0.35796600  0.22422700  0.02772200  1
  H  H66  1  0.62038600  0.85375300  0.90609000  1
  H  H67  1  0.37961400  0.14624700  0.09391000  1
  H  H68  1  0.52685700  0.76629100  0.70873000  1
  H  H69  1  0.47314300  0.23370900  0.29127000  1
  H  H70  1  0.57104400  0.66694200  0.64105000  1
  H  H71  1  0.42895600  0.33305800  0.35895000  1
  H  H72  1  0.41454700  0.62715000  0.67826500  1
  H  H73  1  0.58545300  0.37285000  0.32173500  1
  H  H74  1  0.35215400  0.53046200  0.85483000  1
  H  H75  1  0.64784600  0.46953800  0.14517000  1
  H  H76  1  0.30505600  0.46693000  0.73483200  1
  H  H77  1  0.69494400  0.53307000  0.26516800  1
  H  H78  1  0.31492100  0.39213600  0.80611400  1
  H  H79  1  0.68507900  0.60786400  0.19388600  1
  H  H80  1  0.59751800  0.45857700  0.94861400  1
  H  H81  1  0.40248200  0.54142300  0.05138600  1
  H  H82  1  0.76731400  0.54956000  0.94894100  1
  H  H83  1  0.23268600  0.45044000  0.05105900  1
  H  H84  1  0.64282800  0.59897700  0.98422500  1
  H  H85  1  0.35717200  0.40102300  0.01577500  1
  H  H86  1  0.32188500  0.04055800  0.37047900  1
  H  H87  1  0.67811500  0.95944200  0.62952100  1
  H  H88  1  0.23471200  0.03109000  0.45652200  1
  H  H89  1  0.76528800  0.96891000  0.54347800  1
  H  H90  1  0.33698000  0.15976600  0.45319200  1
  H  H91  1  0.66302000  0.84023400  0.54680800  1
  H  H92  1  0.66266300  0.25063600  0.48993200  1
  H  H93  1  0.33733700  0.74936400  0.51006800  1
  H  H94  1  0.76180100  0.17709100  0.51409900  1
  H  H95  1  0.23819900  0.82290900  0.48590100  1
  H  H96  1  0.63439200  0.12780900  0.40547700  1
  H  H97  1  0.36560800  0.87219100  0.59452300  1
  H  H98  1  0.47046100  0.02411400  0.81647000  1
  H  H99  1  0.52953900  0.97588600  0.18353000  1
  H  H100  1  0.54518700  0.96725200  0.73435000  1
  H  H101  1  0.45481300  0.03274800  0.26565000  1
  H  H102  1  0.64273300  0.02565300  0.85196500  1
  H  H103  1  0.35726700  0.97434700  0.14803500  1
  H  H104  1  0.90415200  0.16889300  0.83324700  1
  H  H105  1  0.09584800  0.83110700  0.16675300  1
  H  H106  1  0.84011400  0.13016800  0.71304200  1
  H  H107  1  0.15988600  0.86983200  0.28695800  1
  H  H108  1  0.91468600  0.26862800  0.78476000  1
  H  H109  1  0.08531400  0.73137200  0.21524000  1
  H  H110  1  0.76335000  0.35461400  0.91672500  1
  H  H111  1  0.23665000  0.64538600  0.08327500  1
  H  H112  1  0.60025600  0.26472800  0.92652400  1
  H  H113  1  0.39974400  0.73527200  0.07347600  1
  H  H114  1  0.76397000  0.25309000  0.96072600  1
  H  H115  1  0.23603000  0.74691000  0.03927400  1
  H  H116  1  0.18476300  0.18418400  0.81729300  1
  H  H117  1  0.81523700  0.81581600  0.18270700  1
  H  H118  1  0.31912600  0.13883500  0.84478500  1
  H  H119  1  0.68087400  0.86116500  0.15521500  1
  H  H120  1  0.37090700  0.27392000  0.85075000  1
  H  H121  1  0.62909300  0.72608000  0.14925000  1
  H  H122  1  0.23471600  0.28529500  0.63820500  1
  H  H123  1  0.76528400  0.71470500  0.36179500  1
  H  H124  1  0.14378300  0.15588500  0.54998400  1
  H  H125  1  0.85621700  0.84411500  0.45001600  1
  H  H126  1  0.07749500  0.18668300  0.64475700  1
  H  H127  1  0.92250500  0.81331700  0.35524300  1
  H  H128  1  0.15676100  0.95673500  0.56662100  1
  H  H129  1  0.84323900  0.04326500  0.43337900  1
  H  H130  1  0.21699900  0.95071200  0.67488900  1
  H  H131  1  0.78300100  0.04928800  0.32511100  1
  H  H132  1  0.06479300  0.97893000  0.64897500  1
  H  H133  1  0.93520700  0.02107000  0.35102500  1
  C  C134  1  0.53279100  0.40367800  0.58831600  1
  C  C135  1  0.46720900  0.59632200  0.41168400  1
  C  C136  1  0.95261100  0.41937200  0.64611800  1
  C  C137  1  0.04738900  0.58062800  0.35388200  1
  C  C138  1  0.98361000  0.51249900  0.84715700  1
  C  C139  1  0.01639000  0.48750100  0.15284300  1
  C  C140  1  0.88526900  0.66097300  0.60123900  1
  C  C141  1  0.11473100  0.33902700  0.39876100  1
  C  C142  1  0.15840400  0.72921500  0.75193600  1
  C  C143  1  0.84159600  0.27078500  0.24806400  1
  C  C144  1  0.99449200  0.81990400  0.94627000  1
  C  C145  1  0.00550800  0.18009600  0.05373000  1
  C  C146  1  0.91977600  0.91165200  0.80387500  1
  C  C147  1  0.08022400  0.08834800  0.19612500  1
  C  C148  1  0.58915200  0.77091600  0.90471100  1
  C  C149  1  0.41084800  0.22908400  0.09528900  1
  C  C150  1  0.52727400  0.68678900  0.69837500  1
  C  C151  1  0.47272600  0.31321100  0.30162500  1
  C  C152  1  0.36519300  0.47098000  0.80002700  1
  C  C153  1  0.63480700  0.52902000  0.19997300  1
  C  C154  1  0.65213500  0.53194000  0.93503200  1
  C  C155  1  0.34786500  0.46806000  0.06496800  1
  C  C156  1  0.33259500  0.07893900  0.44271100  1
  C  C157  1  0.66740500  0.92106100  0.55728900  1
  C  C158  1  0.65617600  0.16931700  0.47884300  1
  C  C159  1  0.34382400  0.83068300  0.52115700  1
  C  C160  1  0.57074800  0.03377500  0.79842000  1
  C  C161  1  0.42925200  0.96622500  0.20158000  1
  C  C162  1  0.84817900  0.18628500  0.77892700  1
  C  C163  1  0.15182100  0.81371500  0.22107300  1
  C  C164  1  0.70103900  0.27103000  0.90995300  1
  C  C165  1  0.29896100  0.72897000  0.09004700  1
  C  C166  1  0.29147600  0.19014300  0.81177700  1
  C  C167  1  0.70852400  0.80985700  0.18822300  1
  C  C168  1  0.17648900  0.19887400  0.62409200  1
  C  C169  1  0.82351100  0.80112600  0.37590800  1
  C  C170  1  0.17213800  0.99317100  0.63978100  1
  C  C171  1  0.82786200  0.00682900  0.36021900  1
