# generated using pymatgen
data_H29Pd3S3N9O10
_symmetry_space_group_name_H-M   'P 1'
_cell_length_a   6.93365800
_cell_length_b   10.48486323
_cell_length_c   14.22684701
_cell_angle_alpha   93.15862333
_cell_angle_beta   101.18224267
_cell_angle_gamma   91.84137979
_symmetry_Int_Tables_number   1
_chemical_formula_structural   H29Pd3S3N9O10
_chemical_formula_sum   'H58 Pd6 S6 N18 O20'
_cell_volume   1012.12469876
_cell_formula_units_Z   2
loop_
 _symmetry_equiv_pos_site_id
 _symmetry_equiv_pos_as_xyz
  1  'x, y, z'
loop_
 _atom_site_type_symbol
 _atom_site_label
 _atom_site_symmetry_multiplicity
 _atom_site_fract_x
 _atom_site_fract_y
 _atom_site_fract_z
 _atom_site_occupancy
  H  H0  1  0.67978400  0.43161500  0.55430400  1
  H  H1  1  0.32021600  0.56838500  0.44569600  1
  H  H2  1  0.73151100  0.49432100  0.46342200  1
  H  H3  1  0.26848900  0.50567900  0.53657800  1
  H  H4  1  0.01226100  0.00492200  0.11190600  1
  H  H5  1  0.98773900  0.99507800  0.88809400  1
  H  H6  1  0.92180800  0.99492100  0.21220200  1
  H  H7  1  0.07819200  0.00507900  0.78779800  1
  H  H8  1  0.16160900  0.99498300  0.21737800  1
  H  H9  1  0.83839100  0.00501700  0.78262200  1
  H  H10  1  0.98695700  0.51987100  0.09737500  1
  H  H11  1  0.01304300  0.48012900  0.90262500  1
  H  H12  1  0.88638600  0.53727800  0.19510800  1
  H  H13  1  0.11361400  0.46272200  0.80489200  1
  H  H14  1  0.13289100  0.53933300  0.20577200  1
  H  H15  1  0.86710900  0.46066700  0.79422800  1
  H  H16  1  0.13232700  0.85249300  0.34866700  1
  H  H17  1  0.86767300  0.14750700  0.65133300  1
  H  H18  1  0.97899700  0.72631600  0.34634600  1
  H  H19  1  0.02100300  0.27368400  0.65365400  1
  H  H20  1  0.21219700  0.70682200  0.33221800  1
  H  H21  1  0.78780300  0.29317800  0.66778200  1
  H  H22  1  0.48880600  0.99040200  0.11277300  1
  H  H23  1  0.51119400  0.00959800  0.88722700  1
  H  H24  1  0.58956400  0.89276400  0.03982200  1
  H  H25  1  0.41043600  0.10723600  0.96017800  1
  H  H26  1  0.34721600  0.87734200  0.03934400  1
  H  H27  1  0.65278400  0.12265800  0.96065600  1
  H  H28  1  0.46750200  0.53660800  0.10274400  1
  H  H29  1  0.53249800  0.46339200  0.89725600  1
  H  H30  1  0.57792700  0.62996700  0.03609700  1
  H  H31  1  0.42207300  0.37003300  0.96390300  1
  H  H32  1  0.33745100  0.64361500  0.03596800  1
  H  H33  1  0.66254900  0.35638500  0.96403200  1
  H  H34  1  0.09539500  0.73366200  0.82203300  1
  H  H35  1  0.90460500  0.26633800  0.17796700  1
  H  H36  1  0.17192400  0.64936400  0.73460200  1
  H  H37  1  0.82807600  0.35063600  0.26539800  1
  H  H38  1  0.20888600  0.80722400  0.74665000  1
  H  H39  1  0.79111400  0.19277600  0.25335000  1
  H  H40  1  0.61683300  0.78651000  0.48946800  1
  H  H41  1  0.38316700  0.21349000  0.51053200  1
  H  H42  1  0.48065300  0.72359500  0.55842500  1
  H  H43  1  0.51934700  0.27640500  0.44157500  1
  H  H44  1  0.54963000  0.88221900  0.57477200  1
  H  H45  1  0.45037000  0.11778100  0.42522800  1
  H  H46  1  0.74112900  0.70714900  0.82212600  1
  H  H47  1  0.25887100  0.29285100  0.17787400  1
  H  H48  1  0.58624400  0.63636700  0.73056200  1
  H  H49  1  0.41375600  0.36363300  0.26943800  1
  H  H50  1  0.57630800  0.79367800  0.75631500  1
  H  H51  1  0.42369200  0.20632200  0.24368500  1
  H  H52  1  0.91769800  0.81697000  0.48838100  1
  H  H53  1  0.08230200  0.18303000  0.51161900  1
  H  H54  1  0.10162600  0.73271900  0.54123700  1
  H  H55  1  0.89837400  0.26728100  0.45876300  1
  H  H56  1  0.08800300  0.88969900  0.57531000  1
  H  H57  1  0.91199700  0.11030100  0.42469000  1
  Pd  Pd58  1  0.01101600  0.76365700  0.16557100  1
  Pd  Pd59  1  0.98898400  0.23634300  0.83442900  1
  Pd  Pd60  1  0.54192300  0.77094400  0.19266600  1
  Pd  Pd61  1  0.45807700  0.22905600  0.80733400  1
  Pd  Pd62  1  0.84621500  0.75911900  0.65505200  1
  Pd  Pd63  1  0.15378500  0.24088100  0.34494800  1
  S  S64  1  0.92801300  0.75776400  0.00329700  1
  S  S65  1  0.07198700  0.24223600  0.99670300  1
  S  S66  1  0.58699400  0.61305400  0.30032400  1
  S  S67  1  0.41300600  0.38694600  0.69967600  1
  S  S68  1  0.60554000  0.94276700  0.30513100  1
  S  S69  1  0.39446000  0.05723300  0.69486900  1
  N  N70  1  0.02829000  0.96332500  0.17661000  1
  N  N71  1  0.97171000  0.03667500  0.82339000  1
  N  N72  1  0.00345700  0.56518500  0.16420100  1
  N  N73  1  0.99654300  0.43481500  0.83579900  1
  N  N74  1  0.09232700  0.76315600  0.31754800  1
  N  N75  1  0.90767300  0.23684400  0.68245200  1
  N  N76  1  0.48344600  0.89949000  0.08153500  1
  N  N77  1  0.51655400  0.10051000  0.91846500  1
  N  N78  1  0.47126900  0.62602300  0.07768400  1
  N  N79  1  0.52873100  0.37397700  0.92231600  1
  N  N80  1  0.10816400  0.73340300  0.75072400  1
  N  N81  1  0.89183600  0.26659700  0.24927600  1
  N  N82  1  0.59243900  0.79128100  0.55844800  1
  N  N83  1  0.40756100  0.20871900  0.44155200  1
  N  N84  1  0.66983900  0.71937000  0.75304000  1
  N  N85  1  0.33016100  0.28063000  0.24696000  1
  N  N86  1  0.00859400  0.80431800  0.55302400  1
  N  N87  1  0.99140600  0.19568200  0.44697600  1
  O  O88  1  0.81758300  0.87382100  0.97256500  1
  O  O89  1  0.18241700  0.12617900  0.02743500  1
  O  O90  1  0.80207700  0.63881700  0.96582900  1
  O  O91  1  0.19792300  0.36118300  0.03417100  1
  O  O92  1  0.11321000  0.75425100  0.96211400  1
  O  O93  1  0.88679000  0.24574900  0.03788600  1
  O  O94  1  0.38811300  0.57160000  0.32061400  1
  O  O95  1  0.61188700  0.42840000  0.67938600  1
  O  O96  1  0.66254400  0.49951300  0.25008000  1
  O  O97  1  0.33745600  0.50048700  0.74992000  1
  O  O98  1  0.72601200  0.64750500  0.39334000  1
  O  O99  1  0.27398800  0.35249500  0.60666000  1
  O  O100  1  0.59933500  0.06234100  0.24817100  1
  O  O101  1  0.40066500  0.93765900  0.75182900  1
  O  O102  1  0.44831700  0.94783900  0.36357400  1
  O  O103  1  0.55168300  0.05216100  0.63642600  1
  O  O104  1  0.80478900  0.94293300  0.36893800  1
  O  O105  1  0.19521100  0.05706700  0.63106200  1
  O  O106  1  0.72274300  0.41181900  0.49326500  1
  O  O107  1  0.27725700  0.58818100  0.50673500  1
