# generated using pymatgen
data_ZnCu2PO8
_symmetry_space_group_name_H-M   'P 1'
_cell_length_a   8.85019600
_cell_length_b   6.85922500
_cell_length_c   10.29242351
_cell_angle_alpha   83.23457118
_cell_angle_beta   90.00000000
_cell_angle_gamma   90.00000000
_symmetry_Int_Tables_number   1
_chemical_formula_structural   ZnCu2PO8
_chemical_formula_sum   'Zn4 Cu8 P4 O32'
_cell_volume   620.45589607
_cell_formula_units_Z   4
loop_
 _symmetry_equiv_pos_site_id
 _symmetry_equiv_pos_as_xyz
  1  'x, y, z'
loop_
 _atom_site_type_symbol
 _atom_site_label
 _atom_site_symmetry_multiplicity
 _atom_site_fract_x
 _atom_site_fract_y
 _atom_site_fract_z
 _atom_site_occupancy
  Zn  Zn0  1  0.55422900  0.93493700  0.71031100  1
  Zn  Zn1  1  0.05422900  0.06506300  0.78968900  1
  Zn  Zn2  1  0.44577100  0.06506300  0.28968900  1
  Zn  Zn3  1  0.94577100  0.93493700  0.21031100  1
  Cu  Cu4  1  0.57923700  0.50149200  0.61821800  1
  Cu  Cu5  1  0.07923700  0.49850800  0.88178200  1
  Cu  Cu6  1  0.42076300  0.49850800  0.38178200  1
  Cu  Cu7  1  0.92076300  0.50149200  0.11821800  1
  Cu  Cu8  1  0.72273900  0.51871600  0.86184700  1
  Cu  Cu9  1  0.22273900  0.48128400  0.63815300  1
  Cu  Cu10  1  0.27726100  0.48128400  0.13815300  1
  Cu  Cu11  1  0.77726100  0.51871600  0.36184700  1
  P  P12  1  0.73859000  0.91116800  0.44233200  1
  P  P13  1  0.23859000  0.08883200  0.05766800  1
  P  P14  1  0.26141000  0.08883200  0.55766800  1
  P  P15  1  0.76141000  0.91116800  0.94233200  1
  O  O16  1  0.56247200  0.63860700  0.76152100  1
  O  O17  1  0.06247200  0.36139300  0.73847900  1
  O  O18  1  0.43752800  0.36139300  0.23847900  1
  O  O19  1  0.93752800  0.63860700  0.26152100  1
  O  O20  1  0.74062200  0.39820400  0.71298000  1
  O  O21  1  0.24062200  0.60179600  0.78702000  1
  O  O22  1  0.25937800  0.60179600  0.28702000  1
  O  O23  1  0.75937800  0.39820400  0.21298000  1
  O  O24  1  0.60154100  0.40036400  0.45488900  1
  O  O25  1  0.10154100  0.59963600  0.04511100  1
  O  O26  1  0.39845900  0.59963600  0.54511100  1
  O  O27  1  0.89845900  0.40036400  0.95488900  1
  O  O28  1  0.69164200  0.00627500  0.56218700  1
  O  O29  1  0.19164200  0.99372500  0.93781300  1
  O  O30  1  0.30835800  0.99372500  0.43781300  1
  O  O31  1  0.80835800  0.00627500  0.06218700  1
  O  O32  1  0.62747600  0.02765500  0.87218600  1
  O  O33  1  0.12747600  0.97234500  0.62781400  1
  O  O34  1  0.37252400  0.97234500  0.12781400  1
  O  O35  1  0.87252400  0.02765500  0.37218600  1
  O  O36  1  0.79320600  0.69301000  0.49028900  1
  O  O37  1  0.29320600  0.30699000  0.00971100  1
  O  O38  1  0.20679400  0.30699000  0.50971100  1
  O  O39  1  0.70679400  0.69301000  0.99028900  1
  O  O40  1  0.38757400  0.11123100  0.65890400  1
  O  O41  1  0.88757400  0.88876900  0.84109600  1
  O  O42  1  0.61242600  0.88876900  0.34109600  1
  O  O43  1  0.11242600  0.11123100  0.15890400  1
  O  O44  1  0.59969700  0.29904500  0.96405400  1
  O  O45  1  0.09969700  0.70095500  0.53594600  1
  O  O46  1  0.40030300  0.70095500  0.03594600  1
  O  O47  1  0.90030300  0.29904500  0.46405400  1
