# generated using pymatgen
data_Mn(CO)5
_symmetry_space_group_name_H-M   'P 1'
_cell_length_a   9.74108490
_cell_length_b   9.74108490
_cell_length_c   14.56417203
_cell_angle_alpha   56.73413022
_cell_angle_beta   56.73413022
_cell_angle_gamma   44.23550836
_symmetry_Int_Tables_number   1
_chemical_formula_structural   Mn(CO)5
_chemical_formula_sum   'Mn4 C20 O20'
_cell_volume   776.92000609
_cell_formula_units_Z   4
loop_
 _symmetry_equiv_pos_site_id
 _symmetry_equiv_pos_as_xyz
  1  'x, y, z'
loop_
 _atom_site_type_symbol
 _atom_site_label
 _atom_site_symmetry_multiplicity
 _atom_site_fract_x
 _atom_site_fract_y
 _atom_site_fract_z
 _atom_site_occupancy
  Mn  Mn0  1  0.30133600  0.83739900  0.77836800  1
  Mn  Mn1  1  0.16260100  0.69866400  0.72163200  1
  Mn  Mn2  1  0.69866400  0.16260100  0.22163200  1
  Mn  Mn3  1  0.83739900  0.30133600  0.27836800  1
  C  C4  1  0.39257900  0.91641700  0.80712800  1
  C  C5  1  0.08358300  0.60742100  0.69287200  1
  C  C6  1  0.60742100  0.08358300  0.19287200  1
  C  C7  1  0.91641700  0.39257900  0.30712800  1
  C  C8  1  0.30698400  0.64203000  0.91684100  1
  C  C9  1  0.35797000  0.69301600  0.58315900  1
  C  C10  1  0.69301600  0.35797000  0.08315900  1
  C  C11  1  0.64203000  0.30698400  0.41684100  1
  C  C12  1  0.27097900  0.02291800  0.63581300  1
  C  C13  1  0.97708200  0.72902100  0.86418700  1
  C  C14  1  0.72902100  0.97708200  0.36418700  1
  C  C15  1  0.02291700  0.27097900  0.13581300  1
  C  C16  1  0.02977600  0.02358500  0.84269000  1
  C  C17  1  0.97641500  0.97022400  0.65731000  1
  C  C18  1  0.97022400  0.97641500  0.15731000  1
  C  C19  1  0.02358500  0.02977600  0.34269000  1
  C  C20  1  0.56355400  0.63636300  0.71297500  1
  C  C21  1  0.36363700  0.43644600  0.78702500  1
  C  C22  1  0.43644600  0.36363700  0.28702500  1
  C  C23  1  0.63636300  0.56355400  0.21297500  1
  O  O24  1  0.45148400  0.96656800  0.82532500  1
  O  O25  1  0.03343200  0.54851600  0.67467500  1
  O  O26  1  0.54851600  0.03343200  0.17467500  1
  O  O27  1  0.96656800  0.45148400  0.32532500  1
  O  O28  1  0.30801800  0.52224700  0.00408500  1
  O  O29  1  0.47775300  0.69198200  0.49591500  1
  O  O30  1  0.69198200  0.47775300  0.99591500  1
  O  O31  1  0.52224700  0.30801800  0.50408500  1
  O  O32  1  0.24963300  0.14192800  0.54791600  1
  O  O33  1  0.85807200  0.75036700  0.95208400  1
  O  O34  1  0.75036700  0.85807200  0.45208400  1
  O  O35  1  0.14192800  0.24963300  0.04791600  1
  O  O36  1  0.86240000  0.13753700  0.88706900  1
  O  O37  1  0.86246300  0.13760000  0.61293100  1
  O  O38  1  0.13760000  0.86246300  0.11293100  1
  O  O39  1  0.13753700  0.86240000  0.38706900  1
  O  O40  1  0.72697700  0.51156500  0.67278900  1
  O  O41  1  0.48843500  0.27302300  0.82721100  1
  O  O42  1  0.27302300  0.48843500  0.32721100  1
  O  O43  1  0.51156500  0.72697700  0.17278900  1
