# generated using pymatgen
data_Ca2Al2FeSi3O13
_symmetry_space_group_name_H-M   'P 1'
_cell_length_a   5.71351400
_cell_length_b   8.99344060
_cell_length_c   10.39642123
_cell_angle_alpha   116.12851412
_cell_angle_beta   90.00000000
_cell_angle_gamma   90.00000000
_symmetry_Int_Tables_number   1
_chemical_formula_structural   Ca2Al2FeSi3O13
_chemical_formula_sum   'Ca4 Al4 Fe2 Si6 O26'
_cell_volume   479.61941755
_cell_formula_units_Z   2
loop_
 _symmetry_equiv_pos_site_id
 _symmetry_equiv_pos_as_xyz
  1  'x, y, z'
loop_
 _atom_site_type_symbol
 _atom_site_label
 _atom_site_symmetry_multiplicity
 _atom_site_fract_x
 _atom_site_fract_y
 _atom_site_fract_z
 _atom_site_occupancy
  Ca  Ca0  1  0.25000000  0.23941800  0.84857600  1
  Ca  Ca1  1  0.75000000  0.76058300  0.15142400  1
  Ca  Ca2  1  0.25000000  0.40242800  0.57645100  1
  Ca  Ca3  1  0.75000000  0.59757200  0.42354900  1
  Al  Al4  1  0.50000000  0.00000000  0.00000000  1
  Al  Al5  1  0.00000000  0.00000000  0.00000000  1
  Al  Al6  1  0.50000000  0.00000000  0.50000000  1
  Al  Al7  1  0.00000000  0.00000000  0.50000000  1
  Fe  Fe8  1  0.75000000  0.70860300  0.77271700  1
  Fe  Fe9  1  0.25000000  0.29139700  0.22728300  1
  Si  Si10  1  0.25000000  0.66037400  0.95208400  1
  Si  Si11  1  0.75000000  0.33962600  0.04791600  1
  Si  Si12  1  0.75000000  0.31519800  0.72817500  1
  Si  Si13  1  0.25000000  0.68480200  0.27182500  1
  Si  Si14  1  0.25000000  0.81392000  0.67977900  1
  Si  Si15  1  0.75000000  0.18608000  0.32022100  1
  O  O16  1  0.49278900  0.76652900  0.96016700  1
  O  O17  1  0.99278900  0.23347100  0.03983300  1
  O  O18  1  0.50721100  0.23347100  0.03983300  1
  O  O19  1  0.00721100  0.76652900  0.96016700  1
  O  O20  1  0.47893300  0.68943400  0.64060900  1
  O  O21  1  0.97893300  0.31056600  0.35939100  1
  O  O22  1  0.52106700  0.31056600  0.35939100  1
  O  O23  1  0.02106700  0.68943400  0.64060900  1
  O  O24  1  0.51653700  0.20017000  0.66424900  1
  O  O25  1  0.01653700  0.79983000  0.33575100  1
  O  O26  1  0.48346300  0.79983000  0.33575100  1
  O  O27  1  0.98346300  0.20017000  0.66424900  1
  O  O28  1  0.75000000  0.94712100  0.87592900  1
  O  O29  1  0.25000000  0.05287900  0.12407100  1
  O  O30  1  0.25000000  0.95547600  0.85259100  1
  O  O31  1  0.75000000  0.04452400  0.14740900  1
  O  O32  1  0.25000000  0.92802300  0.59151600  1
  O  O33  1  0.75000000  0.07197700  0.40848400  1
  O  O34  1  0.25000000  0.48215900  0.81876800  1
  O  O35  1  0.75000000  0.51784100  0.18123200  1
  O  O36  1  0.75000000  0.47158800  0.69262200  1
  O  O37  1  0.25000000  0.52841200  0.30737800  1
  O  O38  1  0.75000000  0.37271600  0.90259100  1
  O  O39  1  0.25000000  0.62728400  0.09740900  1
  O  O40  1  0.75000000  0.90381300  0.55066100  1
  O  O41  1  0.25000000  0.09618700  0.44933900  1
