# generated using pymatgen
data_SmAgH4C2SO10
_symmetry_space_group_name_H-M   'P 1'
_cell_length_a   14.20465600
_cell_length_b   6.69623400
_cell_length_c   9.06257768
_cell_angle_alpha   82.38615773
_cell_angle_beta   90.00000000
_cell_angle_gamma   90.00000000
_symmetry_Int_Tables_number   1
_chemical_formula_structural   SmAgH4C2SO10
_chemical_formula_sum   'Sm4 Ag4 H16 C8 S4 O40'
_cell_volume   854.41167538
_cell_formula_units_Z   4
loop_
 _symmetry_equiv_pos_site_id
 _symmetry_equiv_pos_as_xyz
  1  'x, y, z'
loop_
 _atom_site_type_symbol
 _atom_site_label
 _atom_site_symmetry_multiplicity
 _atom_site_fract_x
 _atom_site_fract_y
 _atom_site_fract_z
 _atom_site_occupancy
  Sm  Sm0  1  0.90978200  0.22579500  0.21410300  1
  Sm  Sm1  1  0.40978200  0.77420500  0.28589700  1
  Sm  Sm2  1  0.09021800  0.77420500  0.78589700  1
  Sm  Sm3  1  0.59021800  0.22579500  0.71410300  1
  Ag  Ag4  1  0.74543800  0.71566700  0.22698000  1
  Ag  Ag5  1  0.24543800  0.28433300  0.27302000  1
  Ag  Ag6  1  0.25456200  0.28433300  0.77302000  1
  Ag  Ag7  1  0.75456200  0.71566700  0.72698000  1
  H  H8  1  0.09868900  0.32361700  0.04652900  1
  H  H9  1  0.59868900  0.67638300  0.45347100  1
  H  H10  1  0.90131100  0.67638300  0.95347100  1
  H  H11  1  0.40131100  0.32361700  0.54652900  1
  H  H12  1  0.09771000  0.09043800  0.09841400  1
  H  H13  1  0.59771000  0.90956200  0.40158600  1
  H  H14  1  0.90229000  0.90956200  0.90158600  1
  H  H15  1  0.40229000  0.09043800  0.59841400  1
  H  H16  1  0.02339300  0.20248300  0.52256000  1
  H  H17  1  0.52339300  0.79751700  0.97744000  1
  H  H18  1  0.97660700  0.79751700  0.47744000  1
  H  H19  1  0.47660700  0.20248300  0.02256000  1
  H  H20  1  0.05013300  0.39880000  0.41045100  1
  H  H21  1  0.55013300  0.60120000  0.08954900  1
  H  H22  1  0.94986700  0.60120000  0.58954900  1
  H  H23  1  0.44986700  0.39880000  0.91045100  1
  C  C24  1  0.77825100  0.12333900  0.51689000  1
  C  C25  1  0.27825100  0.87666100  0.98311000  1
  C  C26  1  0.22174900  0.87666100  0.48311000  1
  C  C27  1  0.72174900  0.12333900  0.01689000  1
  C  C28  1  0.76325200  0.35121900  0.47460800  1
  C  C29  1  0.26325200  0.64878100  0.02539200  1
  C  C30  1  0.23674800  0.64878100  0.52539200  1
  C  C31  1  0.73674800  0.35121900  0.97460800  1
  S  S32  1  0.97339700  0.27204800  0.80767500  1
  S  S33  1  0.47339700  0.72795200  0.69232500  1
  S  S34  1  0.02660300  0.72795200  0.19232500  1
  S  S35  1  0.52660300  0.27204800  0.30767500  1
  O  O36  1  0.70593600  0.43924600  0.55061100  1
  O  O37  1  0.20593600  0.56075400  0.94938900  1
  O  O38  1  0.29406400  0.56075400  0.44938900  1
  O  O39  1  0.79406400  0.43924600  0.05061100  1
  O  O40  1  0.83308400  0.03580200  0.43790100  1
  O  O41  1  0.33308400  0.96419800  0.06209900  1
  O  O42  1  0.16691600  0.96419800  0.56209900  1
  O  O43  1  0.66691600  0.03580200  0.93790100  1
  O  O44  1  0.09085600  0.22285900  0.13515900  1
  O  O45  1  0.59085600  0.77714100  0.36484100  1
  O  O46  1  0.90914400  0.77714100  0.86484100  1
  O  O47  1  0.40914400  0.22285900  0.63515900  1
  O  O48  1  0.92732900  0.16628400  0.94523400  1
  O  O49  1  0.42732900  0.83371600  0.55476600  1
  O  O50  1  0.07267100  0.83371600  0.05476600  1
  O  O51  1  0.57267100  0.16628400  0.44523400  1
  O  O52  1  0.03755700  0.43143900  0.85215800  1
  O  O53  1  0.53755700  0.56856100  0.64784200  1
  O  O54  1  0.96244300  0.56856100  0.14784200  1
  O  O55  1  0.46244300  0.43143900  0.35215800  1
  O  O56  1  0.90358200  0.36212800  0.69981300  1
  O  O57  1  0.40358200  0.63787200  0.80018700  1
  O  O58  1  0.09641800  0.63787200  0.30018700  1
  O  O59  1  0.59641800  0.36212800  0.19981300  1
  O  O60  1  0.03186600  0.11910200  0.74129800  1
  O  O61  1  0.53186600  0.88089800  0.75870200  1
  O  O62  1  0.96813400  0.88089800  0.25870200  1
  O  O63  1  0.46813400  0.11910200  0.24129800  1
  O  O64  1  0.01227100  0.27404400  0.42255300  1
  O  O65  1  0.51227100  0.72595600  0.07744700  1
  O  O66  1  0.98772900  0.72595600  0.57744700  1
  O  O67  1  0.48772900  0.27404400  0.92255300  1
  O  O68  1  0.73037100  0.04154500  0.62850300  1
  O  O69  1  0.23037100  0.95845500  0.87149700  1
  O  O70  1  0.26962900  0.95845500  0.37149700  1
  O  O71  1  0.76962900  0.04154500  0.12850300  1
  O  O72  1  0.80897300  0.43160100  0.36140700  1
  O  O73  1  0.30897300  0.56839900  0.13859300  1
  O  O74  1  0.19102700  0.56839900  0.63859300  1
  O  O75  1  0.69102700  0.43160100  0.86140700  1
