# generated using pymatgen
data_Ni(SN)4
_symmetry_space_group_name_H-M   'P 1'
_cell_length_a   14.73688500
_cell_length_b   8.53147400
_cell_length_c   12.98009092
_cell_angle_alpha   89.15131759
_cell_angle_beta   90.00000000
_cell_angle_gamma   90.00000000
_symmetry_Int_Tables_number   1
_chemical_formula_structural   Ni(SN)4
_chemical_formula_sum   'Ni8 S32 N32'
_cell_volume   1631.77342426
_cell_formula_units_Z   8
loop_
 _symmetry_equiv_pos_site_id
 _symmetry_equiv_pos_as_xyz
  1  'x, y, z'
loop_
 _atom_site_type_symbol
 _atom_site_label
 _atom_site_symmetry_multiplicity
 _atom_site_fract_x
 _atom_site_fract_y
 _atom_site_fract_z
 _atom_site_occupancy
  Ni  Ni0  1  0.37611400  0.30247400  0.86230300  1
  Ni  Ni1  1  0.87611400  0.19752600  0.13769700  1
  Ni  Ni2  1  0.62388600  0.69752600  0.13769700  1
  Ni  Ni3  1  0.12388600  0.80247400  0.86230300  1
  Ni  Ni4  1  0.37306000  0.87188900  0.36378300  1
  Ni  Ni5  1  0.87306000  0.62811100  0.63621700  1
  Ni  Ni6  1  0.62694000  0.12811100  0.63621700  1
  Ni  Ni7  1  0.12694000  0.37188900  0.36378300  1
  S  S8  1  0.39163800  0.53804500  0.90619200  1
  S  S9  1  0.89163800  0.96195500  0.09380800  1
  S  S10  1  0.60836200  0.46195500  0.09380800  1
  S  S11  1  0.10836200  0.03804500  0.90619200  1
  S  S12  1  0.37085200  0.53951000  0.69962600  1
  S  S13  1  0.87085200  0.96049000  0.30037400  1
  S  S14  1  0.62914800  0.46049000  0.30037400  1
  S  S15  1  0.12914800  0.03951000  0.69962600  1
  S  S16  1  0.36991400  0.24528800  0.02152000  1
  S  S17  1  0.86991400  0.25471200  0.97848000  1
  S  S18  1  0.63008600  0.75471200  0.97848000  1
  S  S19  1  0.13008600  0.74528800  0.02152000  1
  S  S20  1  0.37241000  0.97242300  0.91860900  1
  S  S21  1  0.87241000  0.52757700  0.08139100  1
  S  S22  1  0.62759000  0.02757700  0.08139100  1
  S  S23  1  0.12759000  0.47242300  0.91860900  1
  S  S24  1  0.36344200  0.92304200  0.52244300  1
  S  S25  1  0.86344200  0.57695800  0.47755700  1
  S  S26  1  0.63655800  0.07695800  0.47755700  1
  S  S27  1  0.13655800  0.42304200  0.52244300  1
  S  S28  1  0.37754900  0.20043100  0.42053700  1
  S  S29  1  0.87754900  0.29956900  0.57946300  1
  S  S30  1  0.62245100  0.79956900  0.57946300  1
  S  S31  1  0.12245100  0.70043200  0.42053700  1
  S  S32  1  0.38472900  0.63166000  0.40558100  1
  S  S33  1  0.88472900  0.86834000  0.59441900  1
  S  S34  1  0.61527100  0.36834000  0.59441900  1
  S  S35  1  0.11527100  0.13166000  0.40558100  1
  S  S36  1  0.36493800  0.64449400  0.19919100  1
  S  S37  1  0.86493800  0.85550600  0.80080900  1
  S  S38  1  0.63506200  0.35550600  0.80080900  1
  S  S39  1  0.13506200  0.14449400  0.19919100  1
  N  N40  1  0.36621100  0.36329400  0.72606000  1
  N  N41  1  0.86621100  0.13670600  0.27394000  1
  N  N42  1  0.63378900  0.63670600  0.27394000  1
  N  N43  1  0.13378900  0.86329400  0.72606000  1
  N  N44  1  0.38788600  0.64451400  0.80090100  1
  N  N45  1  0.88788600  0.85548600  0.19909900  1
  N  N46  1  0.61211400  0.35548600  0.19909900  1
  N  N47  1  0.11211400  0.14451400  0.80090100  1
  N  N48  1  0.37614300  0.09353300  0.82944500  1
  N  N49  1  0.87614300  0.40646700  0.17055500  1
  N  N50  1  0.62385700  0.90646700  0.17055500  1
  N  N51  1  0.12385700  0.59353300  0.82944500  1
  N  N52  1  0.36657600  0.05584800  0.03013700  1
  N  N53  1  0.86657600  0.44415200  0.96986300  1
  N  N54  1  0.63342400  0.94415200  0.96986300  1
  N  N55  1  0.13342400  0.55584800  0.03013700  1
  N  N56  1  0.38061400  0.08276500  0.33135300  1
  N  N57  1  0.88061400  0.41723500  0.66864700  1
  N  N58  1  0.61938600  0.91723500  0.66864700  1
  N  N59  1  0.11938600  0.58276500  0.33135300  1
  N  N60  1  0.36588000  0.11242800  0.53159900  1
  N  N61  1  0.86588000  0.38757200  0.46840100  1
  N  N62  1  0.63412000  0.88757200  0.46840100  1
  N  N63  1  0.13412000  0.61242800  0.53159900  1
  N  N64  1  0.36212200  0.81871200  0.22783000  1
  N  N65  1  0.86212200  0.68128800  0.77217000  1
  N  N66  1  0.63787800  0.18128800  0.77217000  1
  N  N67  1  0.13787800  0.31871200  0.22783000  1
  N  N68  1  0.38017200  0.53156300  0.29953900  1
  N  N69  1  0.88017200  0.96843700  0.70046100  1
  N  N70  1  0.61982800  0.46843700  0.70046100  1
  N  N71  1  0.11982800  0.03156300  0.29953900  1
