# generated using pymatgen
data_UH18C7(N2O3)4
_symmetry_space_group_name_H-M   'P 1'
_cell_length_a   7.56238300
_cell_length_b   9.93677251
_cell_length_c   14.62504424
_cell_angle_alpha   73.11467458
_cell_angle_beta   78.37270918
_cell_angle_gamma   71.55272695
_symmetry_Int_Tables_number   1
_chemical_formula_structural   UH18C7(N2O3)4
_chemical_formula_sum   'U2 H36 C14 N16 O24'
_cell_volume   990.28765513
_cell_formula_units_Z   2
loop_
 _symmetry_equiv_pos_site_id
 _symmetry_equiv_pos_as_xyz
  1  'x, y, z'
loop_
 _atom_site_type_symbol
 _atom_site_label
 _atom_site_symmetry_multiplicity
 _atom_site_fract_x
 _atom_site_fract_y
 _atom_site_fract_z
 _atom_site_occupancy
  U  U0  1  0.76208900  0.76936800  0.79409000  1
  U  U1  1  0.23791100  0.23063200  0.20591000  1
  H  H2  1  0.69896500  0.27436700  0.07616300  1
  H  H3  1  0.30103500  0.72563300  0.92383700  1
  H  H4  1  0.72759400  0.28166500  0.95448400  1
  H  H5  1  0.27240600  0.71833500  0.04551600  1
  H  H6  1  0.70927200  0.47954500  0.12833900  1
  H  H7  1  0.29072800  0.52045500  0.87166100  1
  H  H8  1  0.74841500  0.63183700  0.03869400  1
  H  H9  1  0.25158500  0.36816300  0.96130600  1
  H  H10  1  0.85888100  0.81262400  0.11256100  1
  H  H11  1  0.14111900  0.18737600  0.88743900  1
  H  H12  1  0.00857400  0.63859100  0.16189300  1
  H  H13  1  0.99142600  0.36140900  0.83810700  1
  H  H14  1  0.68189800  0.96616000  0.21269300  1
  H  H15  1  0.31810200  0.03384000  0.78730700  1
  H  H16  1  0.71876400  0.91291900  0.33442500  1
  H  H17  1  0.28123600  0.08708100  0.66557500  1
  H  H18  1  0.03927000  0.57199200  0.32589000  1
  H  H19  1  0.96073000  0.42800800  0.67411000  1
  H  H20  1  0.89350400  0.68054700  0.40150500  1
  H  H21  1  0.10649600  0.31945300  0.59849500  1
  H  H22  1  0.28948600  0.90728600  0.56511700  1
  H  H23  1  0.71051400  0.09271400  0.43488300  1
  H  H24  1  0.24883400  0.76303900  0.66047200  1
  H  H25  1  0.75116600  0.23696100  0.33952800  1
  H  H26  1  0.26660400  0.52783700  0.51822800  1
  H  H27  1  0.73339600  0.47216300  0.48177200  1
  H  H28  1  0.32859900  0.52738300  0.62800200  1
  H  H29  1  0.67140100  0.47261700  0.37199800  1
  H  H30  1  0.27804200  0.89754700  0.40963400  1
  H  H31  1  0.72195800  0.10245300  0.59036600  1
  H  H32  1  0.29842200  0.72945900  0.38680600  1
  H  H33  1  0.70157800  0.27054100  0.61319400  1
  H  H34  1  0.41775200  0.49313000  0.28275400  1
  H  H35  1  0.58224800  0.50687000  0.71724600  1
  H  H36  1  0.45064200  0.64506600  0.22800500  1
  H  H37  1  0.54935800  0.35493400  0.77199500  1
  C  C38  1  0.73820700  0.94971900  0.95319900  1
  C  C39  1  0.26179300  0.05028100  0.04680100  1
  C  C40  1  0.70180100  0.07177600  0.85839400  1
  C  C41  1  0.29819900  0.92822400  0.14160600  1
  C  C42  1  0.75277300  0.83886100  0.55864900  1
  C  C43  1  0.24722700  0.16113900  0.44135100  1
  C  C44  1  0.77526300  0.67227000  0.59345200  1
  C  C45  1  0.22473700  0.32773000  0.40654800  1
  C  C46  1  0.75713700  0.46142600  0.98685600  1
  C  C47  1  0.24286300  0.53857400  0.01314400  1
  C  C48  1  0.86899900  0.76436900  0.25726900  1
  C  C49  1  0.13100100  0.23563100  0.74273100  1
  C  C50  1  0.28927600  0.72315600  0.52895300  1
  C  C51  1  0.71072400  0.27684400  0.47104700  1
  N  N52  1  0.74017800  0.32516300  0.00764200  1
  N  N53  1  0.25982200  0.67483700  0.99235800  1
  N  N54  1  0.74327400  0.52589200  0.05788400  1
  N  N55  1  0.25672600  0.47410800  0.94211600  1
  N  N56  1  0.90931600  0.73228100  0.17148800  1
  N  N57  1  0.09068400  0.26771900  0.82851200  1
  N  N58  1  0.74615500  0.89120200  0.26831900  1
  N  N59  1  0.25384500  0.10879800  0.73168100  1
  N  N60  1  0.95095800  0.67090000  0.33322600  1
  N  N61  1  0.04904200  0.32910000  0.66677400  1
  N  N62  1  0.30228500  0.79647500  0.59055500  1
  N  N63  1  0.69771500  0.20352500  0.40944500  1
  N  N64  1  0.27935100  0.58499400  0.56331900  1
  N  N65  1  0.72064900  0.41500600  0.43668100  1
  N  N66  1  0.28686400  0.78803700  0.43518400  1
  N  N67  1  0.71313600  0.21196300  0.56481600  1
  O  O68  1  0.01633200  0.73697400  0.77175500  1
  O  O69  1  0.98366800  0.26302600  0.22824500  1
  O  O70  1  0.50743600  0.80260400  0.81302200  1
  O  O71  1  0.49256400  0.19739600  0.18697800  1
  O  O72  1  0.75861400  0.82023600  0.94222900  1
  O  O73  1  0.24138600  0.17976400  0.05777100  1
  O  O74  1  0.74412100  0.90070800  0.62614200  1
  O  O75  1  0.25587900  0.09929200  0.37385800  1
  O  O76  1  0.79270800  0.52949300  0.89827900  1
  O  O77  1  0.20729200  0.47050700  0.10172100  1
  O  O78  1  0.77774000  0.61993400  0.68558600  1
  O  O79  1  0.22226000  0.38006600  0.31441400  1
  O  O80  1  0.71252900  0.02102600  0.78525600  1
  O  O81  1  0.28747100  0.97897400  0.21474400  1
  O  O82  1  0.79051900  0.59982700  0.53455200  1
  O  O83  1  0.20948100  0.40017300  0.46544800  1
  O  O84  1  0.74594300  0.97883300  0.02893300  1
  O  O85  1  0.25405700  0.02116700  0.97106700  1
  O  O86  1  0.74507500  0.90026000  0.47148900  1
  O  O87  1  0.25492500  0.09974000  0.52851100  1
  O  O88  1  0.66585500  0.20330400  0.85840800  1
  O  O89  1  0.33414500  0.79669600  0.14159200  1
  O  O90  1  0.50854900  0.54989400  0.27131500  1
  O  O91  1  0.49145100  0.45010600  0.72868500  1
