# generated using pymatgen
data_PH15C3SN6
_symmetry_space_group_name_H-M   'P 1'
_cell_length_a   9.76345600
_cell_length_b   9.76345607
_cell_length_c   7.75253100
_cell_angle_alpha   90.00000000
_cell_angle_beta   90.00000000
_cell_angle_gamma   119.99999978
_symmetry_Int_Tables_number   1
_chemical_formula_structural   PH15C3SN6
_chemical_formula_sum   'P2 H30 C6 S2 N12'
_cell_volume   640.00194511
_cell_formula_units_Z   2
loop_
 _symmetry_equiv_pos_site_id
 _symmetry_equiv_pos_as_xyz
  1  'x, y, z'
loop_
 _atom_site_type_symbol
 _atom_site_label
 _atom_site_symmetry_multiplicity
 _atom_site_fract_x
 _atom_site_fract_y
 _atom_site_fract_z
 _atom_site_occupancy
  P  P0  1  0.33333300  0.66666700  0.33087100  1
  P  P1  1  0.66666700  0.33333300  0.83087100  1
  H  H2  1  0.29136400  0.28050400  0.38229700  1
  H  H3  1  0.71949600  0.01086000  0.38229700  1
  H  H4  1  0.98914000  0.70863600  0.38229700  1
  H  H5  1  0.70863600  0.71949600  0.88229700  1
  H  H6  1  0.28050400  0.98914000  0.88229700  1
  H  H7  1  0.01086000  0.29136400  0.88229700  1
  H  H8  1  0.19276300  0.34358700  0.23598400  1
  H  H9  1  0.65641300  0.84917600  0.23598400  1
  H  H10  1  0.15082400  0.80723700  0.23598400  1
  H  H11  1  0.80723700  0.65641300  0.73598400  1
  H  H12  1  0.34358700  0.15082400  0.73598400  1
  H  H13  1  0.84917600  0.19276300  0.73598400  1
  H  H14  1  0.12843600  0.30214500  0.45651800  1
  H  H15  1  0.69785500  0.82629100  0.45651800  1
  H  H16  1  0.17370900  0.87156400  0.45651800  1
  H  H17  1  0.87156400  0.69785500  0.95651800  1
  H  H18  1  0.30214500  0.17370900  0.95651800  1
  H  H19  1  0.82629100  0.12843600  0.95651800  1
  H  H20  1  0.32567900  0.49549800  0.67128000  1
  H  H21  1  0.50450200  0.83018000  0.67128000  1
  H  H22  1  0.16982000  0.67432100  0.67128000  1
  H  H23  1  0.67432100  0.50450200  0.17128000  1
  H  H24  1  0.49549800  0.16982000  0.17128000  1
  H  H25  1  0.83018000  0.32567900  0.17128000  1
  H  H26  1  0.47752500  0.48296900  0.58681700  1
  H  H27  1  0.51703100  0.99455600  0.58681700  1
  H  H28  1  0.00544400  0.52247500  0.58681700  1
  H  H29  1  0.52247500  0.51703100  0.08681700  1
  H  H30  1  0.48296900  0.00544400  0.08681700  1
  H  H31  1  0.99455600  0.47752500  0.08681700  1
  C  C32  1  0.23225100  0.35073900  0.36993600  1
  C  C33  1  0.64926100  0.88151300  0.36993600  1
  C  C34  1  0.11848700  0.76774900  0.36993600  1
  C  C35  1  0.76774900  0.64926100  0.86993600  1
  C  C36  1  0.35073900  0.11848700  0.86993600  1
  C  C37  1  0.88151300  0.23225100  0.86993600  1
  S  S38  1  0.33333300  0.66666700  0.07687200  1
  S  S39  1  0.66666700  0.33333300  0.57687200  1
  N  N40  1  0.41412500  0.54081100  0.58014900  1
  N  N41  1  0.45918900  0.87331400  0.58014900  1
  N  N42  1  0.12668600  0.58587500  0.58014900  1
  N  N43  1  0.58587500  0.45918900  0.08014900  1
  N  N44  1  0.54081100  0.12668600  0.08014900  1
  N  N45  1  0.87331400  0.41412500  0.08014900  1
  N  N46  1  0.34640700  0.51457100  0.41293700  1
  N  N47  1  0.48542900  0.83183600  0.41293700  1
  N  N48  1  0.16816400  0.65359300  0.41293700  1
  N  N49  1  0.65359300  0.48542900  0.91293700  1
  N  N50  1  0.51457100  0.16816400  0.91293700  1
  N  N51  1  0.83183600  0.34640700  0.91293700  1
