# generated using pymatgen
data_Zn3(AsO5)2
_symmetry_space_group_name_H-M   'P 1'
_cell_length_a   6.59427600
_cell_length_b   9.25017061
_cell_length_c   14.71673851
_cell_angle_alpha   101.77047900
_cell_angle_beta   99.92950915
_cell_angle_gamma   108.98252976
_symmetry_Int_Tables_number   1
_chemical_formula_structural   Zn3(AsO5)2
_chemical_formula_sum   'Zn12 As8 O40'
_cell_volume   802.90320108
_cell_formula_units_Z   4
loop_
 _symmetry_equiv_pos_site_id
 _symmetry_equiv_pos_as_xyz
  1  'x, y, z'
loop_
 _atom_site_type_symbol
 _atom_site_label
 _atom_site_symmetry_multiplicity
 _atom_site_fract_x
 _atom_site_fract_y
 _atom_site_fract_z
 _atom_site_occupancy
  Zn  Zn0  1  0.80024400  0.98063300  0.42394800  1
  Zn  Zn1  1  0.19975600  0.01936700  0.57605200  1
  Zn  Zn2  1  0.29367800  0.45413000  0.90800300  1
  Zn  Zn3  1  0.70632200  0.54587000  0.09199700  1
  Zn  Zn4  1  0.62804100  0.34148100  0.60170200  1
  Zn  Zn5  1  0.37195900  0.65851900  0.39829800  1
  Zn  Zn6  1  0.16507700  0.77309900  0.93427300  1
  Zn  Zn7  1  0.83492300  0.22690100  0.06572700  1
  Zn  Zn8  1  0.33707600  0.32812800  0.26546900  1
  Zn  Zn9  1  0.66292400  0.67187200  0.73453100  1
  Zn  Zn10  1  0.87467500  0.09249400  0.84770600  1
  Zn  Zn11  1  0.12532500  0.90750600  0.15229400  1
  As  As12  1  0.64857000  0.93470700  0.61562700  1
  As  As13  1  0.35143000  0.06529300  0.38437300  1
  As  As14  1  0.81521700  0.62032500  0.32726200  1
  As  As15  1  0.18478300  0.37967500  0.67273800  1
  As  As16  1  0.23635300  0.57660000  0.13806100  1
  As  As17  1  0.76364700  0.42340000  0.86193900  1
  As  As18  1  0.28808700  0.17114900  0.03762700  1
  As  As19  1  0.71191300  0.82885100  0.96237300  1
  O  O20  1  0.87818300  0.99781900  0.57050300  1
  O  O21  1  0.12181700  0.00218100  0.42949700  1
  O  O22  1  0.69969500  0.73649400  0.39350700  1
  O  O23  1  0.30030500  0.26350600  0.60649300  1
  O  O24  1  0.47099500  0.92465400  0.38105500  1
  O  O25  1  0.52900500  0.07534600  0.61894500  1
  O  O26  1  0.88125900  0.22295600  0.44689100  1
  O  O27  1  0.11874100  0.77704400  0.55310900  1
  O  O28  1  0.76188000  0.01979800  0.24201300  1
  O  O29  1  0.23812000  0.98020200  0.75798700  1
  O  O30  1  0.38002900  0.50687500  0.06330400  1
  O  O31  1  0.61997100  0.49312500  0.93669600  1
  O  O32  1  0.04231900  0.54023800  0.91468400  1
  O  O33  1  0.95768100  0.45976200  0.08531600  1
  O  O34  1  0.13846700  0.31619000  0.77195100  1
  O  O35  1  0.86153300  0.68381000  0.22804900  1
  O  O36  1  0.93005400  0.34278900  0.59564000  1
  O  O37  1  0.06994600  0.65721100  0.40436000  1
  O  O38  1  0.53980700  0.24913300  0.45307400  1
  O  O39  1  0.46019300  0.75086700  0.54692600  1
  O  O40  1  0.30759200  0.54606800  0.24849800  1
  O  O41  1  0.69240800  0.45393200  0.75150200  1
  O  O42  1  0.18908200  0.84358300  0.76680700  1
  O  O43  1  0.81091800  0.15641700  0.23319300  1
  O  O44  1  0.15071500  0.22074200  0.12387200  1
  O  O45  1  0.84928500  0.77925800  0.87612800  1
  O  O46  1  0.24342800  0.97399100  0.03387000  1
  O  O47  1  0.75657200  0.02600900  0.96613000  1
  O  O48  1  0.56697600  0.27528300  0.08159800  1
  O  O49  1  0.43302400  0.72471700  0.91840200  1
  O  O50  1  0.66244600  0.42134400  0.29771600  1
  O  O51  1  0.33755400  0.57865600  0.70228400  1
  O  O52  1  0.72777700  0.58629300  0.61210300  1
  O  O53  1  0.27222300  0.41370700  0.38789700  1
  O  O54  1  0.73570600  0.91416900  0.72934800  1
  O  O55  1  0.26429400  0.08583100  0.27065200  1
  O  O56  1  0.18496100  0.19590100  0.92871000  1
  O  O57  1  0.81503900  0.80409900  0.07129000  1
  O  O58  1  0.29272100  0.77026800  0.14235900  1
  O  O59  1  0.70727900  0.22973200  0.85764100  1
