# generated using pymatgen
data_Eu5B3O9F
_symmetry_space_group_name_H-M   'P 1'
_cell_length_a   7.22991700
_cell_length_b   9.86746500
_cell_length_c   14.16036800
_cell_angle_alpha   90.00000000
_cell_angle_beta   90.00000000
_cell_angle_gamma   90.00000000
_symmetry_Int_Tables_number   1
_chemical_formula_structural   Eu5B3O9F
_chemical_formula_sum   'Eu20 B12 O36 F4'
_cell_volume   1010.21414725
_cell_formula_units_Z   4
loop_
 _symmetry_equiv_pos_site_id
 _symmetry_equiv_pos_as_xyz
  1  'x, y, z'
loop_
 _atom_site_type_symbol
 _atom_site_label
 _atom_site_symmetry_multiplicity
 _atom_site_fract_x
 _atom_site_fract_y
 _atom_site_fract_z
 _atom_site_occupancy
  Eu  Eu0  1  0.71310600  0.01958800  0.75000000  1
  Eu  Eu1  1  0.21310600  0.48041200  0.75000000  1
  Eu  Eu2  1  0.28689400  0.98041200  0.25000000  1
  Eu  Eu3  1  0.78689400  0.51958800  0.25000000  1
  Eu  Eu4  1  0.47114100  0.74707900  0.88801200  1
  Eu  Eu5  1  0.97114100  0.75292100  0.61198800  1
  Eu  Eu6  1  0.52885900  0.25292100  0.38801200  1
  Eu  Eu7  1  0.02885900  0.24707900  0.11198800  1
  Eu  Eu8  1  0.52885900  0.25292100  0.11198800  1
  Eu  Eu9  1  0.02885900  0.24707900  0.38801200  1
  Eu  Eu10  1  0.47114100  0.74707900  0.61198800  1
  Eu  Eu11  1  0.97114100  0.75292100  0.88801200  1
  Eu  Eu12  1  0.74901700  0.37351700  0.88018300  1
  Eu  Eu13  1  0.24901700  0.12648300  0.61981700  1
  Eu  Eu14  1  0.25098300  0.62648300  0.38018300  1
  Eu  Eu15  1  0.75098300  0.87351700  0.11981700  1
  Eu  Eu16  1  0.25098300  0.62648300  0.11981700  1
  Eu  Eu17  1  0.75098300  0.87351700  0.38018300  1
  Eu  Eu18  1  0.74901700  0.37351700  0.61981700  1
  Eu  Eu19  1  0.24901700  0.12648300  0.88018300  1
  B  B20  1  0.71781200  0.61150100  0.75000000  1
  B  B21  1  0.21781200  0.88849900  0.75000000  1
  B  B22  1  0.28218800  0.38849900  0.25000000  1
  B  B23  1  0.78218800  0.11150100  0.25000000  1
  B  B24  1  0.80039700  0.56107800  0.03870200  1
  B  B25  1  0.30039700  0.93892200  0.46129800  1
  B  B26  1  0.19960300  0.43892200  0.53870200  1
  B  B27  1  0.69960300  0.06107800  0.96129800  1
  B  B28  1  0.19960300  0.43892200  0.96129800  1
  B  B29  1  0.69960300  0.06107800  0.53870200  1
  B  B30  1  0.80039700  0.56107800  0.46129800  1
  B  B31  1  0.30039700  0.93892200  0.03870200  1
  O  O32  1  0.88610700  0.54435400  0.75000000  1
  O  O33  1  0.38610700  0.95564600  0.75000000  1
  O  O34  1  0.11389300  0.45564600  0.25000000  1
  O  O35  1  0.61389300  0.04435400  0.25000000  1
  O  O36  1  0.71590300  0.75327400  0.75000000  1
  O  O37  1  0.21590300  0.74672600  0.75000000  1
  O  O38  1  0.28409700  0.24672600  0.25000000  1
  O  O39  1  0.78409700  0.25327400  0.25000000  1
  O  O40  1  0.55467100  0.53798000  0.75000000  1
  O  O41  1  0.05467100  0.96202000  0.75000000  1
  O  O42  1  0.44532900  0.46202000  0.25000000  1
  O  O43  1  0.94532900  0.03798000  0.25000000  1
  O  O44  1  0.71738900  0.60350300  0.95526900  1
  O  O45  1  0.21738900  0.89649700  0.54473100  1
  O  O46  1  0.28261100  0.39649700  0.45526900  1
  O  O47  1  0.78261100  0.10350300  0.04473100  1
  O  O48  1  0.28261100  0.39649700  0.04473100  1
  O  O49  1  0.78261100  0.10350300  0.45526900  1
  O  O50  1  0.71738900  0.60350300  0.54473100  1
  O  O51  1  0.21738900  0.89649700  0.95526900  1
  O  O52  1  0.90935600  0.65153000  0.09026100  1
  O  O53  1  0.40935600  0.84847000  0.40973900  1
  O  O54  1  0.09064400  0.34847000  0.59026100  1
  O  O55  1  0.59064400  0.15153000  0.90973900  1
  O  O56  1  0.09064400  0.34847000  0.90973900  1
  O  O57  1  0.59064400  0.15153000  0.59026100  1
  O  O58  1  0.90935600  0.65153000  0.40973900  1
  O  O59  1  0.40935600  0.84847000  0.09026100  1
  O  O60  1  0.77829100  0.42737200  0.06872300  1
  O  O61  1  0.27829100  0.07262800  0.43127700  1
  O  O62  1  0.22170900  0.57262800  0.56872300  1
  O  O63  1  0.72170900  0.92737200  0.93127700  1
  O  O64  1  0.22170900  0.57262800  0.93127700  1
  O  O65  1  0.72170900  0.92737200  0.56872300  1
  O  O66  1  0.77829100  0.42737200  0.43127700  1
  O  O67  1  0.27829100  0.07262800  0.06872300  1
  F  F68  1  0.87601400  0.23524100  0.75000000  1
  F  F69  1  0.37601400  0.26475900  0.75000000  1
  F  F70  1  0.12398600  0.76475900  0.25000000  1
  F  F71  1  0.62398600  0.73524100  0.25000000  1
