data_image0
_chemical_formula_structural       Ge4La2Pd2
_chemical_formula_sum              "Ge4 La2 Pd2"
_cell_length_a       4.3997
_cell_length_b       4.44011
_cell_length_c       9.04145
_cell_angle_alpha    90
_cell_angle_beta     75.9182
_cell_angle_gamma    90

_space_group_name_H-M_alt    "P 1"
_space_group_IT_number       1

loop_
  _space_group_symop_operation_xyz
  'x, y, z'

loop_
  _atom_site_type_symbol
  _atom_site_label
  _atom_site_symmetry_multiplicity
  _atom_site_fract_x
  _atom_site_fract_y
  _atom_site_fract_z
  _atom_site_occupancy
  Ge  Ge1       1.0  0.46400  0.75000  0.07190  1.0000
  Ge  Ge2       1.0  0.25000  0.25000  0.49900  1.0000
  Ge  Ge3       1.0  0.75000  0.75000  0.50100  1.0000
  Ge  Ge4       1.0  0.53600  0.25000  0.92800  1.0000
  La  La1       1.0  0.89200  0.25000  0.21600  1.0000
  La  La2       1.0  0.10800  0.75000  0.78400  1.0000
  Pd  Pd1       1.0  0.32300  0.75000  0.35400  1.0000
  Pd  Pd2       1.0  0.67700  0.25000  0.64600  1.0000
