# generated using pymatgen
data_Ba(ReO6)2
_symmetry_space_group_name_H-M   'P 1'
_cell_length_a   12.62086500
_cell_length_b   7.43840400
_cell_length_c   13.89312594
_cell_angle_alpha   58.11431127
_cell_angle_beta   90.00000000
_cell_angle_gamma   90.00000000
_symmetry_Int_Tables_number   1
_chemical_formula_structural   Ba(ReO6)2
_chemical_formula_sum   'Ba4 Re8 O48'
_cell_volume   1107.46386836
_cell_formula_units_Z   4
loop_
 _symmetry_equiv_pos_site_id
 _symmetry_equiv_pos_as_xyz
  1  'x, y, z'
loop_
 _atom_site_type_symbol
 _atom_site_label
 _atom_site_symmetry_multiplicity
 _atom_site_fract_x
 _atom_site_fract_y
 _atom_site_fract_z
 _atom_site_occupancy
  Ba  Ba0  1  0.24674000  0.68434900  0.57185600  1
  Ba  Ba1  1  0.25326000  0.68434900  0.07185600  1
  Ba  Ba2  1  0.75326000  0.31565100  0.42814400  1
  Ba  Ba3  1  0.74674000  0.31565100  0.92814400  1
  Re  Re4  1  0.57342800  0.78651500  0.45893000  1
  Re  Re5  1  0.92657200  0.78651500  0.95893000  1
  Re  Re6  1  0.42657200  0.21348500  0.54107000  1
  Re  Re7  1  0.07342800  0.21348500  0.04107000  1
  Re  Re8  1  0.38851700  0.34119200  0.91222700  1
  Re  Re9  1  0.11148300  0.34119200  0.41222700  1
  Re  Re10  1  0.61148300  0.65880800  0.08777300  1
  Re  Re11  1  0.88851700  0.65880800  0.58777300  1
  O  O12  1  0.43645900  0.86226400  0.44133600  1
  O  O13  1  0.06354100  0.86226400  0.94133600  1
  O  O14  1  0.56354100  0.13773600  0.55866400  1
  O  O15  1  0.93645900  0.13773600  0.05866400  1
  O  O16  1  0.60186500  0.65273000  0.60284300  1
  O  O17  1  0.89813500  0.65273000  0.10284300  1
  O  O18  1  0.39813500  0.34727000  0.39715700  1
  O  O19  1  0.10186500  0.34727000  0.89715700  1
  O  O20  1  0.59979600  0.61923800  0.40834700  1
  O  O21  1  0.90020400  0.61923800  0.90834700  1
  O  O22  1  0.40020400  0.38076200  0.59165300  1
  O  O23  1  0.09979600  0.38076200  0.09165300  1
  O  O24  1  0.65405900  0.01205600  0.38941400  1
  O  O25  1  0.84594100  0.01205600  0.88941400  1
  O  O26  1  0.34594100  0.98794400  0.61058600  1
  O  O27  1  0.15405900  0.98794400  0.11058600  1
  O  O28  1  0.35940200  0.50400500  0.76787700  1
  O  O29  1  0.14059800  0.50400500  0.26787700  1
  O  O30  1  0.64059800  0.49599500  0.23212300  1
  O  O31  1  0.85940200  0.49599500  0.73212300  1
  O  O32  1  0.34865000  0.08183000  0.95927200  1
  O  O33  1  0.15135000  0.08183000  0.45927200  1
  O  O34  1  0.65135000  0.91817000  0.04072800  1
  O  O35  1  0.84865000  0.91817000  0.54072800  1
  O  O36  1  0.52499000  0.34718400  0.93357000  1
  O  O37  1  0.97501000  0.34718400  0.43357000  1
  O  O38  1  0.47501000  0.65281600  0.06643000  1
  O  O39  1  0.02499000  0.65281600  0.56643000  1
  O  O40  1  0.31800700  0.43229400  0.98775000  1
  O  O41  1  0.18199300  0.43229400  0.48775000  1
  O  O42  1  0.68199300  0.56770600  0.01225000  1
  O  O43  1  0.81800700  0.56770600  0.51225000  1
  O  O44  1  0.16445300  0.21213700  0.71499600  1
  O  O45  1  0.33554700  0.21213700  0.21499600  1
  O  O46  1  0.83554700  0.78786300  0.28500400  1
  O  O47  1  0.66445300  0.78786300  0.78500400  1
  O  O48  1  0.14028100  0.85342400  0.70794100  1
  O  O49  1  0.35971900  0.85342400  0.20794100  1
  O  O50  1  0.85971900  0.14657600  0.29205900  1
  O  O51  1  0.64028100  0.14657600  0.79205900  1
  O  O52  1  0.28723100  0.90212500  0.32297500  1
  O  O53  1  0.21276900  0.90212500  0.82297500  1
  O  O54  1  0.71276900  0.09787500  0.67702500  1
  O  O55  1  0.78723100  0.09787500  0.17702500  1
  O  O56  1  0.96794600  0.96637100  0.26809700  1
  O  O57  1  0.53205400  0.96637100  0.76809700  1
  O  O58  1  0.03205400  0.03362900  0.73190300  1
  O  O59  1  0.46794600  0.03362900  0.23190300  1
