# generated using pymatgen
data_ZrReSi2
_symmetry_space_group_name_H-M   'P 1'
_cell_length_a   8.09853500
_cell_length_b   9.33421100
_cell_length_c   10.10066900
_cell_angle_alpha   90.00000000
_cell_angle_beta   90.00000000
_cell_angle_gamma   90.00000000
_symmetry_Int_Tables_number   1
_chemical_formula_structural   ZrReSi2
_chemical_formula_sum   'Zr12 Re12 Si24'
_cell_volume   763.54426026
_cell_formula_units_Z   12
loop_
 _symmetry_equiv_pos_site_id
 _symmetry_equiv_pos_as_xyz
  1  'x, y, z'
loop_
 _atom_site_type_symbol
 _atom_site_label
 _atom_site_symmetry_multiplicity
 _atom_site_fract_x
 _atom_site_fract_y
 _atom_site_fract_z
 _atom_site_occupancy
  Zr  Zr0  1  0.74856000  0.82677400  0.04633400  1
  Zr  Zr1  1  0.74856000  0.17322600  0.95366600  1
  Zr  Zr2  1  0.25144000  0.67322600  0.54633400  1
  Zr  Zr3  1  0.25144000  0.32677400  0.45366600  1
  Zr  Zr4  1  0.25144000  0.17322600  0.95366600  1
  Zr  Zr5  1  0.25144000  0.82677400  0.04633400  1
  Zr  Zr6  1  0.74856000  0.32677400  0.45366600  1
  Zr  Zr7  1  0.74856000  0.67322600  0.54633400  1
  Zr  Zr8  1  0.50000000  0.83143300  0.31957600  1
  Zr  Zr9  1  0.50000000  0.16856700  0.68042400  1
  Zr  Zr10  1  0.50000000  0.66856700  0.81957600  1
  Zr  Zr11  1  0.50000000  0.33143300  0.18042400  1
  Re  Re12  1  0.75002700  0.58551400  0.25780200  1
  Re  Re13  1  0.75002700  0.41448600  0.74219800  1
  Re  Re14  1  0.24997300  0.91448600  0.75780200  1
  Re  Re15  1  0.24997300  0.08551400  0.24219800  1
  Re  Re16  1  0.24997300  0.41448600  0.74219800  1
  Re  Re17  1  0.24997300  0.58551400  0.25780200  1
  Re  Re18  1  0.75002700  0.08551400  0.24219800  1
  Re  Re19  1  0.75002700  0.91448600  0.75780200  1
  Re  Re20  1  0.74411800  0.00000000  0.50000000  1
  Re  Re21  1  0.25588200  0.50000000  0.00000000  1
  Re  Re22  1  0.25588200  0.00000000  0.50000000  1
  Re  Re23  1  0.74411800  0.50000000  0.00000000  1
  Si  Si24  1  0.85433700  0.83298500  0.31866900  1
  Si  Si25  1  0.85433700  0.16701500  0.68133100  1
  Si  Si26  1  0.14566300  0.66701500  0.81866900  1
  Si  Si27  1  0.14566300  0.33298500  0.18133100  1
  Si  Si28  1  0.14566300  0.16701500  0.68133100  1
  Si  Si29  1  0.14566300  0.83298500  0.31866900  1
  Si  Si30  1  0.85433700  0.33298500  0.18133100  1
  Si  Si31  1  0.85433700  0.66701500  0.81866900  1
  Si  Si32  1  0.50000000  0.53423500  0.38340900  1
  Si  Si33  1  0.50000000  0.46576500  0.61659100  1
  Si  Si34  1  0.50000000  0.96576500  0.88340900  1
  Si  Si35  1  0.50000000  0.03423500  0.11659100  1
  Si  Si36  1  0.00000000  0.52764200  0.38098600  1
  Si  Si37  1  0.00000000  0.47235800  0.61901400  1
  Si  Si38  1  0.00000000  0.97235800  0.88098600  1
  Si  Si39  1  0.00000000  0.02764200  0.11901400  1
  Si  Si40  1  0.50000000  0.63192600  0.10015800  1
  Si  Si41  1  0.50000000  0.36807400  0.89984200  1
  Si  Si42  1  0.50000000  0.86807400  0.60015800  1
  Si  Si43  1  0.50000000  0.13192600  0.39984200  1
  Si  Si44  1  0.00000000  0.62519500  0.09153000  1
  Si  Si45  1  0.00000000  0.37480500  0.90847000  1
  Si  Si46  1  0.00000000  0.87480500  0.59153000  1
  Si  Si47  1  0.00000000  0.12519500  0.40847000  1
