# generated using pymatgen
data_ZrS2O15
_symmetry_space_group_name_H-M   'P 1'
_cell_length_a   7.12540472
_cell_length_b   7.63967453
_cell_length_c   12.89977472
_cell_angle_alpha   96.34222048
_cell_angle_beta   109.95227963
_cell_angle_gamma   90.30121150
_symmetry_Int_Tables_number   1
_chemical_formula_structural   ZrS2O15
_chemical_formula_sum   'Zr2 S4 O30'
_cell_volume   655.32719533
_cell_formula_units_Z   2
loop_
 _symmetry_equiv_pos_site_id
 _symmetry_equiv_pos_as_xyz
  1  'x, y, z'
loop_
 _atom_site_type_symbol
 _atom_site_label
 _atom_site_symmetry_multiplicity
 _atom_site_fract_x
 _atom_site_fract_y
 _atom_site_fract_z
 _atom_site_occupancy
  Zr  Zr0  1  0.82301100  0.54419200  0.80784000  1
  Zr  Zr1  1  0.17698900  0.45580800  0.19216100  1
  S  S2  1  0.69175000  0.31978100  0.60669200  1
  S  S3  1  0.30825000  0.68021900  0.39330800  1
  S  S4  1  0.74729200  0.27850700  0.99487800  1
  S  S5  1  0.25270800  0.72149300  0.00512200  1
  O  O6  1  0.94641900  0.83333700  0.68328200  1
  O  O7  1  0.05358100  0.16666300  0.31671800  1
  O  O8  1  0.77608900  0.43709900  0.93200800  1
  O  O9  1  0.22391100  0.56290100  0.06799200  1
  O  O10  1  0.81848900  0.12295100  0.94997800  1
  O  O11  1  0.18151100  0.87704900  0.05002200  1
  O  O12  1  0.83881400  0.29644700  0.72745400  1
  O  O13  1  0.16118600  0.70355300  0.27254600  1
  O  O14  1  0.30736200  0.36937500  0.74124200  1
  O  O15  1  0.69263800  0.63062500  0.25875800  1
  O  O16  1  0.18869200  0.46954100  0.68835200  1
  O  O17  1  0.81130800  0.53045900  0.31164800  1
  O  O18  1  0.10009400  0.65998700  0.88548200  1
  O  O19  1  0.89990600  0.34001300  0.11451800  1
  O  O20  1  0.66688100  0.52173300  0.63149500  1
  O  O21  1  0.33311900  0.47826700  0.36850500  1
  O  O22  1  0.84507500  0.89934900  0.60098200  1
  O  O23  1  0.15492500  0.10065100  0.39901800  1
  O  O24  1  0.78888800  0.28531800  0.52556300  1
  O  O25  1  0.21111200  0.71468200  0.47443700  1
  O  O26  1  0.39807500  0.95172200  0.77634600  1
  O  O27  1  0.60192500  0.04827800  0.22365400  1
  O  O28  1  0.58252900  0.71401700  0.80169900  1
  O  O29  1  0.41747100  0.28598300  0.19830100  1
  O  O30  1  0.55923800  0.89191000  0.77605000  1
  O  O31  1  0.44076200  0.10809000  0.22395000  1
  O  O32  1  0.54866400  0.27808300  0.99849200  1
  O  O33  1  0.45133600  0.72191700  0.00150800  1
  O  O34  1  0.50654300  0.22038100  0.58500100  1
  O  O35  1  0.49345700  0.77961900  0.41499900  1
