# generated using pymatgen
data_MoAsO6
_symmetry_space_group_name_H-M   'P 1'
_cell_length_a   7.37732100
_cell_length_b   12.67937300
_cell_length_c   12.33876402
_cell_angle_alpha   90.00000000
_cell_angle_beta   104.88488429
_cell_angle_gamma   90.00000000
_symmetry_Int_Tables_number   1
_chemical_formula_structural   MoAsO6
_chemical_formula_sum   'Mo8 As8 O48'
_cell_volume   1115.43626052
_cell_formula_units_Z   8
loop_
 _symmetry_equiv_pos_site_id
 _symmetry_equiv_pos_as_xyz
  1  'x, y, z'
loop_
 _atom_site_type_symbol
 _atom_site_label
 _atom_site_symmetry_multiplicity
 _atom_site_fract_x
 _atom_site_fract_y
 _atom_site_fract_z
 _atom_site_occupancy
  Mo  Mo0  1  0.61916800  0.27161300  0.77989200  1
  Mo  Mo1  1  0.38083200  0.77161300  0.72010800  1
  Mo  Mo2  1  0.38083200  0.72838700  0.22010800  1
  Mo  Mo3  1  0.61916800  0.22838700  0.27989200  1
  Mo  Mo4  1  0.17843200  0.28414100  0.58579600  1
  Mo  Mo5  1  0.82156800  0.78414100  0.91420400  1
  Mo  Mo6  1  0.82156800  0.71585900  0.41420400  1
  Mo  Mo7  1  0.17843200  0.21585900  0.08579600  1
  As  As8  1  0.20564800  0.35872400  0.32588100  1
  As  As9  1  0.79435200  0.85872400  0.17411900  1
  As  As10  1  0.79435200  0.64127600  0.67411900  1
  As  As11  1  0.20564800  0.14127600  0.82588100  1
  As  As12  1  0.61229500  0.14721900  0.01271000  1
  As  As13  1  0.38770500  0.64721900  0.48729000  1
  As  As14  1  0.38770500  0.85278100  0.98729000  1
  As  As15  1  0.61229500  0.35278100  0.51271000  1
  O  O16  1  0.99620600  0.20220600  0.59683900  1
  O  O17  1  0.00379400  0.70220600  0.90316100  1
  O  O18  1  0.00379400  0.79779400  0.40316100  1
  O  O19  1  0.99620600  0.29779400  0.09683900  1
  O  O20  1  0.47976400  0.29751800  0.60995900  1
  O  O21  1  0.52023600  0.79751800  0.89004100  1
  O  O22  1  0.52023600  0.70248200  0.39004100  1
  O  O23  1  0.47976400  0.20248200  0.10995900  1
  O  O24  1  0.10375600  0.41111800  0.59568200  1
  O  O25  1  0.89624400  0.91111800  0.90431800  1
  O  O26  1  0.89624400  0.58888200  0.40431800  1
  O  O27  1  0.10375600  0.08888200  0.09568200  1
  O  O28  1  0.76812600  0.37579700  0.77516400  1
  O  O29  1  0.23187400  0.87579700  0.72483600  1
  O  O30  1  0.23187400  0.62420300  0.22483600  1
  O  O31  1  0.76812600  0.12420300  0.27516400  1
  O  O32  1  0.74308600  0.15805900  0.77368800  1
  O  O33  1  0.25691400  0.65805900  0.72631200  1
  O  O34  1  0.25691400  0.84194100  0.22631200  1
  O  O35  1  0.74308600  0.34194100  0.27368800  1
  O  O36  1  0.32224000  0.23652600  0.74724100  1
  O  O37  1  0.67776000  0.73652600  0.75275900  1
  O  O38  1  0.67776000  0.76347400  0.25275900  1
  O  O39  1  0.32224000  0.26347400  0.24724100  1
  O  O40  1  0.16913000  0.26659000  0.42999100  1
  O  O41  1  0.83087000  0.76659000  0.07000900  1
  O  O42  1  0.83087000  0.73341000  0.57000900  1
  O  O43  1  0.16913000  0.23341000  0.92999100  1
  O  O44  1  0.41799100  0.41857700  0.41343400  1
  O  O45  1  0.58200900  0.91857700  0.08656600  1
  O  O46  1  0.58200900  0.58142300  0.58656600  1
  O  O47  1  0.41799100  0.08142300  0.91343400  1
  O  O48  1  0.60710800  0.26845000  0.93341100  1
  O  O49  1  0.39289200  0.76845000  0.56658900  1
  O  O50  1  0.39289200  0.73155000  0.06658900  1
  O  O51  1  0.60710800  0.23155000  0.43341100  1
  O  O52  1  0.54292200  0.51162200  0.86613500  1
  O  O53  1  0.45707800  0.01162200  0.63386500  1
  O  O54  1  0.45707800  0.48837800  0.13386500  1
  O  O55  1  0.54292200  0.98837800  0.36613500  1
  O  O56  1  0.31542100  0.04472100  0.55588700  1
  O  O57  1  0.68457900  0.54472100  0.94411300  1
  O  O58  1  0.68457900  0.95527900  0.44411300  1
  O  O59  1  0.31542100  0.45527900  0.05588700  1
  O  O60  1  0.27700000  0.50088800  0.96006900  1
  O  O61  1  0.72300000  0.00088800  0.53993100  1
  O  O62  1  0.72300000  0.49911200  0.03993100  1
  O  O63  1  0.27700000  0.99911200  0.46006900  1
