# generated using pymatgen
data_ScI5N3
_symmetry_space_group_name_H-M   'P 1'
_cell_length_a   8.89302700
_cell_length_b   9.02436000
_cell_length_c   16.92726400
_cell_angle_alpha   90.00000000
_cell_angle_beta   90.00000000
_cell_angle_gamma   90.00000000
_symmetry_Int_Tables_number   1
_chemical_formula_structural   ScI5N3
_chemical_formula_sum   'Sc4 I20 N12'
_cell_volume   1358.47856533
_cell_formula_units_Z   4
loop_
 _symmetry_equiv_pos_site_id
 _symmetry_equiv_pos_as_xyz
  1  'x, y, z'
loop_
 _atom_site_type_symbol
 _atom_site_label
 _atom_site_symmetry_multiplicity
 _atom_site_fract_x
 _atom_site_fract_y
 _atom_site_fract_z
 _atom_site_occupancy
  Sc  Sc0  1  0.25000000  0.94882900  0.43898700  1
  Sc  Sc1  1  0.25000000  0.55117100  0.93898700  1
  Sc  Sc2  1  0.75000000  0.05117100  0.56101300  1
  Sc  Sc3  1  0.75000000  0.44882900  0.06101300  1
  I  I4  1  0.25000000  0.71192900  0.19608200  1
  I  I5  1  0.25000000  0.78807100  0.69608200  1
  I  I6  1  0.75000000  0.28807100  0.80391800  1
  I  I7  1  0.75000000  0.21192900  0.30391800  1
  I  I8  1  0.25000000  0.13251600  0.31543600  1
  I  I9  1  0.25000000  0.36748400  0.81543600  1
  I  I10  1  0.75000000  0.86748400  0.68456400  1
  I  I11  1  0.75000000  0.63251600  0.18456400  1
  I  I12  1  0.25000000  0.62507500  0.43792100  1
  I  I13  1  0.25000000  0.87492500  0.93792100  1
  I  I14  1  0.75000000  0.37492500  0.56207900  1
  I  I15  1  0.75000000  0.12507500  0.06207900  1
  I  I16  1  0.44330400  0.19137300  0.55352000  1
  I  I17  1  0.05669600  0.30862700  0.05352000  1
  I  I18  1  0.94330400  0.80862700  0.44648000  1
  I  I19  1  0.55669600  0.69137300  0.94648000  1
  I  I20  1  0.55669600  0.80862700  0.44648000  1
  I  I21  1  0.94330400  0.69137300  0.94648000  1
  I  I22  1  0.05669600  0.19137300  0.55352000  1
  I  I23  1  0.44330400  0.30862700  0.05352000  1
  N  N24  1  0.25000000  0.04806900  0.54687400  1
  N  N25  1  0.25000000  0.45193100  0.04687400  1
  N  N26  1  0.75000000  0.95193100  0.45312600  1
  N  N27  1  0.75000000  0.54806900  0.95312600  1
  N  N28  1  0.41958600  0.66900500  0.67404200  1
  N  N29  1  0.08041400  0.83099500  0.17404200  1
  N  N30  1  0.91958600  0.33099500  0.32595800  1
  N  N31  1  0.58041400  0.16900500  0.82595800  1
  N  N32  1  0.58041400  0.33099500  0.32595800  1
  N  N33  1  0.91958600  0.16900500  0.82595800  1
  N  N34  1  0.08041400  0.66900500  0.67404200  1
  N  N35  1  0.41958600  0.83099500  0.17404200  1
