# generated using pymatgen
data_FeAsO6
_symmetry_space_group_name_H-M   'P 1'
_cell_length_a   9.71615100
_cell_length_b   9.76265200
_cell_length_c   11.10062900
_cell_angle_alpha   90.00000000
_cell_angle_beta   90.00000000
_cell_angle_gamma   90.00000000
_symmetry_Int_Tables_number   1
_chemical_formula_structural   FeAsO6
_chemical_formula_sum   'Fe8 As8 O48'
_cell_volume   1052.95461506
_cell_formula_units_Z   8
loop_
 _symmetry_equiv_pos_site_id
 _symmetry_equiv_pos_as_xyz
  1  'x, y, z'
loop_
 _atom_site_type_symbol
 _atom_site_label
 _atom_site_symmetry_multiplicity
 _atom_site_fract_x
 _atom_site_fract_y
 _atom_site_fract_z
 _atom_site_occupancy
  Fe  Fe0  1  0.09509700  0.28216400  0.89461000  1
  Fe  Fe1  1  0.40490300  0.71783600  0.39461000  1
  Fe  Fe2  1  0.59509700  0.21783600  0.10539000  1
  Fe  Fe3  1  0.90490300  0.78216400  0.60539000  1
  Fe  Fe4  1  0.90490300  0.71783600  0.10539000  1
  Fe  Fe5  1  0.59509700  0.28216400  0.60539000  1
  Fe  Fe6  1  0.40490300  0.78216400  0.89461000  1
  Fe  Fe7  1  0.09509700  0.21783600  0.39461000  1
  As  As8  1  0.06830900  0.64394800  0.85145100  1
  As  As9  1  0.43169100  0.35605200  0.35145100  1
  As  As10  1  0.56830900  0.85605200  0.14854900  1
  As  As11  1  0.93169100  0.14394800  0.64854900  1
  As  As12  1  0.93169100  0.35605200  0.14854900  1
  As  As13  1  0.56830900  0.64394800  0.64854900  1
  As  As14  1  0.43169100  0.14394800  0.85145100  1
  As  As15  1  0.06830900  0.85605200  0.35145100  1
  O  O16  1  0.03169800  0.68449300  0.70447700  1
  O  O17  1  0.46830200  0.31550700  0.20447700  1
  O  O18  1  0.53169800  0.81550700  0.29552300  1
  O  O19  1  0.96830200  0.18449300  0.79552300  1
  O  O20  1  0.96830200  0.31550700  0.29552300  1
  O  O21  1  0.53169800  0.68449300  0.79552300  1
  O  O22  1  0.46830200  0.18449300  0.70447700  1
  O  O23  1  0.03169800  0.81550700  0.20447700  1
  O  O24  1  0.05705600  0.47042100  0.86935600  1
  O  O25  1  0.44294400  0.52957900  0.36935600  1
  O  O26  1  0.55705600  0.02957900  0.13064400  1
  O  O27  1  0.94294400  0.97042100  0.63064400  1
  O  O28  1  0.94294400  0.52957900  0.13064400  1
  O  O29  1  0.55705600  0.47042100  0.63064400  1
  O  O30  1  0.44294400  0.97042100  0.86935600  1
  O  O31  1  0.05705600  0.02957900  0.36935600  1
  O  O32  1  0.23161700  0.69319800  0.89107100  1
  O  O33  1  0.26838300  0.30680200  0.39107100  1
  O  O34  1  0.73161700  0.80680200  0.10892900  1
  O  O35  1  0.76838300  0.19319800  0.60892900  1
  O  O36  1  0.76838300  0.30680200  0.10892900  1
  O  O37  1  0.73161700  0.69319800  0.60892900  1
  O  O38  1  0.26838300  0.19319800  0.89107100  1
  O  O39  1  0.23161700  0.80680200  0.39107100  1
  O  O40  1  0.94951600  0.72935300  0.93817800  1
  O  O41  1  0.55048400  0.27064700  0.43817800  1
  O  O42  1  0.44951600  0.77064700  0.06182200  1
  O  O43  1  0.05048400  0.22935300  0.56182200  1
  O  O44  1  0.05048400  0.27064700  0.06182200  1
  O  O45  1  0.44951600  0.72935300  0.56182200  1
  O  O46  1  0.55048400  0.22935300  0.93817800  1
  O  O47  1  0.94951600  0.77064700  0.43817800  1
  O  O48  1  0.29259400  0.43327100  0.73112800  1
  O  O49  1  0.20740600  0.56672900  0.23112800  1
  O  O50  1  0.79259400  0.06672900  0.26887200  1
  O  O51  1  0.70740600  0.93327100  0.76887200  1
  O  O52  1  0.70740600  0.56672900  0.26887200  1
  O  O53  1  0.79259400  0.43327100  0.76887200  1
  O  O54  1  0.20740600  0.93327100  0.73112800  1
  O  O55  1  0.29259400  0.06672900  0.23112800  1
  O  O56  1  0.36582900  0.44754600  0.82139100  1
  O  O57  1  0.13417100  0.55245400  0.32139100  1
  O  O58  1  0.86582900  0.05245400  0.17860900  1
  O  O59  1  0.63417100  0.94754600  0.67860900  1
  O  O60  1  0.63417100  0.55245400  0.17860900  1
  O  O61  1  0.86582900  0.44754600  0.67860900  1
  O  O62  1  0.13417100  0.94754600  0.82139100  1
  O  O63  1  0.36582900  0.05245400  0.32139100  1
