# generated using pymatgen
data_CuP4S3Br
_symmetry_space_group_name_H-M   'P 1'
_cell_length_a   6.52396900
_cell_length_b   9.40309834
_cell_length_c   15.83625269
_cell_angle_alpha   97.52357313
_cell_angle_beta   97.94722249
_cell_angle_gamma   106.91925676
_symmetry_Int_Tables_number   1
_chemical_formula_structural   CuP4S3Br
_chemical_formula_sum   'Cu4 P16 S12 Br4'
_cell_volume   905.36214856
_cell_formula_units_Z   4
loop_
 _symmetry_equiv_pos_site_id
 _symmetry_equiv_pos_as_xyz
  1  'x, y, z'
loop_
 _atom_site_type_symbol
 _atom_site_label
 _atom_site_symmetry_multiplicity
 _atom_site_fract_x
 _atom_site_fract_y
 _atom_site_fract_z
 _atom_site_occupancy
  Cu  Cu0  1  0.99985200  0.10804200  0.79287300  1
  Cu  Cu1  1  0.00014800  0.89195800  0.20712700  1
  Cu  Cu2  1  0.64860400  0.34122500  0.91727400  1
  Cu  Cu3  1  0.35139600  0.65877500  0.08272600  1
  P  P4  1  0.14052300  0.35891800  0.50740400  1
  P  P5  1  0.85947700  0.64108200  0.49259600  1
  P  P6  1  0.46113300  0.34184000  0.68458600  1
  P  P7  1  0.53886700  0.65816000  0.31541400  1
  P  P8  1  0.34751000  0.11590600  0.59299100  1
  P  P9  1  0.65249000  0.88409400  0.40700900  1
  P  P10  1  0.12136500  0.18425400  0.67369400  1
  P  P11  1  0.87863500  0.81574600  0.32630600  1
  P  P12  1  0.98652700  0.11627000  0.17605900  1
  P  P13  1  0.01347300  0.88373000  0.82394100  1
  P  P14  1  0.80850200  0.31553000  0.04970400  1
  P  P15  1  0.19149800  0.68447000  0.95029600  1
  P  P16  1  0.14788400  0.44540700  0.11998000  1
  P  P17  1  0.85211600  0.55459300  0.88002000  1
  P  P18  1  0.86440400  0.43333700  0.19074500  1
  P  P19  1  0.13559600  0.56666300  0.80925500  1
  S  S20  1  0.40898600  0.49384900  0.60469300  1
  S  S21  1  0.59101400  0.50615100  0.39530700  1
  S  S22  1  0.25133300  0.17165400  0.47321700  1
  S  S23  1  0.74866700  0.82834600  0.52678300  1
  S  S24  1  0.92519500  0.26646200  0.58917200  1
  S  S25  1  0.07480500  0.73353800  0.41082800  1
  S  S26  1  0.78181900  0.09083400  0.05585600  1
  S  S27  1  0.21818100  0.90916600  0.94414400  1
  S  S28  1  0.27479300  0.27834700  0.15872700  1
  S  S29  1  0.72520700  0.72165300  0.84127300  1
  S  S30  1  0.86639400  0.25622000  0.25848400  1
  S  S31  1  0.13360600  0.74378000  0.74151600  1
  Br  Br32  1  0.63565700  0.11936900  0.80813500  1
  Br  Br33  1  0.36434300  0.88063100  0.19186500  1
  Br  Br34  1  0.25609600  0.30308000  0.91443300  1
  Br  Br35  1  0.74390400  0.69692000  0.08556700  1
