# generated using pymatgen
data_V6H2Pb4Se3O26
_symmetry_space_group_name_H-M   'P 1'
_cell_length_a   21.74298600
_cell_length_b   7.24570100
_cell_length_c   7.43417367
_cell_angle_alpha   85.05062528
_cell_angle_beta   90.00000000
_cell_angle_gamma   90.00000000
_symmetry_Int_Tables_number   1
_chemical_formula_structural   V6H2Pb4Se3O26
_chemical_formula_sum   'V12 H4 Pb8 Se6 O52'
_cell_volume   1166.83628164
_cell_formula_units_Z   2
loop_
 _symmetry_equiv_pos_site_id
 _symmetry_equiv_pos_as_xyz
  1  'x, y, z'
loop_
 _atom_site_type_symbol
 _atom_site_label
 _atom_site_symmetry_multiplicity
 _atom_site_fract_x
 _atom_site_fract_y
 _atom_site_fract_z
 _atom_site_occupancy
  V  V0  1  0.76492200  0.14967700  0.35494200  1
  V  V1  1  0.26492200  0.85032300  0.64505800  1
  V  V2  1  0.88678900  0.89796800  0.36910800  1
  V  V3  1  0.38678900  0.10203200  0.63089200  1
  V  V4  1  0.96811700  0.31512000  0.68215700  1
  V  V5  1  0.46811700  0.68488000  0.31784300  1
  V  V6  1  0.68300700  0.52002000  0.66407700  1
  V  V7  1  0.18300700  0.47998000  0.33592300  1
  V  V8  1  0.88406600  0.39865800  0.30559900  1
  V  V9  1  0.38406600  0.60134200  0.69440100  1
  V  V10  1  0.76832200  0.65501800  0.29956600  1
  V  V11  1  0.26832200  0.34498200  0.70043400  1
  H  H12  1  0.82932800  0.97761500  0.00114100  1
  H  H13  1  0.32932800  0.02238500  0.99885900  1
  H  H14  1  0.83226700  0.95246100  0.80175400  1
  H  H15  1  0.33226700  0.04753900  0.19824600  1
  Pb  Pb16  1  0.96485400  0.79035700  0.89032000  1
  Pb  Pb17  1  0.46485400  0.20964300  0.10968000  1
  Pb  Pb18  1  0.02606900  0.21426900  0.19585400  1
  Pb  Pb19  1  0.52606900  0.78573100  0.80414600  1
  Pb  Pb20  1  0.62541700  0.43612500  0.17182400  1
  Pb  Pb21  1  0.12541700  0.56387500  0.82817600  1
  Pb  Pb22  1  0.69422400  0.02386400  0.87577100  1
  Pb  Pb23  1  0.19422400  0.97613600  0.12422900  1
  Se  Se24  1  0.10089900  0.07375600  0.68919000  1
  Se  Se25  1  0.60089900  0.92624400  0.31081000  1
  Se  Se26  1  0.55160600  0.28607100  0.66740500  1
  Se  Se27  1  0.05160600  0.71392900  0.33259500  1
  Se  Se28  1  0.82763900  0.48141800  0.81243800  1
  Se  Se29  1  0.32763900  0.51858200  0.18756200  1
  O  O30  1  0.03917800  0.19336100  0.57160100  1
  O  O31  1  0.53917800  0.80663900  0.42839900  1
  O  O32  1  0.10432300  0.17880000  0.88735700  1
  O  O33  1  0.60432300  0.82120000  0.11264300  1
  O  O34  1  0.06736000  0.85972700  0.75283700  1
  O  O35  1  0.56736000  0.14027300  0.24716300  1
  O  O36  1  0.61371900  0.40554400  0.54967600  1
  O  O37  1  0.11371900  0.59445600  0.45032400  1
  O  O38  1  0.54568400  0.39993900  0.86007000  1
  O  O39  1  0.04568400  0.60006100  0.13993000  1
  O  O40  1  0.58676600  0.07853000  0.73993700  1
  O  O41  1  0.08676600  0.92147000  0.26006300  1
  O  O42  1  0.88202100  0.39978300  0.65976100  1
  O  O43  1  0.38202100  0.60021700  0.34023900  1
  O  O44  1  0.85777600  0.68701200  0.85396500  1
  O  O45  1  0.35777600  0.31298800  0.14603500  1
  O  O46  1  0.77156900  0.56043900  0.64706900  1
  O  O47  1  0.27156900  0.43956100  0.35293100  1
  O  O48  1  0.68511600  0.36420700  0.85183500  1
  O  O49  1  0.18511600  0.63579300  0.14816500  1
  O  O50  1  0.85711000  0.14755000  0.36310900  1
  O  O51  1  0.35711000  0.85245000  0.63689100  1
  O  O52  1  0.78998300  0.89265500  0.36764000  1
  O  O53  1  0.28998300  0.10734500  0.63236000  1
  O  O54  1  0.70936700  0.14815400  0.19042300  1
  O  O55  1  0.20936700  0.85184600  0.80957700  1
  O  O56  1  0.94274800  0.94149200  0.20858300  1
  O  O57  1  0.44274800  0.05850800  0.79141700  1
  O  O58  1  0.69558100  0.60019800  0.39753600  1
  O  O59  1  0.19558100  0.39980200  0.60246400  1
  O  O60  1  0.95971800  0.14104600  0.84507000  1
  O  O61  1  0.45971800  0.85895400  0.15493000  1
  O  O62  1  0.79234300  0.40089100  0.29244100  1
  O  O63  1  0.29234300  0.59910900  0.70755900  1
  O  O64  1  0.00548500  0.49182900  0.77167700  1
  O  O65  1  0.50548500  0.50817100  0.22832300  1
  O  O66  1  0.95630500  0.36505800  0.41787500  1
  O  O67  1  0.45630500  0.63494200  0.58212500  1
  O  O68  1  0.65164100  0.71176800  0.73613200  1
  O  O69  1  0.15164100  0.28823200  0.26386800  1
  O  O70  1  0.86376500  0.65260300  0.31589400  1
  O  O71  1  0.36376500  0.34739700  0.68410600  1
  O  O72  1  0.74841400  0.70665300  0.08760800  1
  O  O73  1  0.24841400  0.29334700  0.91239200  1
  O  O74  1  0.90840900  0.39147400  0.09654200  1
  O  O75  1  0.40840900  0.60852600  0.90345800  1
  O  O76  1  0.73022200  0.16373700  0.55285900  1
  O  O77  1  0.23022200  0.83626300  0.44714100  1
  O  O78  1  0.92205200  0.87243500  0.56720200  1
  O  O79  1  0.42205200  0.12756500  0.43279800  1
  O  O80  1  0.81751100  0.04135400  0.88494900  1
  O  O81  1  0.31751100  0.95864600  0.11505100  1
