# generated using pymatgen
data_LiNbO3
_symmetry_space_group_name_H-M   'P 1'
_cell_length_a   6.30796842
_cell_length_b   8.34765800
_cell_length_c   9.57447750
_cell_angle_alpha   90.00000000
_cell_angle_beta   89.59441393
_cell_angle_gamma   90.00000000
_symmetry_Int_Tables_number   1
_chemical_formula_structural   LiNbO3
_chemical_formula_sum   'Li8 Nb8 O24'
_cell_volume   504.14836118
_cell_formula_units_Z   8
loop_
 _symmetry_equiv_pos_site_id
 _symmetry_equiv_pos_as_xyz
  1  'x, y, z'
loop_
 _atom_site_type_symbol
 _atom_site_label
 _atom_site_symmetry_multiplicity
 _atom_site_fract_x
 _atom_site_fract_y
 _atom_site_fract_z
 _atom_site_occupancy
  Li  Li0  1  0.51887800  0.18282200  0.52278300  1
  Li  Li1  1  0.48112200  0.68282200  0.97721700  1
  Li  Li2  1  0.48112200  0.81717800  0.47721700  1
  Li  Li3  1  0.51887800  0.31717800  0.02278300  1
  Li  Li4  1  0.77951000  0.37777800  0.76996600  1
  Li  Li5  1  0.22049000  0.87777800  0.73003400  1
  Li  Li6  1  0.22049000  0.62222200  0.23003400  1
  Li  Li7  1  0.77951000  0.12222200  0.26996600  1
  Nb  Nb8  1  0.99220400  0.69576300  0.50255700  1
  Nb  Nb9  1  0.00779600  0.19576300  0.99744300  1
  Nb  Nb10  1  0.00779600  0.30423700  0.49744300  1
  Nb  Nb11  1  0.99220400  0.80423700  0.00255700  1
  Nb  Nb12  1  0.73424500  0.49646200  0.25871800  1
  Nb  Nb13  1  0.26575500  0.99646200  0.24128200  1
  Nb  Nb14  1  0.26575500  0.50353800  0.74128200  1
  Nb  Nb15  1  0.73424500  0.00353800  0.75871800  1
  O  O16  1  0.91549200  0.63729700  0.12527800  1
  O  O17  1  0.08450800  0.13729700  0.37472200  1
  O  O18  1  0.08450800  0.36270300  0.87472200  1
  O  O19  1  0.91549200  0.86270300  0.62527800  1
  O  O20  1  0.82871300  0.31077300  0.13288100  1
  O  O21  1  0.17128700  0.81077300  0.36711900  1
  O  O22  1  0.17128700  0.68922700  0.86711900  1
  O  O23  1  0.82871300  0.18922700  0.63288100  1
  O  O24  1  0.70440200  0.33207000  0.40038600  1
  O  O25  1  0.29559800  0.83207000  0.09961400  1
  O  O26  1  0.29559800  0.66793000  0.59961400  1
  O  O27  1  0.70440200  0.16793000  0.90038600  1
  O  O28  1  0.72258000  0.67772600  0.40065100  1
  O  O29  1  0.27742000  0.17772600  0.09934900  1
  O  O30  1  0.27742000  0.32227400  0.59934900  1
  O  O31  1  0.72258000  0.82227400  0.90065100  1
  O  O32  1  0.06176100  0.48965800  0.36854200  1
  O  O33  1  0.93823900  0.98965800  0.13145800  1
  O  O34  1  0.93823900  0.51034200  0.63145800  1
  O  O35  1  0.06176100  0.01034200  0.86854200  1
  O  O36  1  0.48649500  0.52502900  0.16330800  1
  O  O37  1  0.51350500  0.02502900  0.33669200  1
  O  O38  1  0.51350500  0.47497100  0.83669200  1
  O  O39  1  0.48649500  0.97497100  0.66330800  1
