# generated using pymatgen
data_Te2NO6
_symmetry_space_group_name_H-M   'P 1'
_cell_length_a   5.36680600
_cell_length_b   7.13232300
_cell_length_c   14.81629500
_cell_angle_alpha   90.00000000
_cell_angle_beta   90.00000000
_cell_angle_gamma   90.00000000
_symmetry_Int_Tables_number   1
_chemical_formula_structural   Te2NO6
_chemical_formula_sum   'Te8 N4 O24'
_cell_volume   567.13508593
_cell_formula_units_Z   4
loop_
 _symmetry_equiv_pos_site_id
 _symmetry_equiv_pos_as_xyz
  1  'x, y, z'
loop_
 _atom_site_type_symbol
 _atom_site_label
 _atom_site_symmetry_multiplicity
 _atom_site_fract_x
 _atom_site_fract_y
 _atom_site_fract_z
 _atom_site_occupancy
  Te  Te0  1  0.25000000  0.19336000  0.62910900  1
  Te  Te1  1  0.25000000  0.69336000  0.87089100  1
  Te  Te2  1  0.75000000  0.80664000  0.37089100  1
  Te  Te3  1  0.75000000  0.30664000  0.12910900  1
  Te  Te4  1  0.25000000  0.55983200  0.24736200  1
  Te  Te5  1  0.25000000  0.05983200  0.25263800  1
  Te  Te6  1  0.75000000  0.44016800  0.75263800  1
  Te  Te7  1  0.75000000  0.94016800  0.74736200  1
  N  N8  1  0.25000000  0.18886200  0.96080900  1
  N  N9  1  0.25000000  0.68886200  0.53919100  1
  N  N10  1  0.75000000  0.81113800  0.03919100  1
  N  N11  1  0.75000000  0.31113800  0.46080900  1
  O  O12  1  0.25000000  0.70421800  0.99162300  1
  O  O13  1  0.25000000  0.20421800  0.50837700  1
  O  O14  1  0.75000000  0.29578200  0.00837700  1
  O  O15  1  0.75000000  0.79578200  0.49162300  1
  O  O16  1  0.25000000  0.81154300  0.19559700  1
  O  O17  1  0.25000000  0.31154300  0.30440300  1
  O  O18  1  0.75000000  0.18845700  0.80440300  1
  O  O19  1  0.75000000  0.68845700  0.69559700  1
  O  O20  1  0.00450300  0.49712900  0.84308200  1
  O  O21  1  0.49549700  0.99712900  0.65691800  1
  O  O22  1  0.50450300  0.50287100  0.15691800  1
  O  O23  1  0.99549700  0.00287100  0.34308200  1
  O  O24  1  0.99549700  0.50287100  0.15691800  1
  O  O25  1  0.50450300  0.00287100  0.34308200  1
  O  O26  1  0.49549700  0.49712900  0.84308200  1
  O  O27  1  0.00450300  0.99712900  0.65691800  1
  O  O28  1  0.00654900  0.88630500  0.83726600  1
  O  O29  1  0.49345100  0.38630500  0.66273400  1
  O  O30  1  0.50654900  0.11369500  0.16273400  1
  O  O31  1  0.99345100  0.61369500  0.33726600  1
  O  O32  1  0.99345100  0.11369500  0.16273400  1
  O  O33  1  0.50654900  0.61369500  0.33726600  1
  O  O34  1  0.49345100  0.88630500  0.83726600  1
  O  O35  1  0.00654900  0.38630500  0.66273400  1
