# generated using pymatgen
data_Sn2MoH12C4O5
_symmetry_space_group_name_H-M   'P 1'
_cell_length_a   8.54415900
_cell_length_b   11.92212000
_cell_length_c   15.09620216
_cell_angle_alpha   90.00000000
_cell_angle_beta   123.02010905
_cell_angle_gamma   90.00000000
_symmetry_Int_Tables_number   1
_chemical_formula_structural   Sn2MoH12C4O5
_chemical_formula_sum   'Sn8 Mo4 H48 C16 O20'
_cell_volume   1289.38582824
_cell_formula_units_Z   4
loop_
 _symmetry_equiv_pos_site_id
 _symmetry_equiv_pos_as_xyz
  1  'x, y, z'
loop_
 _atom_site_type_symbol
 _atom_site_label
 _atom_site_symmetry_multiplicity
 _atom_site_fract_x
 _atom_site_fract_y
 _atom_site_fract_z
 _atom_site_occupancy
  Sn  Sn0  1  0.46554000  0.24160700  0.57361600  1
  Sn  Sn1  1  0.46554000  0.25839300  0.07361600  1
  Sn  Sn2  1  0.53446000  0.75839300  0.42638400  1
  Sn  Sn3  1  0.53446000  0.74160700  0.92638400  1
  Sn  Sn4  1  0.48916800  0.42689000  0.40154700  1
  Sn  Sn5  1  0.48916800  0.07311000  0.90154700  1
  Sn  Sn6  1  0.51083200  0.57311000  0.59845300  1
  Sn  Sn7  1  0.51083200  0.92689000  0.09845300  1
  Mo  Mo8  1  0.39568800  0.36130500  0.79149300  1
  Mo  Mo9  1  0.39568800  0.13869500  0.29149300  1
  Mo  Mo10  1  0.60431200  0.63869500  0.20850700  1
  Mo  Mo11  1  0.60431200  0.86130500  0.70850700  1
  H  H12  1  0.09138400  0.25099400  0.46585800  1
  H  H13  1  0.09138400  0.24900600  0.96585800  1
  H  H14  1  0.90861600  0.74900600  0.53414200  1
  H  H15  1  0.90861600  0.75099400  0.03414200  1
  H  H16  1  0.17053200  0.11985800  0.53660100  1
  H  H17  1  0.17053200  0.38014200  0.03660100  1
  H  H18  1  0.82946800  0.88014200  0.46339900  1
  H  H19  1  0.82946800  0.61985800  0.96339900  1
  H  H20  1  0.15935700  0.13755700  0.41505200  1
  H  H21  1  0.15935700  0.36244300  0.91505200  1
  H  H22  1  0.84064300  0.86244300  0.58494800  1
  H  H23  1  0.84064300  0.63755700  0.08494800  1
  H  H24  1  0.75583000  0.09866200  0.67604800  1
  H  H25  1  0.75583000  0.40133800  0.17604800  1
  H  H26  1  0.24417000  0.90133800  0.32395200  1
  H  H27  1  0.24417000  0.59866200  0.82395200  1
  H  H28  1  0.83353100  0.24023100  0.72035900  1
  H  H29  1  0.83353100  0.25976900  0.22035900  1
  H  H30  1  0.16646900  0.75976900  0.27964100  1
  H  H31  1  0.16646900  0.74023100  0.77964100  1
  H  H32  1  0.79142100  0.19424500  0.59596000  1
  H  H33  1  0.79142100  0.30575500  0.09596000  1
  H  H34  1  0.20857900  0.80575500  0.40404000  1
  H  H35  1  0.20857900  0.69424500  0.90404000  1
  H  H36  1  0.86076700  0.39383700  0.52191800  1
  H  H37  1  0.86076700  0.10616300  0.02191800  1
  H  H38  1  0.13923300  0.60616300  0.47808200  1
  H  H39  1  0.13923300  0.89383700  0.97808200  1
  H  H40  1  0.80553500  0.47567400  0.40816700  1
  H  H41  1  0.80553500  0.02432600  0.90816700  1
  H  H42  1  0.19446500  0.52432600  0.59183300  1
  H  H43  1  0.19446500  0.97567400  0.09183300  1
  H  H44  1  0.76272500  0.32725400  0.39492500  1
  H  H45  1  0.76272500  0.17274600  0.89492500  1
  H  H46  1  0.23727500  0.67274600  0.60507500  1
  H  H47  1  0.23727500  0.82725400  0.10507500  1
  H  H48  1  0.11876300  0.46584600  0.28085600  1
  H  H49  1  0.11876300  0.03415400  0.78085600  1
  H  H50  1  0.88123700  0.53415400  0.71914400  1
  H  H51  1  0.88123700  0.96584600  0.21914400  1
  H  H52  1  0.18728300  0.38271900  0.20803600  1
  H  H53  1  0.18728300  0.11728100  0.70803600  1
  H  H54  1  0.81271700  0.61728100  0.79196400  1
  H  H55  1  0.81271700  0.88271900  0.29196400  1
  H  H56  1  0.23127000  0.53099700  0.22198500  1
  H  H57  1  0.23127000  0.96900300  0.72198500  1
  H  H58  1  0.76873000  0.46900300  0.77801500  1
  H  H59  1  0.76873000  0.03099700  0.27801500  1
  C  C60  1  0.18594500  0.17934400  0.48653400  1
  C  C61  1  0.18594500  0.32065600  0.98653400  1
  C  C62  1  0.81405500  0.82065600  0.51346600  1
  C  C63  1  0.81405500  0.67934400  0.01346600  1
  C  C64  1  0.74764500  0.18606900  0.65153500  1
  C  C65  1  0.74764500  0.31393100  0.15153500  1
  C  C66  1  0.25235500  0.81393100  0.34846500  1
  C  C67  1  0.25235500  0.68606900  0.84846500  1
  C  C68  1  0.76471300  0.40352300  0.43610400  1
  C  C69  1  0.76471300  0.09647700  0.93610400  1
  C  C70  1  0.23528700  0.59647700  0.56389600  1
  C  C71  1  0.23528700  0.90352300  0.06389600  1
  C  C72  1  0.22273600  0.45524500  0.26029400  1
  C  C73  1  0.22273600  0.04475500  0.76029400  1
  C  C74  1  0.77726400  0.54475500  0.73970600  1
  C  C75  1  0.77726400  0.95524500  0.23970600  1
  O  O76  1  0.46818900  0.30062800  0.70675600  1
  O  O77  1  0.46818900  0.19937200  0.20675600  1
  O  O78  1  0.53181100  0.69937200  0.29324400  1
  O  O79  1  0.53181100  0.80062800  0.79324400  1
  O  O80  1  0.45246900  0.23792400  0.40117400  1
  O  O81  1  0.45246900  0.26207600  0.90117400  1
  O  O82  1  0.54753100  0.76207600  0.59882600  1
  O  O83  1  0.54753100  0.73792400  0.09882600  1
  O  O84  1  0.51116600  0.48954900  0.84293900  1
  O  O85  1  0.51116600  0.01045100  0.34293900  1
  O  O86  1  0.48883400  0.51045100  0.15706100  1
  O  O87  1  0.48883400  0.98954900  0.65706100  1
  O  O88  1  0.46986300  0.40510000  0.53102700  1
  O  O89  1  0.46986300  0.09490000  0.03102700  1
  O  O90  1  0.53013700  0.59490000  0.46897300  1
  O  O91  1  0.53013700  0.90510000  0.96897300  1
  O  O92  1  0.15555400  0.38786400  0.71737300  1
  O  O93  1  0.15555400  0.11213600  0.21737300  1
  O  O94  1  0.84444600  0.61213600  0.28262700  1
  O  O95  1  0.84444600  0.88786400  0.78262700  1
