# generated using pymatgen
data_HgC4NCl3
_symmetry_space_group_name_H-M   'P 1'
_cell_length_a   15.66382800
_cell_length_b   7.57878400
_cell_length_c   10.08004049
_cell_angle_alpha   85.59044474
_cell_angle_beta   90.00000000
_cell_angle_gamma   90.00000000
_symmetry_Int_Tables_number   1
_chemical_formula_structural   HgC4NCl3
_chemical_formula_sum   'Hg4 C16 N4 Cl12'
_cell_volume   1193.08742739
_cell_formula_units_Z   4
loop_
 _symmetry_equiv_pos_site_id
 _symmetry_equiv_pos_as_xyz
  1  'x, y, z'
loop_
 _atom_site_type_symbol
 _atom_site_label
 _atom_site_symmetry_multiplicity
 _atom_site_fract_x
 _atom_site_fract_y
 _atom_site_fract_z
 _atom_site_occupancy
  Hg  Hg0  1  0.53410600  0.07613900  0.75138700  1
  Hg  Hg1  1  0.03410600  0.92386100  0.24861300  1
  Hg  Hg2  1  0.52016500  0.51363300  0.62371700  1
  Hg  Hg3  1  0.02016500  0.48636700  0.37628300  1
  C  C4  1  0.69590100  0.08326800  0.27786400  1
  C  C5  1  0.19590100  0.91673200  0.72213600  1
  C  C6  1  0.67920200  0.98261100  0.18142100  1
  C  C7  1  0.17920200  0.01738900  0.81857900  1
  C  C8  1  0.72201700  0.10226700  0.52013800  1
  C  C9  1  0.22201700  0.89773300  0.47986200  1
  C  C10  1  0.66479200  0.88906200  0.08688600  1
  C  C11  1  0.16479200  0.11093800  0.91311400  1
  C  C12  1  0.83757700  0.68412000  0.62686700  1
  C  C13  1  0.33757700  0.31588000  0.37313300  1
  C  C14  1  0.95212200  0.42762300  0.90657600  1
  C  C15  1  0.45212200  0.57237700  0.09342400  1
  C  C16  1  0.89566800  0.29376000  0.86838700  1
  C  C17  1  0.39566800  0.70624000  0.13161300  1
  C  C18  1  0.89006500  0.45434100  0.80258400  1
  C  C19  1  0.39006500  0.54565900  0.19741600  1
  N  N20  1  0.70988500  0.09330800  0.40225900  1
  N  N21  1  0.20988500  0.90669200  0.59774100  1
  N  N22  1  0.85880200  0.57180300  0.70976100  1
  N  N23  1  0.35880200  0.42819700  0.29023900  1
  Cl  Cl24  1  0.45025300  0.90103400  0.62640000  1
  Cl  Cl25  1  0.95025300  0.09896600  0.37360000  1
  Cl  Cl26  1  0.36616500  0.91695700  0.10415500  1
  Cl  Cl27  1  0.86616500  0.08304300  0.89584500  1
  Cl  Cl28  1  0.62145900  0.25182900  0.87029400  1
  Cl  Cl29  1  0.12145900  0.74817100  0.12970600  1
  Cl  Cl30  1  0.40485400  0.41170400  0.75233200  1
  Cl  Cl31  1  0.90485400  0.58829600  0.24766800  1
  Cl  Cl32  1  0.63476400  0.57402100  0.48552800  1
  Cl  Cl33  1  0.13476400  0.42597900  0.51447200  1
  Cl  Cl34  1  0.64220200  0.74845100  0.98068000  1
  Cl  Cl35  1  0.14220200  0.25154900  0.01932000  1
