# generated using pymatgen
data_Zr(ClO4)4
_symmetry_space_group_name_H-M   'P 1'
_cell_length_a   8.31868789
_cell_length_b   8.31868789
_cell_length_c   14.86294746
_cell_angle_alpha   69.93055210
_cell_angle_beta   69.93055210
_cell_angle_gamma   61.33443653
_symmetry_Int_Tables_number   1
_chemical_formula_structural   Zr(ClO4)4
_chemical_formula_sum   'Zr2 Cl8 O32'
_cell_volume   827.53187771
_cell_formula_units_Z   2
loop_
 _symmetry_equiv_pos_site_id
 _symmetry_equiv_pos_as_xyz
  1  'x, y, z'
loop_
 _atom_site_type_symbol
 _atom_site_label
 _atom_site_symmetry_multiplicity
 _atom_site_fract_x
 _atom_site_fract_y
 _atom_site_fract_z
 _atom_site_occupancy
  Zr  Zr0  1  0.57678400  0.66665900  0.90872200  1
  Zr  Zr1  1  0.66665900  0.57678400  0.40872200  1
  Cl  Cl2  1  0.61349700  0.27490000  0.98324300  1
  Cl  Cl3  1  0.27490000  0.61349700  0.48324300  1
  Cl  Cl4  1  0.97806200  0.59436200  0.82843400  1
  Cl  Cl5  1  0.59436200  0.97806200  0.32843400  1
  Cl  Cl6  1  0.42626100  0.95733400  0.74321100  1
  Cl  Cl7  1  0.95733400  0.42626100  0.24321100  1
  Cl  Cl8  1  0.02079500  0.15667000  0.05590900  1
  Cl  Cl9  1  0.15667000  0.02079500  0.55590900  1
  O  O10  1  0.55085000  0.41551100  0.89232300  1
  O  O11  1  0.41551100  0.55085000  0.39232300  1
  O  O12  1  0.67659100  0.38556900  0.01902000  1
  O  O13  1  0.38556900  0.67659100  0.51902000  1
  O  O14  1  0.83532200  0.68456300  0.91409800  1
  O  O15  1  0.68456300  0.83532200  0.41409800  1
  O  O16  1  0.86066900  0.53410800  0.79944400  1
  O  O17  1  0.53410800  0.86066900  0.29944400  1
  O  O18  1  0.51441700  0.96317500  0.81585400  1
  O  O19  1  0.96317500  0.51441700  0.31585400  1
  O  O20  1  0.44626000  0.75397300  0.77930000  1
  O  O21  1  0.75397300  0.44626000  0.27930000  1
  O  O22  1  0.30927800  0.71618800  0.99982900  1
  O  O23  1  0.71618800  0.30927800  0.49982900  1
  O  O24  1  0.49301100  0.80472200  0.02109100  1
  O  O25  1  0.80472200  0.49301100  0.52109100  1
  O  O26  1  0.77139800  0.10909300  0.95916000  1
  O  O27  1  0.10909300  0.77139800  0.45916000  1
  O  O28  1  0.45995600  0.24213600  0.05377100  1
  O  O29  1  0.24213600  0.45995600  0.55377100  1
  O  O30  1  0.13431500  0.43644300  0.86275700  1
  O  O31  1  0.43644300  0.13431500  0.36275700  1
  O  O32  1  0.02853300  0.73164200  0.75086400  1
  O  O33  1  0.73164200  0.02853300  0.25086400  1
  O  O34  1  0.23285300  0.08277200  0.75505300  1
  O  O35  1  0.08277200  0.23285300  0.25505300  1
  O  O36  1  0.53340200  0.98492500  0.64574900  1
  O  O37  1  0.98492500  0.53340200  0.14574900  1
  O  O38  1  0.29658200  0.70608800  0.13716000  1
  O  O39  1  0.70608800  0.29658200  0.63716000  1
  O  O40  1  0.21582700  0.03710700  0.08210800  1
  O  O41  1  0.03710700  0.21582700  0.58210800  1
