# generated using pymatgen
data_H9C3S2NO3
_symmetry_space_group_name_H-M   'P 1'
_cell_length_a   6.36237100
_cell_length_b   8.06393837
_cell_length_c   17.42595948
_cell_angle_alpha   89.18042846
_cell_angle_beta   88.74113454
_cell_angle_gamma   75.40772225
_symmetry_Int_Tables_number   1
_chemical_formula_structural   H9C3S2NO3
_chemical_formula_sum   'H36 C12 S8 N4 O12'
_cell_volume   864.96855052
_cell_formula_units_Z   4
loop_
 _symmetry_equiv_pos_site_id
 _symmetry_equiv_pos_as_xyz
  1  'x, y, z'
loop_
 _atom_site_type_symbol
 _atom_site_label
 _atom_site_symmetry_multiplicity
 _atom_site_fract_x
 _atom_site_fract_y
 _atom_site_fract_z
 _atom_site_occupancy
  H  H0  1  0.64448700  0.24752600  0.35215600  1
  H  H1  1  0.35551300  0.75247400  0.64784400  1
  H  H2  1  0.69887100  0.30002700  0.44881100  1
  H  H3  1  0.30112900  0.69997300  0.55118900  1
  H  H4  1  0.67881800  0.08571200  0.42671500  1
  H  H5  1  0.32118200  0.91428800  0.57328500  1
  H  H6  1  0.83443500  0.60033700  0.36773400  1
  H  H7  1  0.16556500  0.39966300  0.63226600  1
  H  H8  1  0.90307700  0.64142600  0.26860500  1
  H  H9  1  0.09692300  0.35857400  0.73139500  1
  H  H10  1  0.97148000  0.42454300  0.30678600  1
  H  H11  1  0.02852000  0.57545700  0.69321400  1
  H  H12  1  0.03573500  0.82450100  0.42040700  1
  H  H13  1  0.96426500  0.17549900  0.57959300  1
  H  H14  1  0.31348900  0.81981400  0.39271000  1
  H  H15  1  0.68651100  0.18018600  0.60729000  1
  H  H16  1  0.10021400  0.87634800  0.32265600  1
  H  H17  1  0.89978600  0.12365200  0.67734400  1
  H  H18  1  0.33139300  0.07025700  0.13529200  1
  H  H19  1  0.66860700  0.92974300  0.86470800  1
  H  H20  1  0.47067000  0.88946100  0.19324600  1
  H  H21  1  0.52933000  0.11053900  0.80675400  1
  H  H22  1  0.39155600  0.10154900  0.23482400  1
  H  H23  1  0.60844400  0.89845100  0.76517600  1
  H  H24  1  0.53183000  0.30960900  0.08627200  1
  H  H25  1  0.46817000  0.69039100  0.91372800  1
  H  H26  1  0.58160900  0.34890600  0.18543600  1
  H  H27  1  0.41839100  0.65109400  0.81456400  1
  H  H28  1  0.80417000  0.30596200  0.11596500  1
  H  H29  1  0.19583000  0.69403800  0.88403500  1
  H  H30  1  0.14402300  0.73286200  0.13960200  1
  H  H31  1  0.85597700  0.26713800  0.86039800  1
  H  H32  1  0.17812800  0.57392300  0.06528900  1
  H  H33  1  0.82187200  0.42607700  0.93471100  1
  H  H34  1  0.20226600  0.78848300  0.04220600  1
  H  H35  1  0.79773400  0.21151700  0.95779400  1
  C  C36  1  0.62068200  0.22273000  0.41328700  1
  C  C37  1  0.37931800  0.77727000  0.58671300  1
  C  C38  1  0.94950300  0.56047600  0.31964900  1
  C  C39  1  0.05049700  0.43952400  0.68035100  1
  C  C40  1  0.15841400  0.79978200  0.37399800  1
  C  C41  1  0.84158600  0.20021800  0.62600200  1
  C  C42  1  0.44416300  0.02734400  0.18247100  1
  C  C43  1  0.55583700  0.97265600  0.81752900  1
  C  C44  1  0.64849300  0.28005400  0.13296000  1
  C  C45  1  0.35150700  0.71994600  0.86704000  1
  C  C46  1  0.12166000  0.71063700  0.07879500  1
  C  C47  1  0.87834000  0.28936300  0.92120500  1
  S  S48  1  0.33710100  0.28104100  0.43482700  1
  S  S49  1  0.66289900  0.71895900  0.56517300  1
  S  S50  1  0.20803800  0.58167700  0.34880500  1
  S  S51  1  0.79196200  0.41832300  0.65119500  1
  S  S52  1  0.70202300  0.05803500  0.15310300  1
  S  S53  1  0.29797700  0.94196500  0.84689700  1
  S  S54  1  0.83893300  0.77183400  0.05990800  1
  S  S55  1  0.16106700  0.22816600  0.94009200  1
  N  N56  1  0.26991200  0.48975500  0.42795500  1
  N  N57  1  0.73008800  0.51024500  0.57204500  1
  N  N58  1  0.77063600  0.97930500  0.07199300  1
  N  N59  1  0.22936400  0.02069500  0.92800700  1
  O  O60  1  0.30757800  0.24083100  0.51535700  1
  O  O61  1  0.69242200  0.75916900  0.48464300  1
  O  O62  1  0.22913500  0.20058400  0.37852500  1
  O  O63  1  0.77086500  0.79941600  0.62147500  1
  O  O64  1  0.36157100  0.54207000  0.28403300  1
  O  O65  1  0.63842900  0.45793000  0.71596700  1
  O  O66  1  0.85192300  0.01064400  0.21678100  1
  O  O67  1  0.14807700  0.98935600  0.78321900  1
  O  O68  1  0.81160100  0.74460600  0.97895800  1
  O  O69  1  0.18839900  0.25539400  0.02104200  1
  O  O70  1  0.72936100  0.68255200  0.11512200  1
  O  O71  1  0.27063900  0.31744800  0.88487800  1
