# generated using pymatgen
data_Al2Si2PbO8
_symmetry_space_group_name_H-M   'P 1'
_cell_length_a   13.23330400
_cell_length_b   8.50270400
_cell_length_c   14.51166032
_cell_angle_alpha   64.87643612
_cell_angle_beta   90.00000000
_cell_angle_gamma   90.00000000
_symmetry_Int_Tables_number   1
_chemical_formula_structural   Al2Si2PbO8
_chemical_formula_sum   'Al16 Si16 Pb8 O64'
_cell_volume   1478.35996233
_cell_formula_units_Z   8
loop_
 _symmetry_equiv_pos_site_id
 _symmetry_equiv_pos_as_xyz
  1  'x, y, z'
loop_
 _atom_site_type_symbol
 _atom_site_label
 _atom_site_symmetry_multiplicity
 _atom_site_fract_x
 _atom_site_fract_y
 _atom_site_fract_z
 _atom_site_occupancy
  Al  Al0  1  0.42491500  0.74485600  0.36639300  1
  Al  Al1  1  0.92491500  0.25514400  0.13360700  1
  Al  Al2  1  0.57508500  0.25514400  0.63360700  1
  Al  Al3  1  0.07508500  0.74485600  0.86639300  1
  Al  Al4  1  0.93278600  0.25012200  0.86780200  1
  Al  Al5  1  0.43278600  0.74987800  0.63219800  1
  Al  Al6  1  0.06721400  0.74987800  0.13219800  1
  Al  Al7  1  0.56721400  0.25012200  0.36780200  1
  Al  Al8  1  0.37299000  0.05256900  0.91896800  1
  Al  Al9  1  0.87299000  0.94743100  0.58103200  1
  Al  Al10  1  0.62701000  0.94743100  0.08103200  1
  Al  Al11  1  0.12701000  0.05256900  0.41896800  1
  Al  Al12  1  0.86668000  0.55523100  0.42136600  1
  Al  Al13  1  0.36668000  0.44476900  0.07863400  1
  Al  Al14  1  0.13332000  0.44476900  0.57863400  1
  Al  Al15  1  0.63332000  0.55523100  0.92136600  1
  Si  Si16  1  0.42579000  0.73579400  0.86034700  1
  Si  Si17  1  0.92579000  0.26420600  0.63965300  1
  Si  Si18  1  0.57421000  0.26420600  0.13965300  1
  Si  Si19  1  0.07421000  0.73579400  0.36034700  1
  Si  Si20  1  0.92646100  0.24264000  0.35823100  1
  Si  Si21  1  0.42646100  0.75736000  0.14176900  1
  Si  Si22  1  0.07353900  0.75736000  0.64176900  1
  Si  Si23  1  0.57353900  0.24264000  0.85823100  1
  Si  Si24  1  0.36126500  0.05869300  0.42780700  1
  Si  Si25  1  0.86126500  0.94130700  0.07219300  1
  Si  Si26  1  0.63873500  0.94130700  0.57219300  1
  Si  Si27  1  0.13873500  0.05869300  0.92780700  1
  Si  Si28  1  0.86637600  0.56680300  0.92513200  1
  Si  Si29  1  0.36637600  0.43319700  0.57486800  1
  Si  Si30  1  0.13362400  0.43319700  0.07486800  1
  Si  Si31  1  0.63362400  0.56680300  0.42513200  1
  Pb  Pb32  1  0.24980400  0.47516300  0.82566900  1
  Pb  Pb33  1  0.74980400  0.52483700  0.67433100  1
  Pb  Pb34  1  0.75019600  0.52483700  0.17433100  1
  Pb  Pb35  1  0.25019600  0.47516300  0.32566900  1
  Pb  Pb36  1  0.73263500  0.98694600  0.31849800  1
  Pb  Pb37  1  0.23263500  0.01305400  0.18150200  1
  Pb  Pb38  1  0.26736500  0.01305400  0.68150200  1
  Pb  Pb39  1  0.76736500  0.98694600  0.81849800  1
  O  O40  1  0.37858800  0.75684400  0.24835200  1
  O  O41  1  0.87858800  0.24315600  0.25164800  1
  O  O42  1  0.62141200  0.24315600  0.75164800  1
  O  O43  1  0.12141200  0.75684400  0.74835200  1
  O  O44  1  0.88874400  0.26447700  0.74873600  1
  O  O45  1  0.38874400  0.73552300  0.75126400  1
  O  O46  1  0.11125600  0.73552300  0.25126400  1
  O  O47  1  0.61125600  0.26447700  0.24873600  1
  O  O48  1  0.24844500  0.15069800  0.40000700  1
  O  O49  1  0.74844500  0.84930200  0.09999300  1
  O  O50  1  0.75155500  0.84930200  0.59999300  1
  O  O51  1  0.25155500  0.15069800  0.90000700  1
  O  O52  1  0.75351200  0.65865300  0.89312000  1
  O  O53  1  0.25351200  0.34134700  0.60688000  1
  O  O54  1  0.24648800  0.34134700  0.10688000  1
  O  O55  1  0.74648800  0.65865300  0.39312000  1
  O  O56  1  0.37616800  0.93129100  0.37155700  1
  O  O57  1  0.87616800  0.06870900  0.12844300  1
  O  O58  1  0.62383200  0.06870900  0.62844300  1
  O  O59  1  0.12383200  0.93129100  0.87155700  1
  O  O60  1  0.88511900  0.43820800  0.87054200  1
  O  O61  1  0.38511900  0.56179200  0.62945800  1
  O  O62  1  0.11488100  0.56179200  0.12945800  1
  O  O63  1  0.61488100  0.43820800  0.37054200  1
  O  O64  1  0.37737800  0.91811600  0.85354400  1
  O  O65  1  0.87737800  0.08188400  0.64645600  1
  O  O66  1  0.62262200  0.08188400  0.14645600  1
  O  O67  1  0.12262200  0.91811600  0.35354400  1
  O  O68  1  0.88038400  0.41943100  0.35958000  1
  O  O69  1  0.38038400  0.58056900  0.14042000  1
  O  O70  1  0.11961600  0.58056900  0.64042000  1
  O  O71  1  0.61961600  0.41943100  0.85958000  1
  O  O72  1  0.55598700  0.73126700  0.38504600  1
  O  O73  1  0.05598700  0.26873300  0.11495400  1
  O  O74  1  0.44401300  0.26873300  0.61495400  1
  O  O75  1  0.94401300  0.73126700  0.88504600  1
  O  O76  1  0.06226100  0.22431800  0.88781300  1
  O  O77  1  0.56226100  0.77568200  0.61218700  1
  O  O78  1  0.93773900  0.77568200  0.11218700  1
  O  O79  1  0.43773900  0.22431800  0.38781300  1
  O  O80  1  0.54658800  0.72632600  0.87730900  1
  O  O81  1  0.04658800  0.27367400  0.62269100  1
  O  O82  1  0.45341200  0.27367400  0.12269100  1
  O  O83  1  0.95341200  0.72632600  0.37730900  1
  O  O84  1  0.04944800  0.23616400  0.36121600  1
  O  O85  1  0.54944800  0.76383600  0.13878400  1
  O  O86  1  0.95055200  0.76383600  0.63878400  1
  O  O87  1  0.45055200  0.23616400  0.86121600  1
  O  O88  1  0.36711500  0.54518000  0.44991200  1
  O  O89  1  0.86711500  0.45482000  0.05008800  1
  O  O90  1  0.63288500  0.45482000  0.55008800  1
  O  O91  1  0.13288500  0.54518000  0.94991200  1
  O  O92  1  0.86753700  0.05565100  0.94744400  1
  O  O93  1  0.36753700  0.94434900  0.55255600  1
  O  O94  1  0.13246300  0.94434900  0.05255600  1
  O  O95  1  0.63246300  0.05565100  0.44744400  1
  O  O96  1  0.36848000  0.56229300  0.94431500  1
  O  O97  1  0.86848000  0.43770700  0.55568500  1
  O  O98  1  0.63152000  0.43770700  0.05568500  1
  O  O99  1  0.13152000  0.56229300  0.44431500  1
  O  O100  1  0.88206600  0.06499700  0.44904400  1
  O  O101  1  0.38206600  0.93500300  0.05095600  1
  O  O102  1  0.11793400  0.93500300  0.55095600  1
  O  O103  1  0.61793400  0.06499700  0.94904400  1
