# generated using pymatgen
data_MnC4ClO4
_symmetry_space_group_name_H-M   'P 1'
_cell_length_a   11.97372100
_cell_length_b   9.71615900
_cell_length_c   13.07077558
_cell_angle_alpha   70.41552291
_cell_angle_beta   90.00000000
_cell_angle_gamma   90.00000000
_symmetry_Int_Tables_number   1
_chemical_formula_structural   MnC4ClO4
_chemical_formula_sum   'Mn8 C32 Cl8 O32'
_cell_volume   1432.66408808
_cell_formula_units_Z   8
loop_
 _symmetry_equiv_pos_site_id
 _symmetry_equiv_pos_as_xyz
  1  'x, y, z'
loop_
 _atom_site_type_symbol
 _atom_site_label
 _atom_site_symmetry_multiplicity
 _atom_site_fract_x
 _atom_site_fract_y
 _atom_site_fract_z
 _atom_site_occupancy
  Mn  Mn0  1  0.87958400  0.40561100  0.82502200  1
  Mn  Mn1  1  0.37958400  0.59438900  0.67497800  1
  Mn  Mn2  1  0.12041600  0.59438900  0.17497800  1
  Mn  Mn3  1  0.62041600  0.40561100  0.32502200  1
  Mn  Mn4  1  0.87359000  0.81072900  0.72281900  1
  Mn  Mn5  1  0.37359000  0.18927100  0.77718100  1
  Mn  Mn6  1  0.12641000  0.18927100  0.27718100  1
  Mn  Mn7  1  0.62641000  0.81072900  0.22281900  1
  C  C8  1  0.96701200  0.41292200  0.70297600  1
  C  C9  1  0.46701200  0.58707800  0.79702400  1
  C  C10  1  0.03298800  0.58707800  0.29702400  1
  C  C11  1  0.53298800  0.41292200  0.20297600  1
  C  C12  1  0.97320300  0.26804800  0.91475600  1
  C  C13  1  0.47320300  0.73195200  0.58524400  1
  C  C14  1  0.02679700  0.73195200  0.08524400  1
  C  C15  1  0.52679700  0.26804800  0.41475600  1
  C  C16  1  0.79272700  0.26273900  0.80425700  1
  C  C17  1  0.29272700  0.73726100  0.69574300  1
  C  C18  1  0.20727300  0.73726100  0.19574300  1
  C  C19  1  0.70727300  0.26273900  0.30425700  1
  C  C20  1  0.79088000  0.40483100  0.94495000  1
  C  C21  1  0.29088000  0.59516900  0.55505000  1
  C  C22  1  0.20912000  0.59516900  0.05505000  1
  C  C23  1  0.70912000  0.40483100  0.44495000  1
  C  C24  1  0.96496900  0.80647500  0.60695900  1
  C  C25  1  0.46496900  0.19352500  0.89304100  1
  C  C26  1  0.03503100  0.19352500  0.39304100  1
  C  C27  1  0.53503100  0.80647500  0.10695900  1
  C  C28  1  0.96089800  0.95336900  0.74405200  1
  C  C29  1  0.46089800  0.04663100  0.75594800  1
  C  C30  1  0.03910200  0.04663100  0.25594800  1
  C  C31  1  0.53910200  0.95336900  0.24405200  1
  C  C32  1  0.78315600  0.94849900  0.62966900  1
  C  C33  1  0.28315600  0.05150100  0.87033100  1
  C  C34  1  0.21684400  0.05150100  0.37033100  1
  C  C35  1  0.71684400  0.94849900  0.12966900  1
  C  C36  1  0.78155200  0.80525200  0.84192500  1
  C  C37  1  0.28155200  0.19474800  0.65807500  1
  C  C38  1  0.21844800  0.19474800  0.15807500  1
  C  C39  1  0.71844800  0.80525200  0.34192500  1
  Cl  Cl40  1  0.98583600  0.61163500  0.84207500  1
  Cl  Cl41  1  0.48583600  0.38836500  0.65792500  1
  Cl  Cl42  1  0.01416400  0.38836500  0.15792500  1
  Cl  Cl43  1  0.51416400  0.61163500  0.34207500  1
  Cl  Cl44  1  0.76576500  0.60523800  0.70690700  1
  Cl  Cl45  1  0.26576500  0.39476200  0.79309300  1
  Cl  Cl46  1  0.23423500  0.39476200  0.29309300  1
  Cl  Cl47  1  0.73423500  0.60523800  0.20690700  1
  O  O48  1  0.01903600  0.41503600  0.62827600  1
  O  O49  1  0.51903600  0.58496400  0.87172400  1
  O  O50  1  0.98096400  0.58496400  0.37172400  1
  O  O51  1  0.48096400  0.41503600  0.12827600  1
  O  O52  1  0.03151500  0.17987500  0.97091400  1
  O  O53  1  0.53151500  0.82012500  0.52908600  1
  O  O54  1  0.96848500  0.82012500  0.02908600  1
  O  O55  1  0.46848500  0.17987500  0.47091400  1
  O  O56  1  0.73904700  0.17038400  0.79151100  1
  O  O57  1  0.23904700  0.82961600  0.70848900  1
  O  O58  1  0.26095300  0.82961600  0.20848900  1
  O  O59  1  0.76095300  0.17038400  0.29151100  1
  O  O60  1  0.73625200  0.40069300  0.01853200  1
  O  O61  1  0.23625200  0.59930700  0.48146800  1
  O  O62  1  0.26374800  0.59930700  0.98146800  1
  O  O63  1  0.76374800  0.40069300  0.51853200  1
  O  O64  1  0.02210700  0.80665000  0.53572200  1
  O  O65  1  0.52210700  0.19335000  0.96427800  1
  O  O66  1  0.97789300  0.19335000  0.46427800  1
  O  O67  1  0.47789300  0.80665000  0.03572200  1
  O  O68  1  0.01534000  0.04487500  0.75698700  1
  O  O69  1  0.51534000  0.95512500  0.74301300  1
  O  O70  1  0.98466000  0.95512500  0.24301300  1
  O  O71  1  0.48466000  0.04487500  0.25698700  1
  O  O72  1  0.72751000  0.03717100  0.57018000  1
  O  O73  1  0.22751000  0.96282900  0.92982000  1
  O  O74  1  0.27249000  0.96282900  0.42982000  1
  O  O75  1  0.77249000  0.03717100  0.07018000  1
  O  O76  1  0.72471400  0.80361000  0.91347100  1
  O  O77  1  0.22471400  0.19639000  0.58652900  1
  O  O78  1  0.27528600  0.19639000  0.08652900  1
  O  O79  1  0.77528600  0.80361000  0.41347100  1
