# generated using pymatgen
data_Pr2S3O20
_symmetry_space_group_name_H-M   'P 1'
_cell_length_a   7.39566451
_cell_length_b   7.39566451
_cell_length_c   18.24153872
_cell_angle_alpha   84.73908947
_cell_angle_beta   84.73908947
_cell_angle_gamma   54.51033786
_symmetry_Int_Tables_number   1
_chemical_formula_structural   Pr2S3O20
_chemical_formula_sum   'Pr4 S6 O40'
_cell_volume   808.04457112
_cell_formula_units_Z   2
loop_
 _symmetry_equiv_pos_site_id
 _symmetry_equiv_pos_as_xyz
  1  'x, y, z'
loop_
 _atom_site_type_symbol
 _atom_site_label
 _atom_site_symmetry_multiplicity
 _atom_site_fract_x
 _atom_site_fract_y
 _atom_site_fract_z
 _atom_site_occupancy
  Pr  Pr0  1  0.84659500  0.80625700  0.38379700  1
  Pr  Pr1  1  0.19374300  0.15340500  0.11620300  1
  Pr  Pr2  1  0.15340500  0.19374300  0.61620300  1
  Pr  Pr3  1  0.80625700  0.84659500  0.88379700  1
  S  S4  1  0.22605900  0.16734700  0.41083400  1
  S  S5  1  0.83265300  0.77394100  0.08916600  1
  S  S6  1  0.77394100  0.83265300  0.58916600  1
  S  S7  1  0.16734700  0.22605900  0.91083400  1
  S  S8  1  0.32550200  0.67449800  0.25000000  1
  S  S9  1  0.67449800  0.32550200  0.75000000  1
  O  O10  1  0.22656100  0.08703400  0.48907200  1
  O  O11  1  0.91296600  0.77343900  0.01092800  1
  O  O12  1  0.77343900  0.91296600  0.51092800  1
  O  O13  1  0.08703400  0.22656100  0.98907200  1
  O  O14  1  0.07274600  0.41406000  0.40797500  1
  O  O15  1  0.58594000  0.92725400  0.09202500  1
  O  O16  1  0.92725400  0.58594000  0.59202500  1
  O  O17  1  0.41406000  0.07274600  0.90797500  1
  O  O18  1  0.16284700  0.06671100  0.36115300  1
  O  O19  1  0.93328900  0.83715300  0.13884700  1
  O  O20  1  0.83715300  0.93328900  0.63884700  1
  O  O21  1  0.06671100  0.16284700  0.86115300  1
  O  O22  1  0.45538900  0.09812900  0.38608200  1
  O  O23  1  0.90187100  0.54461100  0.11391800  1
  O  O24  1  0.54461100  0.90187100  0.61391800  1
  O  O25  1  0.09812900  0.45538900  0.88608200  1
  O  O26  1  0.40704500  0.50013300  0.19503200  1
  O  O27  1  0.49986700  0.59295500  0.30496800  1
  O  O28  1  0.59295500  0.49986700  0.80496800  1
  O  O29  1  0.50013300  0.40704500  0.69503200  1
  O  O30  1  0.11979100  0.72186100  0.29033000  1
  O  O31  1  0.27813900  0.88020900  0.20967000  1
  O  O32  1  0.88020900  0.27813900  0.70967000  1
  O  O33  1  0.72186100  0.11979100  0.79033000  1
  O  O34  1  0.82881500  0.15562500  0.37663700  1
  O  O35  1  0.84437500  0.17118500  0.12336300  1
  O  O36  1  0.17118500  0.84437500  0.62336300  1
  O  O37  1  0.15562500  0.82881500  0.87663700  1
  O  O38  1  0.66597400  0.75218300  0.29203600  1
  O  O39  1  0.24781700  0.33402600  0.20796400  1
  O  O40  1  0.33402600  0.24781700  0.70796400  1
  O  O41  1  0.75218300  0.66597400  0.79203600  1
  O  O42  1  0.24675100  0.63972100  0.46277800  1
  O  O43  1  0.36027900  0.75324900  0.03722200  1
  O  O44  1  0.75324900  0.36027900  0.53722200  1
  O  O45  1  0.63972100  0.24675100  0.96277800  1
  O  O46  1  0.66815300  0.52646000  0.49491800  1
  O  O47  1  0.47354000  0.33184700  0.00508200  1
  O  O48  1  0.33184700  0.47354000  0.50508200  1
  O  O49  1  0.52646000  0.66815300  0.99491800  1
