# generated using pymatgen
data_NaCu5Se2Cl3O8
_symmetry_space_group_name_H-M   'P 1'
_cell_length_a   6.49445700
_cell_length_b   10.64779500
_cell_length_c   18.07185400
_cell_angle_alpha   90.00000000
_cell_angle_beta   90.00000000
_cell_angle_gamma   90.00000000
_symmetry_Int_Tables_number   1
_chemical_formula_structural   NaCu5Se2Cl3O8
_chemical_formula_sum   'Na4 Cu20 Se8 Cl12 O32'
_cell_volume   1249.69846433
_cell_formula_units_Z   4
loop_
 _symmetry_equiv_pos_site_id
 _symmetry_equiv_pos_as_xyz
  1  'x, y, z'
loop_
 _atom_site_type_symbol
 _atom_site_label
 _atom_site_symmetry_multiplicity
 _atom_site_fract_x
 _atom_site_fract_y
 _atom_site_fract_z
 _atom_site_occupancy
  Na  Na0  1  0.25000000  0.76407100  0.90556600  1
  Na  Na1  1  0.25000000  0.73592900  0.40556600  1
  Na  Na2  1  0.75000000  0.23592900  0.09443400  1
  Na  Na3  1  0.75000000  0.26407100  0.59443400  1
  Cu  Cu4  1  0.25000000  0.00029500  0.09767700  1
  Cu  Cu5  1  0.25000000  0.49970500  0.59767700  1
  Cu  Cu6  1  0.75000000  0.99970500  0.90232300  1
  Cu  Cu7  1  0.75000000  0.50029500  0.40232300  1
  Cu  Cu8  1  0.25000000  0.50246900  0.13347700  1
  Cu  Cu9  1  0.25000000  0.99753100  0.63347700  1
  Cu  Cu10  1  0.75000000  0.49753100  0.86652300  1
  Cu  Cu11  1  0.75000000  0.00246900  0.36652300  1
  Cu  Cu12  1  0.25000000  0.21894700  0.21980800  1
  Cu  Cu13  1  0.25000000  0.28105300  0.71980800  1
  Cu  Cu14  1  0.75000000  0.78105300  0.78019200  1
  Cu  Cu15  1  0.75000000  0.71894700  0.28019200  1
  Cu  Cu16  1  0.00500500  0.95941200  0.23664200  1
  Cu  Cu17  1  0.49499500  0.54058800  0.73664200  1
  Cu  Cu18  1  0.50500500  0.04058800  0.76335800  1
  Cu  Cu19  1  0.99499500  0.45941200  0.26335800  1
  Cu  Cu20  1  0.99499500  0.04058800  0.76335800  1
  Cu  Cu21  1  0.50500500  0.45941200  0.26335800  1
  Cu  Cu22  1  0.49499500  0.95941200  0.23664200  1
  Cu  Cu23  1  0.00500500  0.54058800  0.73664200  1
  Se  Se24  1  0.25000000  0.07634300  0.93081700  1
  Se  Se25  1  0.25000000  0.42365700  0.43081700  1
  Se  Se26  1  0.75000000  0.92365700  0.06918300  1
  Se  Se27  1  0.75000000  0.57634300  0.56918300  1
  Se  Se28  1  0.75000000  0.58336600  0.11672600  1
  Se  Se29  1  0.75000000  0.91663400  0.61672600  1
  Se  Se30  1  0.25000000  0.41663400  0.88327400  1
  Se  Se31  1  0.25000000  0.08336600  0.38327400  1
  Cl  Cl32  1  0.25000000  0.24483200  0.09022800  1
  Cl  Cl33  1  0.25000000  0.25516800  0.59022800  1
  Cl  Cl34  1  0.75000000  0.75516800  0.90977200  1
  Cl  Cl35  1  0.75000000  0.74483200  0.40977200  1
  Cl  Cl36  1  0.25000000  0.63092200  0.03712600  1
  Cl  Cl37  1  0.25000000  0.86907800  0.53712600  1
  Cl  Cl38  1  0.75000000  0.36907800  0.96287400  1
  Cl  Cl39  1  0.75000000  0.13092200  0.46287400  1
  Cl  Cl40  1  0.25000000  0.73607700  0.25501300  1
  Cl  Cl41  1  0.25000000  0.76392300  0.75501300  1
  Cl  Cl42  1  0.75000000  0.26392300  0.74498700  1
  Cl  Cl43  1  0.75000000  0.23607700  0.24498700  1
  O  O44  1  0.75000000  0.89869200  0.27449000  1
  O  O45  1  0.75000000  0.60130800  0.77449000  1
  O  O46  1  0.25000000  0.10130800  0.72551000  1
  O  O47  1  0.25000000  0.39869200  0.22551000  1
  O  O48  1  0.25000000  0.04033900  0.20341200  1
  O  O49  1  0.25000000  0.45966100  0.70341200  1
  O  O50  1  0.75000000  0.95966100  0.79658800  1
  O  O51  1  0.75000000  0.54033900  0.29658800  1
  O  O52  1  0.95000000  0.48942200  0.15317000  1
  O  O53  1  0.55000000  0.01057800  0.65317000  1
  O  O54  1  0.45000000  0.51057800  0.84683000  1
  O  O55  1  0.05000000  0.98942200  0.34683000  1
  O  O56  1  0.05000000  0.51057800  0.84683000  1
  O  O57  1  0.45000000  0.98942200  0.34683000  1
  O  O58  1  0.55000000  0.48942200  0.15317000  1
  O  O59  1  0.95000000  0.01057800  0.65317000  1
  O  O60  1  0.25000000  0.95367400  0.99341100  1
  O  O61  1  0.25000000  0.54632600  0.49341100  1
  O  O62  1  0.75000000  0.04632600  0.00658900  1
  O  O63  1  0.75000000  0.45367400  0.50658900  1
  O  O64  1  0.75000000  0.71333700  0.17144700  1
  O  O65  1  0.75000000  0.78666300  0.67144700  1
  O  O66  1  0.25000000  0.28666300  0.82855300  1
  O  O67  1  0.25000000  0.21333700  0.32855300  1
  O  O68  1  0.04741200  0.02480900  0.87401100  1
  O  O69  1  0.45258800  0.47519100  0.37401100  1
  O  O70  1  0.54741200  0.97519100  0.12598900  1
  O  O71  1  0.95258800  0.52480900  0.62598900  1
  O  O72  1  0.95258800  0.97519100  0.12598900  1
  O  O73  1  0.54741200  0.52480900  0.62598900  1
  O  O74  1  0.45258800  0.02480900  0.87401100  1
  O  O75  1  0.04741200  0.47519100  0.37401100  1
