# generated using pymatgen
data_CeP4H50C12Cl3O11
_symmetry_space_group_name_H-M   'P 1'
_cell_length_a   10.63063475
_cell_length_b   11.32345731
_cell_length_c   16.14734754
_cell_angle_alpha   70.83023510
_cell_angle_beta   82.58770800
_cell_angle_gamma   74.66372920
_symmetry_Int_Tables_number   1
_chemical_formula_structural   CeP4H50C12Cl3O11
_chemical_formula_sum   'Ce2 P8 H100 C24 Cl6 O22'
_cell_volume   1768.68871648
_cell_formula_units_Z   2
loop_
 _symmetry_equiv_pos_site_id
 _symmetry_equiv_pos_as_xyz
  1  'x, y, z'
loop_
 _atom_site_type_symbol
 _atom_site_label
 _atom_site_symmetry_multiplicity
 _atom_site_fract_x
 _atom_site_fract_y
 _atom_site_fract_z
 _atom_site_occupancy
  Ce  Ce0  1  0.82572529  0.55252557  0.76216613  1
  Ce  Ce1  1  0.17427471  0.44747443  0.23783387  1
  P  P2  1  0.54241139  0.46706219  0.69257354  1
  P  P3  1  0.45758861  0.53293781  0.30742646  1
  P  P4  1  0.86366667  0.71917651  0.91979388  1
  P  P5  1  0.13633333  0.28082349  0.08020612  1
  P  P6  1  0.78092059  0.86990270  0.57175988  1
  P  P7  1  0.21907941  0.13009730  0.42824012  1
  P  P8  1  0.02538971  0.21795518  0.77905522  1
  P  P9  1  0.97461029  0.78204482  0.22094478  1
  H  H10  1  0.53967121  0.62821215  0.55384894  1
  H  H11  1  0.46032879  0.37178785  0.44615106  1
  H  H12  1  0.37791348  0.60965124  0.59369750  1
  H  H13  1  0.62208652  0.39034876  0.40630250  1
  H  H14  1  0.45696660  0.69526829  0.63886017  1
  H  H15  1  0.54303340  0.30473171  0.36113983  1
  H  H16  1  0.46879885  0.35351154  0.83566345  1
  H  H17  1  0.53120115  0.64648846  0.16433655  1
  H  H18  1  0.41759253  0.52441343  0.81474240  1
  H  H19  1  0.58240747  0.47558657  0.18525760  1
  H  H20  1  0.33533793  0.44695773  0.76545411  1
  H  H21  1  0.66466207  0.55304227  0.23454589  1
  H  H22  1  0.58372177  0.24653327  0.69592179  1
  H  H23  1  0.41627823  0.75346673  0.30407821  1
  H  H24  1  0.44679244  0.34635800  0.63166167  1
  H  H25  1  0.55320756  0.65364200  0.36833833  1
  H  H26  1  0.61063045  0.35171751  0.58791107  1
  H  H27  1  0.38936955  0.64828249  0.41208893  1
  H  H28  1  0.72482744  0.88403811  0.81275372  1
  H  H29  1  0.27517256  0.11596189  0.18724628  1
  H  H30  1  0.80034489  0.94981517  0.87468452  1
  H  H31  1  0.19965511  0.05018483  0.12531548  1
  H  H32  1  0.89403930  0.88817844  0.78993425  1
  H  H33  1  0.10596070  0.11182156  0.21006575  1
  H  H34  1  0.08925257  0.71962285  0.91042068  1
  H  H35  1  0.91074743  0.28037715  0.08957932  1
  H  H36  1  0.00025595  0.79152488  0.99075694  1
  H  H37  1  0.99974405  0.20847512  0.00924306  1
  H  H38  1  0.04090472  0.62052338  0.01600734  1
  H  H39  1  0.95909528  0.37947662  0.98399266  1
  H  H40  1  0.64834341  0.71340736  0.98589154  1
  H  H41  1  0.35165659  0.28659264  0.01410846  1
  H  H42  1  0.77441500  0.61815454  0.06126097  1
  H  H43  1  0.22558500  0.38184546  0.93873903  1
  H  H44  1  0.73158547  0.79020132  0.03446920  1
  H  H45  1  0.26841453  0.20979868  0.96553080  1
  H  H46  1  0.79580206  0.04841181  0.61671230  1
  H  H47  1  0.20419794  0.95158819  0.38328770  1
  H  H48  1  0.73194599  0.10048800  0.50994641  1
  H  H49  1  0.26805401  0.89951200  0.49005359  1
  H  H50  1  0.63036875  0.04716022  0.60660157  1
  H  H51  1  0.36963125  0.95283978  0.39339843  1
  H  H52  1  0.00885715  0.86640959  0.55290876  1
  H  H53  1  0.99114285  0.13359041  0.44709124  1
  H  H54  1  0.97058318  0.76141029  0.50376271  1
  H  H55  1  0.02941682  0.23858971  0.49623729  1
  H  H56  1  0.92862160  0.93267949  0.45005007  1
  H  H57  1  0.07137840  0.06732051  0.54994993  1
  H  H58  1  0.57077751  0.87045038  0.53391950  1
  H  H59  1  0.42922249  0.12954962  0.46608050  1
  H  H60  1  0.66722241  0.93560267  0.43838913  1
  H  H61  1  0.33277759  0.06439733  0.56161087  1
  H  H62  1  0.69847405  0.76492415  0.49021474  1
  H  H63  1  0.30152595  0.23507585  0.50978526  1
  H  H64  1  0.96251550  0.07119473  0.91302588  1
  H  H65  1  0.03748450  0.92880527  0.08697412  1
  H  H66  1  0.08890087  0.99218798  0.84978781  1
  H  H67  1  0.91109913  0.00781202  0.15021219  1
  H  H68  1  0.12995899  0.07873264  0.91273653  1
  H  H69  1  0.87004101  0.92126736  0.08726347  1
  H  H70  1  0.82363823  0.18533812  0.75202980  1
  H  H71  1  0.17636177  0.81466188  0.24797020  1
  H  H72  1  0.90084669  0.26712647  0.65240920  1
  H  H73  1  0.09915331  0.73287353  0.34759080  1
  H  H74  1  0.96199938  0.09628354  0.70287359  1
  H  H75  1  0.03800062  0.90371646  0.29712641  1
  H  H76  1  0.17048082  0.30191543  0.65994666  1
  H  H77  1  0.82951918  0.69808457  0.34005334  1
  H  H78  1  0.25277799  0.21603361  0.76052474  1
  H  H79  1  0.74722201  0.78396639  0.23947526  1
  H  H80  1  0.20929051  0.12780822  0.69954434  1
  H  H81  1  0.79070949  0.87219178  0.30045566  1
  H  H82  1  0.69982032  0.33301405  0.90691849  1
  H  H83  1  0.30017968  0.66698595  0.09308151  1
  H  H84  1  0.71329509  0.41685056  0.96261567  1
  H  H85  1  0.28670491  0.58314944  0.03738433  1
  H  H86  1  0.11119347  0.58296538  0.66577651  1
  H  H87  1  0.88880653  0.41703462  0.33422349  1
  H  H88  1  0.09275080  0.67304574  0.72475584  1
  H  H89  1  0.90724920  0.32695426  0.27524416  1
  H  H90  1  0.99956082  0.52543994  0.58634757  1
  H  H91  1  0.00043918  0.47456006  0.41365243  1
  H  H92  1  0.86430600  0.50559343  0.56902155  1
  H  H93  1  0.13569400  0.49440657  0.43097845  1
  H  H94  1  0.56741835  0.78268724  0.76194111  1
  H  H95  1  0.43258165  0.21731276  0.23805889  1
  H  H96  1  0.53293980  0.67227076  0.84182121  1
  H  H97  1  0.46706020  0.32772924  0.15817879  1
  H  H98  1  0.30497741  0.75000416  0.84683020  1
  H  H99  1  0.69502259  0.24999584  0.15316980  1
  H  H100  1  0.35428239  0.76454021  0.93031797  1
  H  H101  1  0.64571761  0.23545979  0.06968203  1
  H  H102  1  0.37986519  0.91691683  0.72508313  1
  H  H103  1  0.62013481  0.08308317  0.27491687  1
  H  H104  1  0.45902023  0.97501987  0.77225278  1
  H  H105  1  0.54097977  0.02498013  0.22774722  1
  H  H106  1  0.58057764  0.01854642  0.07929819  1
  H  H107  1  0.41942236  0.98145358  0.92070181  1
  H  H108  1  0.47608704  0.93738621  0.11298938  1
  H  H109  1  0.52391296  0.06261379  0.88701062  1
  C  C110  1  0.47200347  0.61519682  0.61176562  1
  C  C111  1  0.52799653  0.38480318  0.38823438  1
  C  C112  1  0.43003642  0.44600901  0.78645097  1
  C  C113  1  0.56996358  0.55399099  0.21354903  1
  C  C114  1  0.54629459  0.34013613  0.64756398  1
  C  C115  1  0.45370541  0.65986387  0.35243602  1
  C  C116  1  0.81593814  0.87608343  0.84142479  1
  C  C117  1  0.18406186  0.12391657  0.15857521  1
  C  C118  1  0.01309783  0.71200422  0.96347899  1
  C  C119  1  0.98690217  0.28799578  0.03652101  1
  C  C120  1  0.74266781  0.70902784  0.00893005  1
  C  C121  1  0.25733219  0.29097216  0.99106995  1
  C  C122  1  0.72977711  0.03264454  0.57659277  1
  C  C123  1  0.27022289  0.96735546  0.42340723  1
  C  C124  1  0.93758806  0.85637846  0.51366901  1
  C  C125  1  0.06241194  0.14362154  0.48633099  1
  C  C126  1  0.66859152  0.85907755  0.50155739  1
  C  C127  1  0.33140848  0.14092245  0.49844261  1
  C  C128  1  0.05416899  0.07664178  0.87341271  1
  C  C129  1  0.94583101  0.92335822  0.12658729  1
  C  C130  1  0.91717709  0.18900440  0.71466597  1
  C  C131  1  0.08282291  0.81099560  0.28533403  1
  C  C132  1  0.17931235  0.21651608  0.71833038  1
  C  C133  1  0.82068765  0.78348392  0.28166962  1
  Cl  Cl134  1  0.33721114  0.86507474  0.04135379  1
  Cl  Cl135  1  0.66278886  0.13492526  0.95864621  1
  Cl  Cl136  1  0.19184372  0.52904680  0.54435374  1
  Cl  Cl137  1  0.80815628  0.47095320  0.45564626  1
  Cl  Cl138  1  0.19349640  0.84485426  0.72689481  1
  Cl  Cl139  1  0.80650360  0.15514574  0.27310519  1
  O  O140  1  0.67883056  0.46386712  0.71440018  1
  O  O141  1  0.32116944  0.53613288  0.28559982  1
  O  O142  1  0.88086212  0.61052216  0.87974814  1
  O  O143  1  0.11913788  0.38947784  0.12025186  1
  O  O144  1  0.78260840  0.77160639  0.66239359  1
  O  O145  1  0.21739160  0.22839361  0.33760641  1
  O  O146  1  0.96997515  0.34149616  0.80343584  1
  O  O147  1  0.03002485  0.65850384  0.19656416  1
  O  O148  1  0.71219360  0.41883529  0.90184150  1
  O  O149  1  0.28780640  0.58116471  0.09815850  1
  O  O150  1  0.06417492  0.60030993  0.71919598  1
  O  O151  1  0.93582508  0.39969007  0.28080402  1
  O  O152  1  0.90902844  0.52480971  0.61145836  1
  O  O153  1  0.09097156  0.47519029  0.38854164  1
  O  O154  1  0.60341737  0.69161319  0.79709775  1
  O  O155  1  0.39658263  0.30838681  0.20290225  1
  O  O156  1  0.36107437  0.70278492  0.89779427  1
  O  O157  1  0.63892563  0.29721508  0.10220573  1
  O  O158  1  0.46420553  0.93925830  0.72303146  1
  O  O159  1  0.53579447  0.06074170  0.27696854  1
  O  O160  1  0.54312782  0.96530413  0.13372361  1
  O  O161  1  0.45687218  0.03469587  0.86627639  1
