# generated using pymatgen
data_NaSi2O7
_symmetry_space_group_name_H-M   'P 1'
_cell_length_a   18.31565700
_cell_length_b   7.59786900
_cell_length_c   9.63803262
_cell_angle_alpha   89.67128276
_cell_angle_beta   90.00000000
_cell_angle_gamma   90.00000000
_symmetry_Int_Tables_number   1
_chemical_formula_structural   NaSi2O7
_chemical_formula_sum   'Na8 Si16 O56'
_cell_volume   1341.20618476
_cell_formula_units_Z   8
loop_
 _symmetry_equiv_pos_site_id
 _symmetry_equiv_pos_as_xyz
  1  'x, y, z'
loop_
 _atom_site_type_symbol
 _atom_site_label
 _atom_site_symmetry_multiplicity
 _atom_site_fract_x
 _atom_site_fract_y
 _atom_site_fract_z
 _atom_site_occupancy
  Na  Na0  1  0.00000000  0.50000000  0.50000000  1
  Na  Na1  1  0.50000000  0.50000000  0.00000000  1
  Na  Na2  1  0.00000000  0.00000000  0.50000000  1
  Na  Na3  1  0.50000000  0.00000000  0.00000000  1
  Na  Na4  1  0.47126000  0.64179200  0.59843400  1
  Na  Na5  1  0.97126000  0.35820800  0.90156600  1
  Na  Na6  1  0.52874000  0.35820800  0.40156600  1
  Na  Na7  1  0.02874000  0.64179200  0.09843400  1
  Si  Si8  1  0.29534600  0.26817300  0.70441500  1
  Si  Si9  1  0.79534600  0.73182700  0.79558500  1
  Si  Si10  1  0.70465400  0.73182700  0.29558500  1
  Si  Si11  1  0.20465400  0.26817300  0.20441500  1
  Si  Si12  1  0.29220400  0.68391600  0.69241800  1
  Si  Si13  1  0.79220400  0.31608400  0.80758200  1
  Si  Si14  1  0.70779600  0.31608400  0.30758200  1
  Si  Si15  1  0.20779600  0.68391600  0.19241800  1
  Si  Si16  1  0.16081000  0.78116000  0.89253800  1
  Si  Si17  1  0.66081000  0.21884000  0.60746200  1
  Si  Si18  1  0.83919000  0.21884000  0.10746200  1
  Si  Si19  1  0.33919000  0.78116000  0.39253800  1
  Si  Si20  1  0.16036700  0.19188600  0.89756200  1
  Si  Si21  1  0.66036700  0.80811400  0.60243800  1
  Si  Si22  1  0.83963300  0.80811400  0.10243800  1
  Si  Si23  1  0.33963300  0.19188600  0.39756200  1
  O  O24  1  0.29301600  0.21378300  0.54140100  1
  O  O25  1  0.79301600  0.78621700  0.95859900  1
  O  O26  1  0.70698400  0.78621700  0.45859900  1
  O  O27  1  0.20698400  0.21378300  0.04140100  1
  O  O28  1  0.21386900  0.23464300  0.76632500  1
  O  O29  1  0.71386900  0.76535700  0.73367500  1
  O  O30  1  0.78613100  0.76535700  0.23367500  1
  O  O31  1  0.28613100  0.23464300  0.26632500  1
  O  O32  1  0.31176300  0.48030200  0.71304300  1
  O  O33  1  0.81176300  0.51969800  0.78695700  1
  O  O34  1  0.68823700  0.51969800  0.28695700  1
  O  O35  1  0.18823700  0.48030200  0.21304300  1
  O  O36  1  0.29063500  0.75195900  0.53469700  1
  O  O37  1  0.79063500  0.24804100  0.96530300  1
  O  O38  1  0.70936500  0.24804100  0.46530300  1
  O  O39  1  0.20936500  0.75195900  0.03469700  1
  O  O40  1  0.21969700  0.75045200  0.76733000  1
  O  O41  1  0.71969700  0.24954800  0.73267000  1
  O  O42  1  0.78030300  0.24954800  0.23267000  1
  O  O43  1  0.28030300  0.75045200  0.26733000  1
  O  O44  1  0.13373400  0.98547800  0.88498600  1
  O  O45  1  0.63373400  0.01452200  0.61501400  1
  O  O46  1  0.86626600  0.01452200  0.11501400  1
  O  O47  1  0.36626600  0.98547800  0.38498600  1
  O  O48  1  0.35329500  0.15087100  0.79740800  1
  O  O49  1  0.85329500  0.84912900  0.70259200  1
  O  O50  1  0.64670500  0.84912900  0.20259200  1
  O  O51  1  0.14670500  0.15087100  0.29740800  1
  O  O52  1  0.37409600  0.77919900  0.75222700  1
  O  O53  1  0.87409600  0.22080100  0.74777300  1
  O  O54  1  0.62590400  0.22080100  0.24777300  1
  O  O55  1  0.12590400  0.77919900  0.25222700  1
  O  O56  1  0.09044700  0.65138200  0.89165200  1
  O  O57  1  0.59044700  0.34861800  0.60834800  1
  O  O58  1  0.90955300  0.34861800  0.10834800  1
  O  O59  1  0.40955300  0.65138200  0.39165200  1
  O  O60  1  0.08788100  0.31422500  0.89231700  1
  O  O61  1  0.58788100  0.68577500  0.60768300  1
  O  O62  1  0.91211900  0.68577500  0.10768300  1
  O  O63  1  0.41211900  0.31422500  0.39231700  1
  O  O64  1  0.11162700  0.74984700  0.38798500  1
  O  O65  1  0.61162700  0.25015300  0.11201500  1
  O  O66  1  0.88837300  0.25015300  0.61201500  1
  O  O67  1  0.38837300  0.74984700  0.88798500  1
  O  O68  1  0.06345500  0.25044500  0.43655000  1
  O  O69  1  0.56345500  0.74955500  0.06345000  1
  O  O70  1  0.93654500  0.74955500  0.56345000  1
  O  O71  1  0.43654500  0.25044500  0.93655000  1
  O  O72  1  0.46893200  0.13111400  0.74707200  1
  O  O73  1  0.96893200  0.86888600  0.75292800  1
  O  O74  1  0.53106800  0.86888600  0.25292800  1
  O  O75  1  0.03106800  0.13111400  0.24707200  1
  O  O76  1  0.46730500  0.39297200  0.76001100  1
  O  O77  1  0.96730500  0.60702800  0.73998900  1
  O  O78  1  0.53269500  0.60702800  0.23998900  1
  O  O79  1  0.03269500  0.39297200  0.26001100  1
