# generated using pymatgen
data_Cd2SO6
_symmetry_space_group_name_H-M   'P 1'
_cell_length_a   7.40038800
_cell_length_b   7.01750300
_cell_length_c   11.81772735
_cell_angle_alpha   60.20608289
_cell_angle_beta   90.00000000
_cell_angle_gamma   90.00000000
_symmetry_Int_Tables_number   1
_chemical_formula_structural   Cd2SO6
_chemical_formula_sum   'Cd8 S4 O24'
_cell_volume   532.59835709
_cell_formula_units_Z   4
loop_
 _symmetry_equiv_pos_site_id
 _symmetry_equiv_pos_as_xyz
  1  'x, y, z'
loop_
 _atom_site_type_symbol
 _atom_site_label
 _atom_site_symmetry_multiplicity
 _atom_site_fract_x
 _atom_site_fract_y
 _atom_site_fract_z
 _atom_site_occupancy
  Cd  Cd0  1  0.02776200  0.15483600  0.82392500  1
  Cd  Cd1  1  0.47223800  0.15483600  0.32392500  1
  Cd  Cd2  1  0.97223800  0.84516400  0.17607500  1
  Cd  Cd3  1  0.52776200  0.84516400  0.67607500  1
  Cd  Cd4  1  0.16506200  0.31694200  0.49582200  1
  Cd  Cd5  1  0.33493800  0.31694200  0.99582200  1
  Cd  Cd6  1  0.83493800  0.68305800  0.50417800  1
  Cd  Cd7  1  0.66506200  0.68305800  0.00417800  1
  S  S8  1  0.50309400  0.69316000  0.27972100  1
  S  S9  1  0.99690600  0.69316000  0.77972100  1
  S  S10  1  0.49690600  0.30684000  0.72027900  1
  S  S11  1  0.00309400  0.30684000  0.22027900  1
  O  O12  1  0.43980000  0.46082700  0.36265100  1
  O  O13  1  0.06020000  0.46082700  0.86265100  1
  O  O14  1  0.56020000  0.53917300  0.63734900  1
  O  O15  1  0.93980000  0.53917300  0.13734900  1
  O  O16  1  0.48357600  0.76266200  0.13958200  1
  O  O17  1  0.01642400  0.76266200  0.63958200  1
  O  O18  1  0.51642400  0.23733800  0.86041800  1
  O  O19  1  0.98357600  0.23733800  0.36041800  1
  O  O20  1  0.69859500  0.70613400  0.31014100  1
  O  O21  1  0.80140500  0.70613400  0.81014100  1
  O  O22  1  0.30140500  0.29386600  0.68985900  1
  O  O23  1  0.19859500  0.29386600  0.18985900  1
  O  O24  1  0.39246200  0.83671800  0.31215800  1
  O  O25  1  0.10753800  0.83671800  0.81215800  1
  O  O26  1  0.60753800  0.16328200  0.68784200  1
  O  O27  1  0.89246200  0.16328200  0.18784200  1
  O  O28  1  0.17215600  0.03470500  0.01802400  1
  O  O29  1  0.32784400  0.03470500  0.51802400  1
  O  O30  1  0.82784400  0.96529500  0.98197600  1
  O  O31  1  0.67215600  0.96529500  0.48197600  1
  O  O32  1  0.93705500  0.33584100  0.61876200  1
  O  O33  1  0.56294500  0.33584100  0.11876200  1
  O  O34  1  0.06294500  0.66415900  0.38123800  1
  O  O35  1  0.43705500  0.66415900  0.88123800  1
