# generated using pymatgen
data_NaYbN4
_symmetry_space_group_name_H-M   'P 1'
_cell_length_a   7.74589500
_cell_length_b   10.49737100
_cell_length_c   12.68353600
_cell_angle_alpha   90.00000000
_cell_angle_beta   90.00000000
_cell_angle_gamma   90.00000000
_symmetry_Int_Tables_number   1
_chemical_formula_structural   NaYbN4
_chemical_formula_sum   'Na8 Yb8 N32'
_cell_volume   1031.31776290
_cell_formula_units_Z   8
loop_
 _symmetry_equiv_pos_site_id
 _symmetry_equiv_pos_as_xyz
  1  'x, y, z'
loop_
 _atom_site_type_symbol
 _atom_site_label
 _atom_site_symmetry_multiplicity
 _atom_site_fract_x
 _atom_site_fract_y
 _atom_site_fract_z
 _atom_site_occupancy
  Na  Na0  1  0.25000000  0.75000000  0.13762100  1
  Na  Na1  1  0.25000000  0.25000000  0.36237900  1
  Na  Na2  1  0.75000000  0.25000000  0.86237900  1
  Na  Na3  1  0.75000000  0.75000000  0.63762100  1
  Na  Na4  1  0.25000000  0.75000000  0.42041300  1
  Na  Na5  1  0.25000000  0.25000000  0.07958700  1
  Na  Na6  1  0.75000000  0.25000000  0.57958700  1
  Na  Na7  1  0.75000000  0.75000000  0.92041300  1
  Yb  Yb8  1  0.52390900  0.00000000  0.75000000  1
  Yb  Yb9  1  0.97609100  0.50000000  0.75000000  1
  Yb  Yb10  1  0.47609100  0.00000000  0.25000000  1
  Yb  Yb11  1  0.02390900  0.50000000  0.25000000  1
  Yb  Yb12  1  0.25000000  0.75000000  0.84067400  1
  Yb  Yb13  1  0.25000000  0.25000000  0.65932600  1
  Yb  Yb14  1  0.75000000  0.25000000  0.15932600  1
  Yb  Yb15  1  0.75000000  0.75000000  0.34067400  1
  N  N16  1  0.27960300  0.97788800  0.86830500  1
  N  N17  1  0.27960300  0.02211200  0.63169500  1
  N  N18  1  0.22039700  0.52211200  0.86830500  1
  N  N19  1  0.22039700  0.47788800  0.63169500  1
  N  N20  1  0.72039700  0.02211200  0.13169500  1
  N  N21  1  0.72039700  0.97788800  0.36830500  1
  N  N22  1  0.77960300  0.47788800  0.13169500  1
  N  N23  1  0.77960300  0.52211200  0.36830500  1
  N  N24  1  0.44995100  0.74776200  0.98876400  1
  N  N25  1  0.44995100  0.25223800  0.51123600  1
  N  N26  1  0.05004900  0.75223800  0.98876400  1
  N  N27  1  0.05004900  0.24776200  0.51123600  1
  N  N28  1  0.55004900  0.25223800  0.01123600  1
  N  N29  1  0.55004900  0.74776200  0.48876400  1
  N  N30  1  0.94995100  0.24776200  0.01123600  1
  N  N31  1  0.94995100  0.75223800  0.48876400  1
  N  N32  1  0.96636500  0.71784500  0.77775400  1
  N  N33  1  0.96636500  0.28215500  0.72224600  1
  N  N34  1  0.53363500  0.78215500  0.77775400  1
  N  N35  1  0.53363500  0.21784500  0.72224600  1
  N  N36  1  0.03363500  0.28215500  0.22224600  1
  N  N37  1  0.03363500  0.71784500  0.27775400  1
  N  N38  1  0.46636500  0.21784500  0.22224600  1
  N  N39  1  0.46636500  0.78215500  0.27775400  1
  N  N40  1  0.75111700  0.00087300  0.61867700  1
  N  N41  1  0.75111700  0.99912700  0.88132300  1
  N  N42  1  0.74888300  0.49912700  0.61867700  1
  N  N43  1  0.74888300  0.50087300  0.88132300  1
  N  N44  1  0.24888300  0.99912700  0.38132300  1
  N  N45  1  0.24888300  0.00087300  0.11867700  1
  N  N46  1  0.25111700  0.50087300  0.38132300  1
  N  N47  1  0.25111700  0.49912700  0.11867700  1
