# generated using pymatgen
data_CoBr3N5
_symmetry_space_group_name_H-M   'P 1'
_cell_length_a   6.49080600
_cell_length_b   10.48022000
_cell_length_c   16.57422800
_cell_angle_alpha   90.00000000
_cell_angle_beta   90.00000000
_cell_angle_gamma   90.00000000
_symmetry_Int_Tables_number   1
_chemical_formula_structural   CoBr3N5
_chemical_formula_sum   'Co4 Br12 N20'
_cell_volume   1127.46310040
_cell_formula_units_Z   4
loop_
 _symmetry_equiv_pos_site_id
 _symmetry_equiv_pos_as_xyz
  1  'x, y, z'
loop_
 _atom_site_type_symbol
 _atom_site_label
 _atom_site_symmetry_multiplicity
 _atom_site_fract_x
 _atom_site_fract_y
 _atom_site_fract_z
 _atom_site_occupancy
  Co  Co0  1  0.23117400  0.75000000  0.34834000  1
  Co  Co1  1  0.26882600  0.75000000  0.84834000  1
  Co  Co2  1  0.76882600  0.25000000  0.65166000  1
  Co  Co3  1  0.73117400  0.25000000  0.15166000  1
  Br  Br4  1  0.08289300  0.75000000  0.65780900  1
  Br  Br5  1  0.41710700  0.75000000  0.15780900  1
  Br  Br6  1  0.91710700  0.25000000  0.34219100  1
  Br  Br7  1  0.58289300  0.25000000  0.84219100  1
  Br  Br8  1  0.68344900  0.90035000  0.81230000  1
  Br  Br9  1  0.81655100  0.59965000  0.31230000  1
  Br  Br10  1  0.31655100  0.40035000  0.18770000  1
  Br  Br11  1  0.18344900  0.09965000  0.68770000  1
  Br  Br12  1  0.31655100  0.09965000  0.18770000  1
  Br  Br13  1  0.18344900  0.40035000  0.68770000  1
  Br  Br14  1  0.68344900  0.59965000  0.81230000  1
  Br  Br15  1  0.81655100  0.90035000  0.31230000  1
  N  N16  1  0.26459400  0.75000000  0.46844300  1
  N  N17  1  0.23540600  0.75000000  0.96844300  1
  N  N18  1  0.73540600  0.25000000  0.53155700  1
  N  N19  1  0.76459400  0.25000000  0.03155700  1
  N  N20  1  0.35345600  0.75000000  0.26437400  1
  N  N21  1  0.14654400  0.75000000  0.76437400  1
  N  N22  1  0.64654400  0.25000000  0.73562600  1
  N  N23  1  0.85345600  0.25000000  0.23562600  1
  N  N24  1  0.95532900  0.75000000  0.34530400  1
  N  N25  1  0.54467100  0.75000000  0.84530400  1
  N  N26  1  0.04467100  0.25000000  0.65469600  1
  N  N27  1  0.45532900  0.25000000  0.15469600  1
  N  N28  1  0.25943600  0.63582700  0.46064400  1
  N  N29  1  0.24056400  0.86417300  0.96064400  1
  N  N30  1  0.74056400  0.13582700  0.53935600  1
  N  N31  1  0.75943600  0.36417300  0.03935600  1
  N  N32  1  0.74056400  0.36417300  0.53935600  1
  N  N33  1  0.75943600  0.13582700  0.03935600  1
  N  N34  1  0.25943600  0.86417300  0.46064400  1
  N  N35  1  0.24056400  0.63582700  0.96064400  1
