# generated using pymatgen
data_Ba2Zn(P3O14)2
_symmetry_space_group_name_H-M   'P 1'
_cell_length_a   13.81370258
_cell_length_b   13.81370258
_cell_length_c   13.91156991
_cell_angle_alpha   77.97002108
_cell_angle_beta   77.97002108
_cell_angle_gamma   31.47475851
_symmetry_Int_Tables_number   1
_chemical_formula_structural   Ba2Zn(P3O14)2
_chemical_formula_sum   'Ba4 Zn2 P12 O56'
_cell_volume   1353.13347475
_cell_formula_units_Z   2
loop_
 _symmetry_equiv_pos_site_id
 _symmetry_equiv_pos_as_xyz
  1  'x, y, z'
loop_
 _atom_site_type_symbol
 _atom_site_label
 _atom_site_symmetry_multiplicity
 _atom_site_fract_x
 _atom_site_fract_y
 _atom_site_fract_z
 _atom_site_occupancy
  Ba  Ba0  1  0.10390100  0.46736700  0.28038300  1
  Ba  Ba1  1  0.53263300  0.89609900  0.21961700  1
  Ba  Ba2  1  0.89609900  0.53263300  0.71961700  1
  Ba  Ba3  1  0.46736700  0.10390100  0.78038300  1
  Zn  Zn4  1  0.17621900  0.82378100  0.25000000  1
  Zn  Zn5  1  0.82378100  0.17621900  0.75000000  1
  P  P6  1  0.99473400  0.36429200  0.16026700  1
  P  P7  1  0.63570800  0.00526600  0.33973300  1
  P  P8  1  0.00526600  0.63570800  0.83973300  1
  P  P9  1  0.36429200  0.99473400  0.66026700  1
  P  P10  1  0.95907400  0.82945400  0.37918900  1
  P  P11  1  0.17054600  0.04092600  0.12081100  1
  P  P12  1  0.04092600  0.17054600  0.62081100  1
  P  P13  1  0.82945400  0.95907400  0.87918900  1
  P  P14  1  0.02892500  0.30517200  0.95458800  1
  P  P15  1  0.69482800  0.97107500  0.54541200  1
  P  P16  1  0.97107500  0.69482800  0.04541200  1
  P  P17  1  0.30517200  0.02892500  0.45458800  1
  O  O18  1  0.09942900  0.13554700  0.01203000  1
  O  O19  1  0.86445300  0.90057100  0.48797000  1
  O  O20  1  0.90057100  0.86445300  0.98797000  1
  O  O21  1  0.13554700  0.09942900  0.51203000  1
  O  O22  1  0.94286300  0.42355600  0.04684500  1
  O  O23  1  0.57644400  0.05713700  0.45315500  1
  O  O24  1  0.05713700  0.57644400  0.95315500  1
  O  O25  1  0.42355600  0.94286300  0.54684500  1
  O  O26  1  0.02644400  0.21712400  0.18651300  1
  O  O27  1  0.78287600  0.97355600  0.31348700  1
  O  O28  1  0.97355600  0.78287600  0.81348700  1
  O  O29  1  0.21712400  0.02644400  0.68651300  1
  O  O30  1  0.82972600  0.52759500  0.22124900  1
  O  O31  1  0.47240500  0.17027400  0.27875100  1
  O  O32  1  0.17027400  0.47240500  0.77875100  1
  O  O33  1  0.52759500  0.82972600  0.72124900  1
  O  O34  1  0.17482700  0.26310000  0.16788100  1
  O  O35  1  0.73690000  0.82517300  0.33211900  1
  O  O36  1  0.82517300  0.73690000  0.83211900  1
  O  O37  1  0.26310000  0.17482700  0.66788100  1
  O  O38  1  0.09879900  0.63397600  0.36794800  1
  O  O39  1  0.36602400  0.90120100  0.13205200  1
  O  O40  1  0.90120100  0.36602400  0.63205200  1
  O  O41  1  0.63397600  0.09879900  0.86794800  1
  O  O42  1  0.02507900  0.88186800  0.35226100  1
  O  O43  1  0.11813200  0.97492100  0.14773900  1
  O  O44  1  0.97492100  0.11813200  0.64773900  1
  O  O45  1  0.88186800  0.02507900  0.85226100  1
  O  O46  1  0.12859500  0.57616500  0.10592900  1
  O  O47  1  0.42383500  0.87140500  0.39407100  1
  O  O48  1  0.87140500  0.42383500  0.89407100  1
  O  O49  1  0.57616500  0.12859500  0.60592900  1
  O  O50  1  0.80860000  0.77321000  0.09737300  1
  O  O51  1  0.22679000  0.19140000  0.40262700  1
  O  O52  1  0.19140000  0.22679000  0.90262700  1
  O  O53  1  0.77321000  0.80860000  0.59737300  1
  O  O54  1  0.93052300  0.53486000  0.49500300  1
  O  O55  1  0.46514000  0.06947700  0.00499700  1
  O  O56  1  0.06947700  0.46514000  0.50499700  1
  O  O57  1  0.53486000  0.93052300  0.99500300  1
  O  O58  1  0.47677700  0.46584000  0.35186600  1
  O  O59  1  0.53416000  0.52322300  0.14813400  1
  O  O60  1  0.52322300  0.53416000  0.64813400  1
  O  O61  1  0.46584000  0.47677700  0.85186600  1
  O  O62  1  0.52958300  0.59414800  0.37852400  1
  O  O63  1  0.40585200  0.47041700  0.12147600  1
  O  O64  1  0.47041700  0.40585200  0.62147600  1
  O  O65  1  0.59414800  0.52958300  0.87852400  1
  O  O66  1  0.28127700  0.63142700  0.14082100  1
  O  O67  1  0.36857300  0.71872300  0.35917900  1
  O  O68  1  0.71872300  0.36857300  0.85917900  1
  O  O69  1  0.63142700  0.28127700  0.64082100  1
  O  O70  1  0.62538200  0.37805400  0.12433400  1
  O  O71  1  0.62194600  0.37461800  0.37566600  1
  O  O72  1  0.37461800  0.62194600  0.87566600  1
  O  O73  1  0.37805400  0.62538200  0.62433400  1
