# generated using pymatgen
data_Co3Te(MoO7)6
_symmetry_space_group_name_H-M   'P 1'
_cell_length_a   11.75801746
_cell_length_b   11.75801746
_cell_length_c   11.75801721
_cell_angle_alpha   96.25114867
_cell_angle_beta   96.25114867
_cell_angle_gamma   96.25114504
_symmetry_Int_Tables_number   1
_chemical_formula_structural   Co3Te(MoO7)6
_chemical_formula_sum   'Co6 Te2 Mo12 O84'
_cell_volume   1594.24749935
_cell_formula_units_Z   2
loop_
 _symmetry_equiv_pos_site_id
 _symmetry_equiv_pos_as_xyz
  1  'x, y, z'
loop_
 _atom_site_type_symbol
 _atom_site_label
 _atom_site_symmetry_multiplicity
 _atom_site_fract_x
 _atom_site_fract_y
 _atom_site_fract_z
 _atom_site_occupancy
  Co  Co0  1  0.75000000  0.92134900  0.57865100  1
  Co  Co1  1  0.57865100  0.75000000  0.92134900  1
  Co  Co2  1  0.92134900  0.57865100  0.75000000  1
  Co  Co3  1  0.07865100  0.42134900  0.25000000  1
  Co  Co4  1  0.25000000  0.07865100  0.42134900  1
  Co  Co5  1  0.42134900  0.25000000  0.07865100  1
  Te  Te6  1  0.00000000  0.00000000  0.00000000  1
  Te  Te7  1  0.50000000  0.50000000  0.50000000  1
  Mo  Mo8  1  0.82241300  0.20407600  0.96501700  1
  Mo  Mo9  1  0.96501700  0.82241300  0.20407600  1
  Mo  Mo10  1  0.20407600  0.96501700  0.82241300  1
  Mo  Mo11  1  0.46501700  0.70407600  0.32241300  1
  Mo  Mo12  1  0.32241300  0.46501700  0.70407600  1
  Mo  Mo13  1  0.70407600  0.32241300  0.46501700  1
  Mo  Mo14  1  0.17758700  0.79592400  0.03498300  1
  Mo  Mo15  1  0.03498300  0.17758700  0.79592400  1
  Mo  Mo16  1  0.79592400  0.03498300  0.17758700  1
  Mo  Mo17  1  0.53498300  0.29592400  0.67758700  1
  Mo  Mo18  1  0.67758700  0.53498300  0.29592400  1
  Mo  Mo19  1  0.29592400  0.67758700  0.53498300  1
  O  O20  1  0.83332200  0.00734500  0.98969400  1
  O  O21  1  0.98969400  0.83332200  0.00734500  1
  O  O22  1  0.00734500  0.98969400  0.83332200  1
  O  O23  1  0.48969400  0.50734500  0.33332200  1
  O  O24  1  0.33332200  0.48969400  0.50734500  1
  O  O25  1  0.50734500  0.33332200  0.48969400  1
  O  O26  1  0.16667800  0.99265500  0.01030600  1
  O  O27  1  0.01030600  0.16667800  0.99265500  1
  O  O28  1  0.99265500  0.01030600  0.16667800  1
  O  O29  1  0.51030600  0.49265500  0.66667800  1
  O  O30  1  0.66667800  0.51030600  0.49265500  1
  O  O31  1  0.49265500  0.66667800  0.51030600  1
  O  O32  1  0.87000300  0.16542400  0.81262400  1
  O  O33  1  0.81262400  0.87000300  0.16542400  1
  O  O34  1  0.16542400  0.81262400  0.87000300  1
  O  O35  1  0.31262400  0.66542400  0.37000300  1
  O  O36  1  0.37000300  0.31262400  0.66542400  1
  O  O37  1  0.66542400  0.37000300  0.31262400  1
  O  O38  1  0.12999700  0.83457600  0.18737600  1
  O  O39  1  0.18737600  0.12999700  0.83457600  1
  O  O40  1  0.83457600  0.18737600  0.12999700  1
  O  O41  1  0.68737600  0.33457600  0.62999700  1
  O  O42  1  0.62999700  0.68737600  0.33457600  1
  O  O43  1  0.33457600  0.62999700  0.68737600  1
  O  O44  1  0.67325100  0.16595900  0.92725200  1
  O  O45  1  0.92725200  0.67325100  0.16595900  1
  O  O46  1  0.16595900  0.92725200  0.67325100  1
  O  O47  1  0.42725200  0.66595900  0.17325100  1
  O  O48  1  0.17325100  0.42725200  0.66595900  1
  O  O49  1  0.66595900  0.17325100  0.42725200  1
  O  O50  1  0.32674900  0.83404100  0.07274800  1
  O  O51  1  0.07274800  0.32674900  0.83404100  1
  O  O52  1  0.83404100  0.07274800  0.32674900  1
  O  O53  1  0.57274800  0.33404100  0.82674900  1
  O  O54  1  0.82674900  0.57274800  0.33404100  1
  O  O55  1  0.33404100  0.82674900  0.57274800  1
  O  O56  1  0.84468700  0.35450400  0.97682100  1
  O  O57  1  0.97682100  0.84468700  0.35450400  1
  O  O58  1  0.35450400  0.97682100  0.84468700  1
  O  O59  1  0.47682100  0.85450400  0.34468700  1
  O  O60  1  0.34468700  0.47682100  0.85450400  1
  O  O61  1  0.85450400  0.34468700  0.47682100  1
  O  O62  1  0.15531300  0.64549600  0.02317900  1
  O  O63  1  0.02317900  0.15531300  0.64549600  1
  O  O64  1  0.64549600  0.02317900  0.15531300  1
  O  O65  1  0.52317900  0.14549600  0.65531300  1
  O  O66  1  0.65531300  0.52317900  0.14549600  1
  O  O67  1  0.14549600  0.65531300  0.52317900  1
  O  O68  1  0.65203000  0.82163400  0.64319200  1
  O  O69  1  0.64319200  0.65203000  0.82163400  1
  O  O70  1  0.82163400  0.64319200  0.65203000  1
  O  O71  1  0.14319200  0.32163400  0.15203000  1
  O  O72  1  0.15203000  0.14319200  0.32163400  1
  O  O73  1  0.32163400  0.15203000  0.14319200  1
  O  O74  1  0.34797000  0.17836600  0.35680800  1
  O  O75  1  0.35680800  0.34797000  0.17836600  1
  O  O76  1  0.17836600  0.35680800  0.34797000  1
  O  O77  1  0.85680800  0.67836600  0.84797000  1
  O  O78  1  0.84797000  0.85680800  0.67836600  1
  O  O79  1  0.67836600  0.84797000  0.85680800  1
  O  O80  1  0.80258100  0.81427400  0.48557800  1
  O  O81  1  0.48557800  0.80258100  0.81427400  1
  O  O82  1  0.81427400  0.48557800  0.80258100  1
  O  O83  1  0.98557800  0.31427400  0.30258100  1
  O  O84  1  0.30258100  0.98557800  0.31427400  1
  O  O85  1  0.31427400  0.30258100  0.98557800  1
  O  O86  1  0.19741900  0.18572600  0.51442200  1
  O  O87  1  0.51442200  0.19741900  0.18572600  1
  O  O88  1  0.18572600  0.51442200  0.19741900  1
  O  O89  1  0.01442200  0.68572600  0.69741900  1
  O  O90  1  0.69741900  0.01442200  0.68572600  1
  O  O91  1  0.68572600  0.69741900  0.01442200  1
  O  O92  1  0.64986900  0.96955600  0.47869300  1
  O  O93  1  0.47869300  0.64986900  0.96955600  1
  O  O94  1  0.96955600  0.47869300  0.64986900  1
  O  O95  1  0.97869300  0.46955600  0.14986900  1
  O  O96  1  0.14986900  0.97869300  0.46955600  1
  O  O97  1  0.46955600  0.14986900  0.97869300  1
  O  O98  1  0.35013100  0.03044400  0.52130700  1
  O  O99  1  0.52130700  0.35013100  0.03044400  1
  O  O100  1  0.03044400  0.52130700  0.35013100  1
  O  O101  1  0.02130700  0.53044400  0.85013100  1
  O  O102  1  0.85013100  0.02130700  0.53044400  1
  O  O103  1  0.53044400  0.85013100  0.02130700  1
