# generated using pymatgen
data_CrH6C3(S2N)3
_symmetry_space_group_name_H-M   'P 1'
_cell_length_a   8.93781500
_cell_length_b   8.93781500
_cell_length_c   8.93781486
_cell_angle_alpha   99.86345656
_cell_angle_beta   99.86345656
_cell_angle_gamma   99.86345714
_symmetry_Int_Tables_number   1
_chemical_formula_structural   CrH6C3(S2N)3
_chemical_formula_sum   'Cr2 H12 C6 S12 N6'
_cell_volume   678.07362085
_cell_formula_units_Z   2
loop_
 _symmetry_equiv_pos_site_id
 _symmetry_equiv_pos_as_xyz
  1  'x, y, z'
loop_
 _atom_site_type_symbol
 _atom_site_label
 _atom_site_symmetry_multiplicity
 _atom_site_fract_x
 _atom_site_fract_y
 _atom_site_fract_z
 _atom_site_occupancy
  Cr  Cr0  1  0.24763900  0.24763900  0.24763900  1
  Cr  Cr1  1  0.75236100  0.75236100  0.75236100  1
  H  H2  1  0.31776900  0.65853700  0.97250900  1
  H  H3  1  0.97250900  0.31776900  0.65853700  1
  H  H4  1  0.65853700  0.97250900  0.31776900  1
  H  H5  1  0.68223100  0.34146300  0.02749100  1
  H  H6  1  0.02749100  0.68223100  0.34146200  1
  H  H7  1  0.34146300  0.02749100  0.68223100  1
  H  H8  1  0.26882200  0.49883700  0.81882700  1
  H  H9  1  0.81882700  0.26882200  0.49883700  1
  H  H10  1  0.49883700  0.81882700  0.26882200  1
  H  H11  1  0.73117800  0.50116300  0.18117300  1
  H  H12  1  0.18117300  0.73117800  0.50116300  1
  H  H13  1  0.50116300  0.18117300  0.73117800  1
  C  C14  1  0.27062000  0.44754700  0.03451500  1
  C  C15  1  0.03451500  0.27062000  0.44754700  1
  C  C16  1  0.44754700  0.03451500  0.27062000  1
  C  C17  1  0.72938000  0.55245300  0.96548500  1
  C  C18  1  0.96548500  0.72938000  0.55245300  1
  C  C19  1  0.55245300  0.96548500  0.72938000  1
  S  S20  1  0.30577200  0.51708000  0.23103400  1
  S  S21  1  0.23103400  0.30577200  0.51708000  1
  S  S22  1  0.51708000  0.23103400  0.30577200  1
  S  S23  1  0.69422800  0.48292000  0.76896600  1
  S  S24  1  0.76896600  0.69422800  0.48292000  1
  S  S25  1  0.48292000  0.76896600  0.69422800  1
  S  S26  1  0.21650200  0.25014000  0.97554700  1
  S  S27  1  0.97554700  0.21650200  0.25014000  1
  S  S28  1  0.25014000  0.97554700  0.21650200  1
  S  S29  1  0.78349800  0.74986000  0.02445300  1
  S  S30  1  0.02445300  0.78349800  0.74986000  1
  S  S31  1  0.74986000  0.02445300  0.78349800  1
  N  N32  1  0.28592700  0.54152700  0.93477300  1
  N  N33  1  0.93477300  0.28592700  0.54152700  1
  N  N34  1  0.54152700  0.93477300  0.28592700  1
  N  N35  1  0.71407300  0.45847300  0.06522700  1
  N  N36  1  0.06522700  0.71407300  0.45847300  1
  N  N37  1  0.45847300  0.06522700  0.71407300  1
