# generated using pymatgen
data_Fe3P2O11
_symmetry_space_group_name_H-M   'P 1'
_cell_length_a   7.87981500
_cell_length_b   9.63665400
_cell_length_c   9.69381400
_cell_angle_alpha   90.00000000
_cell_angle_beta   90.00000000
_cell_angle_gamma   90.00000000
_symmetry_Int_Tables_number   1
_chemical_formula_structural   Fe3P2O11
_chemical_formula_sum   'Fe12 P8 O44'
_cell_volume   736.10025794
_cell_formula_units_Z   4
loop_
 _symmetry_equiv_pos_site_id
 _symmetry_equiv_pos_as_xyz
  1  'x, y, z'
loop_
 _atom_site_type_symbol
 _atom_site_label
 _atom_site_symmetry_multiplicity
 _atom_site_fract_x
 _atom_site_fract_y
 _atom_site_fract_z
 _atom_site_occupancy
  Fe  Fe0  1  0.13628100  0.54411100  0.38140700  1
  Fe  Fe1  1  0.36371900  0.95588900  0.88140700  1
  Fe  Fe2  1  0.63628100  0.95588900  0.61859300  1
  Fe  Fe3  1  0.86371900  0.54411100  0.11859300  1
  Fe  Fe4  1  0.86371900  0.45588900  0.61859300  1
  Fe  Fe5  1  0.63628100  0.04411100  0.11859300  1
  Fe  Fe6  1  0.36371900  0.04411100  0.38140700  1
  Fe  Fe7  1  0.13628100  0.45588900  0.88140700  1
  Fe  Fe8  1  0.00000000  0.00000000  0.50000000  1
  Fe  Fe9  1  0.50000000  0.50000000  0.00000000  1
  Fe  Fe10  1  0.50000000  0.50000000  0.50000000  1
  Fe  Fe11  1  0.00000000  0.00000000  0.00000000  1
  P  P12  1  0.21547300  0.28860100  0.60668700  1
  P  P13  1  0.28452700  0.21139900  0.10668700  1
  P  P14  1  0.71547300  0.21139900  0.39331300  1
  P  P15  1  0.78452700  0.28860100  0.89331300  1
  P  P16  1  0.78452700  0.71139900  0.39331300  1
  P  P17  1  0.71547300  0.78860100  0.89331300  1
  P  P18  1  0.28452700  0.78860100  0.60668700  1
  P  P19  1  0.21547300  0.71139900  0.10668700  1
  O  O20  1  0.00000000  0.54162300  0.75000000  1
  O  O21  1  0.50000000  0.95837700  0.25000000  1
  O  O22  1  0.00000000  0.45837700  0.25000000  1
  O  O23  1  0.50000000  0.04162300  0.75000000  1
  O  O24  1  0.32535200  0.78824500  0.76268900  1
  O  O25  1  0.17464800  0.71175500  0.26268900  1
  O  O26  1  0.82535200  0.71175500  0.23731100  1
  O  O27  1  0.67464800  0.78824500  0.73731100  1
  O  O28  1  0.67464800  0.21175500  0.23731100  1
  O  O29  1  0.82535200  0.28824500  0.73731100  1
  O  O30  1  0.17464800  0.28824500  0.76268900  1
  O  O31  1  0.32535200  0.21175500  0.26268900  1
  O  O32  1  0.41615900  0.88375900  0.52934700  1
  O  O33  1  0.08384100  0.61624100  0.02934700  1
  O  O34  1  0.91615900  0.61624100  0.47065300  1
  O  O35  1  0.58384100  0.88375900  0.97065300  1
  O  O36  1  0.58384100  0.11624100  0.47065300  1
  O  O37  1  0.91615900  0.38375900  0.97065300  1
  O  O38  1  0.08384100  0.38375900  0.52934700  1
  O  O39  1  0.41615900  0.11624100  0.02934700  1
  O  O40  1  0.10355400  0.84553400  0.58835300  1
  O  O41  1  0.39644600  0.65446600  0.08835300  1
  O  O42  1  0.60355400  0.65446600  0.41164700  1
  O  O43  1  0.89644600  0.84553400  0.91164700  1
  O  O44  1  0.89644600  0.15446600  0.41164700  1
  O  O45  1  0.60355400  0.34553400  0.91164700  1
  O  O46  1  0.39644600  0.34553400  0.58835300  1
  O  O47  1  0.10355400  0.15446600  0.08835300  1
  O  O48  1  0.29087200  0.63903500  0.54694200  1
  O  O49  1  0.20912800  0.86096500  0.04694200  1
  O  O50  1  0.79087200  0.86096500  0.45305800  1
  O  O51  1  0.70912800  0.63903500  0.95305800  1
  O  O52  1  0.70912800  0.36096500  0.45305800  1
  O  O53  1  0.79087200  0.13903500  0.95305800  1
  O  O54  1  0.20912800  0.13903500  0.54694200  1
  O  O55  1  0.29087200  0.36096500  0.04694200  1
  O  O56  1  0.35641800  0.53095600  0.85029100  1
  O  O57  1  0.14358200  0.96904400  0.35029100  1
  O  O58  1  0.85641800  0.96904400  0.14970900  1
  O  O59  1  0.64358200  0.53095600  0.64970900  1
  O  O60  1  0.64358200  0.46904400  0.14970900  1
  O  O61  1  0.85641800  0.03095600  0.64970900  1
  O  O62  1  0.14358200  0.03095600  0.85029100  1
  O  O63  1  0.35641800  0.46904400  0.35029100  1
