# generated using pymatgen
data_La4PClO8
_symmetry_space_group_name_H-M   'P 1'
_cell_length_a   11.80836200
_cell_length_b   11.10719800
_cell_length_c   14.77848511
_cell_angle_alpha   76.15742378
_cell_angle_beta   90.00000000
_cell_angle_gamma   90.00000000
_symmetry_Int_Tables_number   1
_chemical_formula_structural   La4PClO8
_chemical_formula_sum   'La32 P8 Cl8 O64'
_cell_volume   1882.01889703
_cell_formula_units_Z   8
loop_
 _symmetry_equiv_pos_site_id
 _symmetry_equiv_pos_as_xyz
  1  'x, y, z'
loop_
 _atom_site_type_symbol
 _atom_site_label
 _atom_site_symmetry_multiplicity
 _atom_site_fract_x
 _atom_site_fract_y
 _atom_site_fract_z
 _atom_site_occupancy
  La  La0  1  0.73599800  0.84045600  0.74052000  1
  La  La1  1  0.23599800  0.15954400  0.75948000  1
  La  La2  1  0.26400200  0.15954400  0.25948000  1
  La  La3  1  0.76400200  0.84045600  0.24052000  1
  La  La4  1  0.74773800  0.32891600  0.50139800  1
  La  La5  1  0.24773800  0.67108400  0.99860200  1
  La  La6  1  0.25226200  0.67108400  0.49860200  1
  La  La7  1  0.75226200  0.32891600  0.00139800  1
  La  La8  1  0.00424600  0.57197700  0.86575400  1
  La  La9  1  0.50424600  0.42802300  0.63424600  1
  La  La10  1  0.99575400  0.42802300  0.13424600  1
  La  La11  1  0.49575400  0.57197700  0.36575400  1
  La  La12  1  0.49977000  0.09146100  0.63414700  1
  La  La13  1  0.99977000  0.90853900  0.86585300  1
  La  La14  1  0.50023000  0.90853900  0.36585300  1
  La  La15  1  0.00023000  0.09146100  0.13414700  1
  La  La16  1  0.00054000  0.42251000  0.62657800  1
  La  La17  1  0.50054000  0.57749000  0.87342200  1
  La  La18  1  0.99946000  0.57749000  0.37342200  1
  La  La19  1  0.49946000  0.42251000  0.12657800  1
  La  La20  1  0.99761300  0.08203300  0.61432700  1
  La  La21  1  0.49761300  0.91796700  0.88567300  1
  La  La22  1  0.00238700  0.91796700  0.38567300  1
  La  La23  1  0.50238700  0.08203300  0.11432700  1
  La  La24  1  0.26094800  0.83214600  0.73577900  1
  La  La25  1  0.76094800  0.16785400  0.76422100  1
  La  La26  1  0.73905200  0.16785400  0.26422100  1
  La  La27  1  0.23905200  0.83214600  0.23577900  1
  La  La28  1  0.26345600  0.32364700  0.50941000  1
  La  La29  1  0.76345600  0.67635300  0.99059000  1
  La  La30  1  0.73654400  0.67635300  0.49059000  1
  La  La31  1  0.23654400  0.32364700  0.00941000  1
  P  P32  1  0.23765900  0.00160100  0.49965000  1
  P  P33  1  0.73765900  0.99839900  0.00035000  1
  P  P34  1  0.76234100  0.99839900  0.50035000  1
  P  P35  1  0.26234100  0.00160100  0.99965000  1
  P  P36  1  0.98368800  0.26808600  0.86685700  1
  P  P37  1  0.48368800  0.73191400  0.63314300  1
  P  P38  1  0.01631200  0.73191400  0.13314300  1
  P  P39  1  0.51631200  0.26808600  0.36685700  1
  Cl  Cl40  1  0.80357000  0.57188800  0.69703400  1
  Cl  Cl41  1  0.30357000  0.42811200  0.80296600  1
  Cl  Cl42  1  0.19643000  0.42811200  0.30296600  1
  Cl  Cl43  1  0.69643000  0.57188800  0.19703400  1
  Cl  Cl44  1  0.07241900  0.66311700  0.65973700  1
  Cl  Cl45  1  0.57241900  0.33688300  0.84026300  1
  Cl  Cl46  1  0.92758100  0.33688300  0.34026300  1
  Cl  Cl47  1  0.42758100  0.66311700  0.15973700  1
  O  O48  1  0.30946400  0.99083200  0.41412600  1
  O  O49  1  0.80946400  0.00916800  0.08587400  1
  O  O50  1  0.69053600  0.00916800  0.58587400  1
  O  O51  1  0.19053600  0.99083200  0.91412600  1
  O  O52  1  0.20721100  0.87044100  0.55773700  1
  O  O53  1  0.70721100  0.12955900  0.94226300  1
  O  O54  1  0.79278900  0.12955900  0.44226300  1
  O  O55  1  0.29278900  0.87044100  0.05773700  1
  O  O56  1  0.12384300  0.07160300  0.46517400  1
  O  O57  1  0.62384300  0.92839700  0.03482600  1
  O  O58  1  0.87615700  0.92839700  0.53482600  1
  O  O59  1  0.37615700  0.07160300  0.96517400  1
  O  O60  1  0.30231900  0.07502400  0.56017100  1
  O  O61  1  0.80231900  0.92497600  0.93982900  1
  O  O62  1  0.69768100  0.92497600  0.43982900  1
  O  O63  1  0.19768100  0.07502400  0.06017100  1
  O  O64  1  0.99370700  0.14804200  0.83164500  1
  O  O65  1  0.49370700  0.85195800  0.66835500  1
  O  O66  1  0.00629300  0.85195800  0.16835500  1
  O  O67  1  0.50629300  0.14804200  0.33164500  1
  O  O68  1  0.02488200  0.24965500  0.96879700  1
  O  O69  1  0.52488200  0.75034500  0.53120300  1
  O  O70  1  0.97511800  0.75034500  0.03120300  1
  O  O71  1  0.47511800  0.24965500  0.46879700  1
  O  O72  1  0.85795200  0.31195200  0.85766700  1
  O  O73  1  0.35795200  0.68804800  0.64233300  1
  O  O74  1  0.14204800  0.68804800  0.14233300  1
  O  O75  1  0.64204800  0.31195200  0.35766700  1
  O  O76  1  0.05376100  0.37376400  0.80219500  1
  O  O77  1  0.55376100  0.62623600  0.69780500  1
  O  O78  1  0.94623900  0.62623600  0.19780500  1
  O  O79  1  0.44623900  0.37376400  0.30219500  1
  O  O80  1  0.13135900  0.73691600  0.86040800  1
  O  O81  1  0.63135900  0.26308400  0.63959200  1
  O  O82  1  0.86864100  0.26308400  0.13959200  1
  O  O83  1  0.36864100  0.73691600  0.36040800  1
  O  O84  1  0.87942300  0.25106800  0.62515500  1
  O  O85  1  0.37942300  0.74893200  0.87484500  1
  O  O86  1  0.12057700  0.74893200  0.37484500  1
  O  O87  1  0.62057700  0.25106800  0.12515500  1
  O  O88  1  0.37682700  0.49847500  0.50325000  1
  O  O89  1  0.87682700  0.50152500  0.99675000  1
  O  O90  1  0.62317300  0.50152500  0.49675000  1
  O  O91  1  0.12317300  0.49847500  0.00325000  1
  O  O92  1  0.12600300  0.25068700  0.62615300  1
  O  O93  1  0.62600300  0.74931300  0.87384700  1
  O  O94  1  0.87399700  0.74931300  0.37384700  1
  O  O95  1  0.37399700  0.25068700  0.12615300  1
  O  O96  1  0.87243400  0.50288700  0.49670000  1
  O  O97  1  0.37243400  0.49711300  0.00330000  1
  O  O98  1  0.12756600  0.49711300  0.50330000  1
  O  O99  1  0.62756600  0.50288700  0.99670000  1
  O  O100  1  0.37497300  0.26444600  0.64825100  1
  O  O101  1  0.87497300  0.73555400  0.85174900  1
  O  O102  1  0.62502700  0.73555400  0.35174900  1
  O  O103  1  0.12502700  0.26444600  0.14825100  1
  O  O104  1  0.87247900  0.99129700  0.73740200  1
  O  O105  1  0.37247900  0.00870300  0.76259800  1
  O  O106  1  0.12752100  0.00870300  0.26259800  1
  O  O107  1  0.62752100  0.99129700  0.23740200  1
  O  O108  1  0.12359100  0.98888500  0.72912700  1
  O  O109  1  0.62359100  0.01111500  0.77087300  1
  O  O110  1  0.87640900  0.01111500  0.27087300  1
  O  O111  1  0.37640900  0.98888500  0.22912700  1
