# generated using pymatgen
data_KSi2BP(H3C)9
_symmetry_space_group_name_H-M   'P 1'
_cell_length_a   14.27343459
_cell_length_b   16.66826245
_cell_length_c   17.30494856
_cell_angle_alpha   112.76329154
_cell_angle_beta   90.00000000
_cell_angle_gamma   90.00000000
_symmetry_Int_Tables_number   1
_chemical_formula_structural   KSi2BP(H3C)9
_chemical_formula_sum   'K8 Si16 B8 P8 H216 C72'
_cell_volume   3796.40421021
_cell_formula_units_Z   8
loop_
 _symmetry_equiv_pos_site_id
 _symmetry_equiv_pos_as_xyz
  1  'x, y, z'
loop_
 _atom_site_type_symbol
 _atom_site_label
 _atom_site_symmetry_multiplicity
 _atom_site_fract_x
 _atom_site_fract_y
 _atom_site_fract_z
 _atom_site_occupancy
  K  K0  1  0.92990301  0.93266965  0.08748764  1
  K  K1  1  0.57009699  0.43266965  0.58748764  1
  K  K2  1  0.07009699  0.06733035  0.91251236  1
  K  K3  1  0.42990301  0.56733035  0.41251236  1
  K  K4  1  0.81652971  0.76177237  0.80890977  1
  K  K5  1  0.68347029  0.26177237  0.30890977  1
  K  K6  1  0.18347029  0.23822763  0.19109023  1
  K  K7  1  0.31652971  0.73822763  0.69109023  1
  Si  Si8  1  0.77463342  0.94146460  0.29023777  1
  Si  Si9  1  0.72536658  0.44146460  0.79023777  1
  Si  Si10  1  0.22536658  0.05853540  0.70976223  1
  Si  Si11  1  0.27463342  0.55853540  0.20976223  1
  Si  Si12  1  0.88780285  0.77140282  0.18823589  1
  Si  Si13  1  0.61219715  0.27140282  0.68823589  1
  Si  Si14  1  0.11219715  0.22859718  0.81176411  1
  Si  Si15  1  0.38780285  0.72859718  0.31176411  1
  Si  Si16  1  0.12859815  0.63161989  0.77916963  1
  Si  Si17  1  0.37140185  0.13161989  0.27916963  1
  Si  Si18  1  0.87140185  0.36838011  0.22083037  1
  Si  Si19  1  0.62859815  0.86838011  0.72083037  1
  Si  Si20  1  0.32903595  0.62694442  0.85071575  1
  Si  Si21  1  0.17096405  0.12694442  0.35071575  1
  Si  Si22  1  0.67096405  0.37305558  0.14928425  1
  Si  Si23  1  0.82903595  0.87305558  0.64928425  1
  B  B24  1  0.76369600  0.81286493  0.99480382  1
  B  B25  1  0.73630400  0.31286493  0.49480382  1
  B  B26  1  0.23630400  0.18713507  0.00519618  1
  B  B27  1  0.26369600  0.68713507  0.50519618  1
  B  B28  1  0.09433303  0.86172216  0.91719154  1
  B  B29  1  0.40566697  0.36172216  0.41719154  1
  B  B30  1  0.90566697  0.13827784  0.08280846  1
  B  B31  1  0.59433303  0.63827784  0.58280846  1
  P  P32  1  0.72147457  0.82433893  0.10556147  1
  P  P33  1  0.77852543  0.32433893  0.60556147  1
  P  P34  1  0.27852543  0.17566107  0.89443853  1
  P  P35  1  0.22147457  0.67566107  0.39443853  1
  P  P36  1  0.20483483  0.79324093  0.91926061  1
  P  P37  1  0.29516517  0.29324093  0.41926061  1
  P  P38  1  0.79516517  0.20675907  0.08073939  1
  P  P39  1  0.70483483  0.70675907  0.58073939  1
  H  H40  1  0.70418507  0.66924792  0.07696857  1
  H  H41  1  0.79581493  0.16924792  0.57696857  1
  H  H42  1  0.29581493  0.33075208  0.92303143  1
  H  H43  1  0.20418507  0.83075208  0.42303143  1
  H  H44  1  0.60437298  0.71121344  0.04321413  1
  H  H45  1  0.89562702  0.21121344  0.54321413  1
  H  H46  1  0.39562702  0.28878656  0.95678587  1
  H  H47  1  0.10437298  0.78878656  0.45678587  1
  H  H48  1  0.62117523  0.73350311  0.15246166  1
  H  H49  1  0.87882477  0.23350311  0.65246166  1
  H  H50  1  0.37882477  0.26649689  0.84753834  1
  H  H51  1  0.12117523  0.76649689  0.34753834  1
  H  H52  1  0.58574348  0.90698585  0.18483562  1
  H  H53  1  0.91425652  0.40698585  0.68483562  1
  H  H54  1  0.41425652  0.09301415  0.81516438  1
  H  H55  1  0.08574348  0.59301415  0.31516438  1
  H  H56  1  0.57358111  0.87217900  0.07396617  1
  H  H57  1  0.92641889  0.37217900  0.57396617  1
  H  H58  1  0.42641889  0.12782100  0.92603383  1
  H  H59  1  0.07358111  0.62782100  0.42603383  1
  H  H60  1  0.64521224  0.96371239  0.12975167  1
  H  H61  1  0.85478776  0.46371239  0.62975167  1
  H  H62  1  0.35478776  0.03628761  0.87024833  1
  H  H63  1  0.14521224  0.53628761  0.37024833  1
  H  H64  1  0.81081603  0.07512451  0.26019979  1
  H  H65  1  0.68918397  0.57512451  0.76019979  1
  H  H66  1  0.18918397  0.92487549  0.73980021  1
  H  H67  1  0.31081603  0.42487549  0.23980021  1
  H  H68  1  0.74089567  0.09979186  0.35205217  1
  H  H69  1  0.75910433  0.59979186  0.85205217  1
  H  H70  1  0.25910433  0.90020814  0.64794783  1
  H  H71  1  0.24089567  0.40020814  0.14794783  1
  H  H72  1  0.68763894  0.05306556  0.25100449  1
  H  H73  1  0.81236106  0.55306556  0.75100449  1
  H  H74  1  0.31236106  0.94693444  0.74899551  1
  H  H75  1  0.18763894  0.44693444  0.24899551  1
  H  H76  1  0.60462250  0.90893459  0.31310813  1
  H  H77  1  0.89537750  0.40893459  0.81310813  1
  H  H78  1  0.39537750  0.09106541  0.68689187  1
  H  H79  1  0.10462250  0.59106541  0.18689187  1
  H  H80  1  0.65887382  0.97737711  0.40766148  1
  H  H81  1  0.84112618  0.47737711  0.90766148  1
  H  H82  1  0.34112618  0.02262289  0.59233852  1
  H  H83  1  0.15887382  0.52262289  0.09233852  1
  H  H84  1  0.68374486  0.86401365  0.36455058  1
  H  H85  1  0.81625514  0.36401365  0.86455058  1
  H  H86  1  0.31625514  0.13598635  0.63544942  1
  H  H87  1  0.18374486  0.63598635  0.13544942  1
  H  H88  1  0.89502773  0.90890179  0.38259791  1
  H  H89  1  0.60497227  0.40890179  0.88259791  1
  H  H90  1  0.10497227  0.09109821  0.61740209  1
  H  H91  1  0.39502773  0.59109821  0.11740209  1
  H  H92  1  0.85088670  0.01638574  0.42703014  1
  H  H93  1  0.64911330  0.51638574  0.92703014  1
  H  H94  1  0.14911330  0.98361426  0.57296986  1
  H  H95  1  0.35088670  0.48361426  0.07296986  1
  H  H96  1  0.93766850  0.98926376  0.34769938  1
  H  H97  1  0.56233150  0.48926376  0.84769938  1
  H  H98  1  0.06233150  0.01073624  0.65230062  1
  H  H99  1  0.43766850  0.51073624  0.15230062  1
  H  H100  1  0.86186694  0.76648686  0.33164687  1
  H  H101  1  0.63813306  0.26648686  0.83164687  1
  H  H102  1  0.13813306  0.23351314  0.66835313  1
  H  H103  1  0.36186694  0.73351314  0.16835313  1
  H  H104  1  0.91238605  0.66883104  0.25988626  1
  H  H105  1  0.58761395  0.16883104  0.75988626  1
  H  H106  1  0.08761395  0.33116896  0.74011374  1
  H  H107  1  0.41238605  0.83116896  0.24011374  1
  H  H108  1  0.79066315  0.68877511  0.25465812  1
  H  H109  1  0.70933685  0.18877511  0.75465812  1
  H  H110  1  0.20933685  0.31122489  0.74534188  1
  H  H111  1  0.29066315  0.81122489  0.24534188  1
  H  H112  1  0.84010392  0.63350511  0.06492644  1
  H  H113  1  0.65989608  0.13350511  0.56492644  1
  H  H114  1  0.15989608  0.36649489  0.93507356  1
  H  H115  1  0.34010392  0.86649489  0.43507356  1
  H  H116  1  0.95924019  0.63470484  0.09310818  1
  H  H117  1  0.54075981  0.13470484  0.59310818  1
  H  H118  1  0.04075981  0.36529516  0.90689182  1
  H  H119  1  0.45924019  0.86529516  0.40689182  1
  H  H120  1  0.92211495  0.69417902  0.03287373  1
  H  H121  1  0.57788505  0.19417902  0.53287373  1
  H  H122  1  0.07788505  0.30582098  0.96712627  1
  H  H123  1  0.42211495  0.80582098  0.46712627  1
  H  H124  1  0.04084711  0.83992271  0.16936091  1
  H  H125  1  0.45915289  0.33992271  0.66936091  1
  H  H126  1  0.95915289  0.16007729  0.83063909  1
  H  H127  1  0.54084711  0.66007729  0.33063909  1
  H  H128  1  0.05823230  0.75942657  0.21014546  1
  H  H129  1  0.44176770  0.25942657  0.71014546  1
  H  H130  1  0.94176770  0.24057343  0.78985454  1
  H  H131  1  0.55823230  0.74057343  0.28985454  1
  H  H132  1  0.01969492  0.86472096  0.27724642  1
  H  H133  1  0.48030508  0.36472096  0.77724642  1
  H  H134  1  0.98030508  0.13527904  0.72275358  1
  H  H135  1  0.51969492  0.63527904  0.22275358  1
  H  H136  1  0.70138160  0.77506048  0.94562153  1
  H  H137  1  0.79861840  0.27506048  0.44562153  1
  H  H138  1  0.29861840  0.22493952  0.05437847  1
  H  H139  1  0.20138160  0.72493952  0.55437847  1
  H  H140  1  0.83756904  0.77251956  0.97691659  1
  H  H141  1  0.66243096  0.27251956  0.47691659  1
  H  H142  1  0.16243096  0.22748044  0.02308341  1
  H  H143  1  0.33756904  0.72748044  0.52308341  1
  H  H144  1  0.77304790  0.88692170  0.99641807  1
  H  H145  1  0.72695210  0.38692170  0.49641807  1
  H  H146  1  0.22695210  0.11307830  0.00358193  1
  H  H147  1  0.27304790  0.61307830  0.50358193  1
  H  H148  1  0.14032476  0.74287444  0.02288060  1
  H  H149  1  0.35967524  0.24287444  0.52288060  1
  H  H150  1  0.85967524  0.25712556  0.97711940  1
  H  H151  1  0.64032476  0.75712556  0.47711940  1
  H  H152  1  0.19019365  0.84934772  0.07179664  1
  H  H153  1  0.30980635  0.34934772  0.57179664  1
  H  H154  1  0.80980635  0.15065228  0.92820336  1
  H  H155  1  0.69019365  0.65065228  0.42820336  1
  H  H156  1  0.26401542  0.75593593  0.03491905  1
  H  H157  1  0.23598458  0.25593593  0.53491905  1
  H  H158  1  0.73598458  0.24406407  0.96508095  1
  H  H159  1  0.76401542  0.74406407  0.46508095  1
  H  H160  1  0.36791845  0.84500677  0.94693861  1
  H  H161  1  0.13208155  0.34500677  0.44693861  1
  H  H162  1  0.63208155  0.15499323  0.05306139  1
  H  H163  1  0.86791845  0.65499323  0.55306139  1
  H  H164  1  0.28437093  0.93090183  0.99042856  1
  H  H165  1  0.21562907  0.43090183  0.49042856  1
  H  H166  1  0.71562907  0.06909817  0.00957144  1
  H  H167  1  0.78437093  0.56909817  0.50957144  1
  H  H168  1  0.30713216  0.88776736  0.88082178  1
  H  H169  1  0.19286784  0.38776736  0.38082178  1
  H  H170  1  0.69286784  0.11223264  0.11917822  1
  H  H171  1  0.80713216  0.61223264  0.61917822  1
  H  H172  1  0.07100093  0.56478333  0.87811627  1
  H  H173  1  0.42899907  0.06478333  0.37811627  1
  H  H174  1  0.92899907  0.43521667  0.12188373  1
  H  H175  1  0.57100093  0.93521667  0.62188373  1
  H  H176  1  0.98191675  0.56343608  0.80623563  1
  H  H177  1  0.51808325  0.06343608  0.30623563  1
  H  H178  1  0.01808325  0.43656392  0.19376437  1
  H  H179  1  0.48191675  0.93656392  0.69376437  1
  H  H180  1  0.00772392  0.66117896  0.89328799  1
  H  H181  1  0.49227608  0.16117896  0.39328799  1
  H  H182  1  0.99227608  0.33882104  0.10671201  1
  H  H183  1  0.50772392  0.83882104  0.60671201  1
  H  H184  1  0.20770382  0.53303778  0.64535732  1
  H  H185  1  0.29229618  0.03303778  0.14535732  1
  H  H186  1  0.79229618  0.46696222  0.35464268  1
  H  H187  1  0.70770382  0.96696222  0.85464268  1
  H  H188  1  0.09801503  0.49232878  0.66128568  1
  H  H189  1  0.40198497  0.99232878  0.16128568  1
  H  H190  1  0.90198497  0.50767122  0.33871432  1
  H  H191  1  0.59801503  0.00767122  0.83871432  1
  H  H192  1  0.19790075  0.47886688  0.71575991  1
  H  H193  1  0.30209925  0.97886688  0.21575991  1
  H  H194  1  0.80209925  0.52113312  0.28424009  1
  H  H195  1  0.69790075  0.02113312  0.78424009  1
  H  H196  1  0.03692830  0.75332513  0.76132209  1
  H  H197  1  0.46307170  0.25332513  0.26132209  1
  H  H198  1  0.96307170  0.24667487  0.23867791  1
  H  H199  1  0.53692830  0.74667487  0.73867791  1
  H  H200  1  0.99717850  0.64728912  0.69245806  1
  H  H201  1  0.50282150  0.14728912  0.19245806  1
  H  H202  1  0.00282150  0.35271088  0.30754194  1
  H  H203  1  0.49717850  0.85271088  0.80754194  1
  H  H204  1  0.09908839  0.69260125  0.66802739  1
  H  H205  1  0.40091161  0.19260125  0.16802739  1
  H  H206  1  0.90091161  0.30739875  0.33197261  1
  H  H207  1  0.59908839  0.80739875  0.83197261  1
  H  H208  1  0.26366702  0.56621487  0.95198488  1
  H  H209  1  0.23633298  0.06621487  0.45198488  1
  H  H210  1  0.73633298  0.43378513  0.04801512  1
  H  H211  1  0.76366702  0.93378513  0.54801512  1
  H  H212  1  0.35490866  0.49956457  0.89029375  1
  H  H213  1  0.14509134  0.99956457  0.39029375  1
  H  H214  1  0.64509134  0.50043543  0.10970625  1
  H  H215  1  0.85490866  0.00043543  0.60970625  1
  H  H216  1  0.24077605  0.49318681  0.84778785  1
  H  H217  1  0.25922395  0.99318681  0.34778785  1
  H  H218  1  0.75922395  0.50681319  0.15221215  1
  H  H219  1  0.74077605  0.00681319  0.65221215  1
  H  H220  1  0.35180847  0.53120364  0.69555607  1
  H  H221  1  0.14819153  0.03120364  0.19555607  1
  H  H222  1  0.64819153  0.46879636  0.30444393  1
  H  H223  1  0.85180847  0.96879636  0.80444393  1
  H  H224  1  0.44369516  0.52050832  0.76013793  1
  H  H225  1  0.05630484  0.02050832  0.26013793  1
  H  H226  1  0.55630484  0.47949168  0.23986207  1
  H  H227  1  0.94369516  0.97949168  0.73986207  1
  H  H228  1  0.44181654  0.61233837  0.73268110  1
  H  H229  1  0.05818346  0.11233837  0.23268110  1
  H  H230  1  0.55818346  0.38766163  0.26731890  1
  H  H231  1  0.94181654  0.88766163  0.76731890  1
  H  H232  1  0.46561550  0.73146465  0.90259731  1
  H  H233  1  0.03438450  0.23146465  0.40259731  1
  H  H234  1  0.53438450  0.26853535  0.09740269  1
  H  H235  1  0.96561550  0.76853535  0.59740269  1
  H  H236  1  0.47625656  0.63885937  0.92825433  1
  H  H237  1  0.02374344  0.13885937  0.42825433  1
  H  H238  1  0.52374344  0.36114063  0.07174567  1
  H  H239  1  0.97625656  0.86114063  0.57174567  1
  H  H240  1  0.40330159  0.72588986  0.98957359  1
  H  H241  1  0.09669841  0.22588986  0.48957359  1
  H  H242  1  0.59669841  0.27411014  0.01042641  1
  H  H243  1  0.90330159  0.77411014  0.51042641  1
  H  H244  1  0.09884171  0.88128857  0.85605586  1
  H  H245  1  0.40115829  0.38128857  0.35605586  1
  H  H246  1  0.90115829  0.11871143  0.14394414  1
  H  H247  1  0.59884171  0.61871143  0.64394414  1
  H  H248  1  0.02146255  0.82331026  0.91815001  1
  H  H249  1  0.47853745  0.32331026  0.41815001  1
  H  H250  1  0.97853745  0.17668974  0.08184999  1
  H  H251  1  0.52146255  0.67668974  0.58184999  1
  H  H252  1  0.10324482  0.92684356  0.98238345  1
  H  H253  1  0.39675518  0.42684356  0.48238345  1
  H  H254  1  0.89675518  0.07315644  0.01761655  1
  H  H255  1  0.60324482  0.57315644  0.51761655  1
  C  C256  1  0.80334503  0.85587694  0.18712896  1
  C  C257  1  0.69665497  0.35587694  0.68712896  1
  C  C258  1  0.19665497  0.14412306  0.81287104  1
  C  C259  1  0.30334503  0.64412306  0.31287104  1
  C  C260  1  0.65641024  0.72486432  0.09346453  1
  C  C261  1  0.84358976  0.22486432  0.59346453  1
  C  C262  1  0.34358976  0.27513568  0.90653547  1
  C  C263  1  0.15641024  0.77513568  0.40653547  1
  C  C264  1  0.62220349  0.89960435  0.12670229  1
  C  C265  1  0.87779651  0.39960435  0.62670229  1
  C  C266  1  0.37779651  0.10039565  0.87329771  1
  C  C267  1  0.12220349  0.60039565  0.37329771  1
  C  C268  1  0.23141065  0.69444336  0.83685515  1
  C  C269  1  0.26858935  0.19444336  0.33685515  1
  C  C270  1  0.76858935  0.30555664  0.16314485  1
  C  C271  1  0.73141065  0.80555664  0.66314485  1
  C  C272  1  0.19968759  0.78448704  0.02207933  1
  C  C273  1  0.30031241  0.28448704  0.52207933  1
  C  C274  1  0.80031241  0.21551296  0.97792067  1
  C  C275  1  0.69968759  0.71551296  0.47792067  1
  C  C276  1  0.30110007  0.87117849  0.93624387  1
  C  C277  1  0.19889993  0.37117849  0.43624387  1
  C  C278  1  0.69889993  0.12882151  0.06375613  1
  C  C279  1  0.80110007  0.62882151  0.56375613  1
  C  C280  1  0.75101191  0.05314715  0.28719385  1
  C  C281  1  0.74898809  0.55314715  0.78719385  1
  C  C282  1  0.24898809  0.94685285  0.71280615  1
  C  C283  1  0.25101191  0.44685285  0.21280615  1
  C  C284  1  0.67056079  0.92085854  0.34865873  1
  C  C285  1  0.82943921  0.42085854  0.84865873  1
  C  C286  1  0.32943921  0.07914146  0.65134127  1
  C  C287  1  0.17056079  0.57914146  0.15134127  1
  C  C288  1  0.87453395  0.96515695  0.36814960  1
  C  C289  1  0.62546605  0.46515695  0.86814960  1
  C  C290  1  0.12546605  0.03484305  0.63185040  1
  C  C291  1  0.37453395  0.53484305  0.13185040  1
  C  C292  1  0.86018811  0.71968309  0.26620060  1
  C  C293  1  0.63981189  0.21968309  0.76620060  1
  C  C294  1  0.13981189  0.28031691  0.73379940  1
  C  C295  1  0.36018811  0.78031691  0.23379940  1
  C  C296  1  0.90237440  0.67517154  0.08479474  1
  C  C297  1  0.59762560  0.17517154  0.58479474  1
  C  C298  1  0.09762560  0.32482846  0.91520526  1
  C  C299  1  0.40237440  0.82482846  0.41520526  1
  C  C300  1  0.01235823  0.81394106  0.21415853  1
  C  C301  1  0.48764177  0.31394106  0.71415853  1
  C  C302  1  0.98764177  0.18605894  0.78584147  1
  C  C303  1  0.51235823  0.68605894  0.28584147  1
  C  C304  1  0.03914893  0.60285199  0.84536043  1
  C  C305  1  0.46085107  0.10285199  0.34536043  1
  C  C306  1  0.96085107  0.39714801  0.15463957  1
  C  C307  1  0.53914893  0.89714801  0.65463957  1
  C  C308  1  0.16262518  0.52417170  0.69307161  1
  C  C309  1  0.33737482  0.02417170  0.19307161  1
  C  C310  1  0.83737482  0.47582830  0.30692839  1
  C  C311  1  0.66262518  0.97582830  0.80692839  1
  C  C312  1  0.05915421  0.68740824  0.72036699  1
  C  C313  1  0.44084579  0.18740824  0.22036699  1
  C  C314  1  0.94084579  0.31259176  0.27963301  1
  C  C315  1  0.55915421  0.81259176  0.77963301  1
  C  C316  1  0.29314558  0.53834683  0.88832965  1
  C  C317  1  0.20685442  0.03834683  0.38832965  1
  C  C318  1  0.70685442  0.46165317  0.11167035  1
  C  C319  1  0.79314558  0.96165317  0.61167035  1
  C  C320  1  0.39693750  0.56754908  0.74921014  1
  C  C321  1  0.10306250  0.06754908  0.24921014  1
  C  C322  1  0.60306250  0.43245092  0.25078986  1
  C  C323  1  0.89693750  0.93245092  0.75078986  1
  C  C324  1  0.42644687  0.68787588  0.92513332  1
  C  C325  1  0.07355313  0.18787588  0.42513332  1
  C  C326  1  0.57355313  0.31212412  0.07486668  1
  C  C327  1  0.92644687  0.81212412  0.57486668  1
