# generated using pymatgen
data_GeN3F7
_symmetry_space_group_name_H-M   'P 1'
_cell_length_a   11.65398000
_cell_length_b   5.94100100
_cell_length_c   11.08777182
_cell_angle_alpha   84.66730424
_cell_angle_beta   90.00000000
_cell_angle_gamma   90.00000000
_symmetry_Int_Tables_number   1
_chemical_formula_structural   GeN3F7
_chemical_formula_sum   'Ge4 N12 F28'
_cell_volume   764.35373393
_cell_formula_units_Z   4
loop_
 _symmetry_equiv_pos_site_id
 _symmetry_equiv_pos_as_xyz
  1  'x, y, z'
loop_
 _atom_site_type_symbol
 _atom_site_label
 _atom_site_symmetry_multiplicity
 _atom_site_fract_x
 _atom_site_fract_y
 _atom_site_fract_z
 _atom_site_occupancy
  Ge  Ge0  1  0.50000000  0.00000000  0.50000000  1
  Ge  Ge1  1  0.00000000  0.00000000  0.00000000  1
  Ge  Ge2  1  0.00000000  0.00000000  0.50000000  1
  Ge  Ge3  1  0.50000000  0.00000000  0.00000000  1
  N  N4  1  0.26425000  0.96670500  0.78346700  1
  N  N5  1  0.76425000  0.03329500  0.71653300  1
  N  N6  1  0.73575000  0.03329500  0.21653300  1
  N  N7  1  0.23575000  0.96670500  0.28346700  1
  N  N8  1  0.27183000  0.46494200  0.50942100  1
  N  N9  1  0.77183000  0.53505800  0.99057900  1
  N  N10  1  0.72817000  0.53505800  0.49057900  1
  N  N11  1  0.22817000  0.46494200  0.00942100  1
  N  N12  1  0.49510000  0.57577800  0.75193700  1
  N  N13  1  0.99510000  0.42422200  0.74806300  1
  N  N14  1  0.50490000  0.42422200  0.24806300  1
  N  N15  1  0.00490000  0.57577800  0.25193700  1
  F  F16  1  0.26203200  0.74355700  0.77214700  1
  F  F17  1  0.76203100  0.25644300  0.72785300  1
  F  F18  1  0.73796800  0.25644300  0.22785300  1
  F  F19  1  0.23796800  0.74355700  0.27214700  1
  F  F20  1  0.35274800  0.96919400  0.52904500  1
  F  F21  1  0.85274800  0.03080600  0.97095500  1
  F  F22  1  0.64725200  0.03080600  0.47095500  1
  F  F23  1  0.14725200  0.96919400  0.02904500  1
  F  F24  1  0.88175100  0.99161600  0.68217400  1
  F  F25  1  0.38175100  0.00838400  0.81782600  1
  F  F26  1  0.11824900  0.00838400  0.31782600  1
  F  F27  1  0.61824900  0.99161600  0.18217400  1
  F  F28  1  0.09779300  0.15794700  0.57748300  1
  F  F29  1  0.59779300  0.84205300  0.92251700  1
  F  F30  1  0.90220700  0.84205300  0.42251700  1
  F  F31  1  0.40220700  0.15794700  0.07748300  1
  F  F32  1  0.44416700  0.27852400  0.32627000  1
  F  F33  1  0.94416700  0.72147600  0.17373000  1
  F  F34  1  0.55583300  0.72147600  0.67373000  1
  F  F35  1  0.05583300  0.27852400  0.82627000  1
  F  F36  1  0.93008300  0.24862000  0.44353900  1
  F  F37  1  0.43008300  0.75138000  0.05646100  1
  F  F38  1  0.06991700  0.75138000  0.55646100  1
  F  F39  1  0.56991700  0.24862000  0.94353900  1
  F  F40  1  0.50582600  0.22450400  0.59160500  1
  F  F41  1  0.00582600  0.77549600  0.90839500  1
  F  F42  1  0.49417400  0.77549600  0.40839500  1
  F  F43  1  0.99417400  0.22450400  0.09160500  1
