# generated using pymatgen
data_Ga4SbS9N3O2
_symmetry_space_group_name_H-M   'P 1'
_cell_length_a   12.98037000
_cell_length_b   12.98037000
_cell_length_c   12.98037000
_cell_angle_alpha   90.00000000
_cell_angle_beta   90.00000000
_cell_angle_gamma   90.00000000
_symmetry_Int_Tables_number   1
_chemical_formula_structural   Ga4SbS9N3O2
_chemical_formula_sum   'Ga16 Sb4 S36 N12 O8'
_cell_volume   2187.06261057
_cell_formula_units_Z   4
loop_
 _symmetry_equiv_pos_site_id
 _symmetry_equiv_pos_as_xyz
  1  'x, y, z'
loop_
 _atom_site_type_symbol
 _atom_site_label
 _atom_site_symmetry_multiplicity
 _atom_site_fract_x
 _atom_site_fract_y
 _atom_site_fract_z
 _atom_site_occupancy
  Ga  Ga0  1  0.96280100  0.03718800  0.32047600  1
  Ga  Ga1  1  0.67952400  0.46280100  0.46281200  1
  Ga  Ga2  1  0.53718800  0.17952400  0.03719900  1
  Ga  Ga3  1  0.46280100  0.46281200  0.67952400  1
  Ga  Ga4  1  0.17952400  0.03719900  0.53718800  1
  Ga  Ga5  1  0.03718800  0.32047600  0.96280100  1
  Ga  Ga6  1  0.03719900  0.53718800  0.17952400  1
  Ga  Ga7  1  0.32047600  0.96280100  0.03718800  1
  Ga  Ga8  1  0.46281200  0.67952400  0.46280100  1
  Ga  Ga9  1  0.53719900  0.96281200  0.82047600  1
  Ga  Ga10  1  0.82047600  0.53719900  0.96281200  1
  Ga  Ga11  1  0.96281200  0.82047600  0.53719900  1
  Ga  Ga12  1  0.87753700  0.12246300  0.62246300  1
  Ga  Ga13  1  0.37753700  0.37753700  0.37753700  1
  Ga  Ga14  1  0.62246300  0.87753700  0.12246300  1
  Ga  Ga15  1  0.12246300  0.62246300  0.87753700  1
  Sb  Sb16  1  0.11389500  0.11389500  0.11389500  1
  Sb  Sb17  1  0.88610500  0.61389500  0.38610500  1
  Sb  Sb18  1  0.61389500  0.38610500  0.88610500  1
  Sb  Sb19  1  0.38610500  0.88610500  0.61389500  1
  S  S20  1  0.93128000  0.07683400  0.15771700  1
  S  S21  1  0.84228300  0.43128000  0.42316600  1
  S  S22  1  0.57683400  0.34228300  0.06872000  1
  S  S23  1  0.43128000  0.42316600  0.84228300  1
  S  S24  1  0.34228300  0.06872000  0.57683400  1
  S  S25  1  0.07683400  0.15771700  0.93128000  1
  S  S26  1  0.06872000  0.57683400  0.34228300  1
  S  S27  1  0.15771700  0.93128000  0.07683400  1
  S  S28  1  0.42316600  0.84228300  0.43128000  1
  S  S29  1  0.56872000  0.92316600  0.65771700  1
  S  S30  1  0.65771700  0.56872000  0.92316600  1
  S  S31  1  0.92316600  0.65771700  0.56872000  1
  S  S32  1  0.13955200  0.04224400  0.36122800  1
  S  S33  1  0.63877200  0.63955200  0.45775600  1
  S  S34  1  0.54224400  0.13877200  0.86044800  1
  S  S35  1  0.63955200  0.45775600  0.63877200  1
  S  S36  1  0.13877200  0.86044800  0.54224400  1
  S  S37  1  0.04224400  0.36122800  0.13955200  1
  S  S38  1  0.86044800  0.54224400  0.13877200  1
  S  S39  1  0.36122800  0.13955200  0.04224400  1
  S  S40  1  0.45775600  0.63877200  0.63955200  1
  S  S41  1  0.36044800  0.95775600  0.86122800  1
  S  S42  1  0.86122800  0.36044800  0.95775600  1
  S  S43  1  0.95775600  0.86122800  0.36044800  1
  S  S44  1  0.89029900  0.16926100  0.43396300  1
  S  S45  1  0.56603700  0.39029900  0.33073900  1
  S  S46  1  0.66926100  0.06603700  0.10970100  1
  S  S47  1  0.39029900  0.33073900  0.56603700  1
  S  S48  1  0.06603700  0.10970100  0.66926100  1
  S  S49  1  0.16926100  0.43396300  0.89029900  1
  S  S50  1  0.10970100  0.66926100  0.06603700  1
  S  S51  1  0.43396300  0.89029900  0.16926100  1
  S  S52  1  0.33073900  0.56603700  0.39029900  1
  S  S53  1  0.60970100  0.83073900  0.93396300  1
  S  S54  1  0.93396300  0.60970100  0.83073900  1
  S  S55  1  0.83073900  0.93396300  0.60970100  1
  N  N56  1  0.99474200  0.23498400  0.43294100  1
  N  N57  1  0.56705900  0.49474200  0.26501600  1
  N  N58  1  0.73498400  0.06705900  0.00525800  1
  N  N59  1  0.49474200  0.26501600  0.56705900  1
  N  N60  1  0.06705900  0.00525800  0.73498400  1
  N  N61  1  0.23498400  0.43294100  0.99474200  1
  N  N62  1  0.00525800  0.73498400  0.06705900  1
  N  N63  1  0.43294100  0.99474200  0.23498400  1
  N  N64  1  0.26501600  0.56705900  0.49474200  1
  N  N65  1  0.50525800  0.76501600  0.93294100  1
  N  N66  1  0.93294100  0.50525800  0.76501600  1
  N  N67  1  0.76501600  0.93294100  0.50525800  1
  O  O68  1  0.89898600  0.39898600  0.10101400  1
  O  O69  1  0.39898600  0.10101400  0.89898600  1
  O  O70  1  0.10101400  0.89898600  0.39898600  1
  O  O71  1  0.60101400  0.60101400  0.60101400  1
  O  O72  1  0.80204900  0.19795100  0.69795100  1
  O  O73  1  0.30204900  0.30204900  0.30204900  1
  O  O74  1  0.69795100  0.80204900  0.19795100  1
  O  O75  1  0.19795100  0.69795100  0.80204900  1
