# generated using pymatgen
data_UI2O9
_symmetry_space_group_name_H-M   'P 1'
_cell_length_a   7.91089200
_cell_length_b   8.38505300
_cell_length_c   12.41948000
_cell_angle_alpha   90.00000000
_cell_angle_beta   90.00000000
_cell_angle_gamma   90.00000000
_symmetry_Int_Tables_number   1
_chemical_formula_structural   UI2O9
_chemical_formula_sum   'U4 I8 O36'
_cell_volume   823.82445553
_cell_formula_units_Z   4
loop_
 _symmetry_equiv_pos_site_id
 _symmetry_equiv_pos_as_xyz
  1  'x, y, z'
loop_
 _atom_site_type_symbol
 _atom_site_label
 _atom_site_symmetry_multiplicity
 _atom_site_fract_x
 _atom_site_fract_y
 _atom_site_fract_z
 _atom_site_occupancy
  U  U0  1  0.42561500  0.50000000  0.25000000  1
  U  U1  1  0.07438500  0.00000000  0.75000000  1
  U  U2  1  0.57438500  0.50000000  0.75000000  1
  U  U3  1  0.92561500  0.00000000  0.25000000  1
  I  I4  1  0.60035700  0.81699100  0.46005900  1
  I  I5  1  0.89964300  0.68300900  0.96005900  1
  I  I6  1  0.89964300  0.31699100  0.53994100  1
  I  I7  1  0.60035700  0.18300900  0.03994100  1
  I  I8  1  0.39964300  0.18300900  0.53994100  1
  I  I9  1  0.10035700  0.31699100  0.03994100  1
  I  I10  1  0.10035700  0.68300900  0.46005900  1
  I  I11  1  0.39964300  0.81699100  0.96005900  1
  O  O12  1  0.43819300  0.68188200  0.16882700  1
  O  O13  1  0.06180700  0.81811800  0.66882700  1
  O  O14  1  0.06180700  0.18188200  0.83117300  1
  O  O15  1  0.43819300  0.31811800  0.33117300  1
  O  O16  1  0.56180700  0.31811800  0.83117300  1
  O  O17  1  0.93819300  0.18188200  0.33117300  1
  O  O18  1  0.93819300  0.81811800  0.16882700  1
  O  O19  1  0.56180700  0.68188200  0.66882700  1
  O  O20  1  0.72931900  0.50000000  0.25000000  1
  O  O21  1  0.77068100  0.00000000  0.75000000  1
  O  O22  1  0.27068100  0.50000000  0.75000000  1
  O  O23  1  0.22931900  0.00000000  0.25000000  1
  O  O24  1  0.53430800  0.62142100  0.40293800  1
  O  O25  1  0.96569200  0.87857900  0.90293800  1
  O  O26  1  0.96569200  0.12142100  0.59706200  1
  O  O27  1  0.53430800  0.37857900  0.09706200  1
  O  O28  1  0.46569200  0.37857900  0.59706200  1
  O  O29  1  0.03430800  0.12142100  0.09706200  1
  O  O30  1  0.03430800  0.87857900  0.40293800  1
  O  O31  1  0.46569200  0.62142100  0.90293800  1
  O  O32  1  0.38224300  0.89322400  0.46248100  1
  O  O33  1  0.11775700  0.60677600  0.96248100  1
  O  O34  1  0.11775700  0.39322400  0.53751900  1
  O  O35  1  0.38224300  0.10677600  0.03751900  1
  O  O36  1  0.61775700  0.10677600  0.53751900  1
  O  O37  1  0.88224300  0.39322400  0.03751900  1
  O  O38  1  0.88224300  0.60677600  0.46248100  1
  O  O39  1  0.61775700  0.89322400  0.96248100  1
  O  O40  1  0.68271600  0.90410700  0.33594600  1
  O  O41  1  0.81728400  0.59589300  0.83594600  1
  O  O42  1  0.81728400  0.40410700  0.66405400  1
  O  O43  1  0.68271600  0.09589300  0.16405400  1
  O  O44  1  0.31728400  0.09589300  0.66405400  1
  O  O45  1  0.18271600  0.40410700  0.16405400  1
  O  O46  1  0.18271600  0.59589300  0.33594600  1
  O  O47  1  0.31728400  0.90410700  0.83594600  1
