# generated using pymatgen
data_NaCeP2H2CO7
_symmetry_space_group_name_H-M   'P 1'
_cell_length_a   15.59672600
_cell_length_b   6.67957000
_cell_length_c   6.75262101
_cell_angle_alpha   89.72108948
_cell_angle_beta   90.00000000
_cell_angle_gamma   90.00000000
_symmetry_Int_Tables_number   1
_chemical_formula_structural   NaCeP2H2CO7
_chemical_formula_sum   'Na4 Ce4 P8 H8 C4 O28'
_cell_volume   703.47582576
_cell_formula_units_Z   4
loop_
 _symmetry_equiv_pos_site_id
 _symmetry_equiv_pos_as_xyz
  1  'x, y, z'
loop_
 _atom_site_type_symbol
 _atom_site_label
 _atom_site_symmetry_multiplicity
 _atom_site_fract_x
 _atom_site_fract_y
 _atom_site_fract_z
 _atom_site_occupancy
  Na  Na0  1  0.96829300  0.14201800  0.19073900  1
  Na  Na1  1  0.46829300  0.35798200  0.80926100  1
  Na  Na2  1  0.03170700  0.85798200  0.80926100  1
  Na  Na3  1  0.53170700  0.64201800  0.19073900  1
  Ce  Ce4  1  0.89048300  0.38528800  0.69390800  1
  Ce  Ce5  1  0.39048300  0.11471200  0.30609200  1
  Ce  Ce6  1  0.10951700  0.61471200  0.30609200  1
  Ce  Ce7  1  0.60951700  0.88528800  0.69390800  1
  P  P8  1  0.09507800  0.36890600  0.81272000  1
  P  P9  1  0.59507800  0.13109400  0.18728000  1
  P  P10  1  0.90492200  0.63109400  0.18728000  1
  P  P11  1  0.40492200  0.86890600  0.81272000  1
  P  P12  1  0.83843300  0.88910500  0.52823800  1
  P  P13  1  0.33843300  0.61089500  0.47176200  1
  P  P14  1  0.16156700  0.11089500  0.47176200  1
  P  P15  1  0.66156700  0.38910500  0.52823800  1
  H  H16  1  0.23742700  0.32588800  0.68787000  1
  H  H17  1  0.73742700  0.17411200  0.31213000  1
  H  H18  1  0.76257300  0.67411200  0.31213000  1
  H  H19  1  0.26257300  0.82588800  0.68787000  1
  H  H20  1  0.20226000  0.11294300  0.82202600  1
  H  H21  1  0.70226000  0.38705700  0.17797400  1
  H  H22  1  0.79774000  0.88705700  0.17797400  1
  H  H23  1  0.29774000  0.61294300  0.82202600  1
  C  C24  1  0.18258500  0.22577500  0.71169100  1
  C  C25  1  0.68258500  0.27422500  0.28830900  1
  C  C26  1  0.81741500  0.77422500  0.28830900  1
  C  C27  1  0.31741500  0.72577500  0.71169100  1
  O  O28  1  0.89361600  0.74430000  0.65008200  1
  O  O29  1  0.39361600  0.75570000  0.34991800  1
  O  O30  1  0.10638400  0.25570000  0.34991800  1
  O  O31  1  0.60638400  0.24430000  0.65008200  1
  O  O32  1  0.02129300  0.22270500  0.86023000  1
  O  O33  1  0.52129300  0.27729500  0.13977000  1
  O  O34  1  0.97870700  0.77729500  0.13977000  1
  O  O35  1  0.47870700  0.72270500  0.86023000  1
  O  O36  1  0.88674100  0.08955500  0.49693300  1
  O  O37  1  0.38674100  0.41044500  0.50306700  1
  O  O38  1  0.11325900  0.91044500  0.50306700  1
  O  O39  1  0.61325900  0.58955500  0.49693300  1
  O  O40  1  0.06161700  0.52656200  0.66335200  1
  O  O41  1  0.56161700  0.97343800  0.33664800  1
  O  O42  1  0.93838300  0.47343800  0.33664800  1
  O  O43  1  0.43838300  0.02656200  0.66335200  1
  O  O44  1  0.74807800  0.92792300  0.61203000  1
  O  O45  1  0.24807800  0.57207700  0.38797000  1
  O  O46  1  0.25192200  0.07207700  0.38797000  1
  O  O47  1  0.75192200  0.42792300  0.61203000  1
  O  O48  1  0.12835900  0.47534200  0.00061400  1
  O  O49  1  0.62835900  0.02465800  0.99938600  1
  O  O50  1  0.87164100  0.52465800  0.99938600  1
  O  O51  1  0.37164100  0.97534200  0.00061400  1
  O  O52  1  0.84760700  0.18073600  0.91593200  1
  O  O53  1  0.34760700  0.31926400  0.08406800  1
  O  O54  1  0.15239300  0.81926400  0.08406800  1
  O  O55  1  0.65239300  0.68073600  0.91593200  1
