# generated using pymatgen
data_KYH14(C2O3)6
_symmetry_space_group_name_H-M   'P 1'
_cell_length_a   8.36446704
_cell_length_b   12.11095644
_cell_length_c   19.42699806
_cell_angle_alpha   90.11823689
_cell_angle_beta   77.56807886
_cell_angle_gamma   90.54924037
_symmetry_Int_Tables_number   1
_chemical_formula_structural   KYH14(C2O3)6
_chemical_formula_sum   'K4 Y4 H56 C48 O72'
_cell_volume   1921.75513801
_cell_formula_units_Z   4
loop_
 _symmetry_equiv_pos_site_id
 _symmetry_equiv_pos_as_xyz
  1  'x, y, z'
loop_
 _atom_site_type_symbol
 _atom_site_label
 _atom_site_symmetry_multiplicity
 _atom_site_fract_x
 _atom_site_fract_y
 _atom_site_fract_z
 _atom_site_occupancy
  K  K0  1  0.05955703  0.75000000  0.88088594  1
  K  K1  1  0.94044297  0.25000000  0.11911406  1
  K  K2  1  0.43986683  0.75000000  0.12026635  1
  K  K3  1  0.56013317  0.25000000  0.87973365  1
  Y  Y4  1  0.17461372  0.75000000  0.65077256  1
  Y  Y5  1  0.82538628  0.25000000  0.34922744  1
  Y  Y6  1  0.32317565  0.75000000  0.35364869  1
  Y  Y7  1  0.67682435  0.25000000  0.64635131  1
  H  H8  1  0.24871913  0.87479020  0.00011550  1
  H  H9  1  0.75116537  0.62520980  0.00011550  1
  H  H10  1  0.75128087  0.12520980  0.99988450  1
  H  H11  1  0.24883463  0.37479020  0.99988450  1
  H  H12  1  0.74735720  0.88842029  0.00173267  1
  H  H13  1  0.25091014  0.61157971  0.00173267  1
  H  H14  1  0.25264280  0.11157971  0.99826733  1
  H  H15  1  0.74908986  0.38842029  0.99826733  1
  H  H16  1  0.94135905  0.89517965  0.75451968  1
  H  H17  1  0.30412127  0.60482035  0.75451968  1
  H  H18  1  0.05864095  0.10482035  0.24548032  1
  H  H19  1  0.69587873  0.39517965  0.24548032  1
  H  H20  1  0.12172598  0.94204169  0.75100209  1
  H  H21  1  0.12727193  0.55795831  0.75100209  1
  H  H22  1  0.87827402  0.05795831  0.24899791  1
  H  H23  1  0.87272807  0.44204169  0.24899791  1
  H  H24  1  0.83029907  0.65231236  0.66851972  1
  H  H25  1  0.50118121  0.84768764  0.66851972  1
  H  H26  1  0.16970093  0.34768764  0.33148028  1
  H  H27  1  0.49881879  0.15231236  0.33148028  1
  H  H28  1  0.86837204  0.65857008  0.74705836  1
  H  H29  1  0.38456960  0.84142992  0.74705836  1
  H  H30  1  0.13162796  0.34142992  0.25294164  1
  H  H31  1  0.61543040  0.15857008  0.25294164  1
  H  H32  1  0.03956026  0.95520284  0.59104470  1
  H  H33  1  0.36939504  0.54479716  0.59104470  1
  H  H34  1  0.96043974  0.04479716  0.40895530  1
  H  H35  1  0.63060496  0.45520284  0.40895530  1
  H  H36  1  0.87731803  0.88128196  0.61230074  1
  H  H37  1  0.51038124  0.61871804  0.61230074  1
  H  H38  1  0.12268197  0.11871804  0.38769926  1
  H  H39  1  0.48961876  0.38128196  0.38769926  1
  H  H40  1  0.18655836  0.60573855  0.24973250  1
  H  H41  1  0.56370914  0.89426145  0.24973250  1
  H  H42  1  0.81344164  0.39426145  0.75026750  1
  H  H43  1  0.43629086  0.10573855  0.75026750  1
  H  H44  1  0.35536258  0.55247380  0.25724436  1
  H  H45  1  0.38739306  0.94752620  0.25724436  1
  H  H46  1  0.64463742  0.44752620  0.74275564  1
  H  H47  1  0.61260694  0.05247380  0.74275564  1
  H  H48  1  0.21839799  0.85915030  0.49204599  1
  H  H49  1  0.28955603  0.64084970  0.49204599  1
  H  H50  1  0.78160201  0.14084970  0.50795401  1
  H  H51  1  0.71044397  0.35915030  0.50795401  1
  H  H52  1  0.06044620  0.87184107  0.45716354  1
  H  H53  1  0.48239025  0.62815893  0.45716354  1
  H  H54  1  0.93955380  0.12815893  0.54283646  1
  H  H55  1  0.51760975  0.37184107  0.54283646  1
  H  H56  1  0.00940500  0.86047284  0.33346193  1
  H  H57  1  0.65713306  0.63952716  0.33346193  1
  H  H58  1  0.99059500  0.13952716  0.66653807  1
  H  H59  1  0.34286694  0.36047284  0.66653807  1
  H  H60  1  0.12351305  0.85788272  0.25541038  1
  H  H61  1  0.62107657  0.64211728  0.25541038  1
  H  H62  1  0.87648695  0.14211728  0.74458962  1
  H  H63  1  0.37892343  0.35788272  0.74458962  1
  C  C64  1  0.99081399  0.63788245  0.52520049  1
  C  C65  1  0.48398552  0.86211755  0.52520049  1
  C  C66  1  0.00918601  0.36211755  0.47479951  1
  C  C67  1  0.51601448  0.13788245  0.47479951  1
  C  C68  1  0.81328208  0.62195402  0.54832797  1
  C  C69  1  0.63838996  0.87804598  0.54832797  1
  C  C70  1  0.18671792  0.37804598  0.45167203  1
  C  C71  1  0.36161004  0.12195402  0.45167203  1
  C  C72  1  0.80108272  0.61298821  0.47297560  1
  C  C73  1  0.72594168  0.88701179  0.47297560  1
  C  C74  1  0.19891728  0.38701179  0.52702440  1
  C  C75  1  0.27405832  0.11298821  0.52702440  1
  C  C76  1  0.97997419  0.63352257  0.45101505  1
  C  C77  1  0.56901075  0.86647743  0.45101505  1
  C  C78  1  0.02002581  0.36647743  0.54898495  1
  C  C79  1  0.43098925  0.13352257  0.54898495  1
  C  C80  1  0.01315516  0.88476728  0.06688744  1
  C  C81  1  0.91995740  0.61523272  0.06688744  1
  C  C82  1  0.98684484  0.11523272  0.93311256  1
  C  C83  1  0.08004260  0.38476728  0.93311256  1
  C  C84  1  0.04198522  0.88344924  0.13892587  1
  C  C85  1  0.81908891  0.61655076  0.13892587  1
  C  C86  1  0.95801478  0.11655076  0.86107413  1
  C  C87  1  0.18091109  0.38344924  0.86107413  1
  C  C88  1  0.86303477  0.89901992  0.16691066  1
  C  C89  1  0.97005457  0.60098008  0.16691066  1
  C  C90  1  0.13696523  0.10098008  0.83308934  1
  C  C91  1  0.02994543  0.39901992  0.83308934  1
  C  C92  1  0.83901151  0.89217416  0.09429105  1
  C  C93  1  0.06669744  0.60782584  0.09429105  1
  C  C94  1  0.16098849  0.10782584  0.90570895  1
  C  C95  1  0.93330256  0.39217416  0.90570895  1
  C  C96  1  0.67796625  0.61644619  0.86332238  1
  C  C97  1  0.45871137  0.88355381  0.86332238  1
  C  C98  1  0.32203375  0.38355381  0.13667762  1
  C  C99  1  0.54128863  0.11644619  0.13667762  1
  C  C100  1  0.52456595  0.60036450  0.83619998  1
  C  C101  1  0.63923407  0.89963550  0.83619998  1
  C  C102  1  0.47543405  0.39963550  0.16380002  1
  C  C103  1  0.36076593  0.10036450  0.16380002  1
  C  C104  1  0.43101538  0.60820520  0.90992056  1
  C  C105  1  0.65906407  0.89179480  0.90992056  1
  C  C106  1  0.56898462  0.39179480  0.09007944  1
  C  C107  1  0.34093593  0.10820520  0.09007944  1
  C  C108  1  0.57982664  0.61629758  0.93557099  1
  C  C109  1  0.48460237  0.88370242  0.93557099  1
  C  C110  1  0.42017336  0.38370242  0.06442901  1
  C  C111  1  0.51539763  0.11629758  0.06442901  1
  O  O112  1  0.11079584  0.65020570  0.55590156  1
  O  O113  1  0.33330261  0.84979430  0.55590156  1
  O  O114  1  0.88920416  0.34979430  0.44409844  1
  O  O115  1  0.66669739  0.15020570  0.44409844  1
  O  O116  1  0.71634548  0.62099174  0.60786225  1
  O  O117  1  0.67579227  0.87900826  0.60786225  1
  O  O118  1  0.28365452  0.37900826  0.39213775  1
  O  O119  1  0.32420773  0.12099174  0.39213775  1
  O  O120  1  0.68816728  0.59694436  0.44012478  1
  O  O121  1  0.87170794  0.90305564  0.44012478  1
  O  O122  1  0.31183272  0.40305564  0.55987522  1
  O  O123  1  0.12829206  0.09694436  0.55987522  1
  O  O124  1  0.07921582  0.64502910  0.39285424  1
  O  O125  1  0.52792994  0.85497090  0.39285424  1
  O  O126  1  0.92078418  0.35497090  0.60714576  1
  O  O127  1  0.47207006  0.14502910  0.60714576  1
  O  O128  1  0.10079464  0.87694275  0.00410046  1
  O  O129  1  0.89510491  0.62305725  0.00410046  1
  O  O130  1  0.89920536  0.12305725  0.99589954  1
  O  O131  1  0.10489509  0.37694275  0.99589954  1
  O  O132  1  0.16187275  0.86831386  0.16658667  1
  O  O133  1  0.67154058  0.63168614  0.16658667  1
  O  O134  1  0.83812725  0.13168614  0.83341333  1
  O  O135  1  0.32845942  0.36831386  0.83341333  1
  O  O136  1  0.77644257  0.91244299  0.22723604  1
  O  O137  1  0.99632140  0.58755701  0.22723604  1
  O  O138  1  0.22355743  0.08755701  0.77276396  1
  O  O139  1  0.00367860  0.41244299  0.77276396  1
  O  O140  1  0.71210914  0.88829704  0.06704231  1
  O  O141  1  0.22084855  0.61170296  0.06704231  1
  O  O142  1  0.28789086  0.11170296  0.93295769  1
  O  O143  1  0.77915145  0.38829704  0.93295769  1
  O  O144  1  0.82566492  0.63183584  0.83560172  1
  O  O145  1  0.33873337  0.86816416  0.83560172  1
  O  O146  1  0.17433508  0.36816416  0.16439828  1
  O  O147  1  0.66126663  0.13183584  0.16439828  1
  O  O148  1  0.49679427  0.58674624  0.77642618  1
  O  O149  1  0.72677955  0.91325376  0.77642618  1
  O  O150  1  0.50320573  0.41325376  0.22357382  1
  O  O151  1  0.27322045  0.08674624  0.22357382  1
  O  O152  1  0.27753306  0.61174852  0.93900539  1
  O  O153  1  0.78346154  0.88825148  0.93900539  1
  O  O154  1  0.72246694  0.38825148  0.06099461  1
  O  O155  1  0.21653846  0.11174852  0.06099461  1
  O  O156  1  0.60911540  0.62551064  0.99761370  1
  O  O157  1  0.39327090  0.87448936  0.99761370  1
  O  O158  1  0.39088460  0.37448936  0.00238630  1
  O  O159  1  0.60672910  0.12551064  0.00238630  1
  O  O160  1  0.05832211  0.87339427  0.74987771  1
  O  O161  1  0.19180018  0.62660573  0.74987771  1
  O  O162  1  0.94167789  0.12660573  0.25012229  1
  O  O163  1  0.80819982  0.37339427  0.25012229  1
  O  O164  1  0.91279473  0.67603201  0.69641787  1
  O  O165  1  0.39078739  0.82396799  0.69641787  1
  O  O166  1  0.08720527  0.32396799  0.30358213  1
  O  O167  1  0.60921261  0.17603201  0.30358213  1
  O  O168  1  0.99900554  0.88181145  0.60884665  1
  O  O169  1  0.39214781  0.61818855  0.60884665  1
  O  O170  1  0.00099446  0.11818855  0.39115335  1
  O  O171  1  0.60785219  0.38181145  0.39115335  1
  O  O172  1  0.29945760  0.62334500  0.25620607  1
  O  O173  1  0.44433633  0.87665500  0.25620607  1
  O  O174  1  0.70054240  0.37665500  0.74379393  1
  O  O175  1  0.55566367  0.12334500  0.74379393  1
  O  O176  1  0.17999130  0.85762491  0.44699989  1
  O  O177  1  0.37300881  0.64237509  0.44699989  1
  O  O178  1  0.82000870  0.14237509  0.55300011  1
  O  O179  1  0.62699119  0.35762491  0.55300011  1
  O  O180  1  0.12096867  0.84802596  0.30683124  1
  O  O181  1  0.57220009  0.65197404  0.30683124  1
  O  O182  1  0.87903133  0.15197404  0.69316876  1
  O  O183  1  0.42779991  0.34802596  0.69316876  1
