# generated using pymatgen
data_K2Si4SbO11
_symmetry_space_group_name_H-M   'P 1'
_cell_length_a   10.97120700
_cell_length_b   6.51300000
_cell_length_c   15.69692185
_cell_angle_alpha   78.84531605
_cell_angle_beta   90.00000000
_cell_angle_gamma   90.00000000
_symmetry_Int_Tables_number   1
_chemical_formula_structural   K2Si4SbO11
_chemical_formula_sum   'K8 Si16 Sb4 O44'
_cell_volume   1100.44162379
_cell_formula_units_Z   4
loop_
 _symmetry_equiv_pos_site_id
 _symmetry_equiv_pos_as_xyz
  1  'x, y, z'
loop_
 _atom_site_type_symbol
 _atom_site_label
 _atom_site_symmetry_multiplicity
 _atom_site_fract_x
 _atom_site_fract_y
 _atom_site_fract_z
 _atom_site_occupancy
  K  K0  1  0.52719500  0.29190300  0.93010800  1
  K  K1  1  0.97280500  0.29190300  0.43010800  1
  K  K2  1  0.47280500  0.70809700  0.06989200  1
  K  K3  1  0.02719500  0.70809700  0.56989200  1
  K  K4  1  0.90860200  0.30408600  0.91966100  1
  K  K5  1  0.59139800  0.30408600  0.41966100  1
  K  K6  1  0.09139800  0.69591400  0.08033900  1
  K  K7  1  0.40860200  0.69591400  0.58033900  1
  Si  Si8  1  0.29004200  0.52805400  0.28827700  1
  Si  Si9  1  0.20995800  0.52805400  0.78827700  1
  Si  Si10  1  0.70995800  0.47194600  0.71172300  1
  Si  Si11  1  0.79004200  0.47194600  0.21172300  1
  Si  Si12  1  0.07845800  0.84212800  0.31801500  1
  Si  Si13  1  0.42154200  0.84212800  0.81801500  1
  Si  Si14  1  0.92154200  0.15787200  0.68198500  1
  Si  Si15  1  0.57845800  0.15787200  0.18198500  1
  Si  Si16  1  0.26600100  0.09046600  0.41001900  1
  Si  Si17  1  0.23399900  0.09046600  0.91001900  1
  Si  Si18  1  0.73399900  0.90953400  0.58998100  1
  Si  Si19  1  0.76600100  0.90953400  0.08998100  1
  Si  Si20  1  0.47547500  0.84930100  0.34424600  1
  Si  Si21  1  0.02452500  0.84930100  0.84424600  1
  Si  Si22  1  0.52452500  0.15069900  0.65575400  1
  Si  Si23  1  0.97547500  0.15069900  0.15575400  1
  Sb  Sb24  1  0.28171600  0.27218300  0.09811000  1
  Sb  Sb25  1  0.21828400  0.27218300  0.59811000  1
  Sb  Sb26  1  0.71828400  0.72781700  0.90189000  1
  Sb  Sb27  1  0.78171600  0.72781700  0.40189000  1
  O  O28  1  0.40336000  0.69462900  0.29043800  1
  O  O29  1  0.09664000  0.69462900  0.79043800  1
  O  O30  1  0.59664000  0.30537100  0.70956200  1
  O  O31  1  0.90336000  0.30537100  0.20956200  1
  O  O32  1  0.31607100  0.32448300  0.36616500  1
  O  O33  1  0.18392900  0.32448300  0.86616500  1
  O  O34  1  0.68392900  0.67551700  0.63383500  1
  O  O35  1  0.81607100  0.67551700  0.13383500  1
  O  O36  1  0.28491600  0.47184300  0.19303700  1
  O  O37  1  0.21508400  0.47184300  0.69303700  1
  O  O38  1  0.71508400  0.52815700  0.80696300  1
  O  O39  1  0.78491600  0.52815700  0.30696300  1
  O  O40  1  0.16124100  0.64088500  0.30688400  1
  O  O41  1  0.33875900  0.64088500  0.80688400  1
  O  O42  1  0.83875900  0.35911500  0.69311600  1
  O  O43  1  0.66124100  0.35911500  0.19311600  1
  O  O44  1  0.97368300  0.77478900  0.39043500  1
  O  O45  1  0.52631700  0.77478900  0.89043500  1
  O  O46  1  0.02631700  0.22521100  0.60956500  1
  O  O47  1  0.47368300  0.22521100  0.10956500  1
  O  O48  1  0.02139000  0.93789500  0.22170400  1
  O  O49  1  0.47861000  0.93789500  0.72170400  1
  O  O50  1  0.97861000  0.06210500  0.77829600  1
  O  O51  1  0.52139000  0.06210500  0.27829600  1
  O  O52  1  0.16183600  0.03117800  0.34357100  1
  O  O53  1  0.33816400  0.03117800  0.84357100  1
  O  O54  1  0.83816400  0.96882200  0.65642900  1
  O  O55  1  0.66183600  0.96882200  0.15642900  1
  O  O56  1  0.21052500  0.06321400  0.50734300  1
  O  O57  1  0.28947500  0.06321400  0.00734300  1
  O  O58  1  0.78947500  0.93678600  0.49265700  1
  O  O59  1  0.71052500  0.93678600  0.99265700  1
  O  O60  1  0.38303900  0.93079500  0.41349300  1
  O  O61  1  0.11696100  0.93079500  0.91349300  1
  O  O62  1  0.61696100  0.06920500  0.58650700  1
  O  O63  1  0.88303900  0.06920500  0.08650700  1
  O  O64  1  0.58567900  0.72867200  0.40141800  1
  O  O65  1  0.91432100  0.72867200  0.90141800  1
  O  O66  1  0.41432100  0.27132800  0.59858200  1
  O  O67  1  0.08567900  0.27132800  0.09858200  1
  O  O68  1  0.70746700  0.48642200  0.98783700  1
  O  O69  1  0.79253300  0.48642200  0.48783700  1
  O  O70  1  0.29253300  0.51357800  0.01216300  1
  O  O71  1  0.20746700  0.51357800  0.51216300  1
