# generated using pymatgen
data_YbV4O8
_symmetry_space_group_name_H-M   'P 1'
_cell_length_a   9.22007400
_cell_length_b   5.90541800
_cell_length_c   11.22045004
_cell_angle_alpha   74.25005840
_cell_angle_beta   90.00000000
_cell_angle_gamma   90.00000000
_symmetry_Int_Tables_number   1
_chemical_formula_structural   YbV4O8
_chemical_formula_sum   'Yb4 V16 O32'
_cell_volume   587.99819249
_cell_formula_units_Z   4
loop_
 _symmetry_equiv_pos_site_id
 _symmetry_equiv_pos_as_xyz
  1  'x, y, z'
loop_
 _atom_site_type_symbol
 _atom_site_label
 _atom_site_symmetry_multiplicity
 _atom_site_fract_x
 _atom_site_fract_y
 _atom_site_fract_z
 _atom_site_occupancy
  Yb  Yb0  1  0.25760000  0.94637700  0.84397000  1
  Yb  Yb1  1  0.74240000  0.05362300  0.15603000  1
  Yb  Yb2  1  0.75760000  0.05362300  0.65603000  1
  Yb  Yb3  1  0.24240000  0.94637700  0.34397000  1
  V  V4  1  0.43385100  0.07561900  0.60618200  1
  V  V5  1  0.56614900  0.92438100  0.39381800  1
  V  V6  1  0.93385100  0.92438100  0.89381800  1
  V  V7  1  0.06614900  0.07561900  0.10618200  1
  V  V8  1  0.43835100  0.56359500  0.61976500  1
  V  V9  1  0.56164900  0.43640500  0.38023500  1
  V  V10  1  0.93835100  0.43640500  0.88023500  1
  V  V11  1  0.06164900  0.56359500  0.11976500  1
  V  V12  1  0.41392100  0.32354500  0.10071100  1
  V  V13  1  0.58607900  0.67645500  0.89928900  1
  V  V14  1  0.91392100  0.67645500  0.39928900  1
  V  V15  1  0.08607900  0.32354500  0.60071100  1
  V  V16  1  0.42008900  0.81705000  0.10488500  1
  V  V17  1  0.57991100  0.18295000  0.89511500  1
  V  V18  1  0.92008900  0.18295000  0.39511500  1
  V  V19  1  0.07991100  0.81705000  0.60488500  1
  O  O20  1  0.20793700  0.81338100  0.15128100  1
  O  O21  1  0.79206300  0.18661900  0.84871900  1
  O  O22  1  0.70793700  0.18661900  0.34871900  1
  O  O23  1  0.29206300  0.81338100  0.65128100  1
  O  O24  1  0.20326300  0.28004100  0.15198400  1
  O  O25  1  0.79673700  0.71995900  0.84801600  1
  O  O26  1  0.70326300  0.71995900  0.34801600  1
  O  O27  1  0.29673700  0.28004100  0.65198400  1
  O  O28  1  0.11381200  0.64681900  0.47901600  1
  O  O29  1  0.88618800  0.35318100  0.52098400  1
  O  O30  1  0.61381200  0.35318100  0.02098400  1
  O  O31  1  0.38618800  0.64681900  0.97901600  1
  O  O32  1  0.11578500  0.11580900  0.48033700  1
  O  O33  1  0.88421500  0.88419100  0.51966300  1
  O  O34  1  0.61578500  0.88419100  0.01966300  1
  O  O35  1  0.38421500  0.11580900  0.98033700  1
  O  O36  1  0.02300900  0.01095800  0.72149300  1
  O  O37  1  0.97699100  0.98904200  0.27850700  1
  O  O38  1  0.52300900  0.98904200  0.77850700  1
  O  O39  1  0.47699100  0.01095800  0.22149300  1
  O  O40  1  0.02554300  0.53289400  0.71184800  1
  O  O41  1  0.97445700  0.46710600  0.28815200  1
  O  O42  1  0.52554300  0.46710600  0.78815200  1
  O  O43  1  0.47445700  0.53289400  0.21184800  1
  O  O44  1  0.42370500  0.67322000  0.43351800  1
  O  O45  1  0.57629500  0.32678000  0.56648200  1
  O  O46  1  0.92370500  0.32678000  0.06648200  1
  O  O47  1  0.07629500  0.67322000  0.93351800  1
  O  O48  1  0.42074500  0.14809500  0.42469500  1
  O  O49  1  0.57925500  0.85190500  0.57530500  1
  O  O50  1  0.92074500  0.85190500  0.07530500  1
  O  O51  1  0.07925500  0.14809500  0.92469500  1
