# generated using pymatgen
data_K6Tl17
_symmetry_space_group_name_H-M   'P 1'
_cell_length_a   15.14861243
_cell_length_b   15.14861299
_cell_length_c   15.48731600
_cell_angle_alpha   90.00000000
_cell_angle_beta   90.00000000
_cell_angle_gamma   111.24785677
_symmetry_Int_Tables_number   1
_chemical_formula_structural   K6Tl17
_chemical_formula_sum   'K24 Tl68'
_cell_volume   3312.43817477
_cell_formula_units_Z   4
loop_
 _symmetry_equiv_pos_site_id
 _symmetry_equiv_pos_as_xyz
  1  'x, y, z'
loop_
 _atom_site_type_symbol
 _atom_site_label
 _atom_site_symmetry_multiplicity
 _atom_site_fract_x
 _atom_site_fract_y
 _atom_site_fract_z
 _atom_site_occupancy
  K  K0  1  0.57468500  0.88366700  0.50000000  1
  K  K1  1  0.42531500  0.11633300  0.50000000  1
  K  K2  1  0.11633300  0.42531500  0.00000000  1
  K  K3  1  0.88366700  0.57468500  0.00000000  1
  K  K4  1  0.19438700  0.24968000  0.50000000  1
  K  K5  1  0.80561300  0.75032000  0.50000000  1
  K  K6  1  0.75032000  0.80561300  0.00000000  1
  K  K7  1  0.24968000  0.19438700  0.00000000  1
  K  K8  1  0.89085300  0.21938700  0.50000000  1
  K  K9  1  0.10914700  0.78061300  0.50000000  1
  K  K10  1  0.78061300  0.10914700  0.00000000  1
  K  K11  1  0.21938700  0.89085300  0.00000000  1
  K  K12  1  0.60884800  0.93876200  0.78842300  1
  K  K13  1  0.39115200  0.06123800  0.78842300  1
  K  K14  1  0.06123800  0.39115200  0.71157700  1
  K  K15  1  0.93876200  0.60884800  0.71157700  1
  K  K16  1  0.39115200  0.06123800  0.21157700  1
  K  K17  1  0.60884800  0.93876200  0.21157700  1
  K  K18  1  0.93876200  0.60884800  0.28842300  1
  K  K19  1  0.06123800  0.39115200  0.28842300  1
  K  K20  1  0.72225700  0.72225700  0.75000000  1
  K  K21  1  0.27774300  0.27774300  0.75000000  1
  K  K22  1  0.27774300  0.27774300  0.25000000  1
  K  K23  1  0.72225700  0.72225700  0.25000000  1
  Tl  Tl24  1  0.88031300  0.97149700  0.82175400  1
  Tl  Tl25  1  0.11968700  0.02850300  0.82175400  1
  Tl  Tl26  1  0.02850300  0.11968700  0.67824600  1
  Tl  Tl27  1  0.97149700  0.88031300  0.67824600  1
  Tl  Tl28  1  0.11968700  0.02850300  0.17824600  1
  Tl  Tl29  1  0.88031300  0.97149700  0.17824600  1
  Tl  Tl30  1  0.97149700  0.88031300  0.32175400  1
  Tl  Tl31  1  0.02850300  0.11968700  0.32175400  1
  Tl  Tl32  1  0.00000000  0.00000000  0.50000000  1
  Tl  Tl33  1  0.00000000  0.00000000  0.00000000  1
  Tl  Tl34  1  0.83801100  0.16198900  0.75000000  1
  Tl  Tl35  1  0.16198900  0.83801100  0.75000000  1
  Tl  Tl36  1  0.16198900  0.83801100  0.25000000  1
  Tl  Tl37  1  0.83801100  0.16198900  0.25000000  1
  Tl  Tl38  1  0.50000000  0.50000000  0.75000000  1
  Tl  Tl39  1  0.50000000  0.50000000  0.25000000  1
  Tl  Tl40  1  0.79711200  0.97027200  0.62193400  1
  Tl  Tl41  1  0.20288800  0.02972800  0.62193400  1
  Tl  Tl42  1  0.02972800  0.20288800  0.87806600  1
  Tl  Tl43  1  0.97027200  0.79711200  0.87806600  1
  Tl  Tl44  1  0.20288800  0.02972800  0.37806600  1
  Tl  Tl45  1  0.79711200  0.97027200  0.37806600  1
  Tl  Tl46  1  0.97027200  0.79711200  0.12193400  1
  Tl  Tl47  1  0.02972800  0.20288800  0.12193400  1
  Tl  Tl48  1  0.64776900  0.20700000  0.82818900  1
  Tl  Tl49  1  0.35223100  0.79300000  0.82818900  1
  Tl  Tl50  1  0.79300000  0.35223100  0.67181100  1
  Tl  Tl51  1  0.20700000  0.64776900  0.67181100  1
  Tl  Tl52  1  0.35223100  0.79300000  0.17181100  1
  Tl  Tl53  1  0.64776900  0.20700000  0.17181100  1
  Tl  Tl54  1  0.20700000  0.64776900  0.32818900  1
  Tl  Tl55  1  0.79300000  0.35223100  0.32818900  1
  Tl  Tl56  1  0.54780600  0.29628900  0.68502900  1
  Tl  Tl57  1  0.45219400  0.70371100  0.68502900  1
  Tl  Tl58  1  0.70371100  0.45219400  0.81497100  1
  Tl  Tl59  1  0.29628900  0.54780600  0.81497100  1
  Tl  Tl60  1  0.45219400  0.70371100  0.31497100  1
  Tl  Tl61  1  0.54780600  0.29628900  0.31497100  1
  Tl  Tl62  1  0.29628900  0.54780600  0.18502900  1
  Tl  Tl63  1  0.70371100  0.45219400  0.18502900  1
  Tl  Tl64  1  0.66341200  0.31146600  0.50000000  1
  Tl  Tl65  1  0.33658800  0.68853400  0.50000000  1
  Tl  Tl66  1  0.68853400  0.33658800  0.00000000  1
  Tl  Tl67  1  0.31146600  0.66341200  0.00000000  1
  Tl  Tl68  1  0.64811400  0.12051900  0.62229000  1
  Tl  Tl69  1  0.35188600  0.87948100  0.62229000  1
  Tl  Tl70  1  0.87948100  0.35188600  0.87771000  1
  Tl  Tl71  1  0.12051900  0.64811400  0.87771000  1
  Tl  Tl72  1  0.35188600  0.87948100  0.37771000  1
  Tl  Tl73  1  0.64811400  0.12051900  0.37771000  1
  Tl  Tl74  1  0.12051900  0.64811400  0.12229000  1
  Tl  Tl75  1  0.87948100  0.35188600  0.12229000  1
  Tl  Tl76  1  0.48442000  0.31573000  0.88930300  1
  Tl  Tl77  1  0.51558000  0.68427000  0.88930300  1
  Tl  Tl78  1  0.68427000  0.51558000  0.61069700  1
  Tl  Tl79  1  0.31573000  0.48442000  0.61069700  1
  Tl  Tl80  1  0.51558000  0.68427000  0.11069700  1
  Tl  Tl81  1  0.48442000  0.31573000  0.11069700  1
  Tl  Tl82  1  0.31573000  0.48442000  0.38930300  1
  Tl  Tl83  1  0.68427000  0.51558000  0.38930300  1
  Tl  Tl84  1  0.46646700  0.37802900  0.50000000  1
  Tl  Tl85  1  0.53353300  0.62197100  0.50000000  1
  Tl  Tl86  1  0.62197100  0.53353300  0.00000000  1
  Tl  Tl87  1  0.37802900  0.46646700  0.00000000  1
  Tl  Tl88  1  0.88367900  0.49263000  0.50000000  1
  Tl  Tl89  1  0.11632100  0.50737000  0.50000000  1
  Tl  Tl90  1  0.50737000  0.11632100  0.00000000  1
  Tl  Tl91  1  0.49263000  0.88367900  0.00000000  1
