# generated using pymatgen
data_Ni2BiB(PO5)2
_symmetry_space_group_name_H-M   'P 1'
_cell_length_a   5.11080075
_cell_length_b   6.40132604
_cell_length_c   11.35912700
_cell_angle_alpha   89.99996192
_cell_angle_beta   90.00004762
_cell_angle_gamma   107.03887436
_symmetry_Int_Tables_number   1
_chemical_formula_structural   Ni2BiB(PO5)2
_chemical_formula_sum   'Ni4 Bi2 B2 P4 O20'
_cell_volume   355.31207897
_cell_formula_units_Z   2
loop_
 _symmetry_equiv_pos_site_id
 _symmetry_equiv_pos_as_xyz
  1  'x, y, z'
loop_
 _atom_site_type_symbol
 _atom_site_label
 _atom_site_symmetry_multiplicity
 _atom_site_fract_x
 _atom_site_fract_y
 _atom_site_fract_z
 _atom_site_occupancy
  Ni  Ni0  1  0.34925000  0.33516200  0.39454100  1
  Ni  Ni1  1  0.65075900  0.66484000  0.89454000  1
  Ni  Ni2  1  0.65010000  0.66491400  0.60559100  1
  Ni  Ni3  1  0.34990400  0.33508600  0.10559400  1
  Bi  Bi4  1  0.25039200  0.94130300  0.74997100  1
  Bi  Bi5  1  0.74960900  0.05869600  0.24997100  1
  B  B6  1  0.06004800  0.48688700  0.74998700  1
  B  B7  1  0.93995200  0.51311300  0.24998700  1
  P  P8  1  0.79240400  0.21415200  0.56453800  1
  P  P9  1  0.20759500  0.78584700  0.06453900  1
  P  P10  1  0.20757200  0.78583900  0.43544700  1
  P  P11  1  0.79242700  0.21416200  0.93544800  1
  O  O12  1  0.87424600  0.62573900  0.75000500  1
  O  O13  1  0.12575300  0.37426000  0.25000600  1
  O  O14  1  0.34739600  0.63293500  0.74997800  1
  O  O15  1  0.65260300  0.36706500  0.24997800  1
  O  O16  1  0.03144500  0.34467300  0.64506500  1
  O  O17  1  0.96855300  0.65532700  0.14506500  1
  O  O18  1  0.96855600  0.65530900  0.35490700  1
  O  O19  1  0.03144200  0.34469100  0.85490700  1
  O  O20  1  0.64486000  0.99230200  0.62520200  1
  O  O21  1  0.35513800  0.00769800  0.12520300  1
  O  O22  1  0.35514500  0.00765000  0.37476100  1
  O  O23  1  0.64485300  0.99235000  0.87476100  1
  O  O24  1  0.93045900  0.18106000  0.44874400  1
  O  O25  1  0.06954000  0.81894000  0.94874500  1
  O  O26  1  0.06955300  0.81895100  0.55124200  1
  O  O27  1  0.93044600  0.18104900  0.05124200  1
  O  O28  1  0.58358900  0.34554500  0.54883500  1
  O  O29  1  0.41641200  0.65445500  0.04883600  1
  O  O30  1  0.41635400  0.65438700  0.45118100  1
  O  O31  1  0.58364500  0.34561400  0.95118200  1
