# generated using pymatgen
data_Rb2Mn2(MoO4)3
_symmetry_space_group_name_H-M   'P 1'
_cell_length_a   11.21138700
_cell_length_b   11.21138700
_cell_length_c   11.21138700
_cell_angle_alpha   90.00000000
_cell_angle_beta   90.00000000
_cell_angle_gamma   90.00000000
_symmetry_Int_Tables_number   1
_chemical_formula_structural   Rb2Mn2(MoO4)3
_chemical_formula_sum   'Rb8 Mn8 Mo12 O48'
_cell_volume   1409.21751402
_cell_formula_units_Z   4
loop_
 _symmetry_equiv_pos_site_id
 _symmetry_equiv_pos_as_xyz
  1  'x, y, z'
loop_
 _atom_site_type_symbol
 _atom_site_label
 _atom_site_symmetry_multiplicity
 _atom_site_fract_x
 _atom_site_fract_y
 _atom_site_fract_z
 _atom_site_occupancy
  Rb  Rb0  1  0.54712900  0.95287100  0.04712900  1
  Rb  Rb1  1  0.95287100  0.04712900  0.54712900  1
  Rb  Rb2  1  0.45287100  0.45287100  0.45287100  1
  Rb  Rb3  1  0.04712900  0.54712900  0.95287100  1
  Rb  Rb4  1  0.68063400  0.68063400  0.68063400  1
  Rb  Rb5  1  0.31936600  0.18063400  0.81936600  1
  Rb  Rb6  1  0.18063400  0.81936600  0.31936600  1
  Rb  Rb7  1  0.81936600  0.31936600  0.18063400  1
  Mn  Mn8  1  0.38863200  0.61136800  0.11136800  1
  Mn  Mn9  1  0.88863200  0.88863200  0.88863200  1
  Mn  Mn10  1  0.11136800  0.38863200  0.61136800  1
  Mn  Mn11  1  0.61136800  0.11136800  0.38863200  1
  Mn  Mn12  1  0.83710000  0.66290000  0.33710000  1
  Mn  Mn13  1  0.66290000  0.33710000  0.83710000  1
  Mn  Mn14  1  0.16290000  0.16290000  0.16290000  1
  Mn  Mn15  1  0.33710000  0.83710000  0.66290000  1
  Mo  Mo16  1  0.70341300  0.62089800  0.02440100  1
  Mo  Mo17  1  0.97559900  0.20341300  0.87910200  1
  Mo  Mo18  1  0.12089800  0.47559900  0.29658700  1
  Mo  Mo19  1  0.20341300  0.87910200  0.97559900  1
  Mo  Mo20  1  0.47559900  0.29658700  0.12089800  1
  Mo  Mo21  1  0.62089800  0.02440100  0.70341300  1
  Mo  Mo22  1  0.29658700  0.12089800  0.47559900  1
  Mo  Mo23  1  0.02440100  0.70341300  0.62089800  1
  Mo  Mo24  1  0.87910200  0.97559900  0.20341300  1
  Mo  Mo25  1  0.79658700  0.37910200  0.52440100  1
  Mo  Mo26  1  0.52440100  0.79658700  0.37910200  1
  Mo  Mo27  1  0.37910200  0.52440100  0.79658700  1
  O  O28  1  0.75476700  0.60334200  0.17462000  1
  O  O29  1  0.82538000  0.25476700  0.89665800  1
  O  O30  1  0.10334200  0.32538000  0.24523300  1
  O  O31  1  0.25476700  0.89665800  0.82538000  1
  O  O32  1  0.32538000  0.24523300  0.10334200  1
  O  O33  1  0.60334200  0.17462000  0.75476700  1
  O  O34  1  0.24523300  0.10334200  0.32538000  1
  O  O35  1  0.17462000  0.75476700  0.60334200  1
  O  O36  1  0.89665800  0.82538000  0.25476700  1
  O  O37  1  0.74523300  0.39665800  0.67462000  1
  O  O38  1  0.67462000  0.74523300  0.39665800  1
  O  O39  1  0.39665800  0.67462000  0.74523300  1
  O  O40  1  0.79264400  0.72859500  0.94487200  1
  O  O41  1  0.05512800  0.29264400  0.77140500  1
  O  O42  1  0.22859500  0.55512800  0.20735600  1
  O  O43  1  0.29264400  0.77140500  0.05512800  1
  O  O44  1  0.55512800  0.20735600  0.22859500  1
  O  O45  1  0.72859500  0.94487200  0.79264400  1
  O  O46  1  0.20735600  0.22859500  0.55512800  1
  O  O47  1  0.94487200  0.79264400  0.72859500  1
  O  O48  1  0.77140500  0.05512800  0.29264400  1
  O  O49  1  0.70735600  0.27140500  0.44487200  1
  O  O50  1  0.44487200  0.70735600  0.27140500  1
  O  O51  1  0.27140500  0.44487200  0.70735600  1
  O  O52  1  0.54996400  0.67025400  0.01890900  1
  O  O53  1  0.98109100  0.04996400  0.82974600  1
  O  O54  1  0.17025400  0.48109100  0.45003600  1
  O  O55  1  0.04996400  0.82974600  0.98109100  1
  O  O56  1  0.48109100  0.45003600  0.17025400  1
  O  O57  1  0.67025400  0.01890900  0.54996400  1
  O  O58  1  0.45003600  0.17025400  0.48109100  1
  O  O59  1  0.01890900  0.54996400  0.67025400  1
  O  O60  1  0.82974600  0.98109100  0.04996400  1
  O  O61  1  0.95003600  0.32974600  0.51890900  1
  O  O62  1  0.51890900  0.95003600  0.32974600  1
  O  O63  1  0.32974600  0.51890900  0.95003600  1
  O  O64  1  0.72370400  0.48024500  0.95100000  1
  O  O65  1  0.04900000  0.22370400  0.01975500  1
  O  O66  1  0.98024500  0.54900000  0.27629600  1
  O  O67  1  0.22370400  0.01975500  0.04900000  1
  O  O68  1  0.54900000  0.27629600  0.98024500  1
  O  O69  1  0.48024500  0.95100000  0.72370400  1
  O  O70  1  0.27629600  0.98024500  0.54900000  1
  O  O71  1  0.95100000  0.72370400  0.48024500  1
  O  O72  1  0.01975500  0.04900000  0.22370400  1
  O  O73  1  0.77629600  0.51975500  0.45100000  1
  O  O74  1  0.45100000  0.77629600  0.51975500  1
  O  O75  1  0.51975500  0.45100000  0.77629600  1
