# generated using pymatgen
data_ZrS2O9
_symmetry_space_group_name_H-M   'P 1'
_cell_length_a   8.67654500
_cell_length_b   7.50777100
_cell_length_c   11.96647849
_cell_angle_alpha   73.61114463
_cell_angle_beta   90.00000000
_cell_angle_gamma   90.00000000
_symmetry_Int_Tables_number   1
_chemical_formula_structural   ZrS2O9
_chemical_formula_sum   'Zr4 S8 O36'
_cell_volume   747.84196123
_cell_formula_units_Z   4
loop_
 _symmetry_equiv_pos_site_id
 _symmetry_equiv_pos_as_xyz
  1  'x, y, z'
loop_
 _atom_site_type_symbol
 _atom_site_label
 _atom_site_symmetry_multiplicity
 _atom_site_fract_x
 _atom_site_fract_y
 _atom_site_fract_z
 _atom_site_occupancy
  Zr  Zr0  1  0.24378800  0.90797300  0.60819500  1
  Zr  Zr1  1  0.74378800  0.09202700  0.89180500  1
  Zr  Zr2  1  0.75621200  0.09202700  0.39180500  1
  Zr  Zr3  1  0.25621200  0.90797300  0.10819500  1
  S  S4  1  0.05174400  0.80204500  0.87778900  1
  S  S5  1  0.55174400  0.19795500  0.62221100  1
  S  S6  1  0.94825600  0.19795500  0.12221100  1
  S  S7  1  0.44825600  0.80204500  0.37778900  1
  S  S8  1  0.88841900  0.75122200  0.52560800  1
  S  S9  1  0.38841900  0.24877800  0.97439200  1
  S  S10  1  0.11158100  0.24877800  0.47439200  1
  S  S11  1  0.61158100  0.75122200  0.02560800  1
  O  O12  1  0.17869800  0.85130600  0.78911700  1
  O  O13  1  0.67869800  0.14869400  0.71088300  1
  O  O14  1  0.82130200  0.14869400  0.21088300  1
  O  O15  1  0.32130200  0.85130600  0.28911700  1
  O  O16  1  0.12312600  0.79181600  0.99382200  1
  O  O17  1  0.62312600  0.20818400  0.50617800  1
  O  O18  1  0.87687400  0.20818400  0.00617800  1
  O  O19  1  0.37687400  0.79181600  0.49382200  1
  O  O20  1  0.97092400  0.63677600  0.87713100  1
  O  O21  1  0.47092400  0.36322400  0.62286900  1
  O  O22  1  0.02907600  0.36322400  0.12286900  1
  O  O23  1  0.52907600  0.63677600  0.37713100  1
  O  O24  1  0.94444700  0.96896200  0.85041800  1
  O  O25  1  0.44444700  0.03103800  0.64958200  1
  O  O26  1  0.05555300  0.03103800  0.14958200  1
  O  O27  1  0.55555300  0.96896200  0.35041800  1
  O  O28  1  0.77835100  0.88328300  0.56152300  1
  O  O29  1  0.27835100  0.11671700  0.93847700  1
  O  O30  1  0.22164900  0.11671700  0.43847700  1
  O  O31  1  0.72164900  0.88328300  0.06152300  1
  O  O32  1  0.84198100  0.56081800  0.55944000  1
  O  O33  1  0.34198100  0.43918200  0.94056000  1
  O  O34  1  0.15801900  0.43918200  0.44056000  1
  O  O35  1  0.65801900  0.56081800  0.05944000  1
  O  O36  1  0.04420700  0.77387200  0.57792300  1
  O  O37  1  0.54420700  0.22612800  0.92207700  1
  O  O38  1  0.95579300  0.22612800  0.42207700  1
  O  O39  1  0.45579300  0.77387200  0.07792300  1
  O  O40  1  0.60103700  0.84247900  0.89566000  1
  O  O41  1  0.10103700  0.15752100  0.60434000  1
  O  O42  1  0.39896300  0.15752100  0.10434000  1
  O  O43  1  0.89896300  0.84247900  0.39566000  1
  O  O44  1  0.33955900  0.62782900  0.70365300  1
  O  O45  1  0.83955900  0.37217100  0.79634700  1
  O  O46  1  0.66044100  0.37217100  0.29634700  1
  O  O47  1  0.16044100  0.62782900  0.20365300  1
