# generated using pymatgen
data_K2Zr(H2N)6
_symmetry_space_group_name_H-M   'P 1'
_cell_length_a   6.89229873
_cell_length_b   6.89229900
_cell_length_c   12.12263571
_cell_angle_alpha   73.48454867
_cell_angle_beta   73.48454950
_cell_angle_gamma   60.00000350
_symmetry_Int_Tables_number   1
_chemical_formula_structural   K2Zr(H2N)6
_chemical_formula_sum   'K4 Zr2 H24 N12'
_cell_volume   471.08519675
_cell_formula_units_Z   2
loop_
 _symmetry_equiv_pos_site_id
 _symmetry_equiv_pos_as_xyz
  1  'x, y, z'
loop_
 _atom_site_type_symbol
 _atom_site_label
 _atom_site_symmetry_multiplicity
 _atom_site_fract_x
 _atom_site_fract_y
 _atom_site_fract_z
 _atom_site_occupancy
  K  K0  1  0.63432100  0.63432100  0.09703800  1
  K  K1  1  0.13432100  0.13432100  0.59703800  1
  K  K2  1  0.36567900  0.36567900  0.90296200  1
  K  K3  1  0.86567900  0.86567900  0.40296200  1
  Zr  Zr4  1  0.75000000  0.75000000  0.75000000  1
  Zr  Zr5  1  0.25000000  0.25000000  0.25000000  1
  H  H6  1  0.05713500  0.28007500  0.84123900  1
  H  H7  1  0.82155100  0.05713500  0.84123900  1
  H  H8  1  0.28007500  0.82155100  0.84123900  1
  H  H9  1  0.78007500  0.55713500  0.34123900  1
  H  H10  1  0.32155100  0.78007500  0.34123900  1
  H  H11  1  0.55713500  0.32155100  0.34123900  1
  H  H12  1  0.94286500  0.71992500  0.15876100  1
  H  H13  1  0.17844900  0.94286500  0.15876100  1
  H  H14  1  0.71992500  0.17844900  0.15876100  1
  H  H15  1  0.21992500  0.44286500  0.65876100  1
  H  H16  1  0.67844900  0.21992500  0.65876100  1
  H  H17  1  0.44286500  0.67844900  0.65876100  1
  H  H18  1  0.81113200  0.34922100  0.92662400  1
  H  H19  1  0.91302400  0.81113200  0.92662400  1
  H  H20  1  0.34922100  0.91302400  0.92662400  1
  H  H21  1  0.84922100  0.31113200  0.42662400  1
  H  H22  1  0.41302400  0.84922100  0.42662400  1
  H  H23  1  0.31113200  0.41302400  0.42662400  1
  H  H24  1  0.18886800  0.65077900  0.07337600  1
  H  H25  1  0.08697600  0.18886800  0.07337600  1
  H  H26  1  0.65077900  0.08697600  0.07337600  1
  H  H27  1  0.15077900  0.68886800  0.57337600  1
  H  H28  1  0.58697600  0.15077900  0.57337600  1
  H  H29  1  0.68886800  0.58697600  0.57337600  1
  N  N30  1  0.90759000  0.41644700  0.86447600  1
  N  N31  1  0.81148600  0.90759000  0.86447600  1
  N  N32  1  0.41644700  0.81148600  0.86447600  1
  N  N33  1  0.91644700  0.40759000  0.36447600  1
  N  N34  1  0.31148600  0.91644700  0.36447600  1
  N  N35  1  0.40759000  0.31148600  0.36447600  1
  N  N36  1  0.09241000  0.58355300  0.13552400  1
  N  N37  1  0.18851400  0.09241000  0.13552400  1
  N  N38  1  0.58355300  0.18851400  0.13552400  1
  N  N39  1  0.08355300  0.59241000  0.63552400  1
  N  N40  1  0.68851400  0.08355300  0.63552400  1
  N  N41  1  0.59241000  0.68851400  0.63552400  1
