# generated using pymatgen
data_CoB10H21(C6Cl)2
_symmetry_space_group_name_H-M   'P 1'
_cell_length_a   12.43884900
_cell_length_b   9.32591200
_cell_length_c   20.58181322
_cell_angle_alpha   90.00000000
_cell_angle_beta   107.55091104
_cell_angle_gamma   90.00000000
_symmetry_Int_Tables_number   1
_chemical_formula_structural   CoB10H21(C6Cl)2
_chemical_formula_sum   'Co4 B40 H84 C48 Cl8'
_cell_volume   2276.42203629
_cell_formula_units_Z   4
loop_
 _symmetry_equiv_pos_site_id
 _symmetry_equiv_pos_as_xyz
  1  'x, y, z'
loop_
 _atom_site_type_symbol
 _atom_site_label
 _atom_site_symmetry_multiplicity
 _atom_site_fract_x
 _atom_site_fract_y
 _atom_site_fract_z
 _atom_site_occupancy
  Co  Co0  1  0.81360000  0.27023800  0.32720700  1
  Co  Co1  1  0.81360000  0.22976200  0.82720700  1
  Co  Co2  1  0.18640000  0.72976200  0.67279300  1
  Co  Co3  1  0.18640000  0.77023800  0.17279300  1
  B  B4  1  0.85638700  0.48574400  0.37204000  1
  B  B5  1  0.85638700  0.01425600  0.87204000  1
  B  B6  1  0.14361300  0.51425600  0.62796000  1
  B  B7  1  0.14361300  0.98574400  0.12796000  1
  B  B8  1  0.84979300  0.39475100  0.24419500  1
  B  B9  1  0.84979300  0.10524900  0.74419500  1
  B  B10  1  0.15020700  0.60524900  0.75580500  1
  B  B11  1  0.15020700  0.89475100  0.25580500  1
  B  B12  1  0.82820100  0.58547700  0.28283500  1
  B  B13  1  0.82820100  0.91452300  0.78283500  1
  B  B14  1  0.17179900  0.41452300  0.71716500  1
  B  B15  1  0.17179900  0.08547700  0.21716500  1
  B  B16  1  0.71446700  0.42160000  0.36296200  1
  B  B17  1  0.71446700  0.07840000  0.86296200  1
  B  B18  1  0.28553300  0.57840000  0.63703800  1
  B  B19  1  0.28553300  0.92160000  0.13703800  1
  B  B20  1  0.70714200  0.32350700  0.22650600  1
  B  B21  1  0.70714200  0.17649300  0.72650600  1
  B  B22  1  0.29285800  0.67649300  0.77349400  1
  B  B23  1  0.29285800  0.82350700  0.27349400  1
  B  B24  1  0.72949100  0.50069900  0.20288300  1
  B  B25  1  0.72949100  0.99930100  0.70288300  1
  B  B26  1  0.27050900  0.49930100  0.79711700  1
  B  B27  1  0.27050900  0.00069900  0.29711700  1
  B  B28  1  0.73673300  0.60008400  0.34206800  1
  B  B29  1  0.73673300  0.89991600  0.84206800  1
  B  B30  1  0.26326700  0.39991600  0.65793200  1
  B  B31  1  0.26326700  0.10008400  0.15793200  1
  B  B32  1  0.67925700  0.61830300  0.25359500  1
  B  B33  1  0.67925700  0.88169700  0.75359500  1
  B  B34  1  0.32074300  0.38169700  0.74640500  1
  B  B35  1  0.32074300  0.11830300  0.24640500  1
  B  B36  1  0.60917700  0.51585400  0.30201700  1
  B  B37  1  0.60917700  0.98414600  0.80201700  1
  B  B38  1  0.39082300  0.48414600  0.69798300  1
  B  B39  1  0.39082300  0.01585400  0.19798300  1
  B  B40  1  0.60497300  0.45770400  0.22025800  1
  B  B41  1  0.60497300  0.04229600  0.72025800  1
  B  B42  1  0.39502700  0.54229600  0.77974200  1
  B  B43  1  0.39502700  0.95770400  0.27974200  1
  H  H44  1  0.00369200  0.44158200  0.33296800  1
  H  H45  1  0.00369200  0.05841800  0.83296800  1
  H  H46  1  0.99630800  0.55841800  0.66703200  1
  H  H47  1  0.99630800  0.94158200  0.16703200  1
  H  H48  1  0.91498400  0.51317500  0.42834300  1
  H  H49  1  0.91498400  0.98682500  0.92834300  1
  H  H50  1  0.08501600  0.48682500  0.57165700  1
  H  H51  1  0.08501600  0.01317500  0.07165700  1
  H  H52  1  0.90311600  0.35836700  0.20718300  1
  H  H53  1  0.90311600  0.14163300  0.70718300  1
  H  H54  1  0.09688400  0.64163300  0.79281700  1
  H  H55  1  0.09688400  0.85836700  0.29281700  1
  H  H56  1  0.88688500  0.68369700  0.27719400  1
  H  H57  1  0.88688500  0.81630300  0.77719400  1
  H  H58  1  0.11311500  0.31630300  0.72280600  1
  H  H59  1  0.11311500  0.18369700  0.22280600  1
  H  H60  1  0.69733700  0.38557600  0.41467100  1
  H  H61  1  0.69733700  0.11442400  0.91467100  1
  H  H62  1  0.30266300  0.61442400  0.58532900  1
  H  H63  1  0.30266300  0.88557600  0.08532900  1
  H  H64  1  0.68325800  0.22600800  0.18690600  1
  H  H65  1  0.68325800  0.27399200  0.68690600  1
  H  H66  1  0.31674200  0.77399200  0.81309400  1
  H  H67  1  0.31674200  0.72600800  0.31309400  1
  H  H68  1  0.72846700  0.53235200  0.14626200  1
  H  H69  1  0.72846700  0.96764800  0.64626200  1
  H  H70  1  0.27153300  0.46764800  0.85373800  1
  H  H71  1  0.27153300  0.03235200  0.35373800  1
  H  H72  1  0.74087700  0.69728300  0.38068500  1
  H  H73  1  0.74087700  0.80271700  0.88068500  1
  H  H74  1  0.25912300  0.30271700  0.61931500  1
  H  H75  1  0.25912300  0.19728300  0.11931500  1
  H  H76  1  0.58273300  0.26265300  0.28988400  1
  H  H77  1  0.58273300  0.23734700  0.78988400  1
  H  H78  1  0.41726700  0.73734700  0.71011600  1
  H  H79  1  0.41726700  0.76265300  0.21011600  1
  H  H80  1  0.64718000  0.73418600  0.23071900  1
  H  H81  1  0.64718000  0.76581400  0.73071900  1
  H  H82  1  0.35282000  0.26581400  0.76928100  1
  H  H83  1  0.35282000  0.23418600  0.26928100  1
  H  H84  1  0.52262300  0.54091800  0.31357000  1
  H  H85  1  0.52262300  0.95908200  0.81357000  1
  H  H86  1  0.47737700  0.45908200  0.68643000  1
  H  H87  1  0.47737700  0.04091800  0.18643000  1
  H  H88  1  0.51580200  0.44547400  0.17770100  1
  H  H89  1  0.51580200  0.05452600  0.67770100  1
  H  H90  1  0.48419800  0.55452600  0.82229900  1
  H  H91  1  0.48419800  0.94547400  0.32229900  1
  H  H92  1  0.03674800  0.17339400  0.35150900  1
  H  H93  1  0.03674800  0.32660600  0.85150900  1
  H  H94  1  0.96325200  0.82660600  0.64849100  1
  H  H95  1  0.96325200  0.67339400  0.14849100  1
  H  H96  1  0.86987600  0.04629600  0.25259800  1
  H  H97  1  0.86987600  0.45370400  0.75259800  1
  H  H98  1  0.13012400  0.95370400  0.74740200  1
  H  H99  1  0.13012400  0.54629600  0.24740200  1
  H  H100  1  0.69107300  0.01029800  0.30029100  1
  H  H101  1  0.69107300  0.48970200  0.80029100  1
  H  H102  1  0.30892700  0.98970200  0.69970900  1
  H  H103  1  0.30892700  0.51029800  0.19970900  1
  H  H104  1  0.66637400  0.04259600  0.43824000  1
  H  H105  1  0.66637400  0.45740400  0.93824000  1
  H  H106  1  0.33362600  0.95740400  0.56176000  1
  H  H107  1  0.33362600  0.54259600  0.06176000  1
  H  H108  1  0.76783500  0.12842400  0.55501400  1
  H  H109  1  0.76783500  0.37157600  0.05501400  1
  H  H110  1  0.23216500  0.87157600  0.44498600  1
  H  H111  1  0.23216500  0.62842400  0.94498600  1
  H  H112  1  0.96134400  0.22603600  0.58312300  1
  H  H113  1  0.96134400  0.27396400  0.08312300  1
  H  H114  1  0.03865600  0.77396400  0.41687700  1
  H  H115  1  0.03865600  0.72603600  0.91687700  1
  H  H116  1  0.06244300  0.24000100  0.49600500  1
  H  H117  1  0.06244300  0.25999900  0.99600500  1
  H  H118  1  0.93755700  0.75999900  0.50399500  1
  H  H119  1  0.93755700  0.74000100  0.00399500  1
  H  H120  1  0.40586000  0.24900500  0.39887100  1
  H  H121  1  0.40586000  0.25099500  0.89887100  1
  H  H122  1  0.59414000  0.75099500  0.60112900  1
  H  H123  1  0.59414000  0.74900500  0.10112900  1
  H  H124  1  0.46476000  0.42379300  0.42865500  1
  H  H125  1  0.46476000  0.07620700  0.92865500  1
  H  H126  1  0.53524000  0.57620700  0.57134500  1
  H  H127  1  0.53524000  0.92379300  0.07134500  1
  C  C128  1  0.91185800  0.43907800  0.31799100  1
  C  C129  1  0.91185800  0.06092200  0.81799100  1
  C  C130  1  0.08814200  0.56092200  0.68200900  1
  C  C131  1  0.08814200  0.93907800  0.18200900  1
  C  C132  1  0.64514700  0.34365600  0.28832500  1
  C  C133  1  0.64514700  0.15634400  0.78832500  1
  C  C134  1  0.35485300  0.65634400  0.71167500  1
  C  C135  1  0.35485300  0.84365600  0.21167500  1
  C  C136  1  0.91890200  0.15496000  0.41567200  1
  C  C137  1  0.91890200  0.34504000  0.91567200  1
  C  C138  1  0.08109800  0.84504000  0.58432800  1
  C  C139  1  0.08109800  0.65496000  0.08432800  1
  C  C140  1  0.95446200  0.14271100  0.35517900  1
  C  C141  1  0.95446200  0.35728900  0.85517900  1
  C  C142  1  0.04553800  0.85728900  0.64482100  1
  C  C143  1  0.04553800  0.64271100  0.14482100  1
  C  C144  1  0.86665800  0.07417100  0.30313500  1
  C  C145  1  0.86665800  0.42582900  0.80313500  1
  C  C146  1  0.13334200  0.92582900  0.69686500  1
  C  C147  1  0.13334200  0.57417100  0.19686500  1
  C  C148  1  0.77221800  0.05622500  0.32809400  1
  C  C149  1  0.77221800  0.44377500  0.82809400  1
  C  C150  1  0.22778200  0.94377500  0.67190600  1
  C  C151  1  0.22778200  0.55622500  0.17190600  1
  C  C152  1  0.80511800  0.09948500  0.39884800  1
  C  C153  1  0.80511800  0.40051500  0.89884800  1
  C  C154  1  0.19488200  0.90051500  0.60115200  1
  C  C155  1  0.19488200  0.59948500  0.10115200  1
  C  C156  1  0.74997700  0.09055000  0.44975500  1
  C  C157  1  0.74997700  0.40945000  0.94975500  1
  C  C158  1  0.25002300  0.90945000  0.55024500  1
  C  C159  1  0.25002300  0.59055000  0.05024500  1
  C  C160  1  0.80734900  0.13712300  0.51449100  1
  C  C161  1  0.80734900  0.36287700  0.01449100  1
  C  C162  1  0.19265100  0.86287700  0.48550900  1
  C  C163  1  0.19265100  0.63712300  0.98550900  1
  C  C164  1  0.91896200  0.19317900  0.53085400  1
  C  C165  1  0.91896200  0.30682100  0.03085400  1
  C  C166  1  0.08103800  0.80682100  0.46914600  1
  C  C167  1  0.08103800  0.69317900  0.96914600  1
  C  C168  1  0.97544600  0.20276600  0.48265300  1
  C  C169  1  0.97544600  0.29723400  0.98265300  1
  C  C170  1  0.02455400  0.79723400  0.51734700  1
  C  C171  1  0.02455400  0.70276600  0.01734700  1
  C  C172  1  0.41243100  0.33475300  0.43608700  1
  C  C173  1  0.41243100  0.16524700  0.93608700  1
  C  C174  1  0.58756900  0.66524700  0.56391300  1
  C  C175  1  0.58756900  0.83475300  0.06391300  1
  Cl  Cl176  1  0.47497500  0.26290100  0.51878000  1
  Cl  Cl177  1  0.47497500  0.23709900  0.01878000  1
  Cl  Cl178  1  0.52502500  0.73709900  0.48122000  1
  Cl  Cl179  1  0.52502500  0.76290100  0.98122000  1
  Cl  Cl180  1  0.27439200  0.40283800  0.42519900  1
  Cl  Cl181  1  0.27439200  0.09716200  0.92519900  1
  Cl  Cl182  1  0.72560800  0.59716200  0.57480100  1
  Cl  Cl183  1  0.72560800  0.90283800  0.07480100  1
