# generated using pymatgen
data_U2Co(PO11)2
_symmetry_space_group_name_H-M   'P 1'
_cell_length_a   18.25611900
_cell_length_b   6.97742100
_cell_length_c   9.80842122
_cell_angle_alpha   45.65785508
_cell_angle_beta   90.00000000
_cell_angle_gamma   90.00000000
_symmetry_Int_Tables_number   1
_chemical_formula_structural   U2Co(PO11)2
_chemical_formula_sum   'U4 Co2 P4 O44'
_cell_volume   893.54644540
_cell_formula_units_Z   2
loop_
 _symmetry_equiv_pos_site_id
 _symmetry_equiv_pos_as_xyz
  1  'x, y, z'
loop_
 _atom_site_type_symbol
 _atom_site_label
 _atom_site_symmetry_multiplicity
 _atom_site_fract_x
 _atom_site_fract_y
 _atom_site_fract_z
 _atom_site_occupancy
  U  U0  1  0.69702900  0.43334300  0.04819800  1
  U  U1  1  0.80297100  0.43334300  0.54819800  1
  U  U2  1  0.30297100  0.56665700  0.95180200  1
  U  U3  1  0.19702900  0.56665700  0.45180200  1
  Co  Co4  1  0.00000000  0.00000000  0.50000000  1
  Co  Co5  1  0.50000000  0.00000000  0.00000000  1
  P  P6  1  0.74823100  0.93055300  0.54952700  1
  P  P7  1  0.75176900  0.93055300  0.04952700  1
  P  P8  1  0.25176900  0.06944700  0.45047300  1
  P  P9  1  0.24823100  0.06944700  0.95047300  1
  O  O10  1  0.70155300  0.72711200  0.07666500  1
  O  O11  1  0.79844700  0.72711200  0.57666500  1
  O  O12  1  0.29844700  0.27288800  0.92333500  1
  O  O13  1  0.20155300  0.27288800  0.42333500  1
  O  O14  1  0.70251000  0.13747100  0.02019700  1
  O  O15  1  0.79749000  0.13747100  0.52019700  1
  O  O16  1  0.29749000  0.86252900  0.97980300  1
  O  O17  1  0.20251000  0.86252900  0.47980300  1
  O  O18  1  0.69849300  0.07587800  0.37295200  1
  O  O19  1  0.80150700  0.07587800  0.87295200  1
  O  O20  1  0.30150700  0.92412200  0.62704800  1
  O  O21  1  0.19849300  0.92412200  0.12704800  1
  O  O22  1  0.69962400  0.78148300  0.72806900  1
  O  O23  1  0.80037600  0.78148300  0.22806900  1
  O  O24  1  0.30037600  0.21851700  0.27193100  1
  O  O25  1  0.19962400  0.21851700  0.77193100  1
  O  O26  1  0.79609600  0.43324400  0.04929500  1
  O  O27  1  0.70390400  0.43324400  0.54929500  1
  O  O28  1  0.20390400  0.56675600  0.95070500  1
  O  O29  1  0.29609600  0.56675600  0.45070500  1
  O  O30  1  0.59781400  0.43075400  0.05020700  1
  O  O31  1  0.90218600  0.43075400  0.55020700  1
  O  O32  1  0.40218600  0.56924600  0.94979300  1
  O  O33  1  0.09781400  0.56924600  0.44979300  1
  O  O34  1  0.50760400  0.89501300  0.87839800  1
  O  O35  1  0.99239600  0.89501300  0.37839800  1
  O  O36  1  0.49239600  0.10498700  0.12160200  1
  O  O37  1  0.00760400  0.10498700  0.62160200  1
  O  O38  1  0.05335100  0.24590700  0.29300900  1
  O  O39  1  0.44664900  0.24590700  0.79300900  1
  O  O40  1  0.94664900  0.75409300  0.70699100  1
  O  O41  1  0.55335100  0.75409300  0.20699100  1
  O  O42  1  0.06867900  0.78108900  0.67259500  1
  O  O43  1  0.43132100  0.78108900  0.17259500  1
  O  O44  1  0.93132100  0.21891100  0.32740500  1
  O  O45  1  0.56867900  0.21891100  0.82740500  1
  O  O46  1  0.57046300  0.81791400  0.48308000  1
  O  O47  1  0.92953700  0.81791400  0.98308000  1
  O  O48  1  0.42953700  0.18208600  0.51692000  1
  O  O49  1  0.07046300  0.18208600  0.01692000  1
  O  O50  1  0.54945900  0.03730700  0.54235600  1
  O  O51  1  0.95054100  0.03730700  0.04235600  1
  O  O52  1  0.45054100  0.96269300  0.45764400  1
  O  O53  1  0.04945900  0.96269300  0.95764400  1
