# generated using pymatgen
data_CuH14C3S3N6ClO
_symmetry_space_group_name_H-M   'P 1'
_cell_length_a   11.96989300
_cell_length_b   8.48834900
_cell_length_c   15.70897309
_cell_angle_alpha   90.00000000
_cell_angle_beta   99.43369529
_cell_angle_gamma   90.00000000
_symmetry_Int_Tables_number   1
_chemical_formula_structural   CuH14C3S3N6ClO
_chemical_formula_sum   'Cu4 H56 C12 S12 N24 Cl4 O4'
_cell_volume   1574.51857610
_cell_formula_units_Z   4
loop_
 _symmetry_equiv_pos_site_id
 _symmetry_equiv_pos_as_xyz
  1  'x, y, z'
loop_
 _atom_site_type_symbol
 _atom_site_label
 _atom_site_symmetry_multiplicity
 _atom_site_fract_x
 _atom_site_fract_y
 _atom_site_fract_z
 _atom_site_occupancy
  Cu  Cu0  1  0.62097200  0.61553400  0.20569100  1
  Cu  Cu1  1  0.37902800  0.61553400  0.29430900  1
  Cu  Cu2  1  0.37902800  0.38446600  0.79430900  1
  Cu  Cu3  1  0.62097200  0.38446600  0.70569100  1
  H  H4  1  0.81620900  0.56817800  0.32572300  1
  H  H5  1  0.18379100  0.56817800  0.17427700  1
  H  H6  1  0.18379100  0.43182200  0.67427700  1
  H  H7  1  0.81620900  0.43182200  0.82572300  1
  H  H8  1  0.92007900  0.43455100  0.37790200  1
  H  H9  1  0.07992100  0.43455100  0.12209800  1
  H  H10  1  0.07992100  0.56544900  0.62209800  1
  H  H11  1  0.92007900  0.56544900  0.87790200  1
  H  H12  1  0.79967900  0.09850000  0.27340700  1
  H  H13  1  0.20032100  0.09850000  0.22659300  1
  H  H14  1  0.20032100  0.90150000  0.72659300  1
  H  H15  1  0.79967900  0.90150000  0.77340700  1
  H  H16  1  0.90958800  0.18067400  0.35028800  1
  H  H17  1  0.09041200  0.18067400  0.14971200  1
  H  H18  1  0.09041200  0.81932600  0.64971200  1
  H  H19  1  0.90958800  0.81932600  0.85028800  1
  H  H20  1  0.48102100  0.07937700  0.10939700  1
  H  H21  1  0.51897900  0.07937700  0.39060300  1
  H  H22  1  0.51897900  0.92062300  0.89060300  1
  H  H23  1  0.48102100  0.92062300  0.60939700  1
  H  H24  1  0.57828000  0.93461400  0.15834700  1
  H  H25  1  0.42172000  0.93461400  0.34165300  1
  H  H26  1  0.42172000  0.06538600  0.84165300  1
  H  H27  1  0.57828000  0.06538600  0.65834700  1
  H  H28  1  0.26263100  0.81785300  0.03273200  1
  H  H29  1  0.73736900  0.81785300  0.46726800  1
  H  H30  1  0.73736900  0.18214700  0.96726800  1
  H  H31  1  0.26263100  0.18214700  0.53273200  1
  H  H32  1  0.31460800  0.01220900  0.03714200  1
  H  H33  1  0.68539200  0.01220900  0.46285800  1
  H  H34  1  0.68539200  0.98779100  0.96285800  1
  H  H35  1  0.31460800  0.98779100  0.53714200  1
  H  H36  1  0.88097500  0.00154000  0.12412300  1
  H  H37  1  0.11902500  0.00154000  0.37587700  1
  H  H38  1  0.11902500  0.99846000  0.87587700  1
  H  H39  1  0.88097500  0.99846000  0.62412300  1
  H  H40  1  0.94686300  0.86410100  0.06495700  1
  H  H41  1  0.05313700  0.86410100  0.43504300  1
  H  H42  1  0.05313700  0.13589900  0.93504300  1
  H  H43  1  0.94686300  0.13589900  0.56495700  1
  H  H44  1  0.80778300  0.53336900  0.13138900  1
  H  H45  1  0.19221700  0.53336900  0.36861100  1
  H  H46  1  0.19221700  0.46663100  0.86861100  1
  H  H47  1  0.80778300  0.46663100  0.63138900  1
  H  H48  1  0.89986900  0.60590300  0.06444500  1
  H  H49  1  0.10013100  0.60590300  0.43555500  1
  H  H50  1  0.10013100  0.39409700  0.93555500  1
  H  H51  1  0.89986900  0.39409700  0.56444500  1
  H  H52  1  0.58716800  0.30640300  0.49349200  1
  H  H53  1  0.41283200  0.30640300  0.00650800  1
  H  H54  1  0.41283200  0.69359700  0.50650800  1
  H  H55  1  0.58716800  0.69359700  0.99349200  1
  H  H56  1  0.63763400  0.32694500  0.40962600  1
  H  H57  1  0.36236600  0.32694500  0.09037400  1
  H  H58  1  0.36236600  0.67305500  0.59037400  1
  H  H59  1  0.63763400  0.67305500  0.90962600  1
  C  C60  1  0.79306100  0.33794600  0.29056600  1
  C  C61  1  0.20693900  0.33794600  0.20943400  1
  C  C62  1  0.20693900  0.66205400  0.70943400  1
  C  C63  1  0.79306100  0.66205400  0.79056600  1
  C  C64  1  0.42406500  0.85188300  0.10094700  1
  C  C65  1  0.57593500  0.85188300  0.39905300  1
  C  C66  1  0.57593500  0.14811700  0.89905300  1
  C  C67  1  0.42406500  0.14811700  0.60094700  1
  C  C68  1  0.83649800  0.77117200  0.13873600  1
  C  C69  1  0.16350200  0.77117200  0.36126400  1
  C  C70  1  0.16350200  0.22882800  0.86126400  1
  C  C71  1  0.83649800  0.22882800  0.63873600  1
  S  S72  1  0.66720400  0.36045200  0.22080900  1
  S  S73  1  0.33279600  0.36045200  0.27919100  1
  S  S74  1  0.33279600  0.63954800  0.77919100  1
  S  S75  1  0.66720400  0.63954800  0.72080900  1
  S  S76  1  0.44722300  0.65591300  0.12841400  1
  S  S77  1  0.55277700  0.65591300  0.37158600  1
  S  S78  1  0.55277700  0.34408700  0.87158600  1
  S  S79  1  0.44722300  0.34408700  0.62841400  1
  S  S80  1  0.75150700  0.81180900  0.21463000  1
  S  S81  1  0.24849300  0.81180900  0.28537000  1
  S  S82  1  0.24849300  0.18819100  0.78537000  1
  S  S83  1  0.75150700  0.18819100  0.71463000  1
  N  N84  1  0.84797600  0.45734500  0.33439600  1
  N  N85  1  0.15202400  0.45734500  0.16560400  1
  N  N86  1  0.15202400  0.54265500  0.66560400  1
  N  N87  1  0.84797600  0.54265500  0.83439600  1
  N  N88  1  0.83888700  0.19395100  0.30387900  1
  N  N89  1  0.16111300  0.19395100  0.19612100  1
  N  N90  1  0.16111300  0.80604900  0.69612100  1
  N  N91  1  0.83888700  0.80604900  0.80387900  1
  N  N92  1  0.49993400  0.96452700  0.12655500  1
  N  N93  1  0.50006600  0.96452700  0.37344500  1
  N  N94  1  0.50006600  0.03547300  0.87344500  1
  N  N95  1  0.49993400  0.03547300  0.62655500  1
  N  N96  1  0.32609600  0.89588100  0.05270800  1
  N  N97  1  0.67390400  0.89588100  0.44729200  1
  N  N98  1  0.67390400  0.10411900  0.94729200  1
  N  N99  1  0.32609600  0.10411900  0.55270800  1
  N  N100  1  0.89399700  0.88797000  0.10872500  1
  N  N101  1  0.10600300  0.88797000  0.39127500  1
  N  N102  1  0.10600300  0.11203000  0.89127500  1
  N  N103  1  0.89399700  0.11203000  0.60872500  1
  N  N104  1  0.84917600  0.62566600  0.10963500  1
  N  N105  1  0.15082400  0.62566600  0.39036500  1
  N  N106  1  0.15082400  0.37433400  0.89036500  1
  N  N107  1  0.84917600  0.37433400  0.60963500  1
  Cl  Cl108  1  0.95188100  0.26228400  0.03320700  1
  Cl  Cl109  1  0.04811900  0.26228400  0.46679300  1
  Cl  Cl110  1  0.04811900  0.73771600  0.96679300  1
  Cl  Cl111  1  0.95188100  0.73771600  0.53320700  1
  O  O112  1  0.61640500  0.24679700  0.44861900  1
  O  O113  1  0.38359500  0.24679700  0.05138100  1
  O  O114  1  0.38359500  0.75320300  0.55138100  1
  O  O115  1  0.61640500  0.75320300  0.94861900  1
