# generated using pymatgen
data_Na2CuH12(SO7)2
_symmetry_space_group_name_H-M   'P 1'
_cell_length_a   5.91887736
_cell_length_b   8.92810825
_cell_length_c   12.19386900
_cell_angle_alpha   90.00000000
_cell_angle_beta   90.00000000
_cell_angle_gamma   102.85588621
_symmetry_Int_Tables_number   1
_chemical_formula_structural   Na2CuH12(SO7)2
_chemical_formula_sum   'Na4 Cu2 H24 S4 O28'
_cell_volume   628.22467777
_cell_formula_units_Z   2
loop_
 _symmetry_equiv_pos_site_id
 _symmetry_equiv_pos_as_xyz
  1  'x, y, z'
loop_
 _atom_site_type_symbol
 _atom_site_label
 _atom_site_symmetry_multiplicity
 _atom_site_fract_x
 _atom_site_fract_y
 _atom_site_fract_z
 _atom_site_occupancy
  Na  Na0  1  0.16520000  0.86927200  0.86678200  1
  Na  Na1  1  0.83480000  0.63072800  0.36678200  1
  Na  Na2  1  0.83480000  0.13072800  0.13321800  1
  Na  Na3  1  0.16520000  0.36927200  0.63321800  1
  Cu  Cu4  1  0.50000000  0.50000000  0.00000000  1
  Cu  Cu5  1  0.50000000  0.00000000  0.50000000  1
  H  H6  1  0.82805100  0.70414300  0.09004300  1
  H  H7  1  0.17194900  0.79585700  0.59004300  1
  H  H8  1  0.17194900  0.29585700  0.90995700  1
  H  H9  1  0.82805100  0.20414300  0.40995700  1
  H  H10  1  0.59102700  0.74432000  0.12746900  1
  H  H11  1  0.40897300  0.75568000  0.62746900  1
  H  H12  1  0.40897300  0.25568000  0.87253100  1
  H  H13  1  0.59102700  0.24432000  0.37253100  1
  H  H14  1  0.17520700  0.46533500  0.14455100  1
  H  H15  1  0.82479300  0.03466500  0.64455100  1
  H  H16  1  0.82479300  0.53466500  0.85544900  1
  H  H17  1  0.17520700  0.96533500  0.35544900  1
  H  H18  1  0.17180700  0.60699400  0.06207100  1
  H  H19  1  0.82819300  0.89300600  0.56207100  1
  H  H20  1  0.82819300  0.39300600  0.93792900  1
  H  H21  1  0.17180700  0.10699400  0.43792900  1
  H  H22  1  0.57382800  0.78739800  0.89142600  1
  H  H23  1  0.42617200  0.71260200  0.39142600  1
  H  H24  1  0.42617200  0.21260200  0.10857400  1
  H  H25  1  0.57382800  0.28739800  0.60857400  1
  H  H26  1  0.47239000  0.65965400  0.80438200  1
  H  H27  1  0.52761000  0.84034600  0.30438200  1
  H  H28  1  0.52761000  0.34034600  0.19561800  1
  H  H29  1  0.47239000  0.15965400  0.69561800  1
  S  S30  1  0.22367500  0.90908600  0.13782000  1
  S  S31  1  0.77632500  0.59091400  0.63782000  1
  S  S32  1  0.77632500  0.09091400  0.86218000  1
  S  S33  1  0.22367500  0.40908600  0.36218000  1
  O  O34  1  0.43849400  0.70167000  0.87605000  1
  O  O35  1  0.56150600  0.79833000  0.37605000  1
  O  O36  1  0.56150600  0.29833000  0.12395000  1
  O  O37  1  0.43849400  0.20167000  0.62395000  1
  O  O38  1  0.66769600  0.65722000  0.11469300  1
  O  O39  1  0.33230400  0.84278000  0.61469300  1
  O  O40  1  0.33230400  0.34278000  0.88530700  1
  O  O41  1  0.66769600  0.15722000  0.38530700  1
  O  O42  1  0.20399700  0.50128000  0.06685900  1
  O  O43  1  0.79600300  0.99872000  0.56685900  1
  O  O44  1  0.79600300  0.49872000  0.93314100  1
  O  O45  1  0.20399700  0.00128000  0.43314100  1
  O  O46  1  0.12257000  0.78164500  0.05925300  1
  O  O47  1  0.87743000  0.71835500  0.55925300  1
  O  O48  1  0.87743000  0.21835500  0.94074700  1
  O  O49  1  0.12257000  0.28164500  0.44074700  1
  O  O50  1  0.21332900  0.05704500  0.08439400  1
  O  O51  1  0.78667100  0.44295500  0.58439400  1
  O  O52  1  0.78667100  0.94295500  0.91560600  1
  O  O53  1  0.21332900  0.55704500  0.41560600  1
  O  O54  1  0.08028600  0.88783400  0.23948500  1
  O  O55  1  0.91971400  0.61216600  0.73948500  1
  O  O56  1  0.91971400  0.11216600  0.76051500  1
  O  O57  1  0.08028600  0.38783400  0.26051500  1
  O  O58  1  0.46966200  0.90427400  0.16355000  1
  O  O59  1  0.53033800  0.59572600  0.66355000  1
  O  O60  1  0.53033800  0.09572600  0.83645000  1
  O  O61  1  0.46966200  0.40427400  0.33645000  1
