# generated using pymatgen
data_Ca2I4O13
_symmetry_space_group_name_H-M   'P 1'
_cell_length_a   6.42451300
_cell_length_b   7.28442829
_cell_length_c   17.63742518
_cell_angle_alpha   67.81862525
_cell_angle_beta   79.50630847
_cell_angle_gamma   63.83384760
_symmetry_Int_Tables_number   1
_chemical_formula_structural   Ca2I4O13
_chemical_formula_sum   'Ca4 I8 O26'
_cell_volume   685.87580434
_cell_formula_units_Z   2
loop_
 _symmetry_equiv_pos_site_id
 _symmetry_equiv_pos_as_xyz
  1  'x, y, z'
loop_
 _atom_site_type_symbol
 _atom_site_label
 _atom_site_symmetry_multiplicity
 _atom_site_fract_x
 _atom_site_fract_y
 _atom_site_fract_z
 _atom_site_occupancy
  Ca  Ca0  1  0.59722200  0.36319000  0.88152700  1
  Ca  Ca1  1  0.84193900  0.13681000  0.61847300  1
  Ca  Ca2  1  0.40277800  0.63681000  0.11847300  1
  Ca  Ca3  1  0.15806100  0.86319000  0.38152700  1
  I  I4  1  0.03473500  0.40734500  0.14458500  1
  I  I5  1  0.58666500  0.09265500  0.35541500  1
  I  I6  1  0.96526500  0.59265500  0.85541500  1
  I  I7  1  0.41333500  0.90734500  0.64458500  1
  I  I8  1  0.31422100  0.96081500  0.88621500  1
  I  I9  1  0.16125100  0.53918500  0.61378500  1
  I  I10  1  0.68577900  0.03918500  0.11378500  1
  I  I11  1  0.83874900  0.46081500  0.38621500  1
  O  O12  1  0.60255300  0.95456300  0.85176900  1
  O  O13  1  0.40888500  0.54543700  0.64823100  1
  O  O14  1  0.39744700  0.04543700  0.14823100  1
  O  O15  1  0.59111500  0.45456300  0.35176900  1
  O  O16  1  0.99409000  0.25000000  0.75000000  1
  O  O17  1  0.00591000  0.75000000  0.25000000  1
  O  O18  1  0.25575600  0.38052400  0.84640900  1
  O  O19  1  0.48268900  0.11947600  0.65359100  1
  O  O20  1  0.74424400  0.61947600  0.15359100  1
  O  O21  1  0.51731100  0.88052400  0.34640900  1
  O  O22  1  0.80561300  0.57182600  0.78342000  1
  O  O23  1  0.16085800  0.92817400  0.71658000  1
  O  O24  1  0.19438700  0.42817400  0.21658000  1
  O  O25  1  0.83914200  0.07182600  0.28342000  1
  O  O26  1  0.86080600  0.42991300  0.94575600  1
  O  O27  1  0.23647500  0.07008700  0.55424400  1
  O  O28  1  0.13919400  0.57008700  0.05424400  1
  O  O29  1  0.76352500  0.92991300  0.44575600  1
  O  O30  1  0.34331600  0.69903600  0.88660700  1
  O  O31  1  0.92895900  0.80096400  0.61339300  1
  O  O32  1  0.65668400  0.30096400  0.11339300  1
  O  O33  1  0.07104100  0.19903600  0.38660700  1
  O  O34  1  0.67361900  0.09076800  0.00502400  1
  O  O35  1  0.76941100  0.40923200  0.49497600  1
  O  O36  1  0.32638100  0.90923200  0.99497600  1
  O  O37  1  0.23058900  0.59076800  0.50502400  1
