# generated using pymatgen
data_Sm4(SiS4)3
_symmetry_space_group_name_H-M   'P 1'
_cell_length_a   11.34512489
_cell_length_b   11.34512489
_cell_length_c   11.34512481
_cell_angle_alpha   114.77909020
_cell_angle_beta   114.77909020
_cell_angle_gamma   114.77908736
_symmetry_Int_Tables_number   1
_chemical_formula_structural   Sm4(SiS4)3
_chemical_formula_sum   'Sm8 Si6 S24'
_cell_volume   833.45228935
_cell_formula_units_Z   2
loop_
 _symmetry_equiv_pos_site_id
 _symmetry_equiv_pos_as_xyz
  1  'x, y, z'
loop_
 _atom_site_type_symbol
 _atom_site_label
 _atom_site_symmetry_multiplicity
 _atom_site_fract_x
 _atom_site_fract_y
 _atom_site_fract_z
 _atom_site_occupancy
  Sm  Sm0  1  0.50172400  0.50172400  0.50172400  1
  Sm  Sm1  1  0.00172400  0.00172400  0.00172400  1
  Sm  Sm2  1  0.06875600  0.29318500  0.52831500  1
  Sm  Sm3  1  0.29318500  0.52831500  0.06875600  1
  Sm  Sm4  1  0.52831500  0.06875600  0.29318500  1
  Sm  Sm5  1  0.56875600  0.02831500  0.79318500  1
  Sm  Sm6  1  0.02831500  0.79318500  0.56875600  1
  Sm  Sm7  1  0.79318500  0.56875600  0.02831500  1
  Si  Si8  1  0.35963400  0.14696600  0.53288400  1
  Si  Si9  1  0.14696600  0.53288400  0.35963400  1
  Si  Si10  1  0.53288400  0.35963400  0.14696600  1
  Si  Si11  1  0.85963400  0.03288400  0.64696600  1
  Si  Si12  1  0.03288400  0.64696600  0.85963400  1
  Si  Si13  1  0.64696600  0.85963400  0.03288400  1
  S  S14  1  0.10975800  0.18458700  0.71646400  1
  S  S15  1  0.18458700  0.71646400  0.10975800  1
  S  S16  1  0.71646400  0.10975800  0.18458700  1
  S  S17  1  0.60975800  0.21646400  0.68458700  1
  S  S18  1  0.21646400  0.68458700  0.60975800  1
  S  S19  1  0.68458700  0.60975800  0.21646400  1
  S  S20  1  0.31388600  0.12788300  0.31658700  1
  S  S21  1  0.12788300  0.31658700  0.31388600  1
  S  S22  1  0.31658700  0.31388600  0.12788300  1
  S  S23  1  0.81388600  0.81658700  0.62788300  1
  S  S24  1  0.81658700  0.62788300  0.81388600  1
  S  S25  1  0.62788300  0.81388600  0.81658700  1
  S  S26  1  0.41355300  0.38090500  0.70015500  1
  S  S27  1  0.38090500  0.70015500  0.41355300  1
  S  S28  1  0.70015500  0.41355300  0.38090500  1
  S  S29  1  0.91355300  0.20015500  0.88090500  1
  S  S30  1  0.20015500  0.88090500  0.91355300  1
  S  S31  1  0.88090500  0.91355300  0.20015500  1
  S  S32  1  0.64950300  0.91994000  0.38231600  1
  S  S33  1  0.91994000  0.38231600  0.64950300  1
  S  S34  1  0.38231600  0.64950300  0.91994000  1
  S  S35  1  0.14950300  0.88231600  0.41994000  1
  S  S36  1  0.88231600  0.41994000  0.14950300  1
  S  S37  1  0.41994000  0.14950300  0.88231600  1
