# generated using pymatgen
data_Na3V5H18O23
_symmetry_space_group_name_H-M   'P 1'
_cell_length_a   8.65585700
_cell_length_b   10.94144171
_cell_length_c   11.83168834
_cell_angle_alpha   105.55435643
_cell_angle_beta   99.06465177
_cell_angle_gamma   101.73005368
_symmetry_Int_Tables_number   1
_chemical_formula_structural   Na3V5H18O23
_chemical_formula_sum   'Na6 V10 H36 O46'
_cell_volume   1029.90921524
_cell_formula_units_Z   2
loop_
 _symmetry_equiv_pos_site_id
 _symmetry_equiv_pos_as_xyz
  1  'x, y, z'
loop_
 _atom_site_type_symbol
 _atom_site_label
 _atom_site_symmetry_multiplicity
 _atom_site_fract_x
 _atom_site_fract_y
 _atom_site_fract_z
 _atom_site_occupancy
  Na  Na0  1  0.02406800  0.25555500  0.30415300  1
  Na  Na1  1  0.97593200  0.74444500  0.69584700  1
  Na  Na2  1  0.77848900  0.14276000  0.48803500  1
  Na  Na3  1  0.22151100  0.85724000  0.51196500  1
  Na  Na4  1  0.95946900  0.76437000  0.97267600  1
  Na  Na5  1  0.04053100  0.23563000  0.02732400  1
  V  V6  1  0.68331400  0.49519900  0.98642200  1
  V  V7  1  0.31668600  0.50480100  0.01357800  1
  V  V8  1  0.45095800  0.57827200  0.79782300  1
  V  V9  1  0.54904200  0.42172800  0.20217700  1
  V  V10  1  0.54314400  0.30795400  0.72544900  1
  V  V11  1  0.45685600  0.69204600  0.27455100  1
  V  V12  1  0.18820000  0.31242000  0.75203400  1
  V  V13  1  0.81180000  0.68758000  0.24796600  1
  V  V14  1  0.41457400  0.22890000  0.93941700  1
  V  V15  1  0.58542600  0.77110000  0.06058300  1
  H  H16  1  0.88368700  0.98083700  0.28606600  1
  H  H17  1  0.11631300  0.01916300  0.71393400  1
  H  H18  1  0.04895000  0.04386200  0.38277500  1
  H  H19  1  0.95105000  0.95613800  0.61722500  1
  H  H20  1  0.16070700  0.04988200  0.16393300  1
  H  H21  1  0.83929300  0.95011800  0.83606700  1
  H  H22  1  0.28332600  0.18199200  0.17912500  1
  H  H23  1  0.71667400  0.81800800  0.82087500  1
  H  H24  1  0.73233000  0.07088300  0.07928200  1
  H  H25  1  0.26767000  0.92911700  0.92071800  1
  H  H26  1  0.73404100  0.21764800  0.09755900  1
  H  H27  1  0.26595900  0.78235200  0.90244100  1
  H  H28  1  0.33579100  0.44831600  0.39879600  1
  H  H29  1  0.66420900  0.55168400  0.60120400  1
  H  H30  1  0.32947900  0.40485100  0.51487300  1
  H  H31  1  0.67052100  0.59514900  0.48512700  1
  H  H32  1  0.92468700  0.41179200  0.52320700  1
  H  H33  1  0.07531300  0.58820800  0.47679300  1
  H  H34  1  0.78272900  0.38157000  0.41505300  1
  H  H35  1  0.21727100  0.61843000  0.58494700  1
  H  H36  1  0.12334400  0.48591000  0.19726800  1
  H  H37  1  0.87665600  0.51409000  0.80273200  1
  H  H38  1  0.94228000  0.45012400  0.20486800  1
  H  H39  1  0.05772000  0.54987600  0.79513200  1
  H  H40  1  0.71428500  0.87946000  0.47955900  1
  H  H41  1  0.28571500  0.12054000  0.52044100  1
  H  H42  1  0.65316300  0.94391600  0.59524700  1
  H  H43  1  0.34683700  0.05608400  0.40475300  1
  H  H44  1  0.51840200  0.98594000  0.27122100  1
  H  H45  1  0.48159800  0.01406000  0.72877900  1
  H  H46  1  0.53270000  0.13784500  0.28894200  1
  H  H47  1  0.46730000  0.86215500  0.71105800  1
  H  H48  1  0.12066200  0.84422200  0.22081800  1
  H  H49  1  0.87933800  0.15577800  0.77918200  1
  H  H50  1  0.26088300  0.85026600  0.15267000  1
  H  H51  1  0.73911700  0.14973400  0.84733000  1
  O  O52  1  0.44331900  0.42018100  0.88858900  1
  O  O53  1  0.55668100  0.57981900  0.11141100  1
  O  O54  1  0.65420300  0.64455700  0.93063500  1
  O  O55  1  0.34579700  0.35544300  0.06936500  1
  O  O56  1  0.62750800  0.35100100  0.04805200  1
  O  O57  1  0.37249200  0.64899900  0.95194800  1
  O  O58  1  0.24194000  0.47785800  0.72769300  1
  O  O59  1  0.75806000  0.52214200  0.27230700  1
  O  O60  1  0.52325200  0.18807800  0.81689600  1
  O  O61  1  0.47674800  0.81192200  0.18310400  1
  O  O62  1  0.73754600  0.41175200  0.85717700  1
  O  O63  1  0.26245400  0.58824800  0.14282300  1
  O  O64  1  0.14092000  0.41469100  0.90758600  1
  O  O65  1  0.85908000  0.58530900  0.09241400  1
  O  O66  1  0.21570300  0.19159600  0.83855900  1
  O  O67  1  0.78429700  0.80840400  0.16144100  1
  O  O68  1  0.32232300  0.25002800  0.65572500  1
  O  O69  1  0.67767700  0.74997200  0.34427500  1
  O  O70  1  0.54501600  0.47305600  0.69821800  1
  O  O71  1  0.45498400  0.52694400  0.30178200  1
  O  O72  1  0.46445000  0.70730900  0.74873000  1
  O  O73  1  0.53555000  0.29269100  0.25127000  1
  O  O74  1  0.62503300  0.23612800  0.62030700  1
  O  O75  1  0.37496700  0.76387200  0.37969300  1
  O  O76  1  0.00390400  0.24295000  0.66975600  1
  O  O77  1  0.99609600  0.75705000  0.33024400  1
  O  O78  1  0.39881500  0.10162800  0.98886600  1
  O  O79  1  0.60118500  0.89837200  0.01113400  1
  O  O80  1  0.94291700  0.05956100  0.35379900  1
  O  O81  1  0.05708300  0.94043900  0.64620100  1
  O  O82  1  0.16754900  0.14193700  0.16688400  1
  O  O83  1  0.83245100  0.85806300  0.83311600  1
  O  O84  1  0.80394700  0.16051100  0.11213000  1
  O  O85  1  0.19605300  0.83948900  0.88787000  1
  O  O86  1  0.26176300  0.41124200  0.44354500  1
  O  O87  1  0.73823700  0.58875800  0.55645500  1
  O  O88  1  0.87051700  0.34672200  0.44573000  1
  O  O89  1  0.12948300  0.65327800  0.55427000  1
  O  O90  1  0.03746300  0.41459700  0.20288600  1
  O  O91  1  0.96253700  0.58540300  0.79711400  1
  O  O92  1  0.74383600  0.95526300  0.55424500  1
  O  O93  1  0.25616400  0.04473700  0.44575500  1
  O  O94  1  0.53089700  0.07175400  0.33167500  1
  O  O95  1  0.46910300  0.92824600  0.66832500  1
  O  O96  1  0.15629100  0.87247400  0.15503200  1
  O  O97  1  0.84370900  0.12752600  0.84496800  1
