# generated using pymatgen
data_InAgP2(HO4)2
_symmetry_space_group_name_H-M   'P 1'
_cell_length_a   6.71893036
_cell_length_b   6.77223216
_cell_length_c   14.99862700
_cell_angle_alpha   90.00000000
_cell_angle_beta   90.00000000
_cell_angle_gamma   96.62467366
_symmetry_Int_Tables_number   1
_chemical_formula_structural   InAgP2(HO4)2
_chemical_formula_sum   'In4 Ag4 P8 H8 O32'
_cell_volume   677.91313933
_cell_formula_units_Z   4
loop_
 _symmetry_equiv_pos_site_id
 _symmetry_equiv_pos_as_xyz
  1  'x, y, z'
loop_
 _atom_site_type_symbol
 _atom_site_label
 _atom_site_symmetry_multiplicity
 _atom_site_fract_x
 _atom_site_fract_y
 _atom_site_fract_z
 _atom_site_occupancy
  In  In0  1  0.22738600  0.37995400  0.10867800  1
  In  In1  1  0.77261400  0.12004600  0.60867800  1
  In  In2  1  0.77261400  0.62004600  0.89132200  1
  In  In3  1  0.22738600  0.87995400  0.39132200  1
  Ag  Ag4  1  0.79085700  0.51291400  0.43565900  1
  Ag  Ag5  1  0.20914300  0.98708600  0.93565900  1
  Ag  Ag6  1  0.20914300  0.48708600  0.56434100  1
  Ag  Ag7  1  0.79085700  0.01291400  0.06434100  1
  P  P8  1  0.26786300  0.38221100  0.34397900  1
  P  P9  1  0.73213700  0.11778900  0.84397900  1
  P  P10  1  0.73213700  0.61778900  0.65602100  1
  P  P11  1  0.26786300  0.88221100  0.15602100  1
  P  P12  1  0.25123100  0.49850900  0.88578100  1
  P  P13  1  0.74876900  0.00149100  0.38578100  1
  P  P14  1  0.74876900  0.50149100  0.11421900  1
  P  P15  1  0.25123100  0.99850900  0.61421900  1
  H  H16  1  0.55230400  0.42927000  0.26824500  1
  H  H17  1  0.44769600  0.07073000  0.76824500  1
  H  H18  1  0.44769600  0.57073000  0.73175500  1
  H  H19  1  0.55230400  0.92927000  0.23175500  1
  H  H20  1  0.06342500  0.31407300  0.78333900  1
  H  H21  1  0.93657500  0.18592700  0.28333900  1
  H  H22  1  0.93657500  0.68592700  0.21666100  1
  H  H23  1  0.06342500  0.81407300  0.71666100  1
  O  O24  1  0.25148900  0.35042600  0.96414800  1
  O  O25  1  0.74851100  0.14957400  0.46414800  1
  O  O26  1  0.74851100  0.64957400  0.03585200  1
  O  O27  1  0.25148900  0.85042600  0.53585200  1
  O  O28  1  0.90099100  0.34943100  0.09965800  1
  O  O29  1  0.09900900  0.15056900  0.59965800  1
  O  O30  1  0.09900900  0.65056900  0.90034200  1
  O  O31  1  0.90099100  0.84943100  0.40034200  1
  O  O32  1  0.54164200  0.39111400  0.13591400  1
  O  O33  1  0.45835800  0.10888600  0.63591400  1
  O  O34  1  0.45835800  0.60888600  0.86408600  1
  O  O35  1  0.54164200  0.89111400  0.36408600  1
  O  O36  1  0.19596700  0.05445800  0.10122800  1
  O  O37  1  0.80403300  0.44554200  0.60122800  1
  O  O38  1  0.80403300  0.94554200  0.89877200  1
  O  O39  1  0.19596700  0.55445800  0.39877200  1
  O  O40  1  0.23337000  0.69428100  0.09906100  1
  O  O41  1  0.76663000  0.80571900  0.59906100  1
  O  O42  1  0.76663000  0.30571900  0.90093900  1
  O  O43  1  0.23337000  0.19428100  0.40093900  1
  O  O44  1  0.16333500  0.35455700  0.25320300  1
  O  O45  1  0.83666500  0.14544300  0.75320300  1
  O  O46  1  0.83666500  0.64544300  0.74679700  1
  O  O47  1  0.16333500  0.85455700  0.24679700  1
  O  O48  1  0.50458300  0.43644600  0.33025700  1
  O  O49  1  0.49541700  0.06355400  0.83025700  1
  O  O50  1  0.49541700  0.56355400  0.66974300  1
  O  O51  1  0.50458300  0.93644600  0.16974300  1
  O  O52  1  0.20135800  0.37535900  0.79620300  1
  O  O53  1  0.79864200  0.12464100  0.29620300  1
  O  O54  1  0.79864200  0.62464100  0.20379700  1
  O  O55  1  0.20135800  0.87535900  0.70379700  1
