# generated using pymatgen
data_Ce(Ga4Fe)2
_symmetry_space_group_name_H-M   'P 1'
_cell_length_a   4.05626800
_cell_length_b   12.51912800
_cell_length_c   14.28793300
_cell_angle_alpha   90.00000000
_cell_angle_beta   90.00000000
_cell_angle_gamma   90.00000000
_symmetry_Int_Tables_number   1
_chemical_formula_structural   Ce(Ga4Fe)2
_chemical_formula_sum   'Ce4 Ga32 Fe8'
_cell_volume   725.55464403
_cell_formula_units_Z   4
loop_
 _symmetry_equiv_pos_site_id
 _symmetry_equiv_pos_as_xyz
  1  'x, y, z'
loop_
 _atom_site_type_symbol
 _atom_site_label
 _atom_site_symmetry_multiplicity
 _atom_site_fract_x
 _atom_site_fract_y
 _atom_site_fract_z
 _atom_site_occupancy
  Ce  Ce0  1  0.00000000  0.84291100  0.18047600  1
  Ce  Ce1  1  0.00000000  0.15708900  0.81952400  1
  Ce  Ce2  1  0.00000000  0.34291100  0.31952400  1
  Ce  Ce3  1  0.00000000  0.65708900  0.68047600  1
  Ga  Ga4  1  0.00000000  0.50000000  0.50000000  1
  Ga  Ga5  1  0.00000000  0.00000000  0.00000000  1
  Ga  Ga6  1  0.50000000  0.50000000  0.00000000  1
  Ga  Ga7  1  0.50000000  0.00000000  0.50000000  1
  Ga  Ga8  1  0.50000000  0.73835400  0.32493800  1
  Ga  Ga9  1  0.50000000  0.26164600  0.67506200  1
  Ga  Ga10  1  0.50000000  0.23835400  0.17506200  1
  Ga  Ga11  1  0.50000000  0.76164600  0.82493800  1
  Ga  Ga12  1  0.50000000  0.95107000  0.31744200  1
  Ga  Ga13  1  0.50000000  0.04893000  0.68255800  1
  Ga  Ga14  1  0.50000000  0.45107000  0.18255800  1
  Ga  Ga15  1  0.50000000  0.54893000  0.81744200  1
  Ga  Ga16  1  0.50000000  0.66457400  0.12196900  1
  Ga  Ga17  1  0.50000000  0.33542600  0.87803100  1
  Ga  Ga18  1  0.50000000  0.16457400  0.37803100  1
  Ga  Ga19  1  0.50000000  0.83542600  0.62196900  1
  Ga  Ga20  1  0.00000000  0.83749500  0.45444300  1
  Ga  Ga21  1  0.00000000  0.16250500  0.54555700  1
  Ga  Ga22  1  0.00000000  0.33749500  0.04555700  1
  Ga  Ga23  1  0.00000000  0.66250500  0.95444300  1
  Ga  Ga24  1  0.00000000  0.59859500  0.24568100  1
  Ga  Ga25  1  0.00000000  0.40140500  0.75431900  1
  Ga  Ga26  1  0.00000000  0.09859500  0.25431900  1
  Ga  Ga27  1  0.00000000  0.90140500  0.74568100  1
  Ga  Ga28  1  0.50000000  0.83226900  0.00992900  1
  Ga  Ga29  1  0.50000000  0.16773100  0.99007100  1
  Ga  Ga30  1  0.50000000  0.33226900  0.49007100  1
  Ga  Ga31  1  0.50000000  0.66773100  0.50992900  1
  Ga  Ga32  1  0.50000000  0.52325900  0.36642500  1
  Ga  Ga33  1  0.50000000  0.47674100  0.63357500  1
  Ga  Ga34  1  0.50000000  0.02325900  0.13357500  1
  Ga  Ga35  1  0.50000000  0.97674100  0.86642500  1
  Fe  Fe36  1  0.00000000  0.65226800  0.40295100  1
  Fe  Fe37  1  0.00000000  0.34773200  0.59704900  1
  Fe  Fe38  1  0.00000000  0.15226800  0.09704900  1
  Fe  Fe39  1  0.00000000  0.84773200  0.90295100  1
  Fe  Fe40  1  0.00000000  0.53427900  0.09272700  1
  Fe  Fe41  1  0.00000000  0.46572100  0.90727300  1
  Fe  Fe42  1  0.00000000  0.03427900  0.40727300  1
  Fe  Fe43  1  0.00000000  0.96572100  0.59272700  1
