# generated using pymatgen
data_MgZrP2(H2O3)4
_symmetry_space_group_name_H-M   'P 1'
_cell_length_a   5.35973400
_cell_length_b   9.51928244
_cell_length_c   9.71297023
_cell_angle_alpha   97.09551687
_cell_angle_beta   91.61176675
_cell_angle_gamma   90.42219480
_symmetry_Int_Tables_number   1
_chemical_formula_structural   MgZrP2(H2O3)4
_chemical_formula_sum   'Mg2 Zr2 P4 H16 O24'
_cell_volume   491.54456789
_cell_formula_units_Z   2
loop_
 _symmetry_equiv_pos_site_id
 _symmetry_equiv_pos_as_xyz
  1  'x, y, z'
loop_
 _atom_site_type_symbol
 _atom_site_label
 _atom_site_symmetry_multiplicity
 _atom_site_fract_x
 _atom_site_fract_y
 _atom_site_fract_z
 _atom_site_occupancy
  Mg  Mg0  1  0.00000000  0.00000000  0.00000000  1
  Mg  Mg1  1  0.50000000  0.50000000  0.00000000  1
  Zr  Zr2  1  0.74639000  0.25170500  0.50989500  1
  Zr  Zr3  1  0.25361000  0.74829500  0.49010500  1
  P  P4  1  0.73557300  0.54989100  0.31870400  1
  P  P5  1  0.26442700  0.45010900  0.68129600  1
  P  P6  1  0.76806700  0.93872700  0.67837100  1
  P  P7  1  0.23193300  0.06127300  0.32162900  1
  H  H8  1  0.55820600  0.09270800  0.12499700  1
  H  H9  1  0.44179400  0.90729200  0.87500300  1
  H  H10  1  0.79648900  0.17541000  0.19407100  1
  H  H11  1  0.20351100  0.82459000  0.80592900  1
  H  H12  1  0.85843700  0.74136200  0.05773400  1
  H  H13  1  0.14156300  0.25863800  0.94226600  1
  H  H14  1  0.90469100  0.83708600  0.20058500  1
  H  H15  1  0.09530900  0.16291400  0.79941500  1
  H  H16  1  0.93356600  0.55155000  0.86662700  1
  H  H17  1  0.06643400  0.44845000  0.13337300  1
  H  H18  1  0.72508200  0.64097100  0.80024600  1
  H  H19  1  0.27491800  0.35902900  0.19975400  1
  H  H20  1  0.67204200  0.23663100  0.97608900  1
  H  H21  1  0.32795800  0.76336900  0.02391100  1
  H  H22  1  0.58976300  0.27894300  0.82580700  1
  H  H23  1  0.41023700  0.72105700  0.17419300  1
  O  O24  1  0.68338900  0.41085300  0.38139700  1
  O  O25  1  0.31661100  0.58914700  0.61860300  1
  O  O26  1  0.76518600  0.51608300  0.16097700  1
  O  O27  1  0.23481400  0.48391700  0.83902300  1
  O  O28  1  0.51681400  0.65471900  0.34972800  1
  O  O29  1  0.48318600  0.34528100  0.65027200  1
  O  O30  1  0.97740700  0.62224700  0.38412400  1
  O  O31  1  0.02259300  0.37775300  0.61587600  1
  O  O32  1  0.99532400  0.84429400  0.63409900  1
  O  O33  1  0.00467600  0.15570600  0.36590100  1
  O  O34  1  0.74033700  0.94503800  0.83675300  1
  O  O35  1  0.25966300  0.05496200  0.16324700  1
  O  O36  1  0.52962000  0.87312600  0.60293900  1
  O  O37  1  0.47038000  0.12687400  0.39706100  1
  O  O38  1  0.81316400  0.09067300  0.63961200  1
  O  O39  1  0.18683600  0.90932700  0.36038800  1
  O  O40  1  0.72731200  0.13081400  0.10409600  1
  O  O41  1  0.27268800  0.86918600  0.89590400  1
  O  O42  1  0.85247200  0.83921800  0.10333400  1
  O  O43  1  0.14752800  0.16078200  0.89666600  1
  O  O44  1  0.77425700  0.60385100  0.88612400  1
  O  O45  1  0.22574300  0.39614900  0.11387600  1
  O  O46  1  0.65599100  0.31519500  0.91859600  1
  O  O47  1  0.34400900  0.68480500  0.08140400  1
