# generated using pymatgen
data_Na2B4O17
_symmetry_space_group_name_H-M   'P 1'
_cell_length_a   8.31834399
_cell_length_b   8.31834399
_cell_length_c   12.92570093
_cell_angle_alpha   85.17534169
_cell_angle_beta   85.17534169
_cell_angle_gamma   71.15983309
_symmetry_Int_Tables_number   1
_chemical_formula_structural   Na2B4O17
_chemical_formula_sum   'Na4 B8 O34'
_cell_volume   841.93474589
_cell_formula_units_Z   2
loop_
 _symmetry_equiv_pos_site_id
 _symmetry_equiv_pos_as_xyz
  1  'x, y, z'
loop_
 _atom_site_type_symbol
 _atom_site_label
 _atom_site_symmetry_multiplicity
 _atom_site_fract_x
 _atom_site_fract_y
 _atom_site_fract_z
 _atom_site_occupancy
  Na  Na0  1  0.59916800  0.59352600  0.54894600  1
  Na  Na1  1  0.40647400  0.40083200  0.95105400  1
  Na  Na2  1  0.40083200  0.40647400  0.45105400  1
  Na  Na3  1  0.59352600  0.59916800  0.04894600  1
  B  B4  1  0.00133000  0.99606300  0.35619100  1
  B  B5  1  0.00393700  0.99867000  0.14380900  1
  B  B6  1  0.99867000  0.00393700  0.64380900  1
  B  B7  1  0.99606300  0.00133000  0.85619100  1
  B  B8  1  0.79818200  0.18960600  0.49746000  1
  B  B9  1  0.81039400  0.20181800  0.00254000  1
  B  B10  1  0.20181800  0.81039400  0.50254000  1
  B  B11  1  0.18960600  0.79818200  0.99746000  1
  O  O12  1  0.86311500  0.11027000  0.40371200  1
  O  O13  1  0.88973000  0.13688500  0.09628800  1
  O  O14  1  0.13688500  0.88973000  0.59628800  1
  O  O15  1  0.11027000  0.86311500  0.90371200  1
  O  O16  1  0.67029200  0.33479600  0.49613600  1
  O  O17  1  0.66520400  0.32970800  0.00386400  1
  O  O18  1  0.32970800  0.66520400  0.50386400  1
  O  O19  1  0.33479600  0.67029200  0.99613600  1
  O  O20  1  0.00997900  0.99002100  0.25000000  1
  O  O21  1  0.99002100  0.00997900  0.75000000  1
  O  O22  1  0.86483600  0.11388700  0.59265900  1
  O  O23  1  0.88611300  0.13516400  0.90734100  1
  O  O24  1  0.13516400  0.88611300  0.40734100  1
  O  O25  1  0.11388700  0.86483600  0.09265900  1
  O  O26  1  0.57477700  0.46320100  0.30253800  1
  O  O27  1  0.53679900  0.42522300  0.19746200  1
  O  O28  1  0.42522300  0.53679900  0.69746200  1
  O  O29  1  0.46320100  0.57477700  0.80253800  1
  O  O30  1  0.89474800  0.69000900  0.68735700  1
  O  O31  1  0.30999100  0.10525200  0.81264300  1
  O  O32  1  0.10525200  0.30999100  0.31264300  1
  O  O33  1  0.69000900  0.89474800  0.18735700  1
  O  O34  1  0.77069800  0.76169100  0.63497900  1
  O  O35  1  0.23830900  0.22930200  0.86502100  1
  O  O36  1  0.22930200  0.23830900  0.36502100  1
  O  O37  1  0.76169100  0.77069800  0.13497900  1
  O  O38  1  0.97072700  0.55993700  0.46774500  1
  O  O39  1  0.44006300  0.02927300  0.03225500  1
  O  O40  1  0.02927300  0.44006300  0.53225500  1
  O  O41  1  0.55993700  0.97072700  0.96774500  1
  O  O42  1  0.68516200  0.31483800  0.25000000  1
  O  O43  1  0.31483800  0.68516200  0.75000000  1
  O  O44  1  0.28138400  0.71861600  0.25000000  1
  O  O45  1  0.71861600  0.28138400  0.75000000  1
