# generated using pymatgen
data_AgN2ClO4
_symmetry_space_group_name_H-M   'P 1'
_cell_length_a   7.00079500
_cell_length_b   7.44878900
_cell_length_c   10.87585700
_cell_angle_alpha   90.00000000
_cell_angle_beta   90.00000000
_cell_angle_gamma   90.00000000
_symmetry_Int_Tables_number   1
_chemical_formula_structural   AgN2ClO4
_chemical_formula_sum   'Ag4 N8 Cl4 O16'
_cell_volume   567.14815242
_cell_formula_units_Z   4
loop_
 _symmetry_equiv_pos_site_id
 _symmetry_equiv_pos_as_xyz
  1  'x, y, z'
loop_
 _atom_site_type_symbol
 _atom_site_label
 _atom_site_symmetry_multiplicity
 _atom_site_fract_x
 _atom_site_fract_y
 _atom_site_fract_z
 _atom_site_occupancy
  Ag  Ag0  1  0.00000000  0.50000000  0.50000000  1
  Ag  Ag1  1  0.50000000  0.00000000  0.00000000  1
  Ag  Ag2  1  0.00000000  0.00000000  0.00000000  1
  Ag  Ag3  1  0.50000000  0.50000000  0.50000000  1
  N  N4  1  0.00000000  0.21463200  0.45770100  1
  N  N5  1  0.00000000  0.78536800  0.54229900  1
  N  N6  1  0.50000000  0.71463200  0.04229900  1
  N  N7  1  0.50000000  0.28536800  0.95770100  1
  N  N8  1  0.00000000  0.92467300  0.81130800  1
  N  N9  1  0.00000000  0.07532700  0.18869200  1
  N  N10  1  0.50000000  0.42467300  0.68869200  1
  N  N11  1  0.50000000  0.57532700  0.31130800  1
  Cl  Cl12  1  0.00000000  0.45132400  0.81975600  1
  Cl  Cl13  1  0.00000000  0.54867600  0.18024400  1
  Cl  Cl14  1  0.50000000  0.95132400  0.68024400  1
  Cl  Cl15  1  0.50000000  0.04867600  0.31975600  1
  O  O16  1  0.82889000  0.55700500  0.83737800  1
  O  O17  1  0.82889000  0.44299500  0.16262200  1
  O  O18  1  0.67111000  0.05700500  0.66262200  1
  O  O19  1  0.67111000  0.94299500  0.33737800  1
  O  O20  1  0.17111000  0.44299500  0.16262200  1
  O  O21  1  0.17111000  0.55700500  0.83737800  1
  O  O22  1  0.32889000  0.94299500  0.33737800  1
  O  O23  1  0.32889000  0.05700500  0.66262200  1
  O  O24  1  0.00000000  0.37294800  0.69213000  1
  O  O25  1  0.00000000  0.62705200  0.30787000  1
  O  O26  1  0.50000000  0.87294800  0.80787000  1
  O  O27  1  0.50000000  0.12705200  0.19213000  1
  O  O28  1  0.00000000  0.29718700  0.90451800  1
  O  O29  1  0.00000000  0.70281300  0.09548200  1
  O  O30  1  0.50000000  0.79718700  0.59548200  1
  O  O31  1  0.50000000  0.20281300  0.40451800  1
