# generated using pymatgen
data_Al(SiO3)2
_symmetry_space_group_name_H-M   'P 1'
_cell_length_a   5.27992673
_cell_length_b   5.27992673
_cell_length_c   19.35924622
_cell_angle_alpha   87.81880868
_cell_angle_beta   87.81880868
_cell_angle_gamma   120.00717640
_symmetry_Int_Tables_number   1
_chemical_formula_structural   Al(SiO3)2
_chemical_formula_sum   'Al4 Si8 O24'
_cell_volume   465.99507996
_cell_formula_units_Z   4
loop_
 _symmetry_equiv_pos_site_id
 _symmetry_equiv_pos_as_xyz
  1  'x, y, z'
loop_
 _atom_site_type_symbol
 _atom_site_label
 _atom_site_symmetry_multiplicity
 _atom_site_fract_x
 _atom_site_fract_y
 _atom_site_fract_z
 _atom_site_occupancy
  Al  Al0  1  0.17798300  0.35537900  0.50004400  1
  Al  Al1  1  0.64462100  0.82201700  0.99995600  1
  Al  Al2  1  0.82201700  0.64462100  0.49995600  1
  Al  Al3  1  0.35537900  0.17798300  0.00004400  1
  Si  Si4  1  0.09918800  0.61391800  0.64103700  1
  Si  Si5  1  0.38608200  0.90081200  0.85896300  1
  Si  Si6  1  0.90081200  0.38608200  0.35896300  1
  Si  Si7  1  0.61391800  0.09918800  0.14103700  1
  Si  Si8  1  0.44389800  0.30385300  0.64117600  1
  Si  Si9  1  0.69614700  0.55610200  0.85882400  1
  Si  Si10  1  0.55610200  0.69614700  0.35882400  1
  Si  Si11  1  0.30385300  0.44389800  0.14117600  1
  O  O12  1  0.08765200  0.58708100  0.55629200  1
  O  O13  1  0.41291900  0.91234800  0.94370800  1
  O  O14  1  0.91234800  0.41291900  0.44370800  1
  O  O15  1  0.58708100  0.08765200  0.05629200  1
  O  O16  1  0.48426600  0.37991000  0.55636700  1
  O  O17  1  0.62009000  0.51573400  0.94363300  1
  O  O18  1  0.51573400  0.62009000  0.44363300  1
  O  O19  1  0.37991000  0.48426600  0.05636700  1
  O  O20  1  0.89057200  0.98695600  0.54502800  1
  O  O21  1  0.01304400  0.10942800  0.95497200  1
  O  O22  1  0.10942800  0.01304400  0.45497200  1
  O  O23  1  0.98695600  0.89057200  0.04502800  1
  O  O24  1  0.28273800  0.95356600  0.66003300  1
  O  O25  1  0.04643400  0.71726200  0.83996700  1
  O  O26  1  0.71726200  0.04643400  0.33996700  1
  O  O27  1  0.95356600  0.28273800  0.16003300  1
  O  O28  1  0.76287600  0.46617500  0.67364200  1
  O  O29  1  0.53382500  0.23712400  0.82635800  1
  O  O30  1  0.23712400  0.53382500  0.32635800  1
  O  O31  1  0.46617500  0.76287600  0.17364200  1
  O  O32  1  0.24651200  0.43386200  0.67385200  1
  O  O33  1  0.56613800  0.75348800  0.82614800  1
  O  O34  1  0.75348800  0.56613800  0.32614800  1
  O  O35  1  0.43386200  0.24651200  0.17385200  1
