# generated using pymatgen
data_Li2TbF6
_symmetry_space_group_name_H-M   'P 1'
_cell_length_a   5.08207200
_cell_length_b   7.66895690
_cell_length_c   11.71699405
_cell_angle_alpha   106.43409489
_cell_angle_beta   90.00000000
_cell_angle_gamma   90.00000000
_symmetry_Int_Tables_number   1
_chemical_formula_structural   Li2TbF6
_chemical_formula_sum   'Li8 Tb4 F24'
_cell_volume   438.00386800
_cell_formula_units_Z   4
loop_
 _symmetry_equiv_pos_site_id
 _symmetry_equiv_pos_as_xyz
  1  'x, y, z'
loop_
 _atom_site_type_symbol
 _atom_site_label
 _atom_site_symmetry_multiplicity
 _atom_site_fract_x
 _atom_site_fract_y
 _atom_site_fract_z
 _atom_site_occupancy
  Li  Li0  1  0.99537200  0.59660400  0.19601500  1
  Li  Li1  1  0.49537200  0.40339600  0.30398500  1
  Li  Li2  1  0.00462800  0.40339600  0.80398500  1
  Li  Li3  1  0.50462800  0.59660400  0.69601500  1
  Li  Li4  1  0.48460900  0.97323000  0.34032000  1
  Li  Li5  1  0.98460900  0.02677000  0.15968000  1
  Li  Li6  1  0.51539100  0.02677000  0.65968000  1
  Li  Li7  1  0.01539100  0.97323000  0.84032000  1
  Tb  Tb8  1  0.01906000  0.75080600  0.50155400  1
  Tb  Tb9  1  0.51906000  0.24919400  0.99844600  1
  Tb  Tb10  1  0.98094000  0.24919400  0.49844600  1
  Tb  Tb11  1  0.48094000  0.75080600  0.00155400  1
  F  F12  1  0.69219200  0.54072700  0.07796700  1
  F  F13  1  0.19219200  0.45927300  0.42203300  1
  F  F14  1  0.30780800  0.45927300  0.92203300  1
  F  F15  1  0.80780800  0.54072700  0.57796700  1
  F  F16  1  0.85293100  0.91329700  0.68217500  1
  F  F17  1  0.35293100  0.08670300  0.81782500  1
  F  F18  1  0.14706900  0.08670300  0.31782500  1
  F  F19  1  0.64706900  0.91329700  0.18217500  1
  F  F20  1  0.73554000  0.95941600  0.95398000  1
  F  F21  1  0.23554000  0.04058400  0.54602000  1
  F  F22  1  0.26446000  0.04058400  0.04602000  1
  F  F23  1  0.76446000  0.95941600  0.45398000  1
  F  F24  1  0.72916700  0.59282400  0.83731100  1
  F  F25  1  0.22916700  0.40717600  0.66268900  1
  F  F26  1  0.27083300  0.40717600  0.16268900  1
  F  F27  1  0.77083300  0.59282400  0.33731100  1
  F  F28  1  0.11434700  0.75143800  0.10356100  1
  F  F29  1  0.61434700  0.24856200  0.39643900  1
  F  F30  1  0.88565300  0.24856200  0.89643900  1
  F  F31  1  0.38565300  0.75143800  0.60356100  1
  F  F32  1  0.24008500  0.75825300  0.83721200  1
  F  F33  1  0.74008500  0.24174700  0.66278800  1
  F  F34  1  0.75991500  0.24174700  0.16278800  1
  F  F35  1  0.25991500  0.75825300  0.33721200  1
