# generated using pymatgen
data_CaBeAsO5
_symmetry_space_group_name_H-M   'P 1'
_cell_length_a   4.98399908
_cell_length_b   7.93128700
_cell_length_c   10.20059960
_cell_angle_alpha   90.00000000
_cell_angle_beta   90.00318536
_cell_angle_gamma   90.00000000
_symmetry_Int_Tables_number   1
_chemical_formula_structural   CaBeAsO5
_chemical_formula_sum   'Ca4 Be4 As4 O20'
_cell_volume   403.22487794
_cell_formula_units_Z   4
loop_
 _symmetry_equiv_pos_site_id
 _symmetry_equiv_pos_as_xyz
  1  'x, y, z'
loop_
 _atom_site_type_symbol
 _atom_site_label
 _atom_site_symmetry_multiplicity
 _atom_site_fract_x
 _atom_site_fract_y
 _atom_site_fract_z
 _atom_site_occupancy
  Ca  Ca0  1  0.99586700  0.38473500  0.82789100  1
  Ca  Ca1  1  0.00413300  0.88473500  0.67210900  1
  Ca  Ca2  1  0.00413300  0.61526500  0.17210900  1
  Ca  Ca3  1  0.99586700  0.11526500  0.32789100  1
  Be  Be4  1  0.55621000  0.08409200  0.83838700  1
  Be  Be5  1  0.44379000  0.58409200  0.66161300  1
  Be  Be6  1  0.44379000  0.91590800  0.16161300  1
  Be  Be7  1  0.55621000  0.41590800  0.33838700  1
  As  As8  1  0.47451900  0.22520100  0.57965600  1
  As  As9  1  0.52548100  0.72520100  0.92034400  1
  As  As10  1  0.52548100  0.77479900  0.42034400  1
  As  As11  1  0.47451900  0.27479900  0.07965600  1
  O  O12  1  0.23656500  0.08428800  0.53324900  1
  O  O13  1  0.76343500  0.58428800  0.96675100  1
  O  O14  1  0.76343500  0.91571200  0.46675100  1
  O  O15  1  0.23656500  0.41571200  0.03324900  1
  O  O16  1  0.67154000  0.21093200  0.95115600  1
  O  O17  1  0.32846000  0.71093200  0.54884400  1
  O  O18  1  0.32846000  0.78906800  0.04884400  1
  O  O19  1  0.67154000  0.28906800  0.45115600  1
  O  O20  1  0.69337000  0.15210900  0.69951200  1
  O  O21  1  0.30663000  0.65210900  0.80048800  1
  O  O22  1  0.30663000  0.84789100  0.30048800  1
  O  O23  1  0.69337000  0.34789100  0.19951200  1
  O  O24  1  0.31221800  0.39751300  0.64607900  1
  O  O25  1  0.68778200  0.89751300  0.85392100  1
  O  O26  1  0.68778200  0.60248700  0.35392100  1
  O  O27  1  0.31221800  0.10248700  0.14607900  1
  O  O28  1  0.23733700  0.09584500  0.81179600  1
  O  O29  1  0.76266300  0.59584500  0.68820400  1
  O  O30  1  0.76266300  0.90415500  0.18820400  1
  O  O31  1  0.23733700  0.40415500  0.31179600  1
