# generated using pymatgen
data_U(BOs)4
_symmetry_space_group_name_H-M   'P 1'
_cell_length_a   9.25523313
_cell_length_b   9.25523313
_cell_length_c   9.25523313
_cell_angle_alpha   131.87355280
_cell_angle_beta   131.87355280
_cell_angle_gamma   70.42880995
_symmetry_Int_Tables_number   1
_chemical_formula_structural   U(BOs)4
_chemical_formula_sum   'U4 B16 Os16'
_cell_volume   430.74499416
_cell_formula_units_Z   4
loop_
 _symmetry_equiv_pos_site_id
 _symmetry_equiv_pos_as_xyz
  1  'x, y, z'
loop_
 _atom_site_type_symbol
 _atom_site_label
 _atom_site_symmetry_multiplicity
 _atom_site_fract_x
 _atom_site_fract_y
 _atom_site_fract_z
 _atom_site_occupancy
  U  U0  1  0.25000000  0.25000000  0.00000000  1
  U  U1  1  0.75000000  0.75000000  0.00000000  1
  U  U2  1  0.50000000  0.00000000  0.50000000  1
  U  U3  1  0.00000000  0.50000000  0.50000000  1
  B  B4  1  0.22547900  0.91284100  0.97351900  1
  B  B5  1  0.72547900  0.75195900  0.31263800  1
  B  B6  1  0.16284100  0.97547900  0.47351900  1
  B  B7  1  0.66284100  0.18932100  0.18736200  1
  B  B8  1  0.52452100  0.33715900  0.52648100  1
  B  B9  1  0.02452100  0.49804100  0.18736200  1
  B  B10  1  0.58715900  0.27452100  0.02648100  1
  B  B11  1  0.08715900  0.06067900  0.31263800  1
  B  B12  1  0.43932100  0.41284100  0.68736200  1
  B  B13  1  0.93932100  0.25195900  0.02648100  1
  B  B14  1  0.00195900  0.47547900  0.81263800  1
  B  B15  1  0.50195900  0.68932100  0.52648100  1
  B  B16  1  0.31067900  0.83715900  0.81263800  1
  B  B17  1  0.81067900  0.99804100  0.47351900  1
  B  B18  1  0.74804100  0.77452100  0.68736200  1
  B  B19  1  0.24804100  0.56067900  0.97351900  1
  Os  Os20  1  0.53688300  0.07451600  0.23623300  1
  Os  Os21  1  0.03688300  0.80065000  0.46236800  1
  Os  Os22  1  0.32451600  0.28688300  0.73623300  1
  Os  Os23  1  0.82451600  0.08828200  0.03763200  1
  Os  Os24  1  0.21311700  0.17548400  0.26376700  1
  Os  Os25  1  0.71311700  0.44935000  0.03763200  1
  Os  Os26  1  0.42548400  0.96311700  0.76376700  1
  Os  Os27  1  0.92548400  0.16171800  0.46236800  1
  Os  Os28  1  0.33828200  0.57451600  0.53763200  1
  Os  Os29  1  0.83828200  0.30065000  0.76376700  1
  Os  Os30  1  0.05065000  0.78688300  0.96236800  1
  Os  Os31  1  0.55065000  0.58828200  0.26376700  1
  Os  Os32  1  0.41171800  0.67548400  0.96236800  1
  Os  Os33  1  0.91171800  0.94935000  0.73623300  1
  Os  Os34  1  0.69935000  0.46311700  0.53763200  1
  Os  Os35  1  0.19935000  0.66171800  0.23623300  1
