# generated using pymatgen
data_H24Rh2N8(ClO5)3
_symmetry_space_group_name_H-M   'P 1'
_cell_length_a   12.43274200
_cell_length_b   10.89670800
_cell_length_c   17.49586821
_cell_angle_alpha   90.00000000
_cell_angle_beta   117.16204486
_cell_angle_gamma   90.00000000
_symmetry_Int_Tables_number   1
_chemical_formula_structural   H24Rh2N8(ClO5)3
_chemical_formula_sum   'H96 Rh8 N32 Cl12 O60'
_cell_volume   2108.87378435
_cell_formula_units_Z   4
loop_
 _symmetry_equiv_pos_site_id
 _symmetry_equiv_pos_as_xyz
  1  'x, y, z'
loop_
 _atom_site_type_symbol
 _atom_site_label
 _atom_site_symmetry_multiplicity
 _atom_site_fract_x
 _atom_site_fract_y
 _atom_site_fract_z
 _atom_site_occupancy
  H  H0  1  0.04993700  0.65004900  0.57005900  1
  H  H1  1  0.04993700  0.84995100  0.07005900  1
  H  H2  1  0.95006300  0.34995100  0.42994100  1
  H  H3  1  0.95006300  0.15004900  0.92994100  1
  H  H4  1  0.09840100  0.77235800  0.63382900  1
  H  H5  1  0.09840100  0.72764200  0.13382900  1
  H  H6  1  0.90159900  0.22764200  0.36617100  1
  H  H7  1  0.90159900  0.27235800  0.86617100  1
  H  H8  1  0.95296800  0.74049500  0.58113000  1
  H  H9  1  0.95296800  0.75950500  0.08113000  1
  H  H10  1  0.04703200  0.25950500  0.41887000  1
  H  H11  1  0.04703200  0.24049500  0.91887000  1
  H  H12  1  0.02625600  0.43877400  0.59665100  1
  H  H13  1  0.02625600  0.06122600  0.09665100  1
  H  H14  1  0.97374400  0.56122600  0.40334900  1
  H  H15  1  0.97374400  0.93877400  0.90334900  1
  H  H16  1  0.99835100  0.36640300  0.66969100  1
  H  H17  1  0.99835100  0.13359700  0.16969100  1
  H  H18  1  0.00164900  0.63359700  0.33030900  1
  H  H19  1  0.00164900  0.86640300  0.83030900  1
  H  H20  1  0.13904400  0.38902200  0.68622600  1
  H  H21  1  0.13904400  0.11097800  0.18622600  1
  H  H22  1  0.86095600  0.61097800  0.31377400  1
  H  H23  1  0.86095600  0.88902200  0.81377400  1
  H  H24  1  0.82321800  0.61541100  0.62479500  1
  H  H25  1  0.82321800  0.88458900  0.12479500  1
  H  H26  1  0.17678200  0.38458900  0.37520500  1
  H  H27  1  0.17678200  0.11541100  0.87520500  1
  H  H28  1  0.85719700  0.64406800  0.72586300  1
  H  H29  1  0.85719700  0.85593200  0.22586300  1
  H  H30  1  0.14280300  0.35593200  0.27413700  1
  H  H31  1  0.14280300  0.14406800  0.77413700  1
  H  H32  1  0.85345800  0.50021000  0.69325100  1
  H  H33  1  0.85345800  0.99979000  0.19325100  1
  H  H34  1  0.14654200  0.49979000  0.30674900  1
  H  H35  1  0.14654200  0.00021000  0.80674900  1
  H  H36  1  0.17741800  0.47095900  0.86954500  1
  H  H37  1  0.17741800  0.02904100  0.36954500  1
  H  H38  1  0.82258200  0.52904100  0.13045500  1
  H  H39  1  0.82258200  0.97095900  0.63045500  1
  H  H40  1  0.04290100  0.41244900  0.80886100  1
  H  H41  1  0.04290100  0.08755100  0.30886100  1
  H  H42  1  0.95709900  0.58755100  0.19113900  1
  H  H43  1  0.95709900  0.91244900  0.69113900  1
  H  H44  1  0.05331800  0.53561400  0.86757000  1
  H  H45  1  0.05331800  0.96438600  0.36757000  1
  H  H46  1  0.94668200  0.46438600  0.13243000  1
  H  H47  1  0.94668200  0.03561400  0.63243000  1
  H  H48  1  0.36993600  0.74873700  0.98276400  1
  H  H49  1  0.36993600  0.75126300  0.48276400  1
  H  H50  1  0.63006400  0.25126300  0.01723600  1
  H  H51  1  0.63006400  0.24873700  0.51723600  1
  H  H52  1  0.34343700  0.60808200  0.94279200  1
  H  H53  1  0.34343700  0.89191800  0.44279200  1
  H  H54  1  0.65656300  0.39191800  0.05720800  1
  H  H55  1  0.65656300  0.10808200  0.55720800  1
  H  H56  1  0.22843700  0.70713500  0.91728100  1
  H  H57  1  0.22843700  0.79286500  0.41728100  1
  H  H58  1  0.77156300  0.29286500  0.08271900  1
  H  H59  1  0.77156300  0.20713500  0.58271900  1
  H  H60  1  0.53327000  0.63503300  0.92785900  1
  H  H61  1  0.53327000  0.86496700  0.42785900  1
  H  H62  1  0.46673000  0.36496700  0.07214100  1
  H  H63  1  0.46673000  0.13503300  0.57214100  1
  H  H64  1  0.56616600  0.72647200  0.86736300  1
  H  H65  1  0.56616600  0.77352800  0.36736300  1
  H  H66  1  0.43383400  0.27352800  0.13263700  1
  H  H67  1  0.43383400  0.22647200  0.63263700  1
  H  H68  1  0.50042200  0.59365400  0.82917000  1
  H  H69  1  0.50042200  0.90634600  0.32917000  1
  H  H70  1  0.49957800  0.40634600  0.17083000  1
  H  H71  1  0.49957800  0.09365400  0.67083000  1
  H  H72  1  0.50620200  0.91774900  0.91044000  1
  H  H73  1  0.50620200  0.58225100  0.41044000  1
  H  H74  1  0.49379800  0.08225100  0.08956000  1
  H  H75  1  0.49379800  0.41774900  0.58956000  1
  H  H76  1  0.38486300  0.94538200  0.92307400  1
  H  H77  1  0.38486300  0.55461800  0.42307400  1
  H  H78  1  0.61513700  0.05461800  0.07692600  1
  H  H79  1  0.61513700  0.44538200  0.57692600  1
  H  H80  1  0.38982000  0.98960900  0.83524200  1
  H  H81  1  0.38982000  0.51039100  0.33524200  1
  H  H82  1  0.61018000  0.01039100  0.16475800  1
  H  H83  1  0.61018000  0.48960900  0.66475800  1
  H  H84  1  0.43782200  0.79199800  0.72021500  1
  H  H85  1  0.43782200  0.70800200  0.22021500  1
  H  H86  1  0.56217800  0.20800200  0.27978500  1
  H  H87  1  0.56217800  0.29199800  0.77978500  1
  H  H88  1  0.33078000  0.89466600  0.69496500  1
  H  H89  1  0.33078000  0.60533400  0.19496500  1
  H  H90  1  0.66922000  0.10533400  0.30503500  1
  H  H91  1  0.66922000  0.39466600  0.80503500  1
  H  H92  1  0.29911400  0.75286600  0.65683600  1
  H  H93  1  0.29911400  0.74713400  0.15683600  1
  H  H94  1  0.70088600  0.24713400  0.34316400  1
  H  H95  1  0.70088600  0.25286600  0.84316400  1
  Rh  Rh96  1  0.06635400  0.59966100  0.72386100  1
  Rh  Rh97  1  0.06635400  0.90033900  0.22386100  1
  Rh  Rh98  1  0.93364600  0.40033900  0.27613900  1
  Rh  Rh99  1  0.93364600  0.09966100  0.77613900  1
  Rh  Rh100  1  0.32815500  0.75078500  0.81814700  1
  Rh  Rh101  1  0.32815500  0.74921500  0.31814700  1
  Rh  Rh102  1  0.67184500  0.24921500  0.18185300  1
  Rh  Rh103  1  0.67184500  0.25078500  0.68185300  1
  N  N104  1  0.03698300  0.70155100  0.61416000  1
  N  N105  1  0.03698300  0.79844900  0.11416000  1
  N  N106  1  0.96301700  0.29844900  0.38584000  1
  N  N107  1  0.96301700  0.20155100  0.88584000  1
  N  N108  1  0.05496700  0.42908800  0.66121800  1
  N  N109  1  0.05496700  0.07091200  0.16121800  1
  N  N110  1  0.94503300  0.57091200  0.33878200  1
  N  N111  1  0.94503300  0.92908800  0.83878200  1
  N  N112  1  0.87824700  0.58925200  0.68688800  1
  N  N113  1  0.87824700  0.91074800  0.18688800  1
  N  N114  1  0.12175300  0.41074800  0.31311200  1
  N  N115  1  0.12175300  0.08925200  0.81311200  1
  N  N116  1  0.08869400  0.49384700  0.83126100  1
  N  N117  1  0.08869400  0.00615300  0.33126100  1
  N  N118  1  0.91130600  0.50615300  0.16873900  1
  N  N119  1  0.91130600  0.99384700  0.66873900  1
  N  N120  1  0.31689900  0.69811000  0.92902200  1
  N  N121  1  0.31689900  0.80189000  0.42902200  1
  N  N122  1  0.68310100  0.30189000  0.07097800  1
  N  N123  1  0.68310100  0.19811000  0.57097800  1
  N  N124  1  0.50117700  0.66708100  0.86596000  1
  N  N125  1  0.50117700  0.83291900  0.36596000  1
  N  N126  1  0.49882300  0.33291900  0.13404000  1
  N  N127  1  0.49882300  0.16708100  0.63404000  1
  N  N128  1  0.41336100  0.91909900  0.87877900  1
  N  N129  1  0.41336100  0.58090100  0.37877900  1
  N  N130  1  0.58663900  0.08090100  0.12122100  1
  N  N131  1  0.58663900  0.41909900  0.62122100  1
  N  N132  1  0.35078700  0.80358800  0.71066800  1
  N  N133  1  0.35078700  0.69641200  0.21066800  1
  N  N134  1  0.64921300  0.19641200  0.28933200  1
  N  N135  1  0.64921300  0.30358800  0.78933200  1
  Cl  Cl136  1  0.26508000  0.51033800  0.55462900  1
  Cl  Cl137  1  0.26508000  0.98966200  0.05462900  1
  Cl  Cl138  1  0.73492000  0.48966200  0.44537100  1
  Cl  Cl139  1  0.73492000  0.01033800  0.94537100  1
  Cl  Cl140  1  0.81827600  0.58160900  0.89689500  1
  Cl  Cl141  1  0.81827600  0.91839100  0.39689500  1
  Cl  Cl142  1  0.18172400  0.41839100  0.10310500  1
  Cl  Cl143  1  0.18172400  0.08160900  0.60310500  1
  Cl  Cl144  1  0.39110400  0.32874700  0.87854500  1
  Cl  Cl145  1  0.39110400  0.17125300  0.37854500  1
  Cl  Cl146  1  0.60889600  0.67125300  0.12145500  1
  Cl  Cl147  1  0.60889600  0.82874700  0.62145500  1
  O  O148  1  0.08065000  0.76061700  0.78547600  1
  O  O149  1  0.08065000  0.73938300  0.28547600  1
  O  O150  1  0.91935000  0.23938300  0.21452400  1
  O  O151  1  0.91935000  0.26061700  0.71452400  1
  O  O152  1  0.16703000  0.83707700  0.77257300  1
  O  O153  1  0.16703000  0.66292300  0.27257300  1
  O  O154  1  0.83297000  0.16292300  0.22742700  1
  O  O155  1  0.83297000  0.33707700  0.72742700  1
  O  O156  1  0.23981500  0.60570100  0.75696700  1
  O  O157  1  0.23981500  0.89429900  0.25696700  1
  O  O158  1  0.76018500  0.39429900  0.24303300  1
  O  O159  1  0.76018500  0.10570100  0.74303300  1
  O  O160  1  0.14353900  0.46074300  0.52588700  1
  O  O161  1  0.14353900  0.03925700  0.02588700  1
  O  O162  1  0.85646100  0.53925700  0.47411300  1
  O  O163  1  0.85646100  0.96074300  0.97411300  1
  O  O164  1  0.31325200  0.46553600  0.49662800  1
  O  O165  1  0.31325200  0.03446400  0.99662800  1
  O  O166  1  0.68674800  0.53446400  0.50337200  1
  O  O167  1  0.68674800  0.96553600  0.00337200  1
  O  O168  1  0.34461000  0.47099900  0.64128400  1
  O  O169  1  0.34461000  0.02900100  0.14128400  1
  O  O170  1  0.65539000  0.52900100  0.35871600  1
  O  O171  1  0.65539000  0.97099900  0.85871600  1
  O  O172  1  0.25701300  0.64448700  0.54937800  1
  O  O173  1  0.25701300  0.85551300  0.04937800  1
  O  O174  1  0.74298700  0.35551300  0.45062200  1
  O  O175  1  0.74298700  0.14448700  0.95062200  1
  O  O176  1  0.90368400  0.64509100  0.87444700  1
  O  O177  1  0.90368400  0.85490900  0.37444700  1
  O  O178  1  0.09631600  0.35490900  0.12555300  1
  O  O179  1  0.09631600  0.14509100  0.62555300  1
  O  O180  1  0.70034900  0.57241100  0.81947500  1
  O  O181  1  0.70034900  0.92758900  0.31947500  1
  O  O182  1  0.29965100  0.42758900  0.18052500  1
  O  O183  1  0.29965100  0.07241100  0.68052500  1
  O  O184  1  0.80298300  0.65050000  0.96274100  1
  O  O185  1  0.80298300  0.84950000  0.46274100  1
  O  O186  1  0.19701700  0.34950000  0.03725900  1
  O  O187  1  0.19701700  0.15050000  0.53725900  1
  O  O188  1  0.86180700  0.45810200  0.92766600  1
  O  O189  1  0.86180700  0.04189800  0.42766600  1
  O  O190  1  0.13819300  0.54189800  0.07233400  1
  O  O191  1  0.13819300  0.95810200  0.57233400  1
  O  O192  1  0.44565800  0.21254900  0.91966500  1
  O  O193  1  0.44565800  0.28745100  0.41966500  1
  O  O194  1  0.55434200  0.78745100  0.08033500  1
  O  O195  1  0.55434200  0.71254900  0.58033500  1
  O  O196  1  0.46233100  0.38297300  0.84050300  1
  O  O197  1  0.46233100  0.11702700  0.34050300  1
  O  O198  1  0.53766900  0.61702700  0.15949700  1
  O  O199  1  0.53766900  0.88297300  0.65949700  1
  O  O200  1  0.73252500  0.69174600  0.18658100  1
  O  O201  1  0.73252500  0.80825400  0.68658100  1
  O  O202  1  0.26747500  0.30825400  0.81341900  1
  O  O203  1  0.26747500  0.19174600  0.31341900  1
  O  O204  1  0.61043300  0.58696900  0.05582500  1
  O  O205  1  0.61043300  0.91303100  0.55582500  1
  O  O206  1  0.38956700  0.41303100  0.94417500  1
  O  O207  1  0.38956700  0.08696900  0.44417500  1
