# generated using pymatgen
data_Na7UH4S4ClO20
_symmetry_space_group_name_H-M   'P 1'
_cell_length_a   5.44524765
_cell_length_b   11.07959593
_cell_length_c   34.16031693
_cell_angle_alpha   85.89903866
_cell_angle_beta   85.42992572
_cell_angle_gamma   75.76838810
_symmetry_Int_Tables_number   1
_chemical_formula_structural   Na7UH4S4ClO20
_chemical_formula_sum   'Na28 U4 H16 S16 Cl4 O80'
_cell_volume   1988.45172525
_cell_formula_units_Z   4
loop_
 _symmetry_equiv_pos_site_id
 _symmetry_equiv_pos_as_xyz
  1  'x, y, z'
loop_
 _atom_site_type_symbol
 _atom_site_label
 _atom_site_symmetry_multiplicity
 _atom_site_fract_x
 _atom_site_fract_y
 _atom_site_fract_z
 _atom_site_occupancy
  Na  Na0  1  0.00000000  -0.00000000  0.00000000  1
  Na  Na1  1  0.00000000  0.50000000  0.50000000  1
  Na  Na2  1  0.86891730  0.75000378  0.25000047  1
  Na  Na3  1  0.13108270  0.24999622  0.74999953  1
  Na  Na4  1  0.62829138  0.32792973  0.16099452  1
  Na  Na5  1  0.11722883  0.17206853  0.33901106  1
  Na  Na6  1  0.37170862  0.67207027  0.83900548  1
  Na  Na7  1  0.88277117  0.82793147  0.66098894  1
  Na  Na8  1  0.09604242  0.38166097  0.25551904  1
  Na  Na9  1  0.73320558  0.11834862  0.24448722  1
  Na  Na10  1  0.90395758  0.61833903  0.74448096  1
  Na  Na11  1  0.26679442  0.88165138  0.75551278  1
  Na  Na12  1  0.60939238  0.75326659  0.00434006  1
  Na  Na13  1  0.36691836  0.74675431  0.49565390  1
  Na  Na14  1  0.39060762  0.24673341  0.99565994  1
  Na  Na15  1  0.63308164  0.25324569  0.50434610  1
  Na  Na16  1  0.04898934  0.30691421  0.08085737  1
  Na  Na17  1  0.43687034  0.19306016  0.41912533  1
  Na  Na18  1  0.95101066  0.69308579  0.91914263  1
  Na  Na19  1  0.56312966  0.80693984  0.58087467  1
  Na  Na20  1  0.98808207  0.78951298  0.07830291  1
  Na  Na21  1  0.85587530  0.71050671  0.42167917  1
  Na  Na22  1  0.01191793  0.21048702  0.92169709  1
  Na  Na23  1  0.14412470  0.28949329  0.57832083  1
  Na  Na24  1  0.03461401  0.53797522  0.15780256  1
  Na  Na25  1  0.73038215  0.96203489  0.34220274  1
  Na  Na26  1  0.96538599  0.46202478  0.84219744  1
  Na  Na27  1  0.26961785  0.03796511  0.65779726  1
  U  U28  1  0.36954520  0.87200545  0.16674134  1
  U  U29  1  0.40853279  0.62799716  0.33324857  1
  U  U30  1  0.63045480  0.12799455  0.83325866  1
  U  U31  1  0.59146721  0.37200284  0.66675143  1
  H  H32  1  0.87415165  0.11071868  0.12020879  1
  H  H33  1  0.10506199  0.38928231  0.37979155  1
  H  H34  1  0.12584835  0.88928132  0.87979121  1
  H  H35  1  0.89493801  0.61071769  0.62020845  1
  H  H36  1  0.19139426  0.51152488  0.03061337  1
  H  H37  1  0.73349820  0.98850213  0.46938646  1
  H  H38  1  0.80860574  0.48847512  0.96938663  1
  H  H39  1  0.26650180  0.01149787  0.53061354  1
  H  H40  1  0.44548611  0.43188562  0.04527046  1
  H  H41  1  0.92265738  0.06810582  0.45473316  1
  H  H42  1  0.55451389  0.56811438  0.95472954  1
  H  H43  1  0.07734262  0.93189418  0.54526684  1
  H  H44  1  0.64691074  0.16834921  0.09364959  1
  H  H45  1  0.90891814  0.33164681  0.40635307  1
  H  H46  1  0.35308926  0.83165079  0.90635041  1
  H  H47  1  0.09108186  0.66835319  0.59364693  1
  S  S48  1  0.42966227  0.57343849  0.22524972  1
  S  S49  1  0.22834416  0.92657242  0.27471904  1
  S  S50  1  0.57033773  0.42656151  0.77475028  1
  S  S51  1  0.77165584  0.07342758  0.72528096  1
  S  S52  1  0.19698032  0.20824675  0.18004288  1
  S  S53  1  0.58532041  0.29173590  0.31993756  1
  S  S54  1  0.80301968  0.79175325  0.81995712  1
  S  S55  1  0.41467959  0.70826410  0.68006244  1
  S  S56  1  0.57631791  0.60923000  0.10563363  1
  S  S57  1  0.29116223  0.89080456  0.39435559  1
  S  S58  1  0.42368209  0.39077000  0.89436637  1
  S  S59  1  0.70883777  0.10919544  0.60564441  1
  S  S60  1  0.45229311  0.99075888  0.06536990  1
  S  S61  1  0.50844796  0.50922555  0.43463306  1
  S  S62  1  0.54770689  0.00924112  0.93463010  1
  S  S63  1  0.49155204  0.49077445  0.56536694  1
  Cl  Cl64  1  0.13561401  0.71722742  0.99609886  1
  Cl  Cl65  1  0.84898760  0.78279165  0.50390212  1
  Cl  Cl66  1  0.86438599  0.28277258  0.00390114  1
  Cl  Cl67  1  0.15101240  0.21720835  0.49609788  1
  O  O68  1  0.70345171  0.56896585  0.22315376  1
  O  O69  1  0.49556587  0.93102208  0.27684696  1
  O  O70  1  0.29654829  0.43103415  0.77684624  1
  O  O71  1  0.50443413  0.06897792  0.72315304  1
  O  O72  1  0.28186145  0.69582240  0.20710839  1
  O  O73  1  0.18475289  0.80416279  0.29289706  1
  O  O74  1  0.71813855  0.30417760  0.79289161  1
  O  O75  1  0.81524711  0.19583721  0.70710294  1
  O  O76  1  0.37169251  0.47207106  0.20422563  1
  O  O77  1  0.04796039  0.02795200  0.29577497  1
  O  O78  1  0.62830749  0.52792894  0.79577437  1
  O  O79  1  0.95203961  0.97204800  0.70422503  1
  O  O80  1  0.31967798  0.56405746  0.26686967  1
  O  O81  1  0.15064222  0.93593524  0.23314441  1
  O  O82  1  0.68032202  0.43594254  0.73313033  1
  O  O83  1  0.84935778  0.06406476  0.76685559  1
  O  O84  1  0.43249621  0.18763456  0.20065813  1
  O  O85  1  0.82073499  0.31235115  0.29934842  1
  O  O86  1  0.56750379  0.81236544  0.79934187  1
  O  O87  1  0.17926501  0.68764885  0.70065158  1
  O  O88  1  0.19504163  0.30358991  0.14696246  1
  O  O89  1  0.64562293  0.19638892  0.35304172  1
  O  O90  1  0.80495837  0.69641009  0.85303754  1
  O  O91  1  0.35437707  0.80361108  0.64695828  1
  O  O92  1  0.96983778  0.25089393  0.20750008  1
  O  O93  1  0.42826296  0.24911278  0.29250531  1
  O  O94  1  0.03016222  0.74910607  0.79249992  1
  O  O95  1  0.57173704  0.75088722  0.70749469  1
  O  O96  1  0.17811310  0.08822849  0.16335834  1
  O  O97  1  0.42962444  0.41178635  0.33665155  1
  O  O98  1  0.82188690  0.91177151  0.83664166  1
  O  O99  1  0.57037556  0.58821365  0.66334845  1
  O  O100  1  0.73047170  0.48191119  0.11630361  1
  O  O101  1  0.32867000  0.01806926  0.38369728  1
  O  O102  1  0.26952830  0.51808881  0.88369639  1
  O  O103  1  0.67133000  0.98193074  0.61630272  1
  O  O104  1  0.66730772  0.65559142  0.06713890  1
  O  O105  1  0.39007515  0.84438665  0.43286349  1
  O  O106  1  0.33269228  0.34440858  0.93286110  1
  O  O107  1  0.60992485  0.15561335  0.56713651  1
  O  O108  1  0.30269101  0.61243446  0.10750068  1
  O  O109  1  0.02264145  0.88757623  0.39249615  1
  O  O110  1  0.69730899  0.38756554  0.89249932  1
  O  O111  1  0.97735855  0.11242377  0.60750385  1
  O  O112  1  0.62692309  0.69272053  0.13679482  1
  O  O113  1  0.45650035  0.80727332  0.36320428  1
  O  O114  1  0.37307691  0.30727947  0.86320518  1
  O  O115  1  0.54349965  0.19272668  0.63679572  1
  O  O116  1  0.22456612  0.94947890  0.05733132  1
  O  O117  1  0.23133745  0.55052873  0.44266534  1
  O  O118  1  0.77543388  0.05052110  0.94266868  1
  O  O119  1  0.76866255  0.44947127  0.55733466  1
  O  O120  1  0.67081786  0.93376885  0.03830208  1
  O  O121  1  0.64288425  0.56620288  0.46170090  1
  O  O122  1  0.32918214  0.06623115  0.96169792  1
  O  O123  1  0.35711575  0.43379712  0.53829910  1
  O  O124  1  0.40592333  0.12903887  0.06261512  1
  O  O125  1  0.59758741  0.37097937  0.43738208  1
  O  O126  1  0.59407667  0.87096113  0.93738488  1
  O  O127  1  0.40241259  0.62902063  0.56261792  1
  O  O128  1  0.53084945  0.94587687  0.10690075  1
  O  O129  1  0.58364731  0.55411893  0.39309883  1
  O  O130  1  0.46915055  0.05412313  0.89309925  1
  O  O131  1  0.41635269  0.44588107  0.60690117  1
  O  O132  1  0.09698544  0.86302700  0.14125362  1
  O  O133  1  0.10119430  0.63699677  0.35874176  1
  O  O134  1  0.90301456  0.13697300  0.85874638  1
  O  O135  1  0.89880570  0.36300323  0.64125824  1
  O  O136  1  0.64808571  0.87346976  0.19255542  1
  O  O137  1  0.71408680  0.62650893  0.30745754  1
  O  O138  1  0.35191429  0.12653024  0.80744458  1
  O  O139  1  0.28591320  0.37349107  0.69254246  1
  O  O140  1  0.77249346  0.18963494  0.10953917  1
  O  O141  1  0.07169289  0.31037947  0.39045767  1
  O  O142  1  0.22750654  0.81036506  0.89046083  1
  O  O143  1  0.92830711  0.68962053  0.60954233  1
  O  O144  1  0.27619058  0.42615517  0.03956691  1
  O  O145  1  0.74192342  0.07385501  0.46042621  1
  O  O146  1  0.72380942  0.57384483  0.96043309  1
  O  O147  1  0.25807658  0.92614499  0.53957379  1
