# generated using pymatgen
data_TeC4S4N8(ClO)2
_symmetry_space_group_name_H-M   'P 1'
_cell_length_a   14.46100200
_cell_length_b   7.92050000
_cell_length_c   12.12608533
_cell_angle_alpha   69.00986558
_cell_angle_beta   90.00000000
_cell_angle_gamma   90.00000000
_symmetry_Int_Tables_number   1
_chemical_formula_structural   TeC4S4N8(ClO)2
_chemical_formula_sum   'Te2 C8 S8 N16 Cl4 O4'
_cell_volume   1296.73740961
_cell_formula_units_Z   2
loop_
 _symmetry_equiv_pos_site_id
 _symmetry_equiv_pos_as_xyz
  1  'x, y, z'
loop_
 _atom_site_type_symbol
 _atom_site_label
 _atom_site_symmetry_multiplicity
 _atom_site_fract_x
 _atom_site_fract_y
 _atom_site_fract_z
 _atom_site_occupancy
  Te  Te0  1  0.00000000  0.00000000  0.00000000  1
  Te  Te1  1  0.50000000  0.00000000  0.50000000  1
  C  C2  1  0.21187700  0.95479700  0.12603300  1
  C  C3  1  0.71187700  0.04520300  0.37396700  1
  C  C4  1  0.78812300  0.04520300  0.87396700  1
  C  C5  1  0.28812300  0.95479700  0.62603300  1
  C  C6  1  0.05748700  0.19588800  0.37287300  1
  C  C7  1  0.55748700  0.80411200  0.12712700  1
  C  C8  1  0.94251300  0.80411200  0.62712700  1
  C  C9  1  0.44251300  0.19588800  0.87287300  1
  S  S10  1  0.17195100  0.85632100  0.03700300  1
  S  S11  1  0.67195100  0.14367900  0.46299700  1
  S  S12  1  0.82804900  0.14367900  0.96299700  1
  S  S13  1  0.32804900  0.85632100  0.53700300  1
  S  S14  1  0.99054700  0.71525800  0.19645000  1
  S  S15  1  0.49054700  0.28474200  0.30355000  1
  S  S16  1  0.00945300  0.28474200  0.80355000  1
  S  S17  1  0.50945300  0.71525800  0.69645000  1
  N  N18  1  0.18447400  0.30389400  0.06582900  1
  N  N19  1  0.68447400  0.69610600  0.43417100  1
  N  N20  1  0.81552600  0.69610600  0.93417100  1
  N  N21  1  0.31552600  0.30389400  0.56582900  1
  N  N22  1  0.24027800  0.02929900  0.18842000  1
  N  N23  1  0.74027800  0.97070100  0.31158000  1
  N  N24  1  0.75972200  0.97070100  0.81158000  1
  N  N25  1  0.25972200  0.02929900  0.68842000  1
  N  N26  1  0.11500500  0.10424300  0.44439400  1
  N  N27  1  0.61500500  0.89575700  0.05560600  1
  N  N28  1  0.88499500  0.89575700  0.55560600  1
  N  N29  1  0.38499500  0.10424300  0.94439400  1
  N  N30  1  0.99933200  0.28684400  0.30102900  1
  N  N31  1  0.49933200  0.71315600  0.19897100  1
  N  N32  1  0.00066800  0.71315600  0.69897100  1
  N  N33  1  0.50066800  0.28684400  0.80102900  1
  Cl  Cl34  1  0.35690500  0.34807800  0.26338500  1
  Cl  Cl35  1  0.85690500  0.65192200  0.23661500  1
  Cl  Cl36  1  0.64309500  0.65192200  0.73661500  1
  Cl  Cl37  1  0.14309500  0.34807800  0.76338500  1
  O  O38  1  0.25947600  0.38456400  0.50189200  1
  O  O39  1  0.75947600  0.61543600  0.99810800  1
  O  O40  1  0.74052400  0.61543600  0.49810800  1
  O  O41  1  0.24052400  0.38456400  0.00189200  1
