# generated using pymatgen
data_Ge7N2O15
_symmetry_space_group_name_H-M   'P 1'
_cell_length_a   7.90984286
_cell_length_b   7.90984286
_cell_length_c   15.10986177
_cell_angle_alpha   86.80681657
_cell_angle_beta   86.80681657
_cell_angle_gamma   57.09802856
_symmetry_Int_Tables_number   1
_chemical_formula_structural   Ge7N2O15
_chemical_formula_sum   'Ge14 N4 O30'
_cell_volume   792.12602026
_cell_formula_units_Z   2
loop_
 _symmetry_equiv_pos_site_id
 _symmetry_equiv_pos_as_xyz
  1  'x, y, z'
loop_
 _atom_site_type_symbol
 _atom_site_label
 _atom_site_symmetry_multiplicity
 _atom_site_fract_x
 _atom_site_fract_y
 _atom_site_fract_z
 _atom_site_occupancy
  Ge  Ge0  1  0.28075200  0.23559700  0.16142200  1
  Ge  Ge1  1  0.76440300  0.71924800  0.33857800  1
  Ge  Ge2  1  0.71924800  0.76440300  0.83857800  1
  Ge  Ge3  1  0.23559700  0.28075200  0.66142200  1
  Ge  Ge4  1  0.65920200  0.35668700  0.34723500  1
  Ge  Ge5  1  0.64331300  0.34079800  0.15276500  1
  Ge  Ge6  1  0.34079800  0.64331300  0.65276500  1
  Ge  Ge7  1  0.35668700  0.65920200  0.84723500  1
  Ge  Ge8  1  0.23345700  0.37517500  0.36507300  1
  Ge  Ge9  1  0.62482500  0.76654300  0.13492700  1
  Ge  Ge10  1  0.76654300  0.62482500  0.63492700  1
  Ge  Ge11  1  0.37517500  0.23345700  0.86507300  1
  Ge  Ge12  1  0.00000000  0.50000000  0.00000000  1
  Ge  Ge13  1  0.50000000  0.00000000  0.50000000  1
  N  N14  1  0.32556500  0.84587600  0.49302900  1
  N  N15  1  0.15412400  0.67443500  0.00697100  1
  N  N16  1  0.67443500  0.15412400  0.50697100  1
  N  N17  1  0.84587600  0.32556500  0.99302900  1
  O  O18  1  0.40349000  0.45607900  0.34529800  1
  O  O19  1  0.54392100  0.59651000  0.15470200  1
  O  O20  1  0.59651000  0.54392100  0.65470200  1
  O  O21  1  0.45607900  0.40349000  0.84529800  1
  O  O22  1  0.22852100  0.24103800  0.27694800  1
  O  O23  1  0.75896200  0.77147900  0.22305200  1
  O  O24  1  0.77147900  0.75896200  0.72305200  1
  O  O25  1  0.24103800  0.22852100  0.77694800  1
  O  O26  1  0.78246300  0.21753700  0.25000000  1
  O  O27  1  0.21753700  0.78246300  0.75000000  1
  O  O28  1  0.38425600  0.98944800  0.12722500  1
  O  O29  1  0.01055200  0.61574400  0.37277500  1
  O  O30  1  0.61574400  0.01055200  0.87277500  1
  O  O31  1  0.98944800  0.38425600  0.62722500  1
  O  O32  1  0.27507800  0.24515400  0.46696600  1
  O  O33  1  0.75484600  0.72492200  0.03303400  1
  O  O34  1  0.72492200  0.75484600  0.53303400  1
  O  O35  1  0.24515400  0.27507800  0.96696600  1
  O  O36  1  0.45206000  0.30953200  0.12867500  1
  O  O37  1  0.69046800  0.54794000  0.37132500  1
  O  O38  1  0.54794000  0.69046800  0.87132500  1
  O  O39  1  0.30953200  0.45206000  0.62867500  1
  O  O40  1  0.04559500  0.40842000  0.11611600  1
  O  O41  1  0.59158000  0.95440500  0.38388400  1
  O  O42  1  0.95440500  0.59158000  0.88388400  1
  O  O43  1  0.40842000  0.04559500  0.61611600  1
  O  O44  1  0.78195500  0.16392100  0.44326600  1
  O  O45  1  0.83607900  0.21804500  0.05673400  1
  O  O46  1  0.21804500  0.83607900  0.55673400  1
  O  O47  1  0.16392100  0.78195500  0.94326600  1
