# generated using pymatgen
data_SiH6C4N5F6
_symmetry_space_group_name_H-M   'P 1'
_cell_length_a   7.24656700
_cell_length_b   12.72756100
_cell_length_c   11.27405322
_cell_angle_alpha   90.00000000
_cell_angle_beta   99.67703049
_cell_angle_gamma   90.00000000
_symmetry_Int_Tables_number   1
_chemical_formula_structural   SiH6C4N5F6
_chemical_formula_sum   'Si4 H24 C16 N20 F24'
_cell_volume   1025.02295036
_cell_formula_units_Z   4
loop_
 _symmetry_equiv_pos_site_id
 _symmetry_equiv_pos_as_xyz
  1  'x, y, z'
loop_
 _atom_site_type_symbol
 _atom_site_label
 _atom_site_symmetry_multiplicity
 _atom_site_fract_x
 _atom_site_fract_y
 _atom_site_fract_z
 _atom_site_occupancy
  Si  Si0  1  0.62938800  0.10079100  0.27371600  1
  Si  Si1  1  0.37061200  0.60079100  0.22628400  1
  Si  Si2  1  0.37061200  0.89920900  0.72628400  1
  Si  Si3  1  0.62938800  0.39920900  0.77371600  1
  H  H4  1  0.00270700  0.94691100  0.61264900  1
  H  H5  1  0.99729300  0.44691100  0.88735100  1
  H  H6  1  0.99729300  0.05308900  0.38735100  1
  H  H7  1  0.00270700  0.55308900  0.11264900  1
  H  H8  1  0.60784700  0.09925800  0.55741100  1
  H  H9  1  0.39215300  0.59925800  0.94258900  1
  H  H10  1  0.39215300  0.90074200  0.44258900  1
  H  H11  1  0.60784700  0.40074200  0.05741100  1
  H  H12  1  0.65803900  0.18453200  0.68573800  1
  H  H13  1  0.34196100  0.68453200  0.81426200  1
  H  H14  1  0.34196100  0.81546800  0.31426200  1
  H  H15  1  0.65803900  0.31546800  0.18573800  1
  H  H16  1  0.11433400  0.06467300  0.76285500  1
  H  H17  1  0.88566600  0.56467300  0.73714500  1
  H  H18  1  0.88566600  0.93532700  0.23714500  1
  H  H19  1  0.11433400  0.43532700  0.26285500  1
  H  H20  1  0.76531500  0.12392200  0.00807100  1
  H  H21  1  0.23468500  0.62392200  0.49192900  1
  H  H22  1  0.23468500  0.87607800  0.99192900  1
  H  H23  1  0.76531500  0.37607800  0.50807100  1
  H  H24  1  0.67312900  0.05217100  0.87561900  1
  H  H25  1  0.32687100  0.55217100  0.62438100  1
  H  H26  1  0.32687100  0.94782900  0.12438100  1
  H  H27  1  0.67312900  0.44782900  0.37561900  1
  C  C28  1  0.84256500  0.05844000  0.66827700  1
  C  C29  1  0.15743500  0.55844000  0.83172300  1
  C  C30  1  0.15743500  0.94156000  0.33172300  1
  C  C31  1  0.84256500  0.44156000  0.16827700  1
  C  C32  1  0.93571900  0.11069000  0.88093800  1
  C  C33  1  0.06428100  0.61069000  0.61906200  1
  C  C34  1  0.06428100  0.88931000  0.11906200  1
  C  C35  1  0.93571900  0.38931000  0.38093800  1
  C  C36  1  0.27223200  0.18328300  0.97764500  1
  C  C37  1  0.72776800  0.68328300  0.52235500  1
  C  C38  1  0.72776800  0.81671700  0.02235500  1
  C  C39  1  0.27223200  0.31671700  0.47764500  1
  C  C40  1  0.13135700  0.22223000  0.05544800  1
  C  C41  1  0.86864300  0.72223000  0.44455200  1
  C  C42  1  0.86864300  0.77777000  0.94455200  1
  C  C43  1  0.13135700  0.27777000  0.55544800  1
  N  N44  1  0.87077700  0.98197200  0.59329700  1
  N  N45  1  0.12922300  0.48197200  0.90670300  1
  N  N46  1  0.12922300  0.01802800  0.40670300  1
  N  N47  1  0.87077700  0.51802800  0.09329700  1
  N  N48  1  0.69237200  0.11798500  0.63853600  1
  N  N49  1  0.30762800  0.61798500  0.86146400  1
  N  N50  1  0.30762800  0.88201500  0.36146400  1
  N  N51  1  0.69237200  0.38201500  0.13853600  1
  N  N52  1  0.97318800  0.07947400  0.77370900  1
  N  N53  1  0.02681200  0.57947400  0.72629100  1
  N  N54  1  0.02681200  0.92052600  0.22629100  1
  N  N55  1  0.97318800  0.42052600  0.27370900  1
  N  N56  1  0.78029300  0.09920400  0.92177900  1
  N  N57  1  0.21970700  0.59920400  0.57822100  1
  N  N58  1  0.21970700  0.90079600  0.07822100  1
  N  N59  1  0.78029300  0.40079600  0.42177900  1
  N  N60  1  0.08754300  0.15995800  0.95783800  1
  N  N61  1  0.91245700  0.65995800  0.54216200  1
  N  N62  1  0.91245700  0.84004200  0.04216200  1
  N  N63  1  0.08754300  0.34004200  0.45783800  1
  F  F64  1  0.53124000  0.09084800  0.39929600  1
  F  F65  1  0.46876000  0.59084800  0.10070400  1
  F  F66  1  0.46876000  0.90915200  0.60070400  1
  F  F67  1  0.53124000  0.40915200  0.89929600  1
  F  F68  1  0.55268300  0.22655700  0.24824100  1
  F  F69  1  0.44731700  0.72655700  0.25175900  1
  F  F70  1  0.44731700  0.77344300  0.75175900  1
  F  F71  1  0.55268300  0.27344300  0.74824100  1
  F  F72  1  0.73610300  0.10709400  0.14708100  1
  F  F73  1  0.26389700  0.60709400  0.35291900  1
  F  F74  1  0.26389700  0.89290600  0.85291900  1
  F  F75  1  0.73610300  0.39290600  0.64708100  1
  F  F76  1  0.71331900  0.97296500  0.29348000  1
  F  F77  1  0.28668100  0.47296500  0.20652000  1
  F  F78  1  0.28668100  0.02703500  0.70652000  1
  F  F79  1  0.71331900  0.52703500  0.79348000  1
  F  F80  1  0.83368000  0.14785600  0.35791900  1
  F  F81  1  0.16632000  0.64785600  0.14208100  1
  F  F82  1  0.16632000  0.85214400  0.64208100  1
  F  F83  1  0.83368000  0.35214400  0.85791900  1
  F  F84  1  0.42720200  0.05329000  0.18730800  1
  F  F85  1  0.57279800  0.55329000  0.31269200  1
  F  F86  1  0.57279800  0.94671000  0.81269200  1
  F  F87  1  0.42720200  0.44671000  0.68730800  1
