# generated using pymatgen
data_PrH10N(ClO4)2
_symmetry_space_group_name_H-M   'P 1'
_cell_length_a   12.15535700
_cell_length_b   6.60356900
_cell_length_c   12.72304900
_cell_angle_alpha   90.00000000
_cell_angle_beta   92.99220342
_cell_angle_gamma   90.00000000
_symmetry_Int_Tables_number   1
_chemical_formula_structural   PrH10N(ClO4)2
_chemical_formula_sum   'Pr4 H40 N4 Cl8 O32'
_cell_volume   1019.87075371
_cell_formula_units_Z   4
loop_
 _symmetry_equiv_pos_site_id
 _symmetry_equiv_pos_as_xyz
  1  'x, y, z'
loop_
 _atom_site_type_symbol
 _atom_site_label
 _atom_site_symmetry_multiplicity
 _atom_site_fract_x
 _atom_site_fract_y
 _atom_site_fract_z
 _atom_site_occupancy
  Pr  Pr0  1  0.50000000  0.71830300  0.25000000  1
  Pr  Pr1  1  0.50000000  0.28169700  0.75000000  1
  Pr  Pr2  1  0.00000000  0.25637100  0.25000000  1
  Pr  Pr3  1  0.00000000  0.74362900  0.75000000  1
  H  H4  1  0.54613100  0.09945300  0.10278300  1
  H  H5  1  0.45386900  0.09945300  0.39721700  1
  H  H6  1  0.45386900  0.90054700  0.89721700  1
  H  H7  1  0.54613100  0.90054700  0.60278300  1
  H  H8  1  0.58792800  0.15434400  0.21774700  1
  H  H9  1  0.41207200  0.15434400  0.28225300  1
  H  H10  1  0.41207200  0.84565600  0.78225300  1
  H  H11  1  0.58792800  0.84565600  0.71774700  1
  H  H12  1  0.71458700  0.58408800  0.12650100  1
  H  H13  1  0.28541300  0.58408800  0.37349900  1
  H  H14  1  0.28541300  0.41591200  0.87349900  1
  H  H15  1  0.71458700  0.41591200  0.62650100  1
  H  H16  1  0.62014800  0.59947500  0.03741200  1
  H  H17  1  0.37985200  0.59947500  0.46258800  1
  H  H18  1  0.37985200  0.40052500  0.96258800  1
  H  H19  1  0.62014800  0.40052500  0.53741200  1
  H  H20  1  0.21802600  0.36444200  0.13798500  1
  H  H21  1  0.78197400  0.36444200  0.36201500  1
  H  H22  1  0.78197400  0.63555800  0.86201500  1
  H  H23  1  0.21802600  0.63555800  0.63798500  1
  H  H24  1  0.12195100  0.40500400  0.05069600  1
  H  H25  1  0.87804900  0.40500400  0.44930400  1
  H  H26  1  0.87804900  0.59499600  0.94930400  1
  H  H27  1  0.12195100  0.59499600  0.55069600  1
  H  H28  1  0.98838700  0.84869500  0.12790300  1
  H  H29  1  0.01161300  0.84869500  0.37209700  1
  H  H30  1  0.01161300  0.15130500  0.87209700  1
  H  H31  1  0.98838700  0.15130500  0.62790300  1
  H  H32  1  0.10189800  0.94419000  0.09298500  1
  H  H33  1  0.89810200  0.94419000  0.40701500  1
  H  H34  1  0.89810200  0.05581000  0.90701500  1
  H  H35  1  0.10189800  0.05581000  0.59298500  1
  H  H36  1  0.78079800  0.99978900  0.23089700  1
  H  H37  1  0.21920200  0.99978900  0.26910300  1
  H  H38  1  0.21920200  0.00021100  0.76910300  1
  H  H39  1  0.78079800  0.00021100  0.73089700  1
  H  H40  1  0.78046300  0.10843200  0.12050700  1
  H  H41  1  0.21953700  0.10843200  0.37949300  1
  H  H42  1  0.21953700  0.89156800  0.87949300  1
  H  H43  1  0.78046300  0.89156800  0.62050700  1
  N  N44  1  0.31358200  0.85044200  0.08742700  1
  N  N45  1  0.68641800  0.85044200  0.41257300  1
  N  N46  1  0.68641800  0.14955800  0.91257300  1
  N  N47  1  0.31358200  0.14955800  0.58742700  1
  Cl  Cl48  1  0.39088700  0.37484600  0.14779000  1
  Cl  Cl49  1  0.60911300  0.37484600  0.35221000  1
  Cl  Cl50  1  0.60911300  0.62515400  0.85221000  1
  Cl  Cl51  1  0.39088700  0.62515400  0.64779000  1
  Cl  Cl52  1  0.89321300  0.56181800  0.11765600  1
  Cl  Cl53  1  0.10678700  0.56181800  0.38234400  1
  Cl  Cl54  1  0.10678700  0.43818200  0.88234400  1
  Cl  Cl55  1  0.89321300  0.43818200  0.61765600  1
  O  O56  1  0.40950300  0.81898200  0.05580500  1
  O  O57  1  0.59049700  0.81898200  0.44419500  1
  O  O58  1  0.59049700  0.18101800  0.94419500  1
  O  O59  1  0.40950300  0.18101800  0.55580500  1
  O  O60  1  0.23383000  0.89794700  0.02586900  1
  O  O61  1  0.76617000  0.89794700  0.47413100  1
  O  O62  1  0.76617000  0.10205300  0.97413100  1
  O  O63  1  0.23383000  0.10205300  0.52586900  1
  O  O64  1  0.30022700  0.82990300  0.18584600  1
  O  O65  1  0.69977300  0.82990300  0.31415400  1
  O  O66  1  0.69977300  0.17009700  0.81415400  1
  O  O67  1  0.30022700  0.17009700  0.68584600  1
  O  O68  1  0.57646300  0.03938500  0.16852000  1
  O  O69  1  0.42353700  0.03938500  0.33148000  1
  O  O70  1  0.42353700  0.96061500  0.83148000  1
  O  O71  1  0.57646300  0.96061500  0.66852000  1
  O  O72  1  0.63376500  0.59583300  0.11454300  1
  O  O73  1  0.36623500  0.59583300  0.38545700  1
  O  O74  1  0.36623500  0.40416700  0.88545700  1
  O  O75  1  0.63376500  0.40416700  0.61454300  1
  O  O76  1  0.13682500  0.36964000  0.12555400  1
  O  O77  1  0.86317500  0.36964000  0.37444600  1
  O  O78  1  0.86317500  0.63036000  0.87444600  1
  O  O79  1  0.13682500  0.63036000  0.62555400  1
  O  O80  1  0.03366000  0.97255200  0.12943500  1
  O  O81  1  0.96634000  0.97255200  0.37056500  1
  O  O82  1  0.96634000  0.02744800  0.87056500  1
  O  O83  1  0.03366000  0.02744800  0.62943500  1
  O  O84  1  0.81992600  0.10067700  0.19015000  1
  O  O85  1  0.18007400  0.10067700  0.30985000  1
  O  O86  1  0.18007400  0.89932300  0.80985000  1
  O  O87  1  0.81992600  0.89932300  0.69015000  1
