# generated using pymatgen
data_H12C2S(N5O4)2
_symmetry_space_group_name_H-M   'P 1'
_cell_length_a   6.64402205
_cell_length_b   6.64402205
_cell_length_c   16.04631564
_cell_angle_alpha   96.08094310
_cell_angle_beta   96.08094310
_cell_angle_gamma   119.22956240
_symmetry_Int_Tables_number   1
_chemical_formula_structural   H12C2S(N5O4)2
_chemical_formula_sum   'H24 C4 S2 N20 O16'
_cell_volume   604.43265373
_cell_formula_units_Z   2
loop_
 _symmetry_equiv_pos_site_id
 _symmetry_equiv_pos_as_xyz
  1  'x, y, z'
loop_
 _atom_site_type_symbol
 _atom_site_label
 _atom_site_symmetry_multiplicity
 _atom_site_fract_x
 _atom_site_fract_y
 _atom_site_fract_z
 _atom_site_occupancy
  H  H0  1  0.66710400  0.44686700  0.53224800  1
  H  H1  1  0.91461900  0.13485700  0.46775200  1
  H  H2  1  0.69686700  0.41710400  0.03224800  1
  H  H3  1  0.38485700  0.66461900  0.96775200  1
  H  H4  1  0.43805200  0.17679700  0.54330600  1
  H  H5  1  0.63349100  0.89474600  0.45669400  1
  H  H6  1  0.42679700  0.18805200  0.04330600  1
  H  H7  1  0.14474600  0.38349100  0.95669400  1
  H  H8  1  0.48359500  0.27063900  0.67935300  1
  H  H9  1  0.59128600  0.80424200  0.32064700  1
  H  H10  1  0.52063900  0.23359500  0.17935300  1
  H  H11  1  0.05424200  0.34128600  0.82064700  1
  H  H12  1  0.64759200  0.53032800  0.80971300  1
  H  H13  1  0.72061500  0.83787900  0.19028700  1
  H  H14  1  0.78032800  0.39759200  0.30971300  1
  H  H15  1  0.08787900  0.47061500  0.69028700  1
  H  H16  1  0.77398800  0.83434500  0.81005700  1
  H  H17  1  0.02428800  0.96393000  0.18994300  1
  H  H18  1  0.08434500  0.52398800  0.31005700  1
  H  H19  1  0.21393000  0.77428800  0.68994300  1
  H  H20  1  0.39688400  0.41774500  0.53971300  1
  H  H21  1  0.87803200  0.85717000  0.46028700  1
  H  H22  1  0.66774500  0.14688400  0.03971300  1
  H  H23  1  0.10717000  0.62803200  0.96028700  1
  C  C24  1  0.67043400  0.63334400  0.69236600  1
  C  C25  1  0.94097800  0.97806700  0.30763400  1
  C  C26  1  0.88334400  0.42043400  0.19236600  1
  C  C27  1  0.22806700  0.69097800  0.80763400  1
  S  S28  1  0.20359500  0.70359500  0.50000000  1
  S  S29  1  0.95359500  0.95359500  0.00000000  1
  N  N30  1  0.51838500  0.36283300  0.55949700  1
  N  N31  1  0.80333600  0.95888800  0.44050300  1
  N  N32  1  0.61283300  0.26838500  0.05949700  1
  N  N33  1  0.20888800  0.55333600  0.94050300  1
  N  N34  1  0.57874600  0.41003900  0.64973900  1
  N  N35  1  0.76030100  0.92900800  0.35026100  1
  N  N36  1  0.66003900  0.32874600  0.14973900  1
  N  N37  1  0.17900800  0.51030100  0.85026100  1
  N  N38  1  0.73670900  0.79320600  0.63987700  1
  N  N39  1  0.15332900  0.09683200  0.36012300  1
  N  N40  1  0.04320600  0.48670900  0.13987700  1
  N  N41  1  0.34683200  0.90332900  0.86012300  1
  N  N42  1  0.69697800  0.66700200  0.77658700  1
  N  N43  1  0.89041500  0.92039100  0.22341300  1
  N  N44  1  0.91700200  0.44697800  0.27658700  1
  N  N45  1  0.17039100  0.64041500  0.72341300  1
  N  N46  1  0.82113200  0.01746300  0.67177800  1
  N  N47  1  0.34568500  0.14935400  0.32822200  1
  N  N48  1  0.26746300  0.57113200  0.17177800  1
  N  N49  1  0.39935400  0.09568500  0.82822200  1
  O  O50  1  0.81459000  0.08941900  0.74755100  1
  O  O51  1  0.34186800  0.06703900  0.25244900  1
  O  O52  1  0.33941900  0.56459000  0.24755100  1
  O  O53  1  0.31703900  0.09186800  0.75244900  1
  O  O54  1  0.18542900  0.48979400  0.52914400  1
  O  O55  1  0.96065000  0.65628500  0.47085600  1
  O  O56  1  0.73979400  0.93542900  0.02914400  1
  O  O57  1  0.90628500  0.71065000  0.97085600  1
  O  O58  1  0.33824200  0.75737900  0.42837300  1
  O  O59  1  0.32900600  0.90986900  0.57162700  1
  O  O60  1  0.00737900  0.08824200  0.92837300  1
  O  O61  1  0.15986900  0.07900600  0.07162700  1
  O  O62  1  0.90560800  0.15930100  0.62198200  1
  O  O63  1  0.53731900  0.28362600  0.37801800  1
  O  O64  1  0.40930100  0.65560800  0.12198200  1
  O  O65  1  0.53362600  0.28731900  0.87801800  1
