# generated using pymatgen
data_K2FeCl5O
_symmetry_space_group_name_H-M   'P 1'
_cell_length_a   7.06303400
_cell_length_b   9.56822800
_cell_length_c   13.72414000
_cell_angle_alpha   90.00000000
_cell_angle_beta   90.00000000
_cell_angle_gamma   90.00000000
_symmetry_Int_Tables_number   1
_chemical_formula_structural   K2FeCl5O
_chemical_formula_sum   'K8 Fe4 Cl20 O4'
_cell_volume   927.48725824
_cell_formula_units_Z   4
loop_
 _symmetry_equiv_pos_site_id
 _symmetry_equiv_pos_as_xyz
  1  'x, y, z'
loop_
 _atom_site_type_symbol
 _atom_site_label
 _atom_site_symmetry_multiplicity
 _atom_site_fract_x
 _atom_site_fract_y
 _atom_site_fract_z
 _atom_site_occupancy
  K  K0  1  0.81918300  0.99966600  0.13582500  1
  K  K1  1  0.68081700  0.50033400  0.63582500  1
  K  K2  1  0.18081700  0.49966600  0.86417500  1
  K  K3  1  0.31918300  0.00033400  0.36417500  1
  K  K4  1  0.18081700  0.00033400  0.86417500  1
  K  K5  1  0.31918300  0.49966600  0.36417500  1
  K  K6  1  0.81918300  0.50033400  0.13582500  1
  K  K7  1  0.68081700  0.99966600  0.63582500  1
  Fe  Fe8  1  0.80104700  0.75000000  0.38609300  1
  Fe  Fe9  1  0.69895300  0.75000000  0.88609300  1
  Fe  Fe10  1  0.19895300  0.25000000  0.61390700  1
  Fe  Fe11  1  0.30104700  0.25000000  0.11390700  1
  Cl  Cl12  1  0.52397300  0.75000000  0.49232100  1
  Cl  Cl13  1  0.97602700  0.75000000  0.99232100  1
  Cl  Cl14  1  0.47602700  0.25000000  0.50767900  1
  Cl  Cl15  1  0.02397300  0.25000000  0.00767900  1
  Cl  Cl16  1  0.59495700  0.75000000  0.25589800  1
  Cl  Cl17  1  0.90504300  0.75000000  0.75589800  1
  Cl  Cl18  1  0.40504300  0.25000000  0.74410200  1
  Cl  Cl19  1  0.09495700  0.25000000  0.24410200  1
  Cl  Cl20  1  0.05994300  0.75000000  0.26913000  1
  Cl  Cl21  1  0.44005700  0.75000000  0.76913000  1
  Cl  Cl22  1  0.94005700  0.25000000  0.73087000  1
  Cl  Cl23  1  0.55994300  0.25000000  0.23087000  1
  Cl  Cl24  1  0.82234400  0.99292700  0.39988500  1
  Cl  Cl25  1  0.67765600  0.50707300  0.89988500  1
  Cl  Cl26  1  0.17765600  0.49292700  0.60011500  1
  Cl  Cl27  1  0.32234400  0.00707300  0.10011500  1
  Cl  Cl28  1  0.17765600  0.00707300  0.60011500  1
  Cl  Cl29  1  0.32234400  0.49292700  0.10011500  1
  Cl  Cl30  1  0.82234400  0.50707300  0.39988500  1
  Cl  Cl31  1  0.67765600  0.99292700  0.89988500  1
  O  O32  1  0.95777400  0.75000000  0.48725600  1
  O  O33  1  0.54222600  0.75000000  0.98725600  1
  O  O34  1  0.04222600  0.25000000  0.51274400  1
  O  O35  1  0.45777400  0.25000000  0.01274400  1
