# generated using pymatgen
data_Fe(TeO3)2
_symmetry_space_group_name_H-M   'P 1'
_cell_length_a   11.23293062
_cell_length_b   11.23293062
_cell_length_c   11.23293062
_cell_angle_alpha   96.85706628
_cell_angle_beta   116.12325050
_cell_angle_gamma   116.12325050
_symmetry_Int_Tables_number   1
_chemical_formula_structural   Fe(TeO3)2
_chemical_formula_sum   'Fe8 Te16 O48'
_cell_volume   1052.78059314
_cell_formula_units_Z   8
loop_
 _symmetry_equiv_pos_site_id
 _symmetry_equiv_pos_as_xyz
  1  'x, y, z'
loop_
 _atom_site_type_symbol
 _atom_site_label
 _atom_site_symmetry_multiplicity
 _atom_site_fract_x
 _atom_site_fract_y
 _atom_site_fract_z
 _atom_site_occupancy
  Fe  Fe0  1  0.75000000  0.97939600  0.72939600  1
  Fe  Fe1  1  0.75000000  0.47939600  0.22939600  1
  Fe  Fe2  1  0.25000000  0.22939600  0.47939600  1
  Fe  Fe3  1  0.25000000  0.72939600  0.97939600  1
  Fe  Fe4  1  0.25000000  0.02060400  0.27060400  1
  Fe  Fe5  1  0.25000000  0.52060400  0.77060400  1
  Fe  Fe6  1  0.75000000  0.77060400  0.52060400  1
  Fe  Fe7  1  0.75000000  0.27060400  0.02060400  1
  Te  Te8  1  0.35674100  0.76494100  0.31564500  1
  Te  Te9  1  0.55070400  0.45890300  0.81564500  1
  Te  Te10  1  0.85674100  0.81564500  0.26494100  1
  Te  Te11  1  0.44929600  0.90820000  0.76494100  1
  Te  Te12  1  0.64325900  0.23505900  0.68435500  1
  Te  Te13  1  0.44929600  0.54109700  0.18435500  1
  Te  Te14  1  0.14325900  0.18435500  0.73505900  1
  Te  Te15  1  0.55070400  0.09180000  0.23505900  1
  Te  Te16  1  0.94929600  0.26494100  0.40820000  1
  Te  Te17  1  0.14325900  0.95890300  0.90820000  1
  Te  Te18  1  0.05070400  0.31564500  0.95890300  1
  Te  Te19  1  0.64325900  0.40820000  0.45890300  1
  Te  Te20  1  0.05070400  0.73505900  0.59180000  1
  Te  Te21  1  0.85674100  0.04109700  0.09180000  1
  Te  Te22  1  0.94929600  0.68435500  0.04109700  1
  Te  Te23  1  0.35674100  0.59180000  0.54109700  1
  O  O24  1  0.88056600  0.44028300  0.19028300  1
  O  O25  1  0.75000000  0.80971700  0.69028300  1
  O  O26  1  0.38056600  0.69028300  0.94028300  1
  O  O27  1  0.25000000  0.05971700  0.44028300  1
  O  O28  1  0.11943400  0.55971700  0.80971700  1
  O  O29  1  0.25000000  0.19028300  0.30971700  1
  O  O30  1  0.61943400  0.30971700  0.05971700  1
  O  O31  1  0.75000000  0.94028300  0.55971700  1
  O  O32  1  0.23197100  0.61598600  0.36598600  1
  O  O33  1  0.75000000  0.63401400  0.86598600  1
  O  O34  1  0.73197100  0.86598600  0.11598600  1
  O  O35  1  0.25000000  0.88401400  0.61598600  1
  O  O36  1  0.76802900  0.38401400  0.63401400  1
  O  O37  1  0.25000000  0.36598600  0.13401400  1
  O  O38  1  0.26802900  0.13401400  0.88401400  1
  O  O39  1  0.75000000  0.11598600  0.38401400  1
  O  O40  1  0.24152900  0.62603900  0.12336900  1
  O  O41  1  0.49733000  0.38184000  0.62336900  1
  O  O42  1  0.74152900  0.62336900  0.12603900  1
  O  O43  1  0.50267000  0.88451000  0.62603900  1
  O  O44  1  0.75847100  0.37396100  0.87663100  1
  O  O45  1  0.50267000  0.61816000  0.37663100  1
  O  O46  1  0.25847100  0.37663100  0.87396100  1
  O  O47  1  0.49733000  0.11549000  0.37396100  1
  O  O48  1  0.00267000  0.12603900  0.38451000  1
  O  O49  1  0.25847100  0.88184000  0.88451000  1
  O  O50  1  0.99733000  0.12336900  0.88184000  1
  O  O51  1  0.75847100  0.38451000  0.38184000  1
  O  O52  1  0.99733000  0.87396100  0.61549000  1
  O  O53  1  0.74152900  0.11816000  0.11549000  1
  O  O54  1  0.00267000  0.87663100  0.11816000  1
  O  O55  1  0.24152900  0.61549000  0.61816000  1
  O  O56  1  0.43532200  0.88496900  0.17188300  1
  O  O57  1  0.28691300  0.23656000  0.67188300  1
  O  O58  1  0.93532200  0.67188300  0.38496900  1
  O  O59  1  0.71308700  0.94964700  0.88496900  1
  O  O60  1  0.56467800  0.11503100  0.82811700  1
  O  O61  1  0.71308700  0.76344000  0.32811700  1
  O  O62  1  0.06467800  0.32811700  0.61503100  1
  O  O63  1  0.28691300  0.05035300  0.11503100  1
  O  O64  1  0.21308700  0.38496900  0.44964700  1
  O  O65  1  0.06467800  0.73656000  0.94964700  1
  O  O66  1  0.78691300  0.17188300  0.73656000  1
  O  O67  1  0.56467800  0.44964700  0.23656000  1
  O  O68  1  0.78691300  0.61503100  0.55035300  1
  O  O69  1  0.93532200  0.26344000  0.05035300  1
  O  O70  1  0.21308700  0.82811700  0.26344000  1
  O  O71  1  0.43532200  0.55035300  0.76344000  1
