# generated using pymatgen
data_SrCo2BPO7
_symmetry_space_group_name_H-M   'P 1'
_cell_length_a   9.08570700
_cell_length_b   6.52962000
_cell_length_c   10.16142461
_cell_angle_alpha   68.87099568
_cell_angle_beta   90.00000000
_cell_angle_gamma   90.00000000
_symmetry_Int_Tables_number   1
_chemical_formula_structural   SrCo2BPO7
_chemical_formula_sum   'Sr4 Co8 B4 P4 O28'
_cell_volume   562.31070628
_cell_formula_units_Z   4
loop_
 _symmetry_equiv_pos_site_id
 _symmetry_equiv_pos_as_xyz
  1  'x, y, z'
loop_
 _atom_site_type_symbol
 _atom_site_label
 _atom_site_symmetry_multiplicity
 _atom_site_fract_x
 _atom_site_fract_y
 _atom_site_fract_z
 _atom_site_occupancy
  Sr  Sr0  1  0.70303600  0.16454700  0.48597300  1
  Sr  Sr1  1  0.20303600  0.83545300  0.01402700  1
  Sr  Sr2  1  0.29696400  0.83545300  0.51402700  1
  Sr  Sr3  1  0.79696400  0.16454700  0.98597300  1
  Co  Co4  1  0.82161600  0.70829800  0.85540600  1
  Co  Co5  1  0.32161600  0.29170200  0.64459400  1
  Co  Co6  1  0.17838400  0.29170200  0.14459400  1
  Co  Co7  1  0.67838400  0.70829800  0.35540600  1
  Co  Co8  1  0.05363700  0.43033500  0.37930300  1
  Co  Co9  1  0.55363700  0.56966500  0.12069700  1
  Co  Co10  1  0.94636300  0.56966500  0.62069700  1
  Co  Co11  1  0.44636300  0.43033500  0.87930300  1
  B  B12  1  0.62267500  0.53582200  0.67016200  1
  B  B13  1  0.12267500  0.46417800  0.82983800  1
  B  B14  1  0.37732500  0.46417800  0.32983800  1
  B  B15  1  0.87732500  0.53582200  0.17016200  1
  P  P16  1  0.00899000  0.04125800  0.69137700  1
  P  P17  1  0.50899000  0.95874200  0.80862300  1
  P  P18  1  0.99101000  0.95874200  0.30862300  1
  P  P19  1  0.49101000  0.04125800  0.19137700  1
  O  O20  1  0.95500800  0.27113300  0.59064600  1
  O  O21  1  0.45500800  0.72886700  0.90935400  1
  O  O22  1  0.04499200  0.72886700  0.40935400  1
  O  O23  1  0.54499200  0.27113300  0.09064600  1
  O  O24  1  0.97703800  0.98971000  0.85069400  1
  O  O25  1  0.47703800  0.01029000  0.64930600  1
  O  O26  1  0.02296200  0.01029000  0.14930600  1
  O  O27  1  0.52296200  0.98971000  0.35069400  1
  O  O28  1  0.91257500  0.87629700  0.64752500  1
  O  O29  1  0.41257500  0.12370300  0.85247500  1
  O  O30  1  0.08742500  0.12370300  0.35247500  1
  O  O31  1  0.58742500  0.87629700  0.14752500  1
  O  O32  1  0.66413300  0.49646400  0.80915400  1
  O  O33  1  0.16413300  0.50353600  0.69084600  1
  O  O34  1  0.33586700  0.50353600  0.19084600  1
  O  O35  1  0.83586700  0.49646400  0.30915400  1
  O  O36  1  0.97217400  0.46917100  0.85328100  1
  O  O37  1  0.47217400  0.53082900  0.64671900  1
  O  O38  1  0.02782600  0.53082900  0.14671900  1
  O  O39  1  0.52782600  0.46917100  0.35328100  1
  O  O40  1  0.17624000  0.01575100  0.67455900  1
  O  O41  1  0.67624000  0.98424900  0.82544100  1
  O  O42  1  0.82376000  0.98424900  0.32544100  1
  O  O43  1  0.32376000  0.01575100  0.17455900  1
  O  O44  1  0.77326800  0.57693500  0.06504100  1
  O  O45  1  0.27326800  0.42306500  0.43495900  1
  O  O46  1  0.22673200  0.42306500  0.93495900  1
  O  O47  1  0.72673200  0.57693500  0.56504100  1
