# generated using pymatgen
data_Zn2Fe(PO6)2
_symmetry_space_group_name_H-M   'P 1'
_cell_length_a   5.18208300
_cell_length_b   10.02103000
_cell_length_c   10.54944550
_cell_angle_alpha   58.30569102
_cell_angle_beta   90.00000000
_cell_angle_gamma   90.00000000
_symmetry_Int_Tables_number   1
_chemical_formula_structural   Zn2Fe(PO6)2
_chemical_formula_sum   'Zn4 Fe2 P4 O24'
_cell_volume   466.12902988
_cell_formula_units_Z   2
loop_
 _symmetry_equiv_pos_site_id
 _symmetry_equiv_pos_as_xyz
  1  'x, y, z'
loop_
 _atom_site_type_symbol
 _atom_site_label
 _atom_site_symmetry_multiplicity
 _atom_site_fract_x
 _atom_site_fract_y
 _atom_site_fract_z
 _atom_site_occupancy
  Zn  Zn0  1  0.75968600  0.49841200  0.14188700  1
  Zn  Zn1  1  0.25968600  0.50158800  0.35811300  1
  Zn  Zn2  1  0.24031400  0.50158800  0.85811300  1
  Zn  Zn3  1  0.74031400  0.49841200  0.64188700  1
  Fe  Fe4  1  0.00000000  0.00000000  0.00000000  1
  Fe  Fe5  1  0.50000000  0.00000000  0.50000000  1
  P  P6  1  0.22748700  0.70076200  0.00033300  1
  P  P7  1  0.72748700  0.29923800  0.49966700  1
  P  P8  1  0.77251300  0.29923800  0.99966700  1
  P  P9  1  0.27251300  0.70076200  0.50033300  1
  O  O10  1  0.31492300  0.87806700  0.43761800  1
  O  O11  1  0.81492300  0.12193300  0.06238200  1
  O  O12  1  0.68507700  0.12193300  0.56238200  1
  O  O13  1  0.18507700  0.87806700  0.93761800  1
  O  O14  1  0.51628300  0.66217400  0.01859200  1
  O  O15  1  0.01628300  0.33782600  0.48140800  1
  O  O16  1  0.48371700  0.33782600  0.98140800  1
  O  O17  1  0.98371700  0.66217400  0.51859200  1
  O  O18  1  0.39732300  0.66006000  0.39242200  1
  O  O19  1  0.89732300  0.33994000  0.10757800  1
  O  O20  1  0.60267700  0.33994000  0.60757800  1
  O  O21  1  0.10267700  0.66006000  0.89242200  1
  O  O22  1  0.08515100  0.60180700  0.15685300  1
  O  O23  1  0.58515100  0.39819300  0.34314700  1
  O  O24  1  0.91484900  0.39819300  0.84314700  1
  O  O25  1  0.41484900  0.60180700  0.65685300  1
  O  O26  1  0.29239400  0.01527200  0.08289500  1
  O  O27  1  0.79239400  0.98472800  0.41710500  1
  O  O28  1  0.70760600  0.98472800  0.91710500  1
  O  O29  1  0.20760600  0.01527200  0.58289500  1
  O  O30  1  0.82772600  0.83459900  0.15020300  1
  O  O31  1  0.32772600  0.16540100  0.34979700  1
  O  O32  1  0.17227400  0.16540100  0.84979700  1
  O  O33  1  0.67227400  0.83459900  0.65020300  1
