# generated using pymatgen
data_MnH4S(NO2)2
_symmetry_space_group_name_H-M   'P 1'
_cell_length_a   6.69879600
_cell_length_b   7.99779200
_cell_length_c   9.18976400
_cell_angle_alpha   90.00000000
_cell_angle_beta   90.00000000
_cell_angle_gamma   90.00000000
_symmetry_Int_Tables_number   1
_chemical_formula_structural   MnH4S(NO2)2
_chemical_formula_sum   'Mn4 H16 S4 N8 O16'
_cell_volume   492.34690933
_cell_formula_units_Z   4
loop_
 _symmetry_equiv_pos_site_id
 _symmetry_equiv_pos_as_xyz
  1  'x, y, z'
loop_
 _atom_site_type_symbol
 _atom_site_label
 _atom_site_symmetry_multiplicity
 _atom_site_fract_x
 _atom_site_fract_y
 _atom_site_fract_z
 _atom_site_occupancy
  Mn  Mn0  1  0.00000000  0.50000000  0.50000000  1
  Mn  Mn1  1  0.50000000  0.00000000  0.50000000  1
  Mn  Mn2  1  0.50000000  0.50000000  0.00000000  1
  Mn  Mn3  1  0.00000000  0.00000000  0.00000000  1
  H  H4  1  0.30376700  0.37605900  0.67645700  1
  H  H5  1  0.19623300  0.12394100  0.67645700  1
  H  H6  1  0.80376700  0.62394100  0.82354300  1
  H  H7  1  0.69623300  0.87605900  0.82354300  1
  H  H8  1  0.69623300  0.62394100  0.32354300  1
  H  H9  1  0.80376700  0.87605900  0.32354300  1
  H  H10  1  0.19623300  0.37605900  0.17645700  1
  H  H11  1  0.30376700  0.12394100  0.17645700  1
  H  H12  1  0.38087600  0.36611400  0.50691600  1
  H  H13  1  0.11912400  0.13388600  0.50691600  1
  H  H14  1  0.88087600  0.63388600  0.99308400  1
  H  H15  1  0.61912400  0.86611400  0.99308400  1
  H  H16  1  0.61912400  0.63388600  0.49308400  1
  H  H17  1  0.88087600  0.86611400  0.49308400  1
  H  H18  1  0.11912400  0.36611400  0.00691600  1
  H  H19  1  0.38087600  0.13388600  0.00691600  1
  S  S20  1  0.75000000  0.25000000  0.75967200  1
  S  S21  1  0.25000000  0.75000000  0.74032800  1
  S  S22  1  0.25000000  0.75000000  0.24032800  1
  S  S23  1  0.75000000  0.25000000  0.25967200  1
  N  N24  1  0.26141800  0.34102100  0.57323700  1
  N  N25  1  0.23858200  0.15897900  0.57323700  1
  N  N26  1  0.76141800  0.65897900  0.92676300  1
  N  N27  1  0.73858200  0.84102100  0.92676300  1
  N  N28  1  0.73858200  0.65897900  0.42676300  1
  N  N29  1  0.76141800  0.84102100  0.42676300  1
  N  N30  1  0.23858200  0.34102100  0.07323700  1
  N  N31  1  0.26141800  0.15897900  0.07323700  1
  O  O32  1  0.92670000  0.20830800  0.85201800  1
  O  O33  1  0.57330000  0.29169200  0.85201800  1
  O  O34  1  0.42670000  0.79169200  0.64798200  1
  O  O35  1  0.07330000  0.70830800  0.64798200  1
  O  O36  1  0.07330000  0.79169200  0.14798200  1
  O  O37  1  0.42670000  0.70830800  0.14798200  1
  O  O38  1  0.57330000  0.20830800  0.35201800  1
  O  O39  1  0.92670000  0.29169200  0.35201800  1
  O  O40  1  0.79959300  0.39826700  0.66835100  1
  O  O41  1  0.70040700  0.10173300  0.66835100  1
  O  O42  1  0.29959400  0.60173300  0.83164900  1
  O  O43  1  0.20040600  0.89826700  0.83164900  1
  O  O44  1  0.20040600  0.60173300  0.33164900  1
  O  O45  1  0.29959400  0.89826700  0.33164900  1
  O  O46  1  0.70040700  0.39826700  0.16835100  1
  O  O47  1  0.79959300  0.10173300  0.16835100  1
