# generated using pymatgen
data_H8C2N6O7
_symmetry_space_group_name_H-M   'P 1'
_cell_length_a   8.63364681
_cell_length_b   8.88562498
_cell_length_c   8.57586341
_cell_angle_alpha   58.79778097
_cell_angle_beta   80.50985699
_cell_angle_gamma   71.44225622
_symmetry_Int_Tables_number   1
_chemical_formula_structural   H8C2N6O7
_chemical_formula_sum   'H16 C4 N12 O14'
_cell_volume   533.47112293
_cell_formula_units_Z   2
loop_
 _symmetry_equiv_pos_site_id
 _symmetry_equiv_pos_as_xyz
  1  'x, y, z'
loop_
 _atom_site_type_symbol
 _atom_site_label
 _atom_site_symmetry_multiplicity
 _atom_site_fract_x
 _atom_site_fract_y
 _atom_site_fract_z
 _atom_site_occupancy
  H  H0  1  0.54723800  0.62599000  0.14274600  1
  H  H1  1  0.95276200  0.23126400  0.14274600  1
  H  H2  1  0.45276200  0.37401000  0.85725400  1
  H  H3  1  0.04723800  0.76873600  0.85725400  1
  H  H4  1  0.64172200  0.43540800  0.34885800  1
  H  H5  1  0.85827800  0.21573400  0.34885800  1
  H  H6  1  0.35827800  0.56459200  0.65114200  1
  H  H7  1  0.14172200  0.78426600  0.65114200  1
  H  H8  1  0.66860000  0.65780600  0.86398300  1
  H  H9  1  0.83140000  0.47821200  0.86398300  1
  H  H10  1  0.33140000  0.34219400  0.13601700  1
  H  H11  1  0.16860000  0.52178800  0.13601700  1
  H  H12  1  0.69490800  0.11973500  0.65403300  1
  H  H13  1  0.80509200  0.22623200  0.65403300  1
  H  H14  1  0.30509200  0.88026500  0.34596700  1
  H  H15  1  0.19490800  0.77376800  0.34596700  1
  C  C16  1  0.75000000  0.88811100  0.22377800  1
  C  C17  1  0.25000000  0.11188900  0.77622200  1
  C  C18  1  0.75000000  0.44133400  0.11733100  1
  C  C19  1  0.25000000  0.55866600  0.88266900  1
  N  N20  1  0.75000000  0.78778800  0.42442400  1
  N  N21  1  0.25000000  0.21221200  0.57557600  1
  N  N22  1  0.87688800  0.81639400  0.13948600  1
  N  N23  1  0.62311200  0.04412000  0.13948600  1
  N  N24  1  0.12311100  0.18360600  0.86051400  1
  N  N25  1  0.37688900  0.95588000  0.86051400  1
  N  N26  1  0.75000000  0.53295800  0.93408400  1
  N  N27  1  0.25000000  0.46704200  0.06591600  1
  N  N28  1  0.63878100  0.50910300  0.20953200  1
  N  N29  1  0.86121900  0.28136500  0.20953200  1
  N  N30  1  0.36121900  0.49089700  0.79046800  1
  N  N31  1  0.13878100  0.71863500  0.79046800  1
  O  O32  1  0.81225900  0.83967000  0.50130600  1
  O  O33  1  0.68774100  0.65902500  0.50130600  1
  O  O34  1  0.18774100  0.16033000  0.49869400  1
  O  O35  1  0.31225900  0.34097500  0.49869400  1
  O  O36  1  0.98809700  0.67882900  0.24288100  1
  O  O37  1  0.51190300  0.07829000  0.24288100  1
  O  O38  1  0.01190300  0.32117100  0.75711900  1
  O  O39  1  0.48809700  0.92171000  0.75711900  1
  O  O40  1  0.87879400  0.88484900  0.96931000  1
  O  O41  1  0.62120600  0.14584000  0.96931000  1
  O  O42  1  0.12120600  0.11515100  0.03069000  1
  O  O43  1  0.37879400  0.85416000  0.03069000  1
  O  O44  1  0.75000000  0.21375900  0.57248200  1
  O  O45  1  0.25000000  0.78624100  0.42751800  1
