# generated using pymatgen
data_Cs11Tl6Cl29
_symmetry_space_group_name_H-M   'P 1'
_cell_length_a   22.14457755
_cell_length_b   22.14457755
_cell_length_c   9.64793651
_cell_angle_alpha   88.88823093
_cell_angle_beta   88.88823093
_cell_angle_gamma   20.13651895
_symmetry_Int_Tables_number   1
_chemical_formula_structural   Cs11Tl6Cl29
_chemical_formula_sum   'Cs11 Tl6 Cl29'
_cell_volume   1628.43025633
_cell_formula_units_Z   1
loop_
 _symmetry_equiv_pos_site_id
 _symmetry_equiv_pos_as_xyz
  1  'x, y, z'
loop_
 _atom_site_type_symbol
 _atom_site_label
 _atom_site_symmetry_multiplicity
 _atom_site_fract_x
 _atom_site_fract_y
 _atom_site_fract_z
 _atom_site_occupancy
  Cs  Cs0  1  0.00000000  0.00000000  0.00000000  1
  Cs  Cs1  1  0.68121300  0.68121300  0.54719800  1
  Cs  Cs2  1  0.31878700  0.31878700  0.45280200  1
  Cs  Cs3  1  0.21949600  0.21949600  0.19086200  1
  Cs  Cs4  1  0.78050400  0.78050400  0.80913800  1
  Cs  Cs5  1  0.09636200  0.09636200  0.66773700  1
  Cs  Cs6  1  0.90363800  0.90363800  0.33226300  1
  Cs  Cs7  1  0.64593200  0.64593200  0.01500900  1
  Cs  Cs8  1  0.35406800  0.35406800  0.98499100  1
  Cs  Cs9  1  0.54779900  0.54779900  0.33637200  1
  Cs  Cs10  1  0.45220100  0.45220100  0.66362800  1
  Tl  Tl11  1  0.22767200  0.22767200  0.69498700  1
  Tl  Tl12  1  0.77232800  0.77232800  0.30501300  1
  Tl  Tl13  1  0.10432600  0.10432600  0.19265000  1
  Tl  Tl14  1  0.89567400  0.89567400  0.80735000  1
  Tl  Tl15  1  0.55220200  0.55220200  0.82818100  1
  Tl  Tl16  1  0.44779800  0.44779800  0.17181900  1
  Cl  Cl17  1  0.17957500  0.17957500  0.55125600  1
  Cl  Cl18  1  0.82042500  0.82042500  0.44874400  1
  Cl  Cl19  1  0.23488700  0.70937700  0.31922000  1
  Cl  Cl20  1  0.70937700  0.23488700  0.31922000  1
  Cl  Cl21  1  0.76511300  0.29062300  0.68078000  1
  Cl  Cl22  1  0.29062300  0.76511300  0.68078000  1
  Cl  Cl23  1  0.14259200  0.14259200  0.99904300  1
  Cl  Cl24  1  0.85740800  0.85740800  0.00095700  1
  Cl  Cl25  1  0.95721200  0.46460600  0.85214700  1
  Cl  Cl26  1  0.46460600  0.95721200  0.85214700  1
  Cl  Cl27  1  0.04278800  0.53539400  0.14785300  1
  Cl  Cl28  1  0.53539400  0.04278800  0.14785300  1
  Cl  Cl29  1  0.81175700  0.33439500  0.00018500  1
  Cl  Cl30  1  0.33439500  0.81175700  0.00018500  1
  Cl  Cl31  1  0.18824300  0.66560500  0.99981500  1
  Cl  Cl32  1  0.66560500  0.18824300  0.99981500  1
  Cl  Cl33  1  0.86589100  0.38402000  0.32523500  1
  Cl  Cl34  1  0.38402000  0.86589100  0.32523500  1
  Cl  Cl35  1  0.13410900  0.61598000  0.67476500  1
  Cl  Cl36  1  0.61598000  0.13410900  0.67476500  1
  Cl  Cl37  1  0.71680700  0.71680700  0.21939500  1
  Cl  Cl38  1  0.28319300  0.28319300  0.78060500  1
  Cl  Cl39  1  0.50000000  0.50000000  0.00000000  1
  Cl  Cl40  1  0.60494400  0.60494400  0.69161800  1
  Cl  Cl41  1  0.39505600  0.39505600  0.30838200  1
  Cl  Cl42  1  0.05249000  0.05249000  0.30447200  1
  Cl  Cl43  1  0.94751000  0.94751000  0.69552800  1
  Cl  Cl44  1  0.00000000  0.50000000  0.50000000  1
  Cl  Cl45  1  0.50000000  0.00000000  0.50000000  1
