# generated using pymatgen
data_Yb2O3
_symmetry_space_group_name_H-M   'P 1'
_cell_length_a   9.27308999
_cell_length_b   9.27308999
_cell_length_c   9.27308999
_cell_angle_alpha   109.47122063
_cell_angle_beta   109.47122063
_cell_angle_gamma   109.47122063
_symmetry_Int_Tables_number   1
_chemical_formula_structural   Yb2O3
_chemical_formula_sum   'Yb16 O24'
_cell_volume   613.83483642
_cell_formula_units_Z   8
loop_
 _symmetry_equiv_pos_site_id
 _symmetry_equiv_pos_as_xyz
  1  'x, y, z'
loop_
 _atom_site_type_symbol
 _atom_site_label
 _atom_site_symmetry_multiplicity
 _atom_site_fract_x
 _atom_site_fract_y
 _atom_site_fract_z
 _atom_site_occupancy
  Yb  Yb0  1  0.49297000  0.50000000  0.00000000  1
  Yb  Yb1  1  0.00000000  0.49297000  0.50000000  1
  Yb  Yb2  1  0.50000000  0.00000000  0.49297000  1
  Yb  Yb3  1  0.00703000  0.00703000  0.00703000  1
  Yb  Yb4  1  0.21529900  0.75000000  0.96529900  1
  Yb  Yb5  1  0.25000000  0.53470100  0.28470100  1
  Yb  Yb6  1  0.96529900  0.21529900  0.75000000  1
  Yb  Yb7  1  0.28470100  0.25000000  0.53470100  1
  Yb  Yb8  1  0.75000000  0.96529900  0.21529900  1
  Yb  Yb9  1  0.53470100  0.28470100  0.25000000  1
  Yb  Yb10  1  0.72269600  0.75000000  0.47269600  1
  Yb  Yb11  1  0.25000000  0.02730400  0.77730400  1
  Yb  Yb12  1  0.47269600  0.72269600  0.75000000  1
  Yb  Yb13  1  0.77730400  0.25000000  0.02730400  1
  Yb  Yb14  1  0.75000000  0.47269600  0.72269600  1
  Yb  Yb15  1  0.02730400  0.77730400  0.25000000  1
  O  O16  1  0.46680600  0.73980500  0.00298700  1
  O  O17  1  0.46381900  0.49701300  0.23681800  1
  O  O18  1  0.22700100  0.26318200  0.76019500  1
  O  O19  1  0.23681800  0.46381900  0.49701300  1
  O  O20  1  0.76019500  0.22700100  0.26318200  1
  O  O21  1  0.00298700  0.46680600  0.73980500  1
  O  O22  1  0.26318200  0.76019500  0.22700100  1
  O  O23  1  0.73980500  0.00298700  0.46680600  1
  O  O24  1  0.49701300  0.23681800  0.46381900  1
  O  O25  1  0.03319400  0.03618100  0.27299900  1
  O  O26  1  0.03618100  0.27299900  0.03319400  1
  O  O27  1  0.27299900  0.03319400  0.03618100  1
  O  O28  1  0.53839400  0.51129900  0.77355500  1
  O  O29  1  0.76483900  0.72644500  0.23774400  1
  O  O30  1  0.52709600  0.26225600  0.98870100  1
  O  O31  1  0.23774400  0.76483900  0.72644500  1
  O  O32  1  0.98870100  0.52709600  0.26225600  1
  O  O33  1  0.77355500  0.53839400  0.51129900  1
  O  O34  1  0.26225600  0.98870100  0.52709600  1
  O  O35  1  0.51129900  0.77355500  0.53839400  1
  O  O36  1  0.72644500  0.23774400  0.76483900  1
  O  O37  1  0.96160600  0.73516100  0.97290400  1
  O  O38  1  0.73516100  0.97290400  0.96160600  1
  O  O39  1  0.97290400  0.96160600  0.73516100  1
