# generated using pymatgen
data_Y(Ga5Mo)8
_symmetry_space_group_name_H-M   'P 1'
_cell_length_a   9.64555731
_cell_length_b   9.64555731
_cell_length_c   9.64555737
_cell_angle_alpha   94.56064806
_cell_angle_beta   94.56064806
_cell_angle_gamma   94.56064633
_symmetry_Int_Tables_number   1
_chemical_formula_structural   Y(Ga5Mo)8
_chemical_formula_sum   'Y1 Ga40 Mo8'
_cell_volume   888.38454405
_cell_formula_units_Z   1
loop_
 _symmetry_equiv_pos_site_id
 _symmetry_equiv_pos_as_xyz
  1  'x, y, z'
loop_
 _atom_site_type_symbol
 _atom_site_label
 _atom_site_symmetry_multiplicity
 _atom_site_fract_x
 _atom_site_fract_y
 _atom_site_fract_z
 _atom_site_occupancy
  Y  Y0  1  0.00000000  0.00000000  0.00000000  1
  Ga  Ga1  1  0.50000000  0.50000000  0.50000000  1
  Ga  Ga2  1  0.00000000  0.50000000  0.50000000  1
  Ga  Ga3  1  0.50000000  0.00000000  0.50000000  1
  Ga  Ga4  1  0.50000000  0.50000000  0.00000000  1
  Ga  Ga5  1  0.26848000  0.63726900  0.61161800  1
  Ga  Ga6  1  0.61161800  0.26848000  0.63726900  1
  Ga  Ga7  1  0.63726900  0.61161800  0.26848000  1
  Ga  Ga8  1  0.73152000  0.36273100  0.38838200  1
  Ga  Ga9  1  0.38838200  0.73152000  0.36273100  1
  Ga  Ga10  1  0.36273100  0.38838200  0.73152000  1
  Ga  Ga11  1  0.67561300  0.77853800  0.53537800  1
  Ga  Ga12  1  0.53537800  0.67561300  0.77853800  1
  Ga  Ga13  1  0.77853800  0.53537800  0.67561300  1
  Ga  Ga14  1  0.32438700  0.22146200  0.46462200  1
  Ga  Ga15  1  0.46462200  0.32438700  0.22146200  1
  Ga  Ga16  1  0.22146200  0.46462200  0.32438700  1
  Ga  Ga17  1  0.77912800  0.07194000  0.44912700  1
  Ga  Ga18  1  0.44912700  0.77912800  0.07194000  1
  Ga  Ga19  1  0.07194000  0.44912700  0.77912800  1
  Ga  Ga20  1  0.22087200  0.92806000  0.55087300  1
  Ga  Ga21  1  0.55087300  0.22087200  0.92806000  1
  Ga  Ga22  1  0.92806000  0.55087300  0.22087200  1
  Ga  Ga23  1  0.96679900  0.78566000  0.59781400  1
  Ga  Ga24  1  0.59781400  0.96679900  0.78566000  1
  Ga  Ga25  1  0.78566000  0.59781400  0.96679900  1
  Ga  Ga26  1  0.03320100  0.21434000  0.40218600  1
  Ga  Ga27  1  0.40218600  0.03320100  0.21434000  1
  Ga  Ga28  1  0.21434000  0.40218600  0.03320100  1
  Ga  Ga29  1  0.04988000  0.72262100  0.86444900  1
  Ga  Ga30  1  0.86444900  0.04988000  0.72262100  1
  Ga  Ga31  1  0.72262100  0.86444900  0.04988000  1
  Ga  Ga32  1  0.95012000  0.27737900  0.13555100  1
  Ga  Ga33  1  0.13555100  0.95012000  0.27737900  1
  Ga  Ga34  1  0.27737900  0.13555100  0.95012000  1
  Ga  Ga35  1  0.12251200  0.17380000  0.68593900  1
  Ga  Ga36  1  0.68593900  0.12251200  0.17380000  1
  Ga  Ga37  1  0.17380000  0.68593900  0.12251200  1
  Ga  Ga38  1  0.87748800  0.82620000  0.31406100  1
  Ga  Ga39  1  0.31406100  0.87748800  0.82620000  1
  Ga  Ga40  1  0.82620000  0.31406100  0.87748800  1
  Mo  Mo41  1  0.79424100  0.79424100  0.79424100  1
  Mo  Mo42  1  0.20575900  0.20575900  0.20575900  1
  Mo  Mo43  1  0.29403000  0.61060200  0.88717800  1
  Mo  Mo44  1  0.88717800  0.29403000  0.61060200  1
  Mo  Mo45  1  0.61060200  0.88717800  0.29403000  1
  Mo  Mo46  1  0.70597000  0.38939800  0.11282200  1
  Mo  Mo47  1  0.11282200  0.70597000  0.38939800  1
  Mo  Mo48  1  0.38939800  0.11282200  0.70597000  1
