# generated using pymatgen
data_CuP3NO9
_symmetry_space_group_name_H-M   'P 1'
_cell_length_a   11.88935500
_cell_length_b   5.03534000
_cell_length_c   12.97183361
_cell_angle_alpha   88.04486069
_cell_angle_beta   90.00000000
_cell_angle_gamma   90.00000000
_symmetry_Int_Tables_number   1
_chemical_formula_structural   CuP3NO9
_chemical_formula_sum   'Cu4 P12 N4 O36'
_cell_volume   776.13195494
_cell_formula_units_Z   4
loop_
 _symmetry_equiv_pos_site_id
 _symmetry_equiv_pos_as_xyz
  1  'x, y, z'
loop_
 _atom_site_type_symbol
 _atom_site_label
 _atom_site_symmetry_multiplicity
 _atom_site_fract_x
 _atom_site_fract_y
 _atom_site_fract_z
 _atom_site_occupancy
  Cu  Cu0  1  0.00000000  0.00000000  0.50000000  1
  Cu  Cu1  1  0.50000000  0.00000000  0.00000000  1
  Cu  Cu2  1  0.50000000  0.00000000  0.50000000  1
  Cu  Cu3  1  0.00000000  0.00000000  0.00000000  1
  P  P4  1  0.75156400  0.24067200  0.49361000  1
  P  P5  1  0.25156400  0.75932800  0.00639000  1
  P  P6  1  0.24843600  0.75932800  0.50639000  1
  P  P7  1  0.74843600  0.24067200  0.99361000  1
  P  P8  1  0.91113700  0.49189100  0.63205900  1
  P  P9  1  0.41113700  0.50810900  0.86794100  1
  P  P10  1  0.08886300  0.50810900  0.36794100  1
  P  P11  1  0.58886300  0.49189100  0.13205900  1
  P  P12  1  0.92154300  0.51851700  0.86753500  1
  P  P13  1  0.42154300  0.48148300  0.63246500  1
  P  P14  1  0.07845700  0.48148300  0.13246500  1
  P  P15  1  0.57845700  0.51851700  0.36753500  1
  N  N16  1  0.71805500  0.94501100  0.74465700  1
  N  N17  1  0.21805500  0.05498900  0.75534300  1
  N  N18  1  0.28194500  0.05498900  0.25534300  1
  N  N19  1  0.78194500  0.94501100  0.24465700  1
  O  O20  1  0.89072700  0.43930800  0.75278500  1
  O  O21  1  0.39072700  0.56069200  0.74721500  1
  O  O22  1  0.10927300  0.56069200  0.24721500  1
  O  O23  1  0.60927300  0.43930800  0.25278500  1
  O  O24  1  0.78915500  0.40000500  0.59296400  1
  O  O25  1  0.28915500  0.59999500  0.90703600  1
  O  O26  1  0.21084500  0.59999500  0.40703600  1
  O  O27  1  0.71084500  0.40000500  0.09296400  1
  O  O28  1  0.80001800  0.47547400  0.92062300  1
  O  O29  1  0.30001800  0.52452600  0.57937700  1
  O  O30  1  0.19998200  0.52452600  0.07937700  1
  O  O31  1  0.69998200  0.47547400  0.42062300  1
  O  O32  1  0.66171900  0.04526200  0.52672600  1
  O  O33  1  0.16171900  0.95473800  0.97327400  1
  O  O34  1  0.33828100  0.95473800  0.47327400  1
  O  O35  1  0.83828100  0.04526200  0.02672600  1
  O  O36  1  0.64624600  0.13089000  0.94067400  1
  O  O37  1  0.14624600  0.86911000  0.55932600  1
  O  O38  1  0.35375400  0.86911000  0.05932600  1
  O  O39  1  0.85375400  0.13089000  0.44067400  1
  O  O40  1  0.92387300  0.78878200  0.61325100  1
  O  O41  1  0.42387300  0.21121800  0.88674900  1
  O  O42  1  0.07612700  0.21121800  0.38674900  1
  O  O43  1  0.57612700  0.78878200  0.11325100  1
  O  O44  1  0.95347500  0.80941200  0.86790200  1
  O  O45  1  0.45347500  0.19058800  0.63209800  1
  O  O46  1  0.04652500  0.19058800  0.13209800  1
  O  O47  1  0.54652500  0.80941200  0.36790200  1
  O  O48  1  0.00305100  0.31315400  0.59408300  1
  O  O49  1  0.50305100  0.68684600  0.90591700  1
  O  O50  1  0.99694900  0.68684600  0.40591700  1
  O  O51  1  0.49694900  0.31315400  0.09408300  1
  O  O52  1  0.00847500  0.32966400  0.91243500  1
  O  O53  1  0.50847500  0.67033600  0.58756500  1
  O  O54  1  0.99152500  0.67033600  0.08756500  1
  O  O55  1  0.49152500  0.32966400  0.41243500  1
