# generated using pymatgen
data_BiC2O5
_symmetry_space_group_name_H-M   'P 1'
_cell_length_a   5.90164100
_cell_length_b   6.08981500
_cell_length_c   11.51186400
_cell_angle_alpha   90.00000000
_cell_angle_beta   90.00000000
_cell_angle_gamma   90.00000000
_symmetry_Int_Tables_number   1
_chemical_formula_structural   BiC2O5
_chemical_formula_sum   'Bi4 C8 O20'
_cell_volume   413.73526269
_cell_formula_units_Z   4
loop_
 _symmetry_equiv_pos_site_id
 _symmetry_equiv_pos_as_xyz
  1  'x, y, z'
loop_
 _atom_site_type_symbol
 _atom_site_label
 _atom_site_symmetry_multiplicity
 _atom_site_fract_x
 _atom_site_fract_y
 _atom_site_fract_z
 _atom_site_occupancy
  Bi  Bi0  1  0.95945100  0.70639600  0.25000000  1
  Bi  Bi1  1  0.54054900  0.20639600  0.25000000  1
  Bi  Bi2  1  0.04054900  0.29360400  0.75000000  1
  Bi  Bi3  1  0.45945100  0.79360400  0.75000000  1
  C  C4  1  0.57394900  0.10057700  0.52409700  1
  C  C5  1  0.92605100  0.60057700  0.97590300  1
  C  C6  1  0.42605100  0.89942300  0.02409700  1
  C  C7  1  0.07394900  0.39942300  0.47590300  1
  C  C8  1  0.42605100  0.89942300  0.47590300  1
  C  C9  1  0.07394900  0.39942300  0.02409700  1
  C  C10  1  0.57394900  0.10057700  0.97590300  1
  C  C11  1  0.92605100  0.60057700  0.52409700  1
  O  O12  1  0.65263200  0.53785500  0.25000000  1
  O  O13  1  0.84736800  0.03785500  0.25000000  1
  O  O14  1  0.34736800  0.46214500  0.75000000  1
  O  O15  1  0.15263200  0.96214500  0.75000000  1
  O  O16  1  0.61461100  0.25426100  0.45424400  1
  O  O17  1  0.88538900  0.75426100  0.04575600  1
  O  O18  1  0.38538900  0.74573900  0.95424400  1
  O  O19  1  0.11461100  0.24573900  0.54575600  1
  O  O20  1  0.38538900  0.74573900  0.54575600  1
  O  O21  1  0.11461100  0.24573900  0.95424400  1
  O  O22  1  0.61461100  0.25426100  0.04575600  1
  O  O23  1  0.88538900  0.75426100  0.45424400  1
  O  O24  1  0.63795700  0.08971100  0.62853400  1
  O  O25  1  0.86204300  0.58971100  0.87146600  1
  O  O26  1  0.36204300  0.91028900  0.12853400  1
  O  O27  1  0.13795700  0.41028900  0.37146600  1
  O  O28  1  0.36204300  0.91028900  0.37146600  1
  O  O29  1  0.13795700  0.41028900  0.12853400  1
  O  O30  1  0.63795700  0.08971100  0.87146600  1
  O  O31  1  0.86204300  0.58971100  0.62853400  1
