# generated using pymatgen
data_Y2ZrS5
_symmetry_space_group_name_H-M   'P 1'
_cell_length_a   7.27188700
_cell_length_b   7.76803000
_cell_length_c   11.61566700
_cell_angle_alpha   90.00000000
_cell_angle_beta   90.00000000
_cell_angle_gamma   90.00000000
_symmetry_Int_Tables_number   1
_chemical_formula_structural   Y2ZrS5
_chemical_formula_sum   'Y8 Zr4 S20'
_cell_volume   656.14854312
_cell_formula_units_Z   4
loop_
 _symmetry_equiv_pos_site_id
 _symmetry_equiv_pos_as_xyz
  1  'x, y, z'
loop_
 _atom_site_type_symbol
 _atom_site_label
 _atom_site_symmetry_multiplicity
 _atom_site_fract_x
 _atom_site_fract_y
 _atom_site_fract_z
 _atom_site_occupancy
  Y  Y0  1  0.52242500  0.49735600  0.32096600  1
  Y  Y1  1  0.97757500  0.00264400  0.82096600  1
  Y  Y2  1  0.47757500  0.99735600  0.67903400  1
  Y  Y3  1  0.02242500  0.50264400  0.17903400  1
  Y  Y4  1  0.47757500  0.50264400  0.67903400  1
  Y  Y5  1  0.02242500  0.99735600  0.17903400  1
  Y  Y6  1  0.52242500  0.00264400  0.32096600  1
  Y  Y7  1  0.97757500  0.49735600  0.82096600  1
  Zr  Zr8  1  0.07768200  0.75000000  0.49368600  1
  Zr  Zr9  1  0.42231800  0.75000000  0.99368600  1
  Zr  Zr10  1  0.92231800  0.25000000  0.50631400  1
  Zr  Zr11  1  0.57768200  0.25000000  0.00631400  1
  S  S12  1  0.83901800  0.96285500  0.59489300  1
  S  S13  1  0.66098200  0.53714500  0.09489300  1
  S  S14  1  0.16098200  0.46285500  0.40510700  1
  S  S15  1  0.33901800  0.03714500  0.90510700  1
  S  S16  1  0.16098200  0.03714500  0.40510700  1
  S  S17  1  0.33901800  0.46285500  0.90510700  1
  S  S18  1  0.83901800  0.53714500  0.59489300  1
  S  S19  1  0.66098200  0.96285500  0.09489300  1
  S  S20  1  0.83039800  0.75000000  0.31828000  1
  S  S21  1  0.66960200  0.75000000  0.81828000  1
  S  S22  1  0.16960200  0.25000000  0.68172000  1
  S  S23  1  0.33039800  0.25000000  0.18172000  1
  S  S24  1  0.44812300  0.75000000  0.49782500  1
  S  S25  1  0.05187700  0.75000000  0.99782500  1
  S  S26  1  0.55187700  0.25000000  0.50217500  1
  S  S27  1  0.94812300  0.25000000  0.00217500  1
  S  S28  1  0.19019900  0.75000000  0.70838900  1
  S  S29  1  0.30980100  0.75000000  0.20838900  1
  S  S30  1  0.80980100  0.25000000  0.29161100  1
  S  S31  1  0.69019900  0.25000000  0.79161100  1
