# generated using pymatgen
data_CaSb4H6(SO8)2
_symmetry_space_group_name_H-M   'P 1'
_cell_length_a   12.92188472
_cell_length_b   12.92188472
_cell_length_c   10.28301930
_cell_angle_alpha   83.46896887
_cell_angle_beta   83.46896887
_cell_angle_gamma   25.58644877
_symmetry_Int_Tables_number   1
_chemical_formula_structural   CaSb4H6(SO8)2
_chemical_formula_sum   'Ca2 Sb8 H12 S4 O32'
_cell_volume   736.46733464
_cell_formula_units_Z   2
loop_
 _symmetry_equiv_pos_site_id
 _symmetry_equiv_pos_as_xyz
  1  'x, y, z'
loop_
 _atom_site_type_symbol
 _atom_site_label
 _atom_site_symmetry_multiplicity
 _atom_site_fract_x
 _atom_site_fract_y
 _atom_site_fract_z
 _atom_site_occupancy
  Ca  Ca0  1  0.68179600  0.31820400  0.25000000  1
  Ca  Ca1  1  0.31820400  0.68179600  0.75000000  1
  Sb  Sb2  1  0.21173400  0.20614800  0.51472800  1
  Sb  Sb3  1  0.79385200  0.78826600  0.98527200  1
  Sb  Sb4  1  0.78826600  0.79385200  0.48527200  1
  Sb  Sb5  1  0.20614800  0.21173400  0.01472800  1
  Sb  Sb6  1  0.74559700  0.62042200  0.27001500  1
  Sb  Sb7  1  0.37957800  0.25440300  0.22998500  1
  Sb  Sb8  1  0.25440300  0.37957800  0.72998500  1
  Sb  Sb9  1  0.62042200  0.74559700  0.77001500  1
  H  H10  1  0.20037100  0.91147900  0.22399900  1
  H  H11  1  0.08852100  0.79962900  0.27600100  1
  H  H12  1  0.79962900  0.08852100  0.77600100  1
  H  H13  1  0.91147900  0.20037100  0.72399900  1
  H  H14  1  0.14997900  0.95079600  0.37752900  1
  H  H15  1  0.04920400  0.85002100  0.12247100  1
  H  H16  1  0.85002100  0.04920400  0.62247100  1
  H  H17  1  0.95079600  0.14997900  0.87752900  1
  H  H18  1  0.04107100  0.19719000  0.28169200  1
  H  H19  1  0.80281000  0.95892900  0.21830800  1
  H  H20  1  0.95892900  0.80281000  0.71830800  1
  H  H21  1  0.19719000  0.04107100  0.78169200  1
  S  S22  1  0.56433200  0.59385900  0.51713400  1
  S  S23  1  0.40614100  0.43566800  0.98286600  1
  S  S24  1  0.43566800  0.40614100  0.48286600  1
  S  S25  1  0.59385900  0.56433200  0.01713400  1
  O  O26  1  0.64494800  0.63120700  0.52890100  1
  O  O27  1  0.36879300  0.35505200  0.97109900  1
  O  O28  1  0.35505200  0.36879300  0.47109900  1
  O  O29  1  0.63120700  0.64494800  0.02890100  1
  O  O30  1  0.62212900  0.52012800  0.38071300  1
  O  O31  1  0.47987200  0.37787100  0.11928700  1
  O  O32  1  0.37787100  0.47987200  0.61928700  1
  O  O33  1  0.52012800  0.62212900  0.88071300  1
  O  O34  1  0.68618300  0.40912500  0.61522600  1
  O  O35  1  0.59087500  0.31381700  0.88477400  1
  O  O36  1  0.31381700  0.59087500  0.38477400  1
  O  O37  1  0.40912500  0.68618300  0.11522600  1
  O  O38  1  0.30127700  0.82027900  0.54593700  1
  O  O39  1  0.17972100  0.69872300  0.95406300  1
  O  O40  1  0.69872300  0.17972100  0.45406300  1
  O  O41  1  0.82027900  0.30127700  0.04593700  1
  O  O42  1  0.07595300  0.03639700  0.29163600  1
  O  O43  1  0.96360300  0.92404700  0.20836400  1
  O  O44  1  0.92404700  0.96360300  0.70836400  1
  O  O45  1  0.03639700  0.07595300  0.79163600  1
  O  O46  1  0.92261200  0.55387000  0.38838400  1
  O  O47  1  0.44613000  0.07738800  0.11161600  1
  O  O48  1  0.07738800  0.44613000  0.61161600  1
  O  O49  1  0.55387000  0.92261200  0.88838400  1
  O  O50  1  0.92030800  0.55386900  0.11549600  1
  O  O51  1  0.44613100  0.07969200  0.38450400  1
  O  O52  1  0.07969200  0.44613100  0.88450400  1
  O  O53  1  0.55386900  0.92030800  0.61549600  1
  O  O54  1  0.05388300  0.26430700  0.27068600  1
  O  O55  1  0.73569300  0.94611700  0.22931400  1
  O  O56  1  0.94611700  0.73569300  0.72931400  1
  O  O57  1  0.26430700  0.05388300  0.77068600  1
