data_image0
_chemical_formula_structural       C12Cl6O12Os3Si2
_chemical_formula_sum              "C12 Cl6 O12 Os3 Si2"
_cell_length_a       10.8824
_cell_length_b       8.63977
_cell_length_c       7.85218
_cell_angle_alpha    123.068
_cell_angle_beta     99.281
_cell_angle_gamma    100.108

_space_group_name_H-M_alt    "P 1"
_space_group_IT_number       1

loop_
  _space_group_symop_operation_xyz
  'x, y, z'

loop_
  _atom_site_type_symbol
  _atom_site_label
  _atom_site_symmetry_multiplicity
  _atom_site_fract_x
  _atom_site_fract_y
  _atom_site_fract_z
  _atom_site_occupancy
  C   C1        1.0  0.60400  0.64900  0.42700  1.0000
  C   C2        1.0  0.39600  0.35100  0.57300  1.0000
  C   C3        1.0  0.43400  0.27600  0.20300  1.0000
  C   C4        1.0  0.56600  0.72400  0.79700  1.0000
  C   C5        1.0  0.42000  0.89100  0.59700  1.0000
  C   C6        1.0  0.58000  0.10900  0.40300  1.0000
  C   C7        1.0  0.32600  0.57200  0.17500  1.0000
  C   C8        1.0  0.67400  0.42800  0.82500  1.0000
  C   C9        1.0  0.15600  0.37800  0.28000  1.0000
  C   C10       1.0  0.84400  0.62200  0.72000  1.0000
  C   C11       1.0  0.27400  0.70500  0.71200  1.0000
  C   C12       1.0  0.72600  0.29500  0.28800  1.0000
  Cl  Cl1       1.0  0.14100  0.87600  0.21800  1.0000
  Cl  Cl2       1.0  0.85900  0.12400  0.78200  1.0000
  Cl  Cl3       1.0  0.13000  0.01300  0.70100  1.0000
  Cl  Cl4       1.0  0.87000  0.98700  0.29900  1.0000
  Cl  Cl5       1.0  0.93100  0.59800  0.27400  1.0000
  Cl  Cl6       1.0  0.06890  0.40200  0.72600  1.0000
  O   O1        1.0  0.27900  0.75900  0.88400  1.0000
  O   O2        1.0  0.72100  0.24100  0.11600  1.0000
  O   O3        1.0  0.36000  0.53900  0.03030  1.0000
  O   O4        1.0  0.64000  0.46100  0.97000  1.0000
  O   O5        1.0  0.39600  0.14000  0.02670  1.0000
  O   O6        1.0  0.60400  0.86000  0.97300  1.0000
  O   O7        1.0  0.07960  0.22600  0.18800  1.0000
  O   O8        1.0  0.92000  0.77400  0.81200  1.0000
  O   O9        1.0  0.66400  0.74100  0.38500  1.0000
  O   O10       1.0  0.33600  0.25900  0.61500  1.0000
  O   O11       1.0  0.50100  0.03960  0.69900  1.0000
  O   O12       1.0  0.49900  0.96000  0.30100  1.0000
  Os  Os1       1.0  0.28600  0.63700  0.43500  1.0000
  Os  Os2       1.0  0.71400  0.36300  0.56500  1.0000
  Os  Os3       1.0  0.50000  0.50000  0.50000  1.0000
  Si  Si1       1.0  0.12300  0.78000  0.40400  1.0000
  Si  Si2       1.0  0.87700  0.22000  0.59600  1.0000
