# generated using pymatgen
data_Sm(GaSe2)2
_symmetry_space_group_name_H-M   'P 1'
_cell_length_a   14.64723092
_cell_length_b   12.41227274
_cell_length_c   12.19464091
_cell_angle_alpha   73.05466198
_cell_angle_beta   54.15677782
_cell_angle_gamma   52.78856020
_symmetry_Int_Tables_number   1
_chemical_formula_structural   Sm(GaSe2)2
_chemical_formula_sum   'Sm8 Ga16 Se32'
_cell_volume   1424.54044604
_cell_formula_units_Z   8
loop_
 _symmetry_equiv_pos_site_id
 _symmetry_equiv_pos_as_xyz
  1  'x, y, z'
loop_
 _atom_site_type_symbol
 _atom_site_label
 _atom_site_symmetry_multiplicity
 _atom_site_fract_x
 _atom_site_fract_y
 _atom_site_fract_z
 _atom_site_occupancy
  Sm  Sm0  1  0.49866500  0.49866500  0.00133500  1
  Sm  Sm1  1  0.00133500  0.00133500  0.49866500  1
  Sm  Sm2  1  0.75133500  0.75133500  0.24866500  1
  Sm  Sm3  1  0.24866500  0.24866500  0.75133500  1
  Sm  Sm4  1  0.25000000  0.25000000  0.25000000  1
  Sm  Sm5  1  0.00000000  0.00000000  0.00000000  1
  Sm  Sm6  1  0.75000000  0.75000000  0.75000000  1
  Sm  Sm7  1  0.50000000  0.50000000  0.50000000  1
  Ga  Ga8  1  0.48861300  0.76006900  0.73282500  1
  Ga  Ga9  1  0.76006900  0.48861300  0.01849300  1
  Ga  Ga10  1  0.73282500  0.01849300  0.48861300  1
  Ga  Ga11  1  0.01849300  0.73282500  0.76006900  1
  Ga  Ga12  1  0.76138700  0.48993100  0.51717500  1
  Ga  Ga13  1  0.48993100  0.76138700  0.23150700  1
  Ga  Ga14  1  0.51717500  0.23150700  0.76138700  1
  Ga  Ga15  1  0.23150700  0.51717500  0.48993100  1
  Ga  Ga16  1  0.98370300  0.26608800  0.66472300  1
  Ga  Ga17  1  0.26608800  0.98370300  0.08548500  1
  Ga  Ga18  1  0.66472300  0.08548500  0.98370300  1
  Ga  Ga19  1  0.08548500  0.66472300  0.26608800  1
  Ga  Ga20  1  0.26629700  0.98391200  0.58527700  1
  Ga  Ga21  1  0.98391200  0.26629700  0.16451500  1
  Ga  Ga22  1  0.58527700  0.16451500  0.26629700  1
  Ga  Ga23  1  0.16451500  0.58527700  0.98391200  1
  Se  Se24  1  0.45545000  0.29308000  0.98140800  1
  Se  Se25  1  0.29308000  0.45545000  0.27006200  1
  Se  Se26  1  0.98140800  0.27006200  0.45545000  1
  Se  Se27  1  0.27006200  0.98140800  0.29308000  1
  Se  Se28  1  0.79455000  0.95692000  0.26859200  1
  Se  Se29  1  0.95692000  0.79455000  0.97993800  1
  Se  Se30  1  0.26859200  0.97993800  0.79455000  1
  Se  Se31  1  0.97993800  0.26859200  0.95692000  1
  Se  Se32  1  0.48499700  0.76339300  0.94240800  1
  Se  Se33  1  0.76339300  0.48499700  0.80920100  1
  Se  Se34  1  0.94240800  0.80920100  0.48499700  1
  Se  Se35  1  0.80920100  0.94240800  0.76339300  1
  Se  Se36  1  0.76500300  0.48660700  0.30759200  1
  Se  Se37  1  0.48660700  0.76500300  0.44079900  1
  Se  Se38  1  0.30759200  0.44079900  0.76500300  1
  Se  Se39  1  0.44079900  0.30759200  0.48660700  1
  Se  Se40  1  0.03123300  0.53527900  0.71793800  1
  Se  Se41  1  0.53527900  0.03123300  0.71555000  1
  Se  Se42  1  0.71793800  0.71555000  0.03123300  1
  Se  Se43  1  0.71555000  0.71793800  0.53527900  1
  Se  Se44  1  0.21876700  0.71472100  0.53206200  1
  Se  Se45  1  0.71472100  0.21876700  0.53445000  1
  Se  Se46  1  0.53206200  0.53445000  0.21876700  1
  Se  Se47  1  0.53445000  0.53206200  0.71472100  1
  Se  Se48  1  0.22116500  0.71766900  0.02974100  1
  Se  Se49  1  0.71766900  0.22116500  0.03142600  1
  Se  Se50  1  0.02974100  0.03142600  0.22116500  1
  Se  Se51  1  0.03142600  0.02974100  0.71766900  1
  Se  Se52  1  0.02883500  0.53233100  0.22025900  1
  Se  Se53  1  0.53233100  0.02883500  0.21857400  1
  Se  Se54  1  0.22025900  0.21857400  0.02883500  1
  Se  Se55  1  0.21857400  0.22025900  0.53233100  1
