# generated using pymatgen
data_MnC3NCl3
_symmetry_space_group_name_H-M   'P 1'
_cell_length_a   5.91302700
_cell_length_b   8.56621800
_cell_length_c   14.94036600
_cell_angle_alpha   90.00000000
_cell_angle_beta   90.00000000
_cell_angle_gamma   90.00000000
_symmetry_Int_Tables_number   1
_chemical_formula_structural   MnC3NCl3
_chemical_formula_sum   'Mn4 C12 N4 Cl12'
_cell_volume   756.76357686
_cell_formula_units_Z   4
loop_
 _symmetry_equiv_pos_site_id
 _symmetry_equiv_pos_as_xyz
  1  'x, y, z'
loop_
 _atom_site_type_symbol
 _atom_site_label
 _atom_site_symmetry_multiplicity
 _atom_site_fract_x
 _atom_site_fract_y
 _atom_site_fract_z
 _atom_site_occupancy
  Mn  Mn0  1  0.00000000  0.50000000  0.50000000  1
  Mn  Mn1  1  0.50000000  0.00000000  0.00000000  1
  Mn  Mn2  1  0.50000000  0.50000000  0.50000000  1
  Mn  Mn3  1  0.00000000  0.00000000  0.00000000  1
  C  C4  1  0.36244500  0.04445800  0.37366400  1
  C  C5  1  0.13755500  0.45554200  0.87366400  1
  C  C6  1  0.86244500  0.95554200  0.62633600  1
  C  C7  1  0.63755500  0.54445800  0.12633600  1
  C  C8  1  0.63755500  0.95554200  0.62633600  1
  C  C9  1  0.86244500  0.54445800  0.12633600  1
  C  C10  1  0.13755500  0.04445800  0.37366400  1
  C  C11  1  0.36244500  0.45554200  0.87366400  1
  C  C12  1  0.25000000  0.81032400  0.25950400  1
  C  C13  1  0.25000000  0.68967600  0.75950400  1
  C  C14  1  0.75000000  0.18967600  0.74049600  1
  C  C15  1  0.75000000  0.31032400  0.24049600  1
  N  N16  1  0.25000000  0.91737600  0.31190600  1
  N  N17  1  0.25000000  0.58262400  0.81190600  1
  N  N18  1  0.75000000  0.08262400  0.68809400  1
  N  N19  1  0.75000000  0.41737600  0.18809400  1
  Cl  Cl20  1  0.75000000  0.64665700  0.40865900  1
  Cl  Cl21  1  0.75000000  0.85334300  0.90865900  1
  Cl  Cl22  1  0.25000000  0.35334300  0.59134100  1
  Cl  Cl23  1  0.25000000  0.14665700  0.09134100  1
  Cl  Cl24  1  0.75000000  0.56595100  0.61937800  1
  Cl  Cl25  1  0.75000000  0.93404900  0.11937800  1
  Cl  Cl26  1  0.25000000  0.43404900  0.38062200  1
  Cl  Cl27  1  0.25000000  0.06595100  0.88062200  1
  Cl  Cl28  1  0.75000000  0.28904100  0.47346800  1
  Cl  Cl29  1  0.75000000  0.21095900  0.97346800  1
  Cl  Cl30  1  0.25000000  0.71095900  0.52653200  1
  Cl  Cl31  1  0.25000000  0.78904100  0.02653200  1
