# generated using pymatgen
data_CuC2(SN2)2
_symmetry_space_group_name_H-M   'P 1'
_cell_length_a   6.71250400
_cell_length_b   8.59550700
_cell_length_c   14.20140200
_cell_angle_alpha   90.00000000
_cell_angle_beta   90.00000000
_cell_angle_gamma   90.00000000
_symmetry_Int_Tables_number   1
_chemical_formula_structural   CuC2(SN2)2
_chemical_formula_sum   'Cu4 C8 S8 N16'
_cell_volume   819.38361842
_cell_formula_units_Z   4
loop_
 _symmetry_equiv_pos_site_id
 _symmetry_equiv_pos_as_xyz
  1  'x, y, z'
loop_
 _atom_site_type_symbol
 _atom_site_label
 _atom_site_symmetry_multiplicity
 _atom_site_fract_x
 _atom_site_fract_y
 _atom_site_fract_z
 _atom_site_occupancy
  Cu  Cu0  1  0.25000000  0.39314700  0.67847400  1
  Cu  Cu1  1  0.25000000  0.10685300  0.17847400  1
  Cu  Cu2  1  0.75000000  0.60685300  0.32152600  1
  Cu  Cu3  1  0.75000000  0.89314700  0.82152600  1
  C  C4  1  0.25000000  0.08634700  0.77751700  1
  C  C5  1  0.25000000  0.41365300  0.27751700  1
  C  C6  1  0.75000000  0.91365300  0.22248300  1
  C  C7  1  0.75000000  0.58634700  0.72248300  1
  C  C8  1  0.75000000  0.20805700  0.91201000  1
  C  C9  1  0.75000000  0.29194300  0.41201000  1
  C  C10  1  0.25000000  0.79194300  0.08799000  1
  C  C11  1  0.25000000  0.70805700  0.58799000  1
  S  S12  1  0.75000000  0.42647000  0.66419800  1
  S  S13  1  0.75000000  0.07353000  0.16419800  1
  S  S14  1  0.25000000  0.57353000  0.33580200  1
  S  S15  1  0.25000000  0.92647000  0.83580200  1
  S  S16  1  0.75000000  0.37702100  0.95874700  1
  S  S17  1  0.75000000  0.12297900  0.45874700  1
  S  S18  1  0.25000000  0.62297900  0.04125300  1
  S  S19  1  0.25000000  0.87702100  0.54125300  1
  N  N20  1  0.25000000  0.48023800  0.80069500  1
  N  N21  1  0.25000000  0.01976200  0.30069500  1
  N  N22  1  0.75000000  0.51976200  0.19930500  1
  N  N23  1  0.75000000  0.98023800  0.69930500  1
  N  N24  1  0.25000000  0.20243800  0.73251600  1
  N  N25  1  0.25000000  0.29756200  0.23251600  1
  N  N26  1  0.75000000  0.79756200  0.26748400  1
  N  N27  1  0.75000000  0.70243800  0.76748400  1
  N  N28  1  0.25000000  0.30250300  0.55559400  1
  N  N29  1  0.25000000  0.19749700  0.05559400  1
  N  N30  1  0.75000000  0.69749700  0.44440600  1
  N  N31  1  0.75000000  0.80250300  0.94440600  1
  N  N32  1  0.75000000  0.08291200  0.87603700  1
  N  N33  1  0.75000000  0.41708800  0.37603700  1
  N  N34  1  0.25000000  0.91708800  0.12396300  1
  N  N35  1  0.25000000  0.58291200  0.62396300  1
