# generated using pymatgen
data_Ag7PS6
_symmetry_space_group_name_H-M   'P 1'
_cell_length_a   10.53102800
_cell_length_b   10.53102800
_cell_length_c   10.53102800
_cell_angle_alpha   90.00000000
_cell_angle_beta   90.00000000
_cell_angle_gamma   90.00000000
_symmetry_Int_Tables_number   1
_chemical_formula_structural   Ag7PS6
_chemical_formula_sum   'Ag28 P4 S24'
_cell_volume   1167.91786708
_cell_formula_units_Z   4
loop_
 _symmetry_equiv_pos_site_id
 _symmetry_equiv_pos_as_xyz
  1  'x, y, z'
loop_
 _atom_site_type_symbol
 _atom_site_label
 _atom_site_symmetry_multiplicity
 _atom_site_fract_x
 _atom_site_fract_y
 _atom_site_fract_z
 _atom_site_occupancy
  Ag  Ag0  1  0.23338300  0.92657800  0.90250300  1
  Ag  Ag1  1  0.09749700  0.73338300  0.57342200  1
  Ag  Ag2  1  0.42657800  0.59749700  0.76661700  1
  Ag  Ag3  1  0.73338300  0.57342200  0.09749700  1
  Ag  Ag4  1  0.59749700  0.76661700  0.42657800  1
  Ag  Ag5  1  0.92657800  0.90250300  0.23338300  1
  Ag  Ag6  1  0.76661700  0.42657800  0.59749700  1
  Ag  Ag7  1  0.90250300  0.23338300  0.92657800  1
  Ag  Ag8  1  0.57342200  0.09749700  0.73338300  1
  Ag  Ag9  1  0.26661700  0.07342200  0.40250300  1
  Ag  Ag10  1  0.40250300  0.26661700  0.07342200  1
  Ag  Ag11  1  0.07342200  0.40250300  0.26661700  1
  Ag  Ag12  1  0.00774200  0.77273500  0.98409600  1
  Ag  Ag13  1  0.01590400  0.50774200  0.72726500  1
  Ag  Ag14  1  0.27273500  0.51590400  0.99225800  1
  Ag  Ag15  1  0.50774200  0.72726500  0.01590400  1
  Ag  Ag16  1  0.51590400  0.99225800  0.27273500  1
  Ag  Ag17  1  0.77273500  0.98409600  0.00774200  1
  Ag  Ag18  1  0.99225800  0.27273500  0.51590400  1
  Ag  Ag19  1  0.98409600  0.00774200  0.77273500  1
  Ag  Ag20  1  0.72726500  0.01590400  0.50774200  1
  Ag  Ag21  1  0.49225800  0.22726500  0.48409600  1
  Ag  Ag22  1  0.48409600  0.49225800  0.22726500  1
  Ag  Ag23  1  0.22726500  0.48409600  0.49225800  1
  Ag  Ag24  1  0.35195800  0.85195800  0.64804200  1
  Ag  Ag25  1  0.85195800  0.64804200  0.35195800  1
  Ag  Ag26  1  0.64804200  0.35195800  0.85195800  1
  Ag  Ag27  1  0.14804200  0.14804200  0.14804200  1
  P  P28  1  0.75138000  0.25138000  0.24862000  1
  P  P29  1  0.25138000  0.24862000  0.75138000  1
  P  P30  1  0.24862000  0.75138000  0.25138000  1
  P  P31  1  0.74862000  0.74862000  0.74862000  1
  S  S32  1  0.86535700  0.36535700  0.13464300  1
  S  S33  1  0.36535700  0.13464300  0.86535700  1
  S  S34  1  0.13464300  0.86535700  0.36535700  1
  S  S35  1  0.63464300  0.63464300  0.63464300  1
  S  S36  1  0.35458700  0.86834300  0.13309200  1
  S  S37  1  0.86690800  0.85458700  0.63165700  1
  S  S38  1  0.36834300  0.36690800  0.64541300  1
  S  S39  1  0.85458700  0.63165700  0.86690800  1
  S  S40  1  0.36690800  0.64541300  0.36834300  1
  S  S41  1  0.86834300  0.13309200  0.35458700  1
  S  S42  1  0.64541300  0.36834300  0.36690800  1
  S  S43  1  0.13309200  0.35458700  0.86834300  1
  S  S44  1  0.63165700  0.86690800  0.85458700  1
  S  S45  1  0.14541300  0.13165700  0.63309200  1
  S  S46  1  0.63309200  0.14541300  0.13165700  1
  S  S47  1  0.13165700  0.63309200  0.14541300  1
  S  S48  1  0.21923000  0.71923000  0.78077000  1
  S  S49  1  0.71923000  0.78077000  0.21923000  1
  S  S50  1  0.78077000  0.21923000  0.71923000  1
  S  S51  1  0.28077000  0.28077000  0.28077000  1
  S  S52  1  0.48534000  0.98534000  0.51466000  1
  S  S53  1  0.98534000  0.51466000  0.48534000  1
  S  S54  1  0.51466000  0.48534000  0.98534000  1
  S  S55  1  0.01466000  0.01466000  0.01466000  1
