# generated using pymatgen
data_K2P4PtCSNO11
_symmetry_space_group_name_H-M   'P 1'
_cell_length_a   11.58309111
_cell_length_b   7.91226434
_cell_length_c   10.98738588
_cell_angle_alpha   109.31245789
_cell_angle_beta   120.61314952
_cell_angle_gamma   84.70297225
_symmetry_Int_Tables_number   1
_chemical_formula_structural   K2P4PtCSNO11
_chemical_formula_sum   'K4 P8 Pt2 C2 S2 N2 O22'
_cell_volume   814.26626067
_cell_formula_units_Z   2
loop_
 _symmetry_equiv_pos_site_id
 _symmetry_equiv_pos_as_xyz
  1  'x, y, z'
loop_
 _atom_site_type_symbol
 _atom_site_label
 _atom_site_symmetry_multiplicity
 _atom_site_fract_x
 _atom_site_fract_y
 _atom_site_fract_z
 _atom_site_occupancy
  K  K0  1  0.28467000  0.75030300  0.58358300  1
  K  K1  1  0.71533000  0.24969700  0.41641700  1
  K  K2  1  0.16936900  0.47452800  0.81104800  1
  K  K3  1  0.83063100  0.52547200  0.18895200  1
  P  P4  1  0.15698000  0.45003800  0.21033500  1
  P  P5  1  0.84302000  0.54996200  0.78966500  1
  P  P6  1  0.94587900  0.26135500  0.90880300  1
  P  P7  1  0.05412100  0.73864500  0.09119700  1
  P  P8  1  0.85574800  0.03251100  0.16336300  1
  P  P9  1  0.14425200  0.96748900  0.83663700  1
  P  P10  1  0.58762200  0.95922800  0.86553500  1
  P  P11  1  0.41237800  0.04077200  0.13446500  1
  Pt  Pt12  1  0.05579700  0.03731300  0.16398900  1
  Pt  Pt13  1  0.94420300  0.96268700  0.83601100  1
  C  C14  1  0.24341600  0.27228300  0.52351600  1
  C  C15  1  0.75658400  0.72771700  0.47648400  1
  S  S16  1  0.22718800  0.06065400  0.41827000  1
  S  S17  1  0.77281200  0.93934600  0.58173000  1
  N  N18  1  0.25737000  0.42102900  0.60314500  1
  N  N19  1  0.74263000  0.57897100  0.39685500  1
  O  O20  1  0.10066900  0.35420000  0.03164800  1
  O  O21  1  0.89933100  0.64580000  0.96835200  1
  O  O22  1  0.08672600  0.33693400  0.24693400  1
  O  O23  1  0.91327400  0.66306600  0.75306600  1
  O  O24  1  0.30439400  0.49365200  0.30063100  1
  O  O25  1  0.69560600  0.50634800  0.69936900  1
  O  O26  1  0.84599000  0.31281900  0.95816800  1
  O  O27  1  0.15401000  0.68718100  0.04183200  1
  O  O28  1  0.91761600  0.35681900  0.78393600  1
  O  O29  1  0.08238400  0.64318100  0.21606400  1
  O  O30  1  0.73897000  0.02509600  0.98142000  1
  O  O31  1  0.26103000  0.97490400  0.01858000  1
  O  O32  1  0.82916100  0.86749500  0.18519600  1
  O  O33  1  0.17083900  0.13250500  0.81480400  1
  O  O34  1  0.85245100  0.21651900  0.25866600  1
  O  O35  1  0.14754900  0.78348200  0.74133400  1
  O  O36  1  0.52488900  0.81506400  0.87629200  1
  O  O37  1  0.47511100  0.18493600  0.12370800  1
  O  O38  1  0.52200700  0.04799800  0.75087800  1
  O  O39  1  0.47799300  0.95200200  0.24912200  1
  O  O40  1  0.47332700  0.42239500  0.96112000  1
  O  O41  1  0.52667300  0.57760500  0.03888000  1
