# generated using pymatgen
data_Ca2(BO2)11
_symmetry_space_group_name_H-M   'P 1'
_cell_length_a   6.62236963
_cell_length_b   6.59200544
_cell_length_c   10.35974501
_cell_angle_alpha   78.22651753
_cell_angle_beta   88.89355211
_cell_angle_gamma   60.89346783
_symmetry_Int_Tables_number   1
_chemical_formula_structural   Ca2(BO2)11
_chemical_formula_sum   'Ca2 B11 O22'
_cell_volume   385.13346566
_cell_formula_units_Z   1
loop_
 _symmetry_equiv_pos_site_id
 _symmetry_equiv_pos_as_xyz
  1  'x, y, z'
loop_
 _atom_site_type_symbol
 _atom_site_label
 _atom_site_symmetry_multiplicity
 _atom_site_fract_x
 _atom_site_fract_y
 _atom_site_fract_z
 _atom_site_occupancy
  Ca  Ca0  1  0.00947000  0.99456700  0.98990200  1
  Ca  Ca1  1  0.55233000  0.88844200  0.22023300  1
  B  B2  1  0.89273700  0.59265400  0.97800200  1
  B  B3  1  0.43520600  0.48223100  0.23688900  1
  B  B4  1  0.30209800  0.35265800  0.92697600  1
  B  B5  1  0.86134100  0.20633500  0.27691800  1
  B  B6  1  0.05266900  0.77134300  0.29521000  1
  B  B7  1  0.49394200  0.92822300  0.91974000  1
  B  B8  1  0.13290000  0.37775100  0.26225300  1
  B  B9  1  0.57928400  0.51197300  0.94527100  1
  B  B10  1  0.36205100  0.24183700  0.71604100  1
  B  B11  1  0.97757800  0.93830000  0.49492600  1
  B  B12  1  0.62371600  0.64123000  0.57495000  1
  O  O13  1  0.86668000  0.00826300  0.22714100  1
  O  O14  1  0.26978900  0.71903300  0.22570700  1
  O  O15  1  0.32623100  0.11347400  0.98429200  1
  O  O16  1  0.97624400  0.60225200  0.27390600  1
  O  O17  1  0.37082500  0.30678000  0.25906000  1
  O  O18  1  0.07853700  0.21076100  0.24456000  1
  O  O19  1  0.52953000  0.33318900  0.95709300  1
  O  O20  1  0.73063300  0.81771700  0.99522900  1
  O  O21  1  0.11791400  0.54006400  0.98512300  1
  O  O22  1  0.65584800  0.43547400  0.21889000  1
  O  O23  1  0.41819800  0.74736100  0.93480300  1
  O  O24  1  0.81980100  0.43493400  0.96014600  1
  O  O25  1  0.24112800  0.41674200  0.78315700  1
  O  O26  1  0.86324400  0.16781800  0.42284900  1
  O  O27  1  0.51391600  0.01116900  0.78095600  1
  O  O28  1  0.09442200  0.74824100  0.43677900  1
  O  O29  1  0.67771400  0.52690000  0.69784400  1
  O  O30  1  0.95567400  0.89614700  0.63113400  1
  O  O31  1  0.62239000  0.62923900  0.44196100  1
  O  O32  1  0.51233200  0.87162600  0.49225100  1
  O  O33  1  0.33244100  0.28218900  0.57996100  1
  O  O34  1  0.90528600  0.15048200  0.74147900  1
