# generated using pymatgen
data_U2Re3Si5
_symmetry_space_group_name_H-M   'P 1'
_cell_length_a   10.96495900
_cell_length_b   10.96495900
_cell_length_c   5.48095200
_cell_angle_alpha   90.00000000
_cell_angle_beta   90.00000000
_cell_angle_gamma   90.00000000
_symmetry_Int_Tables_number   1
_chemical_formula_structural   U2Re3Si5
_chemical_formula_sum   'U8 Re12 Si20'
_cell_volume   658.97664505
_cell_formula_units_Z   4
loop_
 _symmetry_equiv_pos_site_id
 _symmetry_equiv_pos_as_xyz
  1  'x, y, z'
loop_
 _atom_site_type_symbol
 _atom_site_label
 _atom_site_symmetry_multiplicity
 _atom_site_fract_x
 _atom_site_fract_y
 _atom_site_fract_z
 _atom_site_occupancy
  U  U0  1  0.57093700  0.73648000  0.50000000  1
  U  U1  1  0.42906300  0.26352000  0.50000000  1
  U  U2  1  0.07093700  0.76352000  0.00000000  1
  U  U3  1  0.92906300  0.23648000  0.00000000  1
  U  U4  1  0.26352000  0.57093700  0.50000000  1
  U  U5  1  0.73648000  0.42906300  0.50000000  1
  U  U6  1  0.23648000  0.07093700  0.00000000  1
  U  U7  1  0.76352000  0.92906300  0.00000000  1
  Re  Re8  1  0.87425900  0.85957400  0.50000000  1
  Re  Re9  1  0.12574100  0.14042600  0.50000000  1
  Re  Re10  1  0.37425900  0.64042600  0.00000000  1
  Re  Re11  1  0.62574100  0.35957400  0.00000000  1
  Re  Re12  1  0.14042600  0.87425900  0.50000000  1
  Re  Re13  1  0.85957400  0.12574100  0.50000000  1
  Re  Re14  1  0.35957400  0.37425900  0.00000000  1
  Re  Re15  1  0.64042600  0.62574100  0.00000000  1
  Re  Re16  1  0.50000000  0.00000000  0.25000000  1
  Re  Re17  1  0.00000000  0.50000000  0.75000000  1
  Re  Re18  1  0.00000000  0.50000000  0.25000000  1
  Re  Re19  1  0.50000000  0.00000000  0.75000000  1
  Si  Si20  1  0.67646400  0.17646400  0.25000000  1
  Si  Si21  1  0.32353600  0.82353600  0.25000000  1
  Si  Si22  1  0.17646400  0.32353600  0.75000000  1
  Si  Si23  1  0.82353600  0.67646400  0.75000000  1
  Si  Si24  1  0.82353600  0.67646400  0.25000000  1
  Si  Si25  1  0.17646400  0.32353600  0.25000000  1
  Si  Si26  1  0.67646400  0.17646400  0.75000000  1
  Si  Si27  1  0.32353600  0.82353600  0.75000000  1
  Si  Si28  1  0.50000000  0.50000000  0.26831700  1
  Si  Si29  1  0.00000000  0.00000000  0.76831700  1
  Si  Si30  1  0.50000000  0.50000000  0.73168300  1
  Si  Si31  1  0.00000000  0.00000000  0.23168300  1
  Si  Si32  1  0.68464600  0.97668500  0.50000000  1
  Si  Si33  1  0.31535400  0.02331500  0.50000000  1
  Si  Si34  1  0.18464600  0.52331500  0.00000000  1
  Si  Si35  1  0.81535400  0.47668500  0.00000000  1
  Si  Si36  1  0.02331500  0.68464600  0.50000000  1
  Si  Si37  1  0.97668500  0.31535400  0.50000000  1
  Si  Si38  1  0.47668500  0.18464600  0.00000000  1
  Si  Si39  1  0.52331500  0.81535400  0.00000000  1
