# generated using pymatgen
data_K2UH4C5(NO6)2
_symmetry_space_group_name_H-M   'P 1'
_cell_length_a   6.88291500
_cell_length_b   8.90315700
_cell_length_c   24.45002186
_cell_angle_alpha   84.15564452
_cell_angle_beta   90.00000000
_cell_angle_gamma   90.00000000
_symmetry_Int_Tables_number   1
_chemical_formula_structural   K2UH4C5(NO6)2
_chemical_formula_sum   'K8 U4 H16 C20 N8 O48'
_cell_volume   1490.50149986
_cell_formula_units_Z   4
loop_
 _symmetry_equiv_pos_site_id
 _symmetry_equiv_pos_as_xyz
  1  'x, y, z'
loop_
 _atom_site_type_symbol
 _atom_site_label
 _atom_site_symmetry_multiplicity
 _atom_site_fract_x
 _atom_site_fract_y
 _atom_site_fract_z
 _atom_site_occupancy
  K  K0  1  0.62894200  0.01134100  0.11693000  1
  K  K1  1  0.12894200  0.98865900  0.38307000  1
  K  K2  1  0.37105800  0.98865900  0.88307000  1
  K  K3  1  0.87105800  0.01134100  0.61693000  1
  K  K4  1  0.66635800  0.48647300  0.09018800  1
  K  K5  1  0.16635800  0.51352700  0.40981200  1
  K  K6  1  0.33364200  0.51352700  0.90981200  1
  K  K7  1  0.83364200  0.48647300  0.59018800  1
  U  U8  1  0.14414300  0.71187200  0.14011000  1
  U  U9  1  0.64414300  0.28812800  0.35989000  1
  U  U10  1  0.85585700  0.28812800  0.85989000  1
  U  U11  1  0.35585700  0.71187200  0.64011000  1
  H  H12  1  0.15373500  0.11132200  0.16094100  1
  H  H13  1  0.65373500  0.88867800  0.33905900  1
  H  H14  1  0.84626500  0.88867800  0.83905900  1
  H  H15  1  0.34626500  0.11132200  0.66094100  1
  H  H16  1  0.08544900  0.22967400  0.10190300  1
  H  H17  1  0.58544900  0.77032600  0.39809700  1
  H  H18  1  0.91455100  0.77032600  0.89809700  1
  H  H19  1  0.41455100  0.22967400  0.60190300  1
  H  H20  1  0.17030600  0.21992400  0.24608100  1
  H  H21  1  0.67030600  0.78007600  0.25391900  1
  H  H22  1  0.82969400  0.78007600  0.75391900  1
  H  H23  1  0.32969400  0.21992400  0.74608100  1
  H  H24  1  0.11497200  0.41526900  0.24577800  1
  H  H25  1  0.61497200  0.58473100  0.25422200  1
  H  H26  1  0.88502800  0.58473100  0.75422200  1
  H  H27  1  0.38502800  0.41526900  0.74577800  1
  C  C28  1  0.17620800  0.77795900  0.00523500  1
  C  C29  1  0.67620800  0.22204100  0.49476500  1
  C  C30  1  0.82379200  0.22204100  0.99476500  1
  C  C31  1  0.32379200  0.77795900  0.50523500  1
  C  C32  1  0.22853200  0.93676600  0.02635200  1
  C  C33  1  0.72853200  0.06323400  0.47364800  1
  C  C34  1  0.77146800  0.06323400  0.97364800  1
  C  C35  1  0.27146800  0.93676600  0.52635200  1
  C  C36  1  0.19961500  0.90882800  0.24541200  1
  C  C37  1  0.69961500  0.09117200  0.25458800  1
  C  C38  1  0.80038500  0.09117200  0.75458800  1
  C  C39  1  0.30038500  0.90882800  0.74541200  1
  C  C40  1  0.13973800  0.74973300  0.27251300  1
  C  C41  1  0.63973800  0.25026700  0.22748700  1
  C  C42  1  0.86026200  0.25026700  0.72748700  1
  C  C43  1  0.36026200  0.74973300  0.77251300  1
  C  C44  1  0.09471400  0.33446700  0.17159800  1
  C  C45  1  0.59471400  0.66553300  0.32840200  1
  C  C46  1  0.90528600  0.66553300  0.82840200  1
  C  C47  1  0.40528600  0.33446700  0.67159800  1
  N  N48  1  0.11385800  0.21582000  0.14285600  1
  N  N49  1  0.61385800  0.78418000  0.35714400  1
  N  N50  1  0.88614200  0.78418000  0.85714400  1
  N  N51  1  0.38614200  0.21582000  0.64285600  1
  N  N52  1  0.12322700  0.32017800  0.22603900  1
  N  N53  1  0.62322700  0.67982200  0.27396100  1
  N  N54  1  0.87677300  0.67982200  0.77396100  1
  N  N55  1  0.37677300  0.32017800  0.72603900  1
  O  O56  1  0.88868700  0.76603900  0.13485800  1
  O  O57  1  0.38868700  0.23396100  0.36514200  1
  O  O58  1  0.11131300  0.23396100  0.86514200  1
  O  O59  1  0.61131300  0.76603900  0.63485800  1
  O  O60  1  0.39955900  0.65678400  0.14276300  1
  O  O61  1  0.89955900  0.34321600  0.35723700  1
  O  O62  1  0.60044100  0.34321600  0.85723700  1
  O  O63  1  0.10044100  0.65678400  0.64276300  1
  O  O64  1  0.11637800  0.65236400  0.23732300  1
  O  O65  1  0.61637800  0.34763600  0.26267700  1
  O  O66  1  0.88362200  0.34763600  0.76267700  1
  O  O67  1  0.38362200  0.65236400  0.73732300  1
  O  O68  1  0.13841200  0.67650400  0.04476900  1
  O  O69  1  0.63841200  0.32349600  0.45523100  1
  O  O70  1  0.86158800  0.32349600  0.95523100  1
  O  O71  1  0.36158800  0.67650400  0.54476900  1
  O  O72  1  0.23554100  0.93273600  0.07884200  1
  O  O73  1  0.73554100  0.06726400  0.42115800  1
  O  O74  1  0.76445900  0.06726400  0.92115800  1
  O  O75  1  0.26445900  0.93273600  0.57884200  1
  O  O76  1  0.04321900  0.46345500  0.14652500  1
  O  O77  1  0.54321900  0.53654500  0.35347500  1
  O  O78  1  0.95678100  0.53654500  0.85347500  1
  O  O79  1  0.45678100  0.46345500  0.64652500  1
  O  O80  1  0.21692100  0.91664100  0.19250800  1
  O  O81  1  0.71692100  0.08335900  0.30749200  1
  O  O82  1  0.78307900  0.08335900  0.80749200  1
  O  O83  1  0.28307900  0.91664100  0.69250800  1
  O  O84  1  0.11822600  0.72801800  0.32312700  1
  O  O85  1  0.61822600  0.27198200  0.17687300  1
  O  O86  1  0.88177400  0.27198200  0.67687300  1
  O  O87  1  0.38177400  0.72801800  0.82312700  1
  O  O88  1  0.26020500  0.04659400  0.99179800  1
  O  O89  1  0.76020500  0.95340600  0.50820200  1
  O  O90  1  0.73979500  0.95340600  0.00820200  1
  O  O91  1  0.23979500  0.04659400  0.49179800  1
  O  O92  1  0.22528500  0.01519000  0.27386900  1
  O  O93  1  0.72528500  0.98481000  0.22613100  1
  O  O94  1  0.77471500  0.98481000  0.72613100  1
  O  O95  1  0.27471500  0.01519000  0.77386900  1
  O  O96  1  0.17998100  0.76345300  0.95526100  1
  O  O97  1  0.67998100  0.23654700  0.54473900  1
  O  O98  1  0.82001900  0.23654700  0.04473900  1
  O  O99  1  0.32001900  0.76345300  0.45526100  1
  O  O100  1  0.35006300  0.33993800  0.01767700  1
  O  O101  1  0.85006300  0.66006200  0.48232300  1
  O  O102  1  0.64993700  0.66006200  0.98232300  1
  O  O103  1  0.14993700  0.33993800  0.51767700  1
