# generated using pymatgen
data_TaN2Cl5
_symmetry_space_group_name_H-M   'P 1'
_cell_length_a   7.09961200
_cell_length_b   7.09961200
_cell_length_c   18.63808100
_cell_angle_alpha   90.00000000
_cell_angle_beta   90.00000000
_cell_angle_gamma   90.00000000
_symmetry_Int_Tables_number   1
_chemical_formula_structural   TaN2Cl5
_chemical_formula_sum   'Ta4 N8 Cl20'
_cell_volume   939.44297764
_cell_formula_units_Z   4
loop_
 _symmetry_equiv_pos_site_id
 _symmetry_equiv_pos_as_xyz
  1  'x, y, z'
loop_
 _atom_site_type_symbol
 _atom_site_label
 _atom_site_symmetry_multiplicity
 _atom_site_fract_x
 _atom_site_fract_y
 _atom_site_fract_z
 _atom_site_occupancy
  Ta  Ta0  1  0.50000000  0.50000000  0.38546700  1
  Ta  Ta1  1  0.00000000  0.00000000  0.88546700  1
  Ta  Ta2  1  0.50000000  0.50000000  0.61453300  1
  Ta  Ta3  1  0.00000000  0.00000000  0.11453300  1
  N  N4  1  0.50000000  0.50000000  0.50000000  1
  N  N5  1  0.00000000  0.00000000  0.00000000  1
  N  N6  1  0.50000000  0.00000000  0.25000000  1
  N  N7  1  0.00000000  0.50000000  0.75000000  1
  N  N8  1  0.00000000  0.50000000  0.25000000  1
  N  N9  1  0.50000000  0.00000000  0.75000000  1
  N  N10  1  0.50000000  0.50000000  0.00000000  1
  N  N11  1  0.00000000  0.00000000  0.50000000  1
  Cl  Cl12  1  0.76583800  0.69521400  0.39854600  1
  Cl  Cl13  1  0.23416200  0.30478600  0.39854600  1
  Cl  Cl14  1  0.73416200  0.19521400  0.89854600  1
  Cl  Cl15  1  0.26583800  0.80478600  0.89854600  1
  Cl  Cl16  1  0.69521400  0.23416200  0.39854600  1
  Cl  Cl17  1  0.30478600  0.76583800  0.39854600  1
  Cl  Cl18  1  0.19521400  0.26583800  0.89854600  1
  Cl  Cl19  1  0.80478600  0.73416200  0.89854600  1
  Cl  Cl20  1  0.23416200  0.30478600  0.60145400  1
  Cl  Cl21  1  0.76583800  0.69521400  0.60145400  1
  Cl  Cl22  1  0.26583800  0.80478600  0.10145400  1
  Cl  Cl23  1  0.73416200  0.19521400  0.10145400  1
  Cl  Cl24  1  0.30478600  0.76583800  0.60145400  1
  Cl  Cl25  1  0.69521400  0.23416200  0.60145400  1
  Cl  Cl26  1  0.80478600  0.73416200  0.10145400  1
  Cl  Cl27  1  0.19521400  0.26583800  0.10145400  1
  Cl  Cl28  1  0.50000000  0.50000000  0.26104700  1
  Cl  Cl29  1  0.00000000  0.00000000  0.76104700  1
  Cl  Cl30  1  0.50000000  0.50000000  0.73895300  1
  Cl  Cl31  1  0.00000000  0.00000000  0.23895300  1
