# generated using pymatgen
data_K4Th(C2O5)4
_symmetry_space_group_name_H-M   'P 1'
_cell_length_a   9.42522900
_cell_length_b   10.57699095
_cell_length_c   12.70330498
_cell_angle_alpha   111.43232029
_cell_angle_beta   105.88759837
_cell_angle_gamma   98.21761275
_symmetry_Int_Tables_number   1
_chemical_formula_structural   K4Th(C2O5)4
_chemical_formula_sum   'K8 Th2 C16 O40'
_cell_volume   1091.24922282
_cell_formula_units_Z   2
loop_
 _symmetry_equiv_pos_site_id
 _symmetry_equiv_pos_as_xyz
  1  'x, y, z'
loop_
 _atom_site_type_symbol
 _atom_site_label
 _atom_site_symmetry_multiplicity
 _atom_site_fract_x
 _atom_site_fract_y
 _atom_site_fract_z
 _atom_site_occupancy
  K  K0  1  0.74149100  0.27102900  0.18295600  1
  K  K1  1  0.25850900  0.72897100  0.81704400  1
  K  K2  1  0.08580900  0.58938100  0.28707300  1
  K  K3  1  0.91419100  0.41061900  0.71292700  1
  K  K4  1  0.36411400  0.89202300  0.57682300  1
  K  K5  1  0.63588600  0.10797700  0.42317700  1
  K  K6  1  0.33296200  0.35545500  0.83983900  1
  K  K7  1  0.66703800  0.64454500  0.16016100  1
  Th  Th8  1  0.77637600  0.77427200  0.72202900  1
  Th  Th9  1  0.22362400  0.22572800  0.27797100  1
  C  C10  1  0.93112200  0.02991600  0.00666900  1
  C  C11  1  0.06887800  0.97008400  0.99333100  1
  C  C12  1  0.55047000  0.45061300  0.50856600  1
  C  C13  1  0.44953000  0.54938700  0.49143400  1
  C  C14  1  0.92916300  0.08217200  0.72101500  1
  C  C15  1  0.07083700  0.91782800  0.27898500  1
  C  C16  1  0.75133300  0.07002000  0.68441700  1
  C  C17  1  0.24866700  0.92998000  0.31558300  1
  C  C18  1  0.99419700  0.67639000  0.56064100  1
  C  C19  1  0.00580300  0.32361000  0.43935900  1
  C  C20  1  0.84518900  0.66260600  0.46075200  1
  C  C21  1  0.15481100  0.33739400  0.53924800  1
  C  C22  1  0.73172900  0.60039700  0.89555800  1
  C  C23  1  0.26827100  0.39960300  0.10444200  1
  C  C24  1  0.58431700  0.65573000  0.87276400  1
  C  C25  1  0.41568300  0.34427000  0.12723600  1
  O  O26  1  0.80532300  0.96816500  0.91793300  1
  O  O27  1  0.19467700  0.03183500  0.08206700  1
  O  O28  1  0.04587900  0.86556400  0.89565600  1
  O  O29  1  0.95412100  0.13443600  0.10434400  1
  O  O30  1  0.67622900  0.50643100  0.59721300  1
  O  O31  1  0.32377100  0.49356900  0.40278700  1
  O  O32  1  0.49989000  0.67763200  0.56692600  1
  O  O33  1  0.50011000  0.32236800  0.43307400  1
  O  O34  1  0.96093500  0.97200000  0.72988000  1
  O  O35  1  0.03906500  0.02800000  0.27012000  1
  O  O36  1  0.67055000  0.96331500  0.68615300  1
  O  O37  1  0.32945000  0.03668500  0.31384700  1
  O  O38  1  0.02011000  0.19092400  0.73735100  1
  O  O39  1  0.97989000  0.80907600  0.26264900  1
  O  O40  1  0.70215500  0.16071800  0.65477000  1
  O  O41  1  0.29784500  0.83928200  0.34523000  1
  O  O42  1  0.97498300  0.67563100  0.65726200  1
  O  O43  1  0.02501700  0.32436900  0.34273800  1
  O  O44  1  0.75509900  0.72633700  0.50518900  1
  O  O45  1  0.24490100  0.27366300  0.49481100  1
  O  O46  1  0.11963700  0.69130100  0.54527700  1
  O  O47  1  0.88036300  0.30869900  0.45472300  1
  O  O48  1  0.82604000  0.59562400  0.35170800  1
  O  O49  1  0.17396000  0.40437600  0.64829200  1
  O  O50  1  0.82479200  0.63322400  0.84724200  1
  O  O51  1  0.17520800  0.36677600  0.15275800  1
  O  O52  1  0.57141300  0.71778900  0.80258500  1
  O  O53  1  0.42858700  0.28221100  0.19741500  1
  O  O54  1  0.74167600  0.53164100  0.95778900  1
  O  O55  1  0.25832400  0.46835900  0.04221100  1
  O  O56  1  0.49188800  0.63562000  0.92340400  1
  O  O57  1  0.50811200  0.36438000  0.07659600  1
  O  O58  1  0.86983400  0.38745100  0.03808000  1
  O  O59  1  0.13016600  0.61254900  0.96192000  1
  O  O60  1  0.37840800  0.05006600  0.83940300  1
  O  O61  1  0.62159200  0.94993400  0.16059700  1
  O  O62  1  0.57825500  0.81428100  0.35304500  1
  O  O63  1  0.42174500  0.18571900  0.64695500  1
  O  O64  1  0.51579500  0.09709200  0.90316200  1
  O  O65  1  0.48420500  0.90290800  0.09683800  1
