# generated using pymatgen
data_NaB24S6(Br2O)12
_symmetry_space_group_name_H-M   'P 1'
_cell_length_a   13.26402199
_cell_length_b   13.26402199
_cell_length_c   19.71380600
_cell_angle_alpha   90.00000000
_cell_angle_beta   90.00000000
_cell_angle_gamma   119.99999996
_symmetry_Int_Tables_number   1
_chemical_formula_structural   NaB24S6(Br2O)12
_chemical_formula_sum   'Na2 B48 S12 Br48 O24'
_cell_volume   3003.66557329
_cell_formula_units_Z   2
loop_
 _symmetry_equiv_pos_site_id
 _symmetry_equiv_pos_as_xyz
  1  'x, y, z'
loop_
 _atom_site_type_symbol
 _atom_site_label
 _atom_site_symmetry_multiplicity
 _atom_site_fract_x
 _atom_site_fract_y
 _atom_site_fract_z
 _atom_site_occupancy
  Na  Na0  1  0.66666700  0.33333300  0.25000000  1
  Na  Na1  1  0.33333300  0.66666700  0.75000000  1
  B  B2  1  0.33329600  0.74532000  0.31908700  1
  B  B3  1  0.41202300  0.66670400  0.31908700  1
  B  B4  1  0.25468000  0.58797700  0.31908700  1
  B  B5  1  0.58797700  0.25468000  0.81908700  1
  B  B6  1  0.66670400  0.41202300  0.81908700  1
  B  B7  1  0.74532000  0.33329600  0.81908700  1
  B  B8  1  0.66670400  0.25468000  0.68091300  1
  B  B9  1  0.58797700  0.33329600  0.68091300  1
  B  B10  1  0.74532000  0.41202300  0.68091300  1
  B  B11  1  0.41202300  0.74532000  0.18091300  1
  B  B12  1  0.33329600  0.58797700  0.18091300  1
  B  B13  1  0.25468000  0.66670400  0.18091300  1
  B  B14  1  0.46069700  0.79430400  0.26625500  1
  B  B15  1  0.33360700  0.53930300  0.26625500  1
  B  B16  1  0.20569600  0.66639300  0.26625500  1
  B  B17  1  0.66639300  0.20569600  0.76625500  1
  B  B18  1  0.53930300  0.33360700  0.76625500  1
  B  B19  1  0.79430400  0.46069700  0.76625500  1
  B  B20  1  0.53930300  0.20569600  0.73374500  1
  B  B21  1  0.66639300  0.46069700  0.73374500  1
  B  B22  1  0.79430400  0.33360700  0.73374500  1
  B  B23  1  0.33360700  0.79430400  0.23374500  1
  B  B24  1  0.46069700  0.66639300  0.23374500  1
  B  B25  1  0.20569600  0.53930300  0.23374500  1
  B  B26  1  0.99901200  0.92028800  0.56919000  1
  B  B27  1  0.92127600  0.00098800  0.56919000  1
  B  B28  1  0.07971200  0.07872400  0.56919000  1
  B  B29  1  0.07872400  0.07971200  0.06919000  1
  B  B30  1  0.00098800  0.92127600  0.06919000  1
  B  B31  1  0.92028800  0.99901200  0.06919000  1
  B  B32  1  0.00098800  0.07971200  0.43081000  1
  B  B33  1  0.07872400  0.99901200  0.43081000  1
  B  B34  1  0.92028800  0.92127600  0.43081000  1
  B  B35  1  0.92127600  0.92028800  0.93081000  1
  B  B36  1  0.99901200  0.07872400  0.93081000  1
  B  B37  1  0.07971200  0.00098800  0.93081000  1
  B  B38  1  0.12427100  0.99438800  0.51719200  1
  B  B39  1  0.87011700  0.87572900  0.51719200  1
  B  B40  1  0.00561200  0.12988300  0.51719200  1
  B  B41  1  0.12988300  0.00561200  0.01719200  1
  B  B42  1  0.87572900  0.87011700  0.01719200  1
  B  B43  1  0.99438800  0.12427100  0.01719200  1
  B  B44  1  0.87572900  0.00561200  0.48280800  1
  B  B45  1  0.12988300  0.12427100  0.48280800  1
  B  B46  1  0.99438800  0.87011700  0.48280800  1
  B  B47  1  0.87011700  0.99438800  0.98280800  1
  B  B48  1  0.12427100  0.12988300  0.98280800  1
  B  B49  1  0.00561200  0.87572900  0.98280800  1
  S  S50  1  0.48515400  0.14799800  0.39182800  1
  S  S51  1  0.66284400  0.51484600  0.39182800  1
  S  S52  1  0.85200200  0.33715600  0.39182800  1
  S  S53  1  0.33715600  0.85200200  0.89182800  1
  S  S54  1  0.51484600  0.66284400  0.89182800  1
  S  S55  1  0.14799800  0.48515400  0.89182800  1
  S  S56  1  0.51484600  0.85200200  0.60817200  1
  S  S57  1  0.33715600  0.48515400  0.60817200  1
  S  S58  1  0.14799800  0.66284400  0.60817200  1
  S  S59  1  0.66284400  0.14799800  0.10817200  1
  S  S60  1  0.48515400  0.33715600  0.10817200  1
  S  S61  1  0.85200200  0.51484600  0.10817200  1
  Br  Br62  1  0.33364000  0.83241700  0.39870600  1
  Br  Br63  1  0.49877700  0.66636000  0.39870600  1
  Br  Br64  1  0.16758300  0.50122300  0.39870600  1
  Br  Br65  1  0.50122300  0.16758300  0.89870600  1
  Br  Br66  1  0.66636000  0.49877700  0.89870600  1
  Br  Br67  1  0.83241700  0.33364000  0.89870600  1
  Br  Br68  1  0.66636000  0.16758300  0.60129400  1
  Br  Br69  1  0.50122300  0.33364000  0.60129400  1
  Br  Br70  1  0.83241700  0.49877700  0.60129400  1
  Br  Br71  1  0.49877700  0.83241700  0.10129400  1
  Br  Br72  1  0.33364000  0.50122300  0.10129400  1
  Br  Br73  1  0.16758300  0.66636000  0.10129400  1
  Br  Br74  1  0.60383700  0.93921000  0.28442400  1
  Br  Br75  1  0.33537300  0.39616300  0.28442400  1
  Br  Br76  1  0.06079000  0.66462700  0.28442400  1
  Br  Br77  1  0.66462700  0.06079000  0.78442400  1
  Br  Br78  1  0.39616300  0.33537300  0.78442400  1
  Br  Br79  1  0.93921000  0.60383700  0.78442400  1
  Br  Br80  1  0.39616300  0.06079000  0.71557600  1
  Br  Br81  1  0.66462700  0.60383700  0.71557600  1
  Br  Br82  1  0.93921000  0.33537300  0.71557600  1
  Br  Br83  1  0.33537300  0.93921000  0.21557600  1
  Br  Br84  1  0.60383700  0.66462700  0.21557600  1
  Br  Br85  1  0.06079000  0.39616300  0.21557600  1
  Br  Br86  1  0.99725900  0.83323400  0.64880200  1
  Br  Br87  1  0.83597500  0.00274100  0.64880200  1
  Br  Br88  1  0.16676600  0.16402500  0.64880200  1
  Br  Br89  1  0.16402500  0.16676600  0.14880200  1
  Br  Br90  1  0.00274100  0.83597500  0.14880200  1
  Br  Br91  1  0.83323400  0.99725900  0.14880200  1
  Br  Br92  1  0.00274100  0.16676600  0.35119800  1
  Br  Br93  1  0.16402500  0.99725900  0.35119800  1
  Br  Br94  1  0.83323400  0.83597500  0.35119800  1
  Br  Br95  1  0.83597500  0.83323400  0.85119800  1
  Br  Br96  1  0.99725900  0.16402500  0.85119800  1
  Br  Br97  1  0.16676600  0.00274100  0.85119800  1
  Br  Br98  1  0.26451900  0.98777100  0.53688300  1
  Br  Br99  1  0.72325300  0.73548100  0.53688300  1
  Br  Br100  1  0.01222900  0.27674700  0.53688300  1
  Br  Br101  1  0.27674700  0.01222900  0.03688300  1
  Br  Br102  1  0.73548100  0.72325300  0.03688300  1
  Br  Br103  1  0.98777100  0.26451900  0.03688300  1
  Br  Br104  1  0.73548100  0.01222900  0.46311700  1
  Br  Br105  1  0.27674700  0.26451900  0.46311700  1
  Br  Br106  1  0.98777100  0.72325300  0.46311700  1
  Br  Br107  1  0.72325300  0.98777100  0.96311700  1
  Br  Br108  1  0.26451900  0.27674700  0.96311700  1
  Br  Br109  1  0.01222900  0.73548100  0.96311700  1
  O  O110  1  0.50927700  0.19948900  0.32445900  1
  O  O111  1  0.69021200  0.49072300  0.32445900  1
  O  O112  1  0.80051100  0.30978800  0.32445900  1
  O  O113  1  0.30978800  0.80051100  0.82445900  1
  O  O114  1  0.49072300  0.69021200  0.82445900  1
  O  O115  1  0.19948900  0.50927700  0.82445900  1
  O  O116  1  0.49072300  0.80051100  0.67554100  1
  O  O117  1  0.30978800  0.50927700  0.67554100  1
  O  O118  1  0.19948900  0.69021200  0.67554100  1
  O  O119  1  0.69021200  0.19948900  0.17554100  1
  O  O120  1  0.50927700  0.30978800  0.17554100  1
  O  O121  1  0.80051100  0.49072300  0.17554100  1
  O  O122  1  0.58316900  0.15753100  0.42990600  1
  O  O123  1  0.57436200  0.41683100  0.42990600  1
  O  O124  1  0.84246900  0.42563800  0.42990600  1
  O  O125  1  0.42563800  0.84246900  0.92990600  1
  O  O126  1  0.41683100  0.57436200  0.92990600  1
  O  O127  1  0.15753100  0.58316900  0.92990600  1
  O  O128  1  0.41683100  0.84246900  0.57009400  1
  O  O129  1  0.42563800  0.58316900  0.57009400  1
  O  O130  1  0.15753100  0.57436200  0.57009400  1
  O  O131  1  0.57436200  0.15753100  0.07009400  1
  O  O132  1  0.58316900  0.42563800  0.07009400  1
  O  O133  1  0.84246900  0.41683100  0.07009400  1
