# generated using pymatgen
data_K2AlB5O14
_symmetry_space_group_name_H-M   'P 1'
_cell_length_a   13.42169100
_cell_length_b   7.01016200
_cell_length_c   7.03477357
_cell_angle_alpha   89.64824658
_cell_angle_beta   90.00000000
_cell_angle_gamma   90.00000000
_symmetry_Int_Tables_number   1
_chemical_formula_structural   K2AlB5O14
_chemical_formula_sum   'K4 Al2 B10 O28'
_cell_volume   661.87690788
_cell_formula_units_Z   2
loop_
 _symmetry_equiv_pos_site_id
 _symmetry_equiv_pos_as_xyz
  1  'x, y, z'
loop_
 _atom_site_type_symbol
 _atom_site_label
 _atom_site_symmetry_multiplicity
 _atom_site_fract_x
 _atom_site_fract_y
 _atom_site_fract_z
 _atom_site_occupancy
  K  K0  1  0.63191300  0.41467200  0.44693700  1
  K  K1  1  0.13191300  0.58532800  0.55306300  1
  K  K2  1  0.91859100  0.97735100  0.90373100  1
  K  K3  1  0.41859100  0.02264900  0.09626900  1
  Al  Al4  1  0.77963300  0.87863600  0.38172700  1
  Al  Al5  1  0.27963300  0.12136400  0.61827300  1
  B  B6  1  0.65131500  0.76901800  0.08446900  1
  B  B7  1  0.15131500  0.23098200  0.91553100  1
  B  B8  1  0.70410400  0.79330600  0.75245100  1
  B  B9  1  0.20410400  0.20669400  0.24754900  1
  B  B10  1  0.52909900  0.67662700  0.81802100  1
  B  B11  1  0.02909900  0.32337300  0.18197900  1
  B  B12  1  0.40898800  0.41739100  0.73111700  1
  B  B13  1  0.90898800  0.58260900  0.26888300  1
  B  B14  1  0.35591600  0.74999500  0.70411700  1
  B  B15  1  0.85591600  0.25000500  0.29588300  1
  O  O16  1  0.78159900  0.12654300  0.33970700  1
  O  O17  1  0.28159900  0.87345700  0.66029300  1
  O  O18  1  0.66234300  0.25480600  0.93384800  1
  O  O19  1  0.16234300  0.74519400  0.06615200  1
  O  O20  1  0.77771500  0.84157100  0.62988100  1
  O  O21  1  0.27771500  0.15842900  0.37011900  1
  O  O22  1  0.45987200  0.54802700  0.22194700  1
  O  O23  1  0.95987200  0.45197300  0.77805300  1
  O  O24  1  0.88759300  0.77073700  0.28625600  1
  O  O25  1  0.38759300  0.22926300  0.71374400  1
  O  O26  1  0.02849900  0.98054900  0.51847900  1
  O  O27  1  0.52849900  0.01945100  0.48152100  1
  O  O28  1  0.67142400  0.78190300  0.27199600  1
  O  O29  1  0.17142400  0.21809700  0.72800400  1
  O  O30  1  0.73765600  0.28643500  0.83717100  1
  O  O31  1  0.23765600  0.71356500  0.16282900  1
  O  O32  1  0.55851400  0.71169300  0.02106200  1
  O  O33  1  0.05851400  0.28830700  0.97893800  1
  O  O34  1  0.72322400  0.81806100  0.94785000  1
  O  O35  1  0.22322400  0.18193900  0.05215000  1
  O  O36  1  0.61490400  0.71862500  0.69454500  1
  O  O37  1  0.11490400  0.28137500  0.30545500  1
  O  O38  1  0.44667500  0.80809700  0.77369300  1
  O  O39  1  0.94667500  0.19190300  0.22630700  1
  O  O40  1  0.50106400  0.47622000  0.79248600  1
  O  O41  1  0.00106400  0.52378000  0.20751400  1
  O  O42  1  0.33609900  0.55455400  0.68405700  1
  O  O43  1  0.83609900  0.44544600  0.31594300  1
