# generated using pymatgen
data_Na4ZnP4H16C2(NO8)2
_symmetry_space_group_name_H-M   'P 1'
_cell_length_a   5.62754300
_cell_length_b   6.21215961
_cell_length_c   12.53102599
_cell_angle_alpha   92.23176455
_cell_angle_beta   92.57213637
_cell_angle_gamma   94.05933776
_symmetry_Int_Tables_number   1
_chemical_formula_structural   Na4ZnP4H16C2(NO8)2
_chemical_formula_sum   'Na4 Zn1 P4 H16 C2 N2 O16'
_cell_volume   436.14521626
_cell_formula_units_Z   1
loop_
 _symmetry_equiv_pos_site_id
 _symmetry_equiv_pos_as_xyz
  1  'x, y, z'
loop_
 _atom_site_type_symbol
 _atom_site_label
 _atom_site_symmetry_multiplicity
 _atom_site_fract_x
 _atom_site_fract_y
 _atom_site_fract_z
 _atom_site_occupancy
  Na  Na0  1  0.48222200  0.90765800  0.68631900  1
  Na  Na1  1  0.51777800  0.09234200  0.31368100  1
  Na  Na2  1  0.88779400  0.90353000  0.88359100  1
  Na  Na3  1  0.11220600  0.09647000  0.11640900  1
  Zn  Zn4  1  0.50000000  0.50000000  0.50000000  1
  P  P5  1  0.63791300  0.39598700  0.75059800  1
  P  P6  1  0.36208700  0.60401300  0.24940200  1
  P  P7  1  0.98950500  0.69843700  0.63537800  1
  P  P8  1  0.01049500  0.30156300  0.36462200  1
  H  H9  1  0.00005600  0.11053600  0.67643300  1
  H  H10  1  0.99994400  0.88946400  0.32356700  1
  H  H11  1  0.19041100  0.28502800  0.62187900  1
  H  H12  1  0.80958900  0.71497200  0.37812100  1
  H  H13  1  0.90941900  0.25203500  0.56641400  1
  H  H14  1  0.09058100  0.74796500  0.43358600  1
  H  H15  1  0.35146800  0.64686700  0.90099500  1
  H  H16  1  0.64853200  0.35313300  0.09900500  1
  H  H17  1  0.28032300  0.68834200  0.02114800  1
  H  H18  1  0.71967700  0.31165800  0.97885200  1
  H  H19  1  0.19156100  0.33563600  0.94829000  1
  H  H20  1  0.80843900  0.66436400  0.05171000  1
  H  H21  1  0.35112600  0.16436100  0.90088300  1
  H  H22  1  0.64887400  0.83563900  0.09911700  1
  H  H23  1  0.07170400  0.46095400  0.77799600  1
  H  H24  1  0.92829600  0.53904600  0.22200400  1
  C  C25  1  0.94675500  0.44560400  0.70779000  1
  C  C26  1  0.05324500  0.55439600  0.29221000  1
  N  N27  1  0.01089300  0.26091200  0.63881000  1
  N  N28  1  0.98910700  0.73908800  0.36119000  1
  O  O29  1  0.50098700  0.32130800  0.64253800  1
  O  O30  1  0.49901300  0.67869200  0.35746200  1
  O  O31  1  0.56661200  0.60831600  0.80155900  1
  O  O32  1  0.43338800  0.39168400  0.19844100  1
  O  O33  1  0.63148900  0.20421700  0.82602100  1
  O  O34  1  0.36851100  0.79578300  0.17397900  1
  O  O35  1  0.75329300  0.73334000  0.57260100  1
  O  O36  1  0.24670700  0.26666000  0.42739900  1
  O  O37  1  0.04929900  0.87754800  0.72271300  1
  O  O38  1  0.95070100  0.12245200  0.27728700  1
  O  O39  1  0.20228200  0.68089800  0.56275700  1
  O  O40  1  0.79771800  0.31910200  0.43724300  1
  O  O41  1  0.21496000  0.64177600  0.94885900  1
  O  O42  1  0.78504000  0.35822400  0.05114100  1
  O  O43  1  0.20716800  0.17762400  0.94257300  1
  O  O44  1  0.79283200  0.82237600  0.05742700  1
