# generated using pymatgen
data_CoHgH18Br4N6Cl
_symmetry_space_group_name_H-M   'P 1'
_cell_length_a   8.07059400
_cell_length_b   12.29410800
_cell_length_c   17.66869332
_cell_angle_alpha   66.80571814
_cell_angle_beta   90.00000000
_cell_angle_gamma   90.00000000
_symmetry_Int_Tables_number   1
_chemical_formula_structural   CoHgH18Br4N6Cl
_chemical_formula_sum   'Co4 Hg4 H72 Br16 N24 Cl4'
_cell_volume   1611.40606995
_cell_formula_units_Z   4
loop_
 _symmetry_equiv_pos_site_id
 _symmetry_equiv_pos_as_xyz
  1  'x, y, z'
loop_
 _atom_site_type_symbol
 _atom_site_label
 _atom_site_symmetry_multiplicity
 _atom_site_fract_x
 _atom_site_fract_y
 _atom_site_fract_z
 _atom_site_occupancy
  Co  Co0  1  0.24477300  0.73888400  0.50660400  1
  Co  Co1  1  0.74477300  0.26111600  0.99339600  1
  Co  Co2  1  0.75522700  0.26111600  0.49339600  1
  Co  Co3  1  0.25522700  0.73888400  0.00660400  1
  Hg  Hg4  1  0.75200500  0.79093200  0.25256500  1
  Hg  Hg5  1  0.25200500  0.20906800  0.24743500  1
  Hg  Hg6  1  0.24799500  0.20906800  0.74743500  1
  Hg  Hg7  1  0.74799500  0.79093200  0.75256500  1
  H  H8  1  0.17411700  0.81258700  0.62025200  1
  H  H9  1  0.67411700  0.18741300  0.87974800  1
  H  H10  1  0.82588300  0.18741300  0.37974800  1
  H  H11  1  0.32588300  0.81258700  0.12025200  1
  H  H12  1  0.27416100  0.91795100  0.54425100  1
  H  H13  1  0.77416100  0.08204900  0.95574900  1
  H  H14  1  0.72583900  0.08204900  0.45574900  1
  H  H15  1  0.22583900  0.91795100  0.04425100  1
  H  H16  1  0.37574000  0.80527800  0.61381600  1
  H  H17  1  0.87574000  0.19472200  0.88618400  1
  H  H18  1  0.62426000  0.19472200  0.38618400  1
  H  H19  1  0.12426000  0.80527800  0.11381600  1
  H  H20  1  0.38299600  0.53627700  0.57542000  1
  H  H21  1  0.88299600  0.46372300  0.92458000  1
  H  H22  1  0.61700400  0.46372300  0.42458000  1
  H  H23  1  0.11700400  0.53627700  0.07542000  1
  H  H24  1  0.41867500  0.61199100  0.63309700  1
  H  H25  1  0.91867500  0.38800900  0.86690300  1
  H  H26  1  0.58132500  0.38800900  0.36690300  1
  H  H27  1  0.08132500  0.61199100  0.13309700  1
  H  H28  1  0.52883400  0.63797200  0.54877100  1
  H  H29  1  0.02883400  0.36202800  0.95122900  1
  H  H30  1  0.47116600  0.36202800  0.45122900  1
  H  H31  1  0.97116600  0.63797200  0.04877100  1
  H  H32  1  0.96511100  0.84784400  0.46989400  1
  H  H33  1  0.46511100  0.15215600  0.03010600  1
  H  H34  1  0.03488900  0.15215600  0.53010600  1
  H  H35  1  0.53488900  0.84784400  0.96989400  1
  H  H36  1  0.05217900  0.85278800  0.38423400  1
  H  H37  1  0.55217900  0.14721200  0.11576600  1
  H  H38  1  0.94782100  0.14721200  0.61576600  1
  H  H39  1  0.44782100  0.85278800  0.88423400  1
  H  H40  1  0.11692600  0.94192300  0.42705500  1
  H  H41  1  0.61692600  0.05807700  0.07294500  1
  H  H42  1  0.88307400  0.05807700  0.57294500  1
  H  H43  1  0.38307400  0.94192300  0.92705500  1
  H  H44  1  0.40579100  0.92632500  0.42135900  1
  H  H45  1  0.90579100  0.07367500  0.07864100  1
  H  H46  1  0.59420900  0.07367500  0.57864100  1
  H  H47  1  0.09420900  0.92632500  0.92135900  1
  H  H48  1  0.42841000  0.83230300  0.37733500  1
  H  H49  1  0.92841000  0.16769700  0.12266500  1
  H  H50  1  0.57159000  0.16769700  0.62266500  1
  H  H51  1  0.07159000  0.83230300  0.87733500  1
  H  H52  1  0.53965500  0.81664600  0.45869300  1
  H  H53  1  0.03965500  0.18335400  0.04130700  1
  H  H54  1  0.46034500  0.18335400  0.54130700  1
  H  H55  1  0.96034500  0.81664600  0.95869300  1
  H  H56  1  0.05294300  0.65167300  0.63303600  1
  H  H57  1  0.55294300  0.34832700  0.86696400  1
  H  H58  1  0.94705700  0.34832700  0.36696400  1
  H  H59  1  0.44705700  0.65167300  0.13303600  1
  H  H60  1  0.09112700  0.55006200  0.59688700  1
  H  H61  1  0.59112700  0.44993800  0.90311300  1
  H  H62  1  0.90887300  0.44993800  0.40311300  1
  H  H63  1  0.40887300  0.55006200  0.09688700  1
  H  H64  1  0.95417500  0.65332500  0.54968800  1
  H  H65  1  0.45417500  0.34667500  0.95031200  1
  H  H66  1  0.04582500  0.34667500  0.45031200  1
  H  H67  1  0.54582500  0.65332500  0.04968800  1
  H  H68  1  0.26309400  0.69682500  0.37525700  1
  H  H69  1  0.76309400  0.30317500  0.12474300  1
  H  H70  1  0.73690600  0.30317500  0.62474300  1
  H  H71  1  0.23690600  0.69682500  0.87525700  1
  H  H72  1  0.09111500  0.64112400  0.42571700  1
  H  H73  1  0.59111500  0.35887600  0.07428300  1
  H  H74  1  0.90888500  0.35887600  0.57428300  1
  H  H75  1  0.40888500  0.64112400  0.92571700  1
  H  H76  1  0.26640000  0.57045200  0.45696800  1
  H  H77  1  0.76640000  0.42954800  0.04303200  1
  H  H78  1  0.73360000  0.42954800  0.54303200  1
  H  H79  1  0.23360000  0.57045200  0.95696800  1
  Br  Br80  1  0.75908400  0.88287400  0.06470300  1
  Br  Br81  1  0.25908400  0.11712600  0.43529700  1
  Br  Br82  1  0.24091600  0.11712600  0.93529700  1
  Br  Br83  1  0.74091600  0.88287400  0.56470300  1
  Br  Br84  1  0.75580200  0.98810000  0.27359600  1
  Br  Br85  1  0.25580200  0.01190000  0.22640400  1
  Br  Br86  1  0.24419800  0.01190000  0.72640400  1
  Br  Br87  1  0.74419800  0.98810000  0.77359600  1
  Br  Br88  1  0.46377500  0.68045000  0.26453400  1
  Br  Br89  1  0.96377500  0.31955000  0.23546600  1
  Br  Br90  1  0.53622500  0.31955000  0.73546600  1
  Br  Br91  1  0.03622500  0.68045000  0.76453400  1
  Br  Br92  1  0.00241700  0.64942000  0.26151200  1
  Br  Br93  1  0.50241700  0.35058000  0.23848800  1
  Br  Br94  1  0.99758300  0.35058000  0.73848800  1
  Br  Br95  1  0.49758300  0.64942000  0.76151200  1
  N  N96  1  0.26966800  0.82764800  0.57865700  1
  N  N97  1  0.76966800  0.17235200  0.92134300  1
  N  N98  1  0.73033200  0.17235200  0.42134300  1
  N  N99  1  0.23033200  0.82764800  0.07865700  1
  N  N100  1  0.41044100  0.61971300  0.57291700  1
  N  N101  1  0.91044100  0.38028700  0.92708300  1
  N  N102  1  0.58955900  0.38028700  0.42708300  1
  N  N103  1  0.08955900  0.61971300  0.07291700  1
  N  N104  1  0.07744900  0.85635500  0.44011700  1
  N  N105  1  0.57744900  0.14364500  0.05988300  1
  N  N106  1  0.92255100  0.14364500  0.55988300  1
  N  N107  1  0.42255100  0.85635500  0.94011700  1
  N  N108  1  0.42281300  0.83783700  0.43375700  1
  N  N109  1  0.92281300  0.16216300  0.06624300  1
  N  N110  1  0.57718700  0.16216300  0.56624300  1
  N  N111  1  0.07718700  0.83783700  0.93375700  1
  N  N112  1  0.06824300  0.63919500  0.57892800  1
  N  N113  1  0.56824300  0.36080500  0.92107200  1
  N  N114  1  0.93175700  0.36080500  0.42107200  1
  N  N115  1  0.43175700  0.63919500  0.07892800  1
  N  N116  1  0.21501300  0.65427100  0.43357700  1
  N  N117  1  0.71501300  0.34572900  0.06642300  1
  N  N118  1  0.78498700  0.34572900  0.56642300  1
  N  N119  1  0.28498700  0.65427100  0.93357700  1
  Cl  Cl120  1  0.75410700  0.63139000  0.45770500  1
  Cl  Cl121  1  0.25410700  0.36861000  0.04229500  1
  Cl  Cl122  1  0.24589300  0.36861000  0.54229500  1
  Cl  Cl123  1  0.74589300  0.63139000  0.95770500  1
