# generated using pymatgen
data_AlVP2C2N2O9
_symmetry_space_group_name_H-M   'P 1'
_cell_length_a   8.45612600
_cell_length_b   14.19563800
_cell_length_c   9.86899857
_cell_angle_alpha   90.00000000
_cell_angle_beta   122.22997187
_cell_angle_gamma   90.00000000
_symmetry_Int_Tables_number   1
_chemical_formula_structural   AlVP2C2N2O9
_chemical_formula_sum   'Al4 V4 P8 C8 N8 O36'
_cell_volume   1002.13403779
_cell_formula_units_Z   4
loop_
 _symmetry_equiv_pos_site_id
 _symmetry_equiv_pos_as_xyz
  1  'x, y, z'
loop_
 _atom_site_type_symbol
 _atom_site_label
 _atom_site_symmetry_multiplicity
 _atom_site_fract_x
 _atom_site_fract_y
 _atom_site_fract_z
 _atom_site_occupancy
  Al  Al0  1  0.71096100  0.01393800  0.92648000  1
  Al  Al1  1  0.71096100  0.48606200  0.42648000  1
  Al  Al2  1  0.28903900  0.98606200  0.07352000  1
  Al  Al3  1  0.28903900  0.51393800  0.57352000  1
  V  V4  1  0.93958200  0.36888800  0.10087500  1
  V  V5  1  0.93958200  0.13111200  0.60087500  1
  V  V6  1  0.06041800  0.63111200  0.89912500  1
  V  V7  1  0.06041800  0.86888800  0.39912500  1
  P  P8  1  0.00265800  0.15855200  0.95136400  1
  P  P9  1  0.00265800  0.34144800  0.45136400  1
  P  P10  1  0.99734200  0.84144800  0.04863600  1
  P  P11  1  0.99734200  0.65855200  0.54863600  1
  P  P12  1  0.27751600  0.52234000  0.24069900  1
  P  P13  1  0.27751600  0.97766000  0.74069900  1
  P  P14  1  0.72248400  0.47766000  0.75930100  1
  P  P15  1  0.72248400  0.02234000  0.25930100  1
  C  C16  1  0.51931200  0.29593400  0.98201900  1
  C  C17  1  0.51931200  0.20406600  0.48201900  1
  C  C18  1  0.48068800  0.70406600  0.01798100  1
  C  C19  1  0.48068800  0.79593400  0.51798100  1
  C  C20  1  0.34529800  0.32626600  0.93791500  1
  C  C21  1  0.34529800  0.17373400  0.43791500  1
  C  C22  1  0.65470200  0.67373400  0.06208500  1
  C  C23  1  0.65470200  0.82626600  0.56208500  1
  N  N24  1  0.67257800  0.28000900  0.01956200  1
  N  N25  1  0.67257800  0.21999100  0.51956200  1
  N  N26  1  0.32742200  0.71999100  0.98043800  1
  N  N27  1  0.32742200  0.78000900  0.48043800  1
  N  N28  1  0.19901100  0.35830400  0.89706800  1
  N  N29  1  0.19901100  0.14169600  0.39706800  1
  N  N30  1  0.80098900  0.64169600  0.10293200  1
  N  N31  1  0.80098900  0.85830400  0.60293200  1
  O  O32  1  0.02649200  0.24635000  0.04794200  1
  O  O33  1  0.02649200  0.25365000  0.54794200  1
  O  O34  1  0.97350800  0.75365000  0.95205800  1
  O  O35  1  0.97350800  0.74635000  0.45205800  1
  O  O36  1  0.16061300  0.43080200  0.15946500  1
  O  O37  1  0.16061300  0.06919800  0.65946500  1
  O  O38  1  0.83938700  0.56919800  0.84053500  1
  O  O39  1  0.83938700  0.93080200  0.34053500  1
  O  O40  1  0.81328200  0.39106000  0.86688400  1
  O  O41  1  0.81328200  0.10894000  0.36688400  1
  O  O42  1  0.18671800  0.60894000  0.13311600  1
  O  O43  1  0.18671800  0.89106000  0.63311600  1
  O  O44  1  0.81914800  0.45163200  0.11667600  1
  O  O45  1  0.81914800  0.04836800  0.61667600  1
  O  O46  1  0.18085200  0.54836800  0.88332400  1
  O  O47  1  0.18085200  0.95163200  0.38332400  1
  O  O48  1  0.01859800  0.31599500  0.30387200  1
  O  O49  1  0.01859800  0.18400500  0.80387200  1
  O  O50  1  0.98140200  0.68400500  0.69612800  1
  O  O51  1  0.98140200  0.81599500  0.19612800  1
  O  O52  1  0.81079900  0.11081200  0.88898500  1
  O  O53  1  0.81079900  0.38918800  0.38898500  1
  O  O54  1  0.18920100  0.88918800  0.11101500  1
  O  O55  1  0.18920100  0.61081200  0.61101500  1
  O  O56  1  0.16323900  0.08832200  0.05562500  1
  O  O57  1  0.16323900  0.41167800  0.55562500  1
  O  O58  1  0.83676100  0.91167800  0.94437500  1
  O  O59  1  0.83676100  0.58832200  0.44437500  1
  O  O60  1  0.28836800  0.53839300  0.39893700  1
  O  O61  1  0.28836800  0.96160700  0.89893700  1
  O  O62  1  0.71163200  0.46160700  0.60106300  1
  O  O63  1  0.71163200  0.03839300  0.10106300  1
  O  O64  1  0.47441500  0.50320700  0.27229000  1
  O  O65  1  0.47441500  0.99679300  0.77229000  1
  O  O66  1  0.52558500  0.49679300  0.72771000  1
  O  O67  1  0.52558500  0.00320700  0.22771000  1
