# generated using pymatgen
data_Na6Te(PO5)6
_symmetry_space_group_name_H-M   'P 1'
_cell_length_a   11.51235758
_cell_length_b   11.51235758
_cell_length_c   11.50657600
_cell_angle_alpha   90.00000000
_cell_angle_beta   90.00000000
_cell_angle_gamma   119.99999758
_symmetry_Int_Tables_number   1
_chemical_formula_structural   Na6Te(PO5)6
_chemical_formula_sum   'Na12 Te2 P12 O60'
_cell_volume   1320.70339319
_cell_formula_units_Z   2
loop_
 _symmetry_equiv_pos_site_id
 _symmetry_equiv_pos_as_xyz
  1  'x, y, z'
loop_
 _atom_site_type_symbol
 _atom_site_label
 _atom_site_symmetry_multiplicity
 _atom_site_fract_x
 _atom_site_fract_y
 _atom_site_fract_z
 _atom_site_occupancy
  Na  Na0  1  0.56209900  0.44010700  0.75000000  1
  Na  Na1  1  0.55989300  0.12199200  0.75000000  1
  Na  Na2  1  0.87800800  0.43790100  0.75000000  1
  Na  Na3  1  0.43790100  0.55989300  0.25000000  1
  Na  Na4  1  0.44010700  0.87800800  0.25000000  1
  Na  Na5  1  0.12199200  0.56209900  0.25000000  1
  Na  Na6  1  0.27540300  0.14499000  0.75000000  1
  Na  Na7  1  0.85501000  0.13041300  0.75000000  1
  Na  Na8  1  0.86958700  0.72459700  0.75000000  1
  Na  Na9  1  0.72459700  0.85501000  0.25000000  1
  Na  Na10  1  0.14499000  0.86958700  0.25000000  1
  Na  Na11  1  0.13041300  0.27540300  0.25000000  1
  Te  Te12  1  0.00000000  0.00000000  0.50000000  1
  Te  Te13  1  0.00000000  0.00000000  0.00000000  1
  P  P14  1  0.75125300  0.24842200  0.00526600  1
  P  P15  1  0.75157800  0.50283100  0.00526600  1
  P  P16  1  0.49716900  0.24874700  0.00526600  1
  P  P17  1  0.24874700  0.75157800  0.50526600  1
  P  P18  1  0.24842200  0.49716900  0.50526600  1
  P  P19  1  0.50283100  0.75125300  0.50526600  1
  P  P20  1  0.24874700  0.75157800  0.99473400  1
  P  P21  1  0.24842200  0.49716900  0.99473400  1
  P  P22  1  0.50283100  0.75125300  0.99473400  1
  P  P23  1  0.75125300  0.24842200  0.49473400  1
  P  P24  1  0.75157800  0.50283100  0.49473400  1
  P  P25  1  0.49716900  0.24874700  0.49473400  1
  O  O26  1  0.76624000  0.53166100  0.62387200  1
  O  O27  1  0.46833900  0.23458000  0.62387200  1
  O  O28  1  0.76542000  0.23376000  0.62387200  1
  O  O29  1  0.23376000  0.46833900  0.12387200  1
  O  O30  1  0.53166100  0.76542000  0.12387200  1
  O  O31  1  0.23458000  0.76624000  0.12387200  1
  O  O32  1  0.23376000  0.46833900  0.37612800  1
  O  O33  1  0.53166100  0.76542000  0.37612800  1
  O  O34  1  0.23458000  0.76624000  0.37612800  1
  O  O35  1  0.76624000  0.53166100  0.87612800  1
  O  O36  1  0.46833900  0.23458000  0.87612800  1
  O  O37  1  0.76542000  0.23376000  0.87612800  1
  O  O38  1  0.81343500  0.40652400  0.03540800  1
  O  O39  1  0.59347600  0.40691200  0.03540800  1
  O  O40  1  0.59308800  0.18656500  0.03540800  1
  O  O41  1  0.18656500  0.59347600  0.53540800  1
  O  O42  1  0.40652400  0.59308800  0.53540800  1
  O  O43  1  0.40691200  0.81343500  0.53540800  1
  O  O44  1  0.18656500  0.59347600  0.96459200  1
  O  O45  1  0.40652400  0.59308800  0.96459200  1
  O  O46  1  0.40691200  0.81343500  0.96459200  1
  O  O47  1  0.81343500  0.40652400  0.46459200  1
  O  O48  1  0.59347600  0.40691200  0.46459200  1
  O  O49  1  0.59308800  0.18656500  0.46459200  1
  O  O50  1  0.80900900  0.18950700  0.08822900  1
  O  O51  1  0.81049300  0.61950200  0.08822900  1
  O  O52  1  0.38049800  0.19099100  0.08822900  1
  O  O53  1  0.19099100  0.81049300  0.58822900  1
  O  O54  1  0.18950700  0.38049800  0.58822900  1
  O  O55  1  0.61950200  0.80900900  0.58822900  1
  O  O56  1  0.19099100  0.81049300  0.91177100  1
  O  O57  1  0.18950700  0.38049800  0.91177100  1
  O  O58  1  0.61950200  0.80900900  0.91177100  1
  O  O59  1  0.80900900  0.18950700  0.41177100  1
  O  O60  1  0.81049300  0.61950200  0.41177100  1
  O  O61  1  0.38049800  0.19099100  0.41177100  1
  O  O62  1  0.87676100  0.99778400  0.88576100  1
  O  O63  1  0.00221600  0.87897700  0.88576100  1
  O  O64  1  0.12102300  0.12323900  0.88576100  1
  O  O65  1  0.12323900  0.00221600  0.38576100  1
  O  O66  1  0.99778400  0.12102300  0.38576100  1
  O  O67  1  0.87897700  0.87676100  0.38576100  1
  O  O68  1  0.12323900  0.00221600  0.11423900  1
  O  O69  1  0.99778400  0.12102300  0.11423900  1
  O  O70  1  0.87897700  0.87676100  0.11423900  1
  O  O71  1  0.87676100  0.99778400  0.61423900  1
  O  O72  1  0.00221600  0.87897700  0.61423900  1
  O  O73  1  0.12102300  0.12323900  0.61423900  1
  O  O74  1  0.30915500  0.95225500  0.75000000  1
  O  O75  1  0.04774500  0.35689900  0.75000000  1
  O  O76  1  0.64310100  0.69084500  0.75000000  1
  O  O77  1  0.69084500  0.04774500  0.25000000  1
  O  O78  1  0.95225500  0.64310100  0.25000000  1
  O  O79  1  0.35689900  0.30915500  0.25000000  1
  O  O80  1  0.07525000  0.68961000  0.75000000  1
  O  O81  1  0.31039000  0.38564000  0.75000000  1
  O  O82  1  0.61436000  0.92475000  0.75000000  1
  O  O83  1  0.92475000  0.31039000  0.25000000  1
  O  O84  1  0.68961000  0.61436000  0.25000000  1
  O  O85  1  0.38564000  0.07525000  0.25000000  1
