# generated using pymatgen
data_Cs4AsH5Se3O16
_symmetry_space_group_name_H-M   'P 1'
_cell_length_a   13.92322000
_cell_length_b   6.17324000
_cell_length_c   12.21672700
_cell_angle_alpha   84.70326054
_cell_angle_beta   90.00000000
_cell_angle_gamma   90.00000000
_symmetry_Int_Tables_number   1
_chemical_formula_structural   Cs4AsH5Se3O16
_chemical_formula_sum   'Cs8 As2 H10 Se6 O32'
_cell_volume   1045.56078841
_cell_formula_units_Z   2
loop_
 _symmetry_equiv_pos_site_id
 _symmetry_equiv_pos_as_xyz
  1  'x, y, z'
loop_
 _atom_site_type_symbol
 _atom_site_label
 _atom_site_symmetry_multiplicity
 _atom_site_fract_x
 _atom_site_fract_y
 _atom_site_fract_z
 _atom_site_occupancy
  Cs  Cs0  1  0.17103400  0.29854000  0.90193000  1
  Cs  Cs1  1  0.67103400  0.70146000  0.09807000  1
  Cs  Cs2  1  0.44781200  0.20420600  0.08700800  1
  Cs  Cs3  1  0.94781200  0.79579400  0.91299200  1
  Cs  Cs4  1  0.42264000  0.26679100  0.64153300  1
  Cs  Cs5  1  0.92264000  0.73320900  0.35846700  1
  Cs  Cs6  1  0.69038400  0.77481300  0.64569800  1
  Cs  Cs7  1  0.19038400  0.22518700  0.35430200  1
  As  As8  1  0.44285200  0.76093900  0.36523900  1
  As  As9  1  0.94285200  0.23906100  0.63476100  1
  H  H10  1  0.27154900  0.85643100  0.81683400  1
  H  H11  1  0.77154900  0.14356900  0.18316600  1
  H  H12  1  0.34947000  0.63703000  0.18334000  1
  H  H13  1  0.84947000  0.36297000  0.81666000  1
  H  H14  1  0.59781000  0.64075500  0.41452800  1
  H  H15  1  0.09781000  0.35924500  0.58547200  1
  H  H16  1  0.48563700  0.11456600  0.38810500  1
  H  H17  1  0.98563700  0.88543400  0.61189500  1
  H  H18  1  0.31011700  0.72908800  0.48428700  1
  H  H19  1  0.81011700  0.27091200  0.51571300  1
  Se  Se20  1  0.17075900  0.73130400  0.62963800  1
  Se  Se21  1  0.67075900  0.26869600  0.37036200  1
  Se  Se22  1  0.42555200  0.72237500  0.85395700  1
  Se  Se23  1  0.92555200  0.27762500  0.14604300  1
  Se  Se24  1  0.19532900  0.77472900  0.14146900  1
  Se  Se25  1  0.69532900  0.22527100  0.85853100  1
  O  O26  1  0.25939400  0.86861800  0.56058600  1
  O  O27  1  0.75939400  0.13138200  0.43941400  1
  O  O28  1  0.06662100  0.78414400  0.56364500  1
  O  O29  1  0.56662100  0.21585600  0.43635500  1
  O  O30  1  0.16650300  0.80299700  0.75852700  1
  O  O31  1  0.66650300  0.19700300  0.24147300  1
  O  O32  1  0.19052500  0.46153200  0.62981700  1
  O  O33  1  0.69052500  0.53846800  0.37018300  1
  O  O34  1  0.37644000  0.47657100  0.86651200  1
  O  O35  1  0.87644000  0.52342900  0.13348800  1
  O  O36  1  0.47794000  0.77825800  0.73314000  1
  O  O37  1  0.97794000  0.22174200  0.26686000  1
  O  O38  1  0.49096800  0.77755500  0.96040000  1
  O  O39  1  0.99096800  0.22244500  0.03960000  1
  O  O40  1  0.32881600  0.91435900  0.85687600  1
  O  O41  1  0.82881600  0.08564100  0.14312400  1
  O  O42  1  0.24888400  0.01611100  0.13785600  1
  O  O43  1  0.74888400  0.98388900  0.86214400  1
  O  O44  1  0.13022400  0.72114600  0.25375700  1
  O  O45  1  0.63022400  0.27885400  0.74624300  1
  O  O46  1  0.14019700  0.72978300  0.02644700  1
  O  O47  1  0.64019700  0.27021700  0.97355300  1
  O  O48  1  0.28943500  0.57498200  0.14978700  1
  O  O49  1  0.78943500  0.42501800  0.85021300  1
  O  O50  1  0.45573600  0.67786100  0.23897600  1
  O  O51  1  0.95573600  0.32213900  0.76102400  1
  O  O52  1  0.54136400  0.71198000  0.45281200  1
  O  O53  1  0.04136400  0.28802000  0.54718800  1
  O  O54  1  0.42133500  0.04073100  0.36463900  1
  O  O55  1  0.92133500  0.95926900  0.63536100  1
  O  O56  1  0.34391500  0.63235600  0.42983900  1
  O  O57  1  0.84391500  0.36764400  0.57016100  1
