# generated using pymatgen
data_HgH12C12S2(NO2)2
_symmetry_space_group_name_H-M   'P 1'
_cell_length_a   15.84217467
_cell_length_b   15.84217467
_cell_length_c   17.97992243
_cell_angle_alpha   116.13909244
_cell_angle_beta   116.13909244
_cell_angle_gamma   90.00000000
_symmetry_Int_Tables_number   1
_chemical_formula_structural   HgH12C12S2(NO2)2
_chemical_formula_sum   'Hg8 H96 C96 S16 N16 O32'
_cell_volume   3529.65429803
_cell_formula_units_Z   8
loop_
 _symmetry_equiv_pos_site_id
 _symmetry_equiv_pos_as_xyz
  1  'x, y, z'
loop_
 _atom_site_type_symbol
 _atom_site_label
 _atom_site_symmetry_multiplicity
 _atom_site_fract_x
 _atom_site_fract_y
 _atom_site_fract_z
 _atom_site_occupancy
  Hg  Hg0  1  0.00000000  -0.00000000  0.50000000  1
  Hg  Hg1  1  0.00000000  0.50000000  0.50000000  1
  Hg  Hg2  1  0.00000000  0.50000000  0.00000000  1
  Hg  Hg3  1  0.50000000  -0.00000000  0.00000000  1
  Hg  Hg4  1  0.50000000  0.50000000  0.50000000  1
  Hg  Hg5  1  0.50000000  -0.00000000  0.50000000  1
  Hg  Hg6  1  0.50000000  0.50000000  0.00000000  1
  Hg  Hg7  1  0.00000000  -0.00000000  0.00000000  1
  H  H8  1  0.78883064  0.19126363  0.62439870  1
  H  H9  1  0.33556805  0.69126363  0.62439870  1
  H  H10  1  0.93313507  0.83556805  0.12439870  1
  H  H11  1  0.69126363  0.33556805  0.12439870  1
  H  H12  1  0.21116936  0.80873637  0.37560130  1
  H  H13  1  0.66443195  0.30873637  0.37560130  1
  H  H14  1  0.06686493  0.16443195  0.87560130  1
  H  H15  1  0.30873637  0.66443195  0.87560130  1
  H  H16  1  0.28883064  0.43313507  0.62439870  1
  H  H17  1  0.83556805  0.93313507  0.62439870  1
  H  H18  1  0.43313507  0.28883064  0.12439870  1
  H  H19  1  0.19126363  0.78883064  0.12439870  1
  H  H20  1  0.71116936  0.56686493  0.37560130  1
  H  H21  1  0.16443195  0.06686493  0.37560130  1
  H  H22  1  0.56686493  0.71116936  0.87560130  1
  H  H23  1  0.80873637  0.21116936  0.87560130  1
  H  H24  1  0.70662788  0.26216381  0.59093699  1
  H  H25  1  0.38430911  0.76216381  0.59093699  1
  H  H26  1  0.82877319  0.88430911  0.09093699  1
  H  H27  1  0.76216381  0.38430911  0.09093699  1
  H  H28  1  0.29337212  0.73783619  0.40906301  1
  H  H29  1  0.61569089  0.23783619  0.40906301  1
  H  H30  1  0.17122681  0.11569089  0.90906301  1
  H  H31  1  0.23783619  0.61569089  0.90906301  1
  H  H32  1  0.20662788  0.32877319  0.59093699  1
  H  H33  1  0.88430911  0.82877319  0.59093699  1
  H  H34  1  0.32877319  0.20662788  0.09093699  1
  H  H35  1  0.26216381  0.70662788  0.09093699  1
  H  H36  1  0.79337212  0.67122681  0.40906301  1
  H  H37  1  0.11569089  0.17122681  0.40906301  1
  H  H38  1  0.67122681  0.79337212  0.90906301  1
  H  H39  1  0.73783619  0.29337212  0.90906301  1
  H  H40  1  0.78043306  0.29753049  0.71329626  1
  H  H41  1  0.43286319  0.79753049  0.71329626  1
  H  H42  1  0.91576576  0.93286319  0.21329626  1
  H  H43  1  0.79753049  0.43286319  0.21329626  1
  H  H44  1  0.21956694  0.70246951  0.28670374  1
  H  H45  1  0.56713681  0.20246951  0.28670374  1
  H  H46  1  0.08423424  0.06713681  0.78670374  1
  H  H47  1  0.20246951  0.56713681  0.78670374  1
  H  H48  1  0.28043306  0.41576576  0.71329626  1
  H  H49  1  0.93286319  0.91576576  0.71329626  1
  H  H50  1  0.41576576  0.28043306  0.21329626  1
  H  H51  1  0.29753049  0.78043306  0.21329626  1
  H  H52  1  0.71956694  0.58423424  0.28670374  1
  H  H53  1  0.06713681  0.08423424  0.28670374  1
  H  H54  1  0.58423424  0.71956694  0.78670374  1
  H  H55  1  0.70246951  0.21956694  0.78670374  1
  H  H56  1  0.90339776  0.45997001  0.67194579  1
  H  H57  1  0.26854803  0.95997001  0.67194579  1
  H  H58  1  0.71197578  0.76854803  0.17194579  1
  H  H59  1  0.95997001  0.26854803  0.17194579  1
  H  H60  1  0.09660224  0.54002999  0.32805421  1
  H  H61  1  0.73145197  0.04002999  0.32805421  1
  H  H62  1  0.28802422  0.23145197  0.82805421  1
  H  H63  1  0.04002999  0.73145197  0.82805421  1
  H  H64  1  0.40339776  0.21197578  0.67194579  1
  H  H65  1  0.76854803  0.71197578  0.67194579  1
  H  H66  1  0.21197578  0.40339776  0.17194579  1
  H  H67  1  0.45997001  0.90339776  0.17194579  1
  H  H68  1  0.59660224  0.78802422  0.32805421  1
  H  H69  1  0.23145197  0.28802422  0.32805421  1
  H  H70  1  0.78802422  0.59660224  0.82805421  1
  H  H71  1  0.54002999  0.09660224  0.82805421  1
  H  H72  1  0.86403805  0.46242992  0.75249406  1
  H  H73  1  0.38845602  0.96242992  0.75249406  1
  H  H74  1  0.79006415  0.88845602  0.25249406  1
  H  H75  1  0.96242992  0.38845602  0.25249406  1
  H  H76  1  0.13596195  0.53757008  0.24750594  1
  H  H77  1  0.61154398  0.03757008  0.24750594  1
  H  H78  1  0.20993585  0.11154398  0.74750594  1
  H  H79  1  0.03757008  0.61154398  0.74750594  1
  H  H80  1  0.36403805  0.29006415  0.75249406  1
  H  H81  1  0.88845602  0.79006415  0.75249406  1
  H  H82  1  0.29006415  0.36403805  0.25249406  1
  H  H83  1  0.46242992  0.86403805  0.25249406  1
  H  H84  1  0.63596195  0.70993585  0.24750594  1
  H  H85  1  0.11154398  0.20993585  0.24750594  1
  H  H86  1  0.70993585  0.63596195  0.74750594  1
  H  H87  1  0.53757008  0.13596195  0.74750594  1
  H  H88  1  0.77652505  0.42684333  0.63286544  1
  H  H89  1  0.35634039  0.92684333  0.63286544  1
  H  H90  1  0.70602211  0.85634039  0.13286544  1
  H  H91  1  0.92684333  0.35634039  0.13286544  1
  H  H92  1  0.22347495  0.57315667  0.36713456  1
  H  H93  1  0.64365961  0.07315667  0.36713456  1
  H  H94  1  0.29397789  0.14365961  0.86713456  1
  H  H95  1  0.07315667  0.64365961  0.86713456  1
  H  H96  1  0.27652505  0.20602211  0.63286544  1
  H  H97  1  0.85634039  0.70602211  0.63286544  1
  H  H98  1  0.20602211  0.27652505  0.13286544  1
  H  H99  1  0.42684333  0.77652505  0.13286544  1
  H  H100  1  0.72347495  0.79397789  0.36713456  1
  H  H101  1  0.14365961  0.29397789  0.36713456  1
  H  H102  1  0.79397789  0.72347495  0.86713456  1
  H  H103  1  0.57315667  0.22347495  0.86713456  1
  C  C104  1  0.94843209  0.19815328  0.60354155  1
  C  C105  1  0.15510947  0.69815328  0.60354155  1
  C  C106  1  0.90538828  0.65510947  0.10354155  1
  C  C107  1  0.69815328  0.15510947  0.10354155  1
  C  C108  1  0.05156791  0.80184672  0.39645845  1
  C  C109  1  0.84489053  0.30184672  0.39645845  1
  C  C110  1  0.09461172  0.34489053  0.89645845  1
  C  C111  1  0.30184672  0.84489053  0.89645845  1
  C  C112  1  0.44843209  0.40538828  0.60354155  1
  C  C113  1  0.65510947  0.90538828  0.60354155  1
  C  C114  1  0.40538828  0.44843209  0.10354155  1
  C  C115  1  0.19815328  0.94843209  0.10354155  1
  C  C116  1  0.55156791  0.59461172  0.39645845  1
  C  C117  1  0.34489053  0.09461172  0.39645845  1
  C  C118  1  0.59461172  0.55156791  0.89645845  1
  C  C119  1  0.80184672  0.05156791  0.89645845  1
  C  C120  1  0.92333085  0.28943551  0.63281361  1
  C  C121  1  0.20948276  0.78943551  0.63281361  1
  C  C122  1  0.84337810  0.70948276  0.13281361  1
  C  C123  1  0.78943551  0.20948276  0.13281361  1
  C  C124  1  0.07666915  0.71056449  0.36718639  1
  C  C125  1  0.79051724  0.21056449  0.36718639  1
  C  C126  1  0.15662190  0.29051724  0.86718639  1
  C  C127  1  0.21056449  0.79051724  0.86718639  1
  C  C128  1  0.42333085  0.34337810  0.63281361  1
  C  C129  1  0.70948276  0.84337810  0.63281361  1
  C  C130  1  0.34337810  0.42333085  0.13281361  1
  C  C131  1  0.28943551  0.92333085  0.13281361  1
  C  C132  1  0.57666915  0.65662190  0.36718639  1
  C  C133  1  0.29051724  0.15662190  0.36718639  1
  C  C134  1  0.65662190  0.57666915  0.86718639  1
  C  C135  1  0.71056449  0.07666915  0.86718639  1
  C  C136  1  0.00819175  0.33506546  0.63464366  1
  C  C137  1  0.12645191  0.83506546  0.63464366  1
  C  C138  1  0.79957820  0.62645191  0.13464366  1
  C  C139  1  0.83506546  0.12645191  0.13464366  1
  C  C140  1  0.99180825  0.66493454  0.36535634  1
  C  C141  1  0.87354809  0.16493454  0.36535634  1
  C  C142  1  0.20042180  0.37354809  0.86535634  1
  C  C143  1  0.16493454  0.87354809  0.86535634  1
  C  C144  1  0.50819175  0.29957820  0.63464366  1
  C  C145  1  0.62645191  0.79957820  0.63464366  1
  C  C146  1  0.29957820  0.50819175  0.13464366  1
  C  C147  1  0.33506546  0.00819175  0.13464366  1
  C  C148  1  0.49180825  0.70042180  0.36535634  1
  C  C149  1  0.37354809  0.20042180  0.36535634  1
  C  C150  1  0.70042180  0.49180825  0.86535634  1
  C  C151  1  0.66493454  0.99180825  0.86535634  1
  C  C152  1  0.03304021  0.23651569  0.60465731  1
  C  C153  1  0.07161710  0.73651569  0.60465731  1
  C  C154  1  0.86814163  0.57161710  0.10465731  1
  C  C155  1  0.73651569  0.07161710  0.10465731  1
  C  C156  1  0.96695979  0.76348431  0.39534269  1
  C  C157  1  0.92838290  0.26348431  0.39534269  1
  C  C158  1  0.13185837  0.42838290  0.89534269  1
  C  C159  1  0.26348431  0.92838290  0.89534269  1
  C  C160  1  0.53304021  0.36814163  0.60465731  1
  C  C161  1  0.57161710  0.86814163  0.60465731  1
  C  C162  1  0.36814163  0.53304021  0.10465731  1
  C  C163  1  0.23651569  0.03304021  0.10465731  1
  C  C164  1  0.46695979  0.63185837  0.39534269  1
  C  C165  1  0.42838290  0.13185837  0.39534269  1
  C  C166  1  0.63185837  0.46695979  0.89534269  1
  C  C167  1  0.76348431  0.96695979  0.89534269  1
  C  C168  1  0.77801909  0.26458405  0.64402982  1
  C  C169  1  0.36601073  0.76458405  0.64402982  1
  C  C170  1  0.87944577  0.86601073  0.14402982  1
  C  C171  1  0.76458405  0.36601073  0.14402982  1
  C  C172  1  0.22198091  0.73541595  0.35597018  1
  C  C173  1  0.63398927  0.23541595  0.35597018  1
  C  C174  1  0.12055423  0.13398927  0.85597018  1
  C  C175  1  0.23541595  0.63398927  0.85597018  1
  C  C176  1  0.27801909  0.37944577  0.64402982  1
  C  C177  1  0.86601073  0.87944577  0.64402982  1
  C  C178  1  0.37944577  0.27801909  0.14402982  1
  C  C179  1  0.26458405  0.77801909  0.14402982  1
  C  C180  1  0.72198091  0.62055423  0.35597018  1
  C  C181  1  0.13398927  0.12055423  0.35597018  1
  C  C182  1  0.62055423  0.72198091  0.85597018  1
  C  C183  1  0.73541595  0.22198091  0.85597018  1
  C  C184  1  0.84979429  0.42475812  0.67856957  1
  C  C185  1  0.32877528  0.92475812  0.67856957  1
  C  C186  1  0.75381145  0.82877528  0.17856957  1
  C  C187  1  0.92475812  0.32877528  0.17856957  1
  C  C188  1  0.15020571  0.57524188  0.32143043  1
  C  C189  1  0.67122472  0.07524188  0.32143043  1
  C  C190  1  0.24618855  0.17122472  0.82143043  1
  C  C191  1  0.07524188  0.67122472  0.82143043  1
  C  C192  1  0.34979429  0.25381145  0.67856957  1
  C  C193  1  0.82877528  0.75381145  0.67856957  1
  C  C194  1  0.25381145  0.34979429  0.17856957  1
  C  C195  1  0.42475812  0.84979429  0.17856957  1
  C  C196  1  0.65020571  0.74618855  0.32143043  1
  C  C197  1  0.17122472  0.24618855  0.32143043  1
  C  C198  1  0.74618855  0.65020571  0.82143043  1
  C  C199  1  0.57524188  0.15020571  0.82143043  1
  S  S200  1  0.90359850  0.08301643  0.57217778  1
  S  S201  1  0.16857928  0.58301643  0.57217778  1
  S  S202  1  0.98916135  0.66857928  0.07217778  1
  S  S203  1  0.58301643  0.16857928  0.07217778  1
  S  S204  1  0.09640150  0.91698357  0.42782222  1
  S  S205  1  0.83142072  0.41698357  0.42782222  1
  S  S206  1  0.01083865  0.33142072  0.92782222  1
  S  S207  1  0.41698357  0.83142072  0.92782222  1
  S  S208  1  0.40359850  0.48916135  0.57217778  1
  S  S209  1  0.66857928  0.98916135  0.57217778  1
  S  S210  1  0.48916135  0.40359850  0.07217778  1
  S  S211  1  0.08301643  0.90359850  0.07217778  1
  S  S212  1  0.59640150  0.51083865  0.42782222  1
  S  S213  1  0.33142072  0.01083865  0.42782222  1
  S  S214  1  0.51083865  0.59640150  0.92782222  1
  S  S215  1  0.91698357  0.09640150  0.92782222  1
  N  N216  1  0.85390910  0.32352143  0.64987097  1
  N  N217  1  0.29596187  0.82352143  0.64987097  1
  N  N218  1  0.82634954  0.79596187  0.14987097  1
  N  N219  1  0.82352143  0.29596187  0.14987097  1
  N  N220  1  0.14609090  0.67647857  0.35012903  1
  N  N221  1  0.70403813  0.17647857  0.35012903  1
  N  N222  1  0.17365046  0.20403813  0.85012903  1
  N  N223  1  0.17647857  0.70403813  0.85012903  1
  N  N224  1  0.35390910  0.32634954  0.64987097  1
  N  N225  1  0.79596187  0.82634954  0.64987097  1
  N  N226  1  0.32634954  0.35390910  0.14987097  1
  N  N227  1  0.32352143  0.85390910  0.14987097  1
  N  N228  1  0.64609090  0.67365046  0.35012903  1
  N  N229  1  0.20403813  0.17365046  0.35012903  1
  N  N230  1  0.67365046  0.64609090  0.85012903  1
  N  N231  1  0.67647857  0.14609090  0.85012903  1
  O  O232  1  0.03919636  0.41562503  0.65092310  1
  O  O233  1  0.11172674  0.91562503  0.65092310  1
  O  O234  1  0.73529807  0.61172674  0.15092310  1
  O  O235  1  0.91562503  0.11172674  0.15092310  1
  O  O236  1  0.96080364  0.58437497  0.34907690  1
  O  O237  1  0.88827326  0.08437497  0.34907690  1
  O  O238  1  0.26470193  0.38827326  0.84907690  1
  O  O239  1  0.08437497  0.88827326  0.84907690  1
  O  O240  1  0.53919636  0.23529807  0.65092310  1
  O  O241  1  0.61172674  0.73529807  0.65092310  1
  O  O242  1  0.23529807  0.53919636  0.15092310  1
  O  O243  1  0.41562503  0.03919636  0.15092310  1
  O  O244  1  0.46080364  0.76470193  0.34907690  1
  O  O245  1  0.38827326  0.26470193  0.34907690  1
  O  O246  1  0.76470193  0.46080364  0.84907690  1
  O  O247  1  0.58437497  0.96080364  0.84907690  1
  O  O248  1  0.09423740  0.19835733  0.58537415  1
  O  O249  1  0.99113675  0.69835733  0.58537415  1
  O  O250  1  0.88701683  0.49113675  0.08537415  1
  O  O251  1  0.69835733  0.99113675  0.08537415  1
  O  O252  1  0.90576260  0.80164267  0.41462585  1
  O  O253  1  0.00886325  0.30164267  0.41462585  1
  O  O254  1  0.11298317  0.50886325  0.91462585  1
  O  O255  1  0.30164267  0.00886325  0.91462585  1
  O  O256  1  0.59423740  0.38701683  0.58537415  1
  O  O257  1  0.49113675  0.88701683  0.58537415  1
  O  O258  1  0.38701683  0.59423740  0.08537415  1
  O  O259  1  0.19835733  0.09423740  0.08537415  1
  O  O260  1  0.40576260  0.61298317  0.41462585  1
  O  O261  1  0.50886325  0.11298317  0.41462585  1
  O  O262  1  0.61298317  0.40576260  0.91462585  1
  O  O263  1  0.80164267  0.90576260  0.91462585  1
