# generated using pymatgen
data_CsU(SeO4)2
_symmetry_space_group_name_H-M   'P 1'
_cell_length_a   10.40292800
_cell_length_b   8.88693500
_cell_length_c   13.72101353
_cell_angle_alpha   50.88609611
_cell_angle_beta   90.00000000
_cell_angle_gamma   90.00000000
_symmetry_Int_Tables_number   1
_chemical_formula_structural   CsU(SeO4)2
_chemical_formula_sum   'Cs4 U4 Se8 O32'
_cell_volume   984.22821845
_cell_formula_units_Z   4
loop_
 _symmetry_equiv_pos_site_id
 _symmetry_equiv_pos_as_xyz
  1  'x, y, z'
loop_
 _atom_site_type_symbol
 _atom_site_label
 _atom_site_symmetry_multiplicity
 _atom_site_fract_x
 _atom_site_fract_y
 _atom_site_fract_z
 _atom_site_occupancy
  Cs  Cs0  1  0.44851800  0.42887900  0.71415100  1
  Cs  Cs1  1  0.05148200  0.42887900  0.21415100  1
  Cs  Cs2  1  0.55148200  0.57112100  0.28584900  1
  Cs  Cs3  1  0.94851800  0.57112100  0.78584900  1
  U  U4  1  0.20786600  0.07493200  0.12205300  1
  U  U5  1  0.29213400  0.07493200  0.62205300  1
  U  U6  1  0.79213400  0.92506800  0.87794700  1
  U  U7  1  0.70786600  0.92506800  0.37794700  1
  Se  Se8  1  0.54878000  0.25349700  0.05699200  1
  Se  Se9  1  0.95122000  0.25349700  0.55699200  1
  Se  Se10  1  0.45122000  0.74650300  0.94300800  1
  Se  Se11  1  0.04878000  0.74650300  0.44300800  1
  Se  Se12  1  0.87273600  0.97859700  0.11765200  1
  Se  Se13  1  0.62726400  0.97859700  0.61765200  1
  Se  Se14  1  0.12726400  0.02140300  0.88234800  1
  Se  Se15  1  0.37273600  0.02140300  0.38234800  1
  O  O16  1  0.29260300  0.84433500  0.20850700  1
  O  O17  1  0.20739700  0.84433500  0.70850700  1
  O  O18  1  0.70739700  0.15566500  0.79149300  1
  O  O19  1  0.79260300  0.15566500  0.29149300  1
  O  O20  1  0.11382200  0.29695300  0.04674500  1
  O  O21  1  0.38617800  0.29695300  0.54674500  1
  O  O22  1  0.88617800  0.70304700  0.95325500  1
  O  O23  1  0.61382200  0.70304700  0.45325500  1
  O  O24  1  0.32409100  0.15930500  0.22711600  1
  O  O25  1  0.17590900  0.15930500  0.72711600  1
  O  O26  1  0.67590900  0.84069500  0.77288400  1
  O  O27  1  0.82409100  0.84069500  0.27288400  1
  O  O28  1  0.40728700  0.23915400  0.00005800  1
  O  O29  1  0.09271300  0.23915400  0.50005800  1
  O  O30  1  0.59271300  0.76084600  0.99994200  1
  O  O31  1  0.90728700  0.76084600  0.49994200  1
  O  O32  1  0.03115800  0.89749900  0.14144600  1
  O  O33  1  0.46884200  0.89749900  0.64144600  1
  O  O34  1  0.96884200  0.10250100  0.85855400  1
  O  O35  1  0.53115800  0.10250100  0.35855400  1
  O  O36  1  0.09129000  0.97437200  0.31392200  1
  O  O37  1  0.40871000  0.97437200  0.81392200  1
  O  O38  1  0.90871000  0.02562800  0.68607800  1
  O  O39  1  0.59129000  0.02562800  0.18607800  1
  O  O40  1  0.20029400  0.14531300  0.92565100  1
  O  O41  1  0.29970600  0.14531300  0.42565100  1
  O  O42  1  0.79970600  0.85468700  0.07434900  1
  O  O43  1  0.70029400  0.85468700  0.57434900  1
  O  O44  1  0.65957500  0.34267700  0.94470700  1
  O  O45  1  0.84042500  0.34267700  0.44470700  1
  O  O46  1  0.34042500  0.65732300  0.05529300  1
  O  O47  1  0.15957500  0.65732300  0.55529300  1
