# generated using pymatgen
data_EuV2IO9
_symmetry_space_group_name_H-M   'P 1'
_cell_length_a   7.10456800
_cell_length_b   7.29364900
_cell_length_c   14.71382200
_cell_angle_alpha   90.00000000
_cell_angle_beta   90.00000000
_cell_angle_gamma   90.00000000
_symmetry_Int_Tables_number   1
_chemical_formula_structural   EuV2IO9
_chemical_formula_sum   'Eu4 V8 I4 O36'
_cell_volume   762.44414325
_cell_formula_units_Z   4
loop_
 _symmetry_equiv_pos_site_id
 _symmetry_equiv_pos_as_xyz
  1  'x, y, z'
loop_
 _atom_site_type_symbol
 _atom_site_label
 _atom_site_symmetry_multiplicity
 _atom_site_fract_x
 _atom_site_fract_y
 _atom_site_fract_z
 _atom_site_occupancy
  Eu  Eu0  1  0.85128500  0.25000000  0.95244800  1
  Eu  Eu1  1  0.14871500  0.75000000  0.04755200  1
  Eu  Eu2  1  0.85128500  0.75000000  0.54755200  1
  Eu  Eu3  1  0.14871500  0.25000000  0.45244800  1
  V  V4  1  0.46079700  0.00000000  0.25000000  1
  V  V5  1  0.53920300  0.50000000  0.75000000  1
  V  V6  1  0.53920300  0.00000000  0.75000000  1
  V  V7  1  0.46079700  0.50000000  0.25000000  1
  V  V8  1  0.81648700  0.25000000  0.22851400  1
  V  V9  1  0.18351300  0.75000000  0.77148600  1
  V  V10  1  0.81648700  0.75000000  0.27148600  1
  V  V11  1  0.18351300  0.25000000  0.72851400  1
  I  I12  1  0.29788600  0.25000000  0.05365200  1
  I  I13  1  0.70211400  0.75000000  0.94634800  1
  I  I14  1  0.29788600  0.75000000  0.44634800  1
  I  I15  1  0.70211400  0.25000000  0.55365200  1
  O  O16  1  0.17337100  0.06962300  0.98870600  1
  O  O17  1  0.82662900  0.56962300  0.01129400  1
  O  O18  1  0.17337100  0.93037700  0.51129400  1
  O  O19  1  0.82662900  0.43037700  0.48870600  1
  O  O20  1  0.82662900  0.93037700  0.01129400  1
  O  O21  1  0.17337100  0.43037700  0.98870600  1
  O  O22  1  0.82662900  0.06962300  0.48870600  1
  O  O23  1  0.17337100  0.56962300  0.51129400  1
  O  O24  1  0.52618200  0.25000000  0.99857100  1
  O  O25  1  0.47381800  0.75000000  0.00142900  1
  O  O26  1  0.52618200  0.75000000  0.50142900  1
  O  O27  1  0.47381800  0.25000000  0.49857100  1
  O  O28  1  0.32532400  0.95479200  0.15812900  1
  O  O29  1  0.67467600  0.45479200  0.84187100  1
  O  O30  1  0.32532400  0.04520800  0.34187100  1
  O  O31  1  0.67467600  0.54520800  0.65812900  1
  O  O32  1  0.67467600  0.04520800  0.84187100  1
  O  O33  1  0.32532400  0.54520800  0.15812900  1
  O  O34  1  0.67467600  0.95479200  0.65812900  1
  O  O35  1  0.32532400  0.45479200  0.34187100  1
  O  O36  1  0.52854500  0.75000000  0.28055000  1
  O  O37  1  0.47145500  0.25000000  0.71945000  1
  O  O38  1  0.52854500  0.25000000  0.21945000  1
  O  O39  1  0.47145500  0.75000000  0.78055000  1
  O  O40  1  0.73634100  0.00000000  0.25000000  1
  O  O41  1  0.26365900  0.50000000  0.75000000  1
  O  O42  1  0.26365900  0.00000000  0.75000000  1
  O  O43  1  0.73634100  0.50000000  0.25000000  1
  O  O44  1  0.98631200  0.25000000  0.30730100  1
  O  O45  1  0.01368800  0.75000000  0.69269900  1
  O  O46  1  0.98631200  0.75000000  0.19269900  1
  O  O47  1  0.01368800  0.25000000  0.80730100  1
  O  O48  1  0.91880700  0.25000000  0.12529900  1
  O  O49  1  0.08119300  0.75000000  0.87470100  1
  O  O50  1  0.91880700  0.75000000  0.37470100  1
  O  O51  1  0.08119300  0.25000000  0.62529900  1
