# generated using pymatgen
data_PH4NO3
_symmetry_space_group_name_H-M   'P 1'
_cell_length_a   22.90991900
_cell_length_b   4.67737700
_cell_length_c   14.51996854
_cell_angle_alpha   90.00000000
_cell_angle_beta   107.71328215
_cell_angle_gamma   90.00000000
_symmetry_Int_Tables_number   1
_chemical_formula_structural   PH4NO3
_chemical_formula_sum   'P16 H64 N16 O48'
_cell_volume   1482.17016794
_cell_formula_units_Z   16
loop_
 _symmetry_equiv_pos_site_id
 _symmetry_equiv_pos_as_xyz
  1  'x, y, z'
loop_
 _atom_site_type_symbol
 _atom_site_label
 _atom_site_symmetry_multiplicity
 _atom_site_fract_x
 _atom_site_fract_y
 _atom_site_fract_z
 _atom_site_occupancy
  P  P0  1  0.39140900  0.19586700  0.53471100  1
  P  P1  1  0.60859100  0.69586700  0.96528900  1
  P  P2  1  0.60859100  0.80413300  0.46528900  1
  P  P3  1  0.39140900  0.30413300  0.03471100  1
  P  P4  1  0.35085100  0.69440800  0.62480200  1
  P  P5  1  0.64914900  0.19440800  0.87519800  1
  P  P6  1  0.64914900  0.30559200  0.37519800  1
  P  P7  1  0.35085100  0.80559200  0.12480200  1
  P  P8  1  0.15033800  0.29533200  0.27100300  1
  P  P9  1  0.84966200  0.79533200  0.22899700  1
  P  P10  1  0.84966200  0.70466800  0.72899700  1
  P  P11  1  0.15033800  0.20466800  0.77100300  1
  P  P12  1  0.11039700  0.70334700  0.64116100  1
  P  P13  1  0.88960300  0.20334700  0.85883900  1
  P  P14  1  0.88960300  0.29665300  0.35883900  1
  P  P15  1  0.11039700  0.79665300  0.14116100  1
  H  H16  1  0.43477500  0.28331300  0.36669800  1
  H  H17  1  0.56522500  0.78331300  0.13330200  1
  H  H18  1  0.56522500  0.71668700  0.63330200  1
  H  H19  1  0.43477500  0.21668700  0.86669800  1
  H  H20  1  0.49713000  0.46632700  0.35596900  1
  H  H21  1  0.50287000  0.96632700  0.14403100  1
  H  H22  1  0.50287000  0.53367300  0.64403100  1
  H  H23  1  0.49713000  0.03367300  0.85596900  1
  H  H24  1  0.49535600  0.10342300  0.35008000  1
  H  H25  1  0.50464400  0.60342300  0.14992000  1
  H  H26  1  0.50464400  0.89657700  0.64992000  1
  H  H27  1  0.49535600  0.39657700  0.85008000  1
  H  H28  1  0.45006900  0.30041800  0.25913900  1
  H  H29  1  0.54993100  0.80041800  0.24086100  1
  H  H30  1  0.54993100  0.69958200  0.74086100  1
  H  H31  1  0.45006900  0.19958200  0.75913900  1
  H  H32  1  0.05155700  0.71389100  0.30983800  1
  H  H33  1  0.94844300  0.21389100  0.19016200  1
  H  H34  1  0.94844300  0.28610900  0.69016200  1
  H  H35  1  0.05155700  0.78610900  0.80983800  1
  H  H36  1  0.99809900  0.62411800  0.36087200  1
  H  H37  1  0.00190100  0.12411800  0.13912800  1
  H  H38  1  0.00190100  0.37588200  0.63912800  1
  H  H39  1  0.99809900  0.87588200  0.86087200  1
  H  H40  1  0.06723900  0.75322900  0.43109900  1
  H  H41  1  0.93276200  0.25322900  0.06890100  1
  H  H42  1  0.93276200  0.24677100  0.56890100  1
  H  H43  1  0.06723900  0.74677100  0.93109900  1
  H  H44  1  0.01665000  0.97451800  0.35424400  1
  H  H45  1  0.98335000  0.47451800  0.14575600  1
  H  H46  1  0.98335000  0.02548200  0.64575600  1
  H  H47  1  0.01665000  0.52548200  0.85424400  1
  H  H48  1  0.17080200  0.07794700  0.53291800  1
  H  H49  1  0.82919800  0.57794700  0.96708200  1
  H  H50  1  0.82919800  0.92205300  0.46708200  1
  H  H51  1  0.17080200  0.42205300  0.03291800  1
  H  H52  1  0.24687800  0.10834600  0.57154700  1
  H  H53  1  0.75312200  0.60834600  0.92845300  1
  H  H54  1  0.75312200  0.89165400  0.42845300  1
  H  H55  1  0.24687800  0.39165400  0.07154700  1
  H  H56  1  0.20269900  0.40728100  0.55867300  1
  H  H57  1  0.79730100  0.90728100  0.94132700  1
  H  H58  1  0.79730100  0.59271900  0.44132700  1
  H  H59  1  0.20269900  0.09271900  0.05867300  1
  H  H60  1  0.20817600  0.23145500  0.45934600  1
  H  H61  1  0.79182400  0.73145500  0.04065400  1
  H  H62  1  0.79182400  0.76854500  0.54065400  1
  H  H63  1  0.20817600  0.26854500  0.95934600  1
  H  H64  1  0.29231800  0.76045800  0.75099600  1
  H  H65  1  0.70768200  0.26045800  0.74900400  1
  H  H66  1  0.70768200  0.23954200  0.24900400  1
  H  H67  1  0.29231800  0.73954200  0.25099600  1
  H  H68  1  0.26641500  0.58550500  0.83408100  1
  H  H69  1  0.73358500  0.08550500  0.66591900  1
  H  H70  1  0.73358500  0.41449500  0.16591900  1
  H  H71  1  0.26641500  0.91449500  0.33408100  1
  H  H72  1  0.27334100  0.94644600  0.83842400  1
  H  H73  1  0.72665900  0.44644600  0.66157600  1
  H  H74  1  0.72665900  0.05355400  0.16157600  1
  H  H75  1  0.27334100  0.55355400  0.33842400  1
  H  H76  1  0.33634100  0.74009400  0.86939300  1
  H  H77  1  0.66365900  0.24009400  0.63060700  1
  H  H78  1  0.66365900  0.25990600  0.13060700  1
  H  H79  1  0.33634100  0.75990600  0.36939300  1
  N  N80  1  0.46917500  0.28857900  0.33296300  1
  N  N81  1  0.53082500  0.78857900  0.16703700  1
  N  N82  1  0.53082500  0.71142100  0.66703700  1
  N  N83  1  0.46917500  0.21142100  0.83296300  1
  N  N84  1  0.03332800  0.76823200  0.36407500  1
  N  N85  1  0.96667200  0.26823200  0.13592500  1
  N  N86  1  0.96667200  0.23176800  0.63592500  1
  N  N87  1  0.03332800  0.73176800  0.86407500  1
  N  N88  1  0.20701400  0.20967800  0.53056600  1
  N  N89  1  0.79298600  0.70967800  0.96943400  1
  N  N90  1  0.79298600  0.79032200  0.46943400  1
  N  N91  1  0.20701400  0.29032200  0.03056600  1
  N  N92  1  0.29238500  0.75767100  0.82383200  1
  N  N93  1  0.70761500  0.25767100  0.67616800  1
  N  N94  1  0.70761500  0.24232900  0.17616800  1
  N  N95  1  0.29238500  0.74232900  0.32383200  1
  O  O96  1  0.38076900  0.26615200  0.43023700  1
  O  O97  1  0.61923100  0.76615200  0.06976300  1
  O  O98  1  0.61923100  0.73384800  0.56976300  1
  O  O99  1  0.38076900  0.23384800  0.93023700  1
  O  O100  1  0.45449100  0.21226700  0.60632100  1
  O  O101  1  0.54550900  0.71226700  0.89367900  1
  O  O102  1  0.54550900  0.78773300  0.39367900  1
  O  O103  1  0.45449100  0.28773300  0.10632100  1
  O  O104  1  0.34307700  0.37966500  0.57443400  1
  O  O105  1  0.65692300  0.87966500  0.92556600  1
  O  O106  1  0.65692300  0.62033500  0.42556600  1
  O  O107  1  0.34307700  0.12033500  0.07443400  1
  O  O108  1  0.40421600  0.71042900  0.71367000  1
  O  O109  1  0.59578400  0.21042900  0.78633000  1
  O  O110  1  0.59578400  0.28957100  0.28633000  1
  O  O111  1  0.40421600  0.78957100  0.21367000  1
  O  O112  1  0.28748200  0.76801400  0.63010400  1
  O  O113  1  0.71251800  0.26801400  0.86989600  1
  O  O114  1  0.71251800  0.23198600  0.36989600  1
  O  O115  1  0.28748200  0.73198600  0.13010400  1
  O  O116  1  0.36226400  0.87906600  0.53562600  1
  O  O117  1  0.63773600  0.37906600  0.96437400  1
  O  O118  1  0.63773600  0.12093400  0.46437400  1
  O  O119  1  0.36226400  0.62093400  0.03562600  1
  O  O120  1  0.21378500  0.23335100  0.33912000  1
  O  O121  1  0.78621500  0.73335100  0.16088000  1
  O  O122  1  0.78621500  0.76664900  0.66088000  1
  O  O123  1  0.21378500  0.26664900  0.83912000  1
  O  O124  1  0.09601800  0.27582700  0.30630900  1
  O  O125  1  0.90398200  0.77582700  0.19369100  1
  O  O126  1  0.90398200  0.72417300  0.69369100  1
  O  O127  1  0.09601800  0.22417300  0.80630900  1
  O  O128  1  0.15680600  0.88994800  0.72757900  1
  O  O129  1  0.84319400  0.38994800  0.77242100  1
  O  O130  1  0.84319400  0.11005200  0.27242100  1
  O  O131  1  0.15680600  0.61005200  0.22757900  1
  O  O132  1  0.12275200  0.77417100  0.54760500  1
  O  O133  1  0.87724800  0.27417100  0.95239500  1
  O  O134  1  0.87724800  0.22582900  0.45239500  1
  O  O135  1  0.12275200  0.72582900  0.04760500  1
  O  O136  1  0.04625400  0.71271700  0.64730800  1
  O  O137  1  0.95374600  0.21271700  0.85269200  1
  O  O138  1  0.95374600  0.28728300  0.35269200  1
  O  O139  1  0.04625400  0.78728300  0.14730800  1
  O  O140  1  0.14091400  0.10919900  0.17193700  1
  O  O141  1  0.85908600  0.60919900  0.32806300  1
  O  O142  1  0.85908600  0.89080100  0.82806300  1
  O  O143  1  0.14091400  0.39080100  0.67193700  1
