# generated using pymatgen
data_Fe2As2PbO10
_symmetry_space_group_name_H-M   'P 1'
_cell_length_a   9.32688935
_cell_length_b   9.32688935
_cell_length_c   11.96307800
_cell_angle_alpha   90.00000000
_cell_angle_beta   90.00000000
_cell_angle_gamma   130.28269956
_symmetry_Int_Tables_number   1
_chemical_formula_structural   Fe2As2PbO10
_chemical_formula_sum   'Fe8 As8 Pb4 O40'
_cell_volume   793.89574217
_cell_formula_units_Z   4
loop_
 _symmetry_equiv_pos_site_id
 _symmetry_equiv_pos_as_xyz
  1  'x, y, z'
loop_
 _atom_site_type_symbol
 _atom_site_label
 _atom_site_symmetry_multiplicity
 _atom_site_fract_x
 _atom_site_fract_y
 _atom_site_fract_z
 _atom_site_occupancy
  Fe  Fe0  1  0.49334300  0.24328300  0.36955300  1
  Fe  Fe1  1  0.50665700  0.75671700  0.36955300  1
  Fe  Fe2  1  0.24328300  0.49334300  0.13044700  1
  Fe  Fe3  1  0.75671700  0.50665700  0.13044700  1
  Fe  Fe4  1  0.50665700  0.75671700  0.63044700  1
  Fe  Fe5  1  0.49334300  0.24328300  0.63044700  1
  Fe  Fe6  1  0.75671700  0.50665700  0.86955300  1
  Fe  Fe7  1  0.24328300  0.49334300  0.86955300  1
  As  As8  1  0.22789500  0.30837500  0.50000000  1
  As  As9  1  0.77210500  0.69162400  0.50000000  1
  As  As10  1  0.30837500  0.22789500  0.00000000  1
  As  As11  1  0.69162400  0.77210500  0.00000000  1
  As  As12  1  0.78831900  0.21168100  0.25000000  1
  As  As13  1  0.21168100  0.78831900  0.25000000  1
  As  As14  1  0.21168100  0.78831900  0.75000000  1
  As  As15  1  0.78831900  0.21168100  0.75000000  1
  Pb  Pb16  1  0.00000000  0.00000000  0.25000000  1
  Pb  Pb17  1  0.00000000  0.00000000  0.75000000  1
  Pb  Pb18  1  0.00000000  0.50000000  0.50000000  1
  Pb  Pb19  1  0.50000000  0.00000000  0.00000000  1
  O  O20  1  0.73036800  0.76931700  0.38270600  1
  O  O21  1  0.26963200  0.23068300  0.38270600  1
  O  O22  1  0.76931700  0.73036800  0.11729400  1
  O  O23  1  0.23068300  0.26963200  0.11729400  1
  O  O24  1  0.26963200  0.23068300  0.61729400  1
  O  O25  1  0.73036800  0.76931700  0.61729400  1
  O  O26  1  0.23068300  0.26963200  0.88270600  1
  O  O27  1  0.76931700  0.73036800  0.88270600  1
  O  O28  1  0.44574100  0.62024500  0.00000000  1
  O  O29  1  0.55425900  0.37975500  0.00000000  1
  O  O30  1  0.62024500  0.44574100  0.50000000  1
  O  O31  1  0.37975500  0.55425900  0.50000000  1
  O  O32  1  0.00527500  0.22777500  0.50000000  1
  O  O33  1  0.99472500  0.77222500  0.50000000  1
  O  O34  1  0.22777500  0.00527500  0.00000000  1
  O  O35  1  0.77222500  0.99472500  0.00000000  1
  O  O36  1  0.67067100  0.97521700  0.25673000  1
  O  O37  1  0.32932900  0.02478300  0.25673000  1
  O  O38  1  0.97521700  0.67067100  0.24327000  1
  O  O39  1  0.02478300  0.32932900  0.24327000  1
  O  O40  1  0.32932900  0.02478300  0.74327000  1
  O  O41  1  0.67067100  0.97521700  0.74327000  1
  O  O42  1  0.02478300  0.32932900  0.75673000  1
  O  O43  1  0.97521700  0.67067100  0.75673000  1
  O  O44  1  0.73411000  0.28147300  0.36535400  1
  O  O45  1  0.26589000  0.71852700  0.36535400  1
  O  O46  1  0.28147300  0.73411000  0.13464600  1
  O  O47  1  0.71852700  0.26589000  0.13464600  1
  O  O48  1  0.26589000  0.71852700  0.63464600  1
  O  O49  1  0.73411000  0.28147300  0.63464600  1
  O  O50  1  0.71852700  0.26589000  0.86535400  1
  O  O51  1  0.28147300  0.73411000  0.86535400  1
  O  O52  1  0.57984900  0.90129100  0.50000000  1
  O  O53  1  0.42015100  0.09870900  0.50000000  1
  O  O54  1  0.90129100  0.57984900  0.00000000  1
  O  O55  1  0.09870900  0.42015100  0.00000000  1
  O  O56  1  0.58714600  0.41285400  0.25000000  1
  O  O57  1  0.41285400  0.58714600  0.25000000  1
  O  O58  1  0.41285400  0.58714600  0.75000000  1
  O  O59  1  0.58714600  0.41285400  0.75000000  1
