# generated using pymatgen
data_Sr5Bi3
_symmetry_space_group_name_H-M   'P 1'
_cell_length_a   8.94565500
_cell_length_b   10.34240200
_cell_length_c   13.64727700
_cell_angle_alpha   90.00000000
_cell_angle_beta   90.00000000
_cell_angle_gamma   90.00000000
_symmetry_Int_Tables_number   1
_chemical_formula_structural   Sr5Bi3
_chemical_formula_sum   'Sr20 Bi12'
_cell_volume   1262.64006547
_cell_formula_units_Z   4
loop_
 _symmetry_equiv_pos_site_id
 _symmetry_equiv_pos_as_xyz
  1  'x, y, z'
loop_
 _atom_site_type_symbol
 _atom_site_label
 _atom_site_symmetry_multiplicity
 _atom_site_fract_x
 _atom_site_fract_y
 _atom_site_fract_z
 _atom_site_occupancy
  Sr  Sr0  1  0.80792100  0.53980200  0.07799100  1
  Sr  Sr1  1  0.69207900  0.96019800  0.57799100  1
  Sr  Sr2  1  0.19207900  0.03980200  0.92200900  1
  Sr  Sr3  1  0.30792100  0.46019800  0.42200900  1
  Sr  Sr4  1  0.19207900  0.46019800  0.92200900  1
  Sr  Sr5  1  0.30792100  0.03980200  0.42200900  1
  Sr  Sr6  1  0.80792100  0.96019800  0.07799100  1
  Sr  Sr7  1  0.69207900  0.53980200  0.57799100  1
  Sr  Sr8  1  0.17670900  0.75000000  0.22603600  1
  Sr  Sr9  1  0.32329100  0.75000000  0.72603600  1
  Sr  Sr10  1  0.82329100  0.25000000  0.77396400  1
  Sr  Sr11  1  0.67670900  0.25000000  0.27396400  1
  Sr  Sr12  1  0.46244600  0.75000000  0.00467000  1
  Sr  Sr13  1  0.03755400  0.75000000  0.50467000  1
  Sr  Sr14  1  0.53755400  0.25000000  0.99533000  1
  Sr  Sr15  1  0.96244600  0.25000000  0.49533000  1
  Sr  Sr16  1  0.65116000  0.75000000  0.29275500  1
  Sr  Sr17  1  0.84884000  0.75000000  0.79275500  1
  Sr  Sr18  1  0.34884000  0.25000000  0.70724500  1
  Sr  Sr19  1  0.15116000  0.25000000  0.20724500  1
  Bi  Bi20  1  0.42440200  0.75000000  0.48478900  1
  Bi  Bi21  1  0.07559800  0.75000000  0.98478900  1
  Bi  Bi22  1  0.57559800  0.25000000  0.51521100  1
  Bi  Bi23  1  0.92440200  0.25000000  0.01521100  1
  Bi  Bi24  1  0.93647300  0.51205700  0.32925100  1
  Bi  Bi25  1  0.56352700  0.98794300  0.82925100  1
  Bi  Bi26  1  0.06352700  0.01205700  0.67074900  1
  Bi  Bi27  1  0.43647300  0.48794300  0.17074900  1
  Bi  Bi28  1  0.06352700  0.48794300  0.67074900  1
  Bi  Bi29  1  0.43647300  0.01205700  0.17074900  1
  Bi  Bi30  1  0.93647300  0.98794300  0.32925100  1
  Bi  Bi31  1  0.56352700  0.51205700  0.82925100  1
