# generated using pymatgen
data_Ce2SiS5
_symmetry_space_group_name_H-M   'P 1'
_cell_length_a   7.62257100
_cell_length_b   8.56037900
_cell_length_c   11.25992233
_cell_angle_alpha   88.11946755
_cell_angle_beta   90.00000000
_cell_angle_gamma   90.00000000
_symmetry_Int_Tables_number   1
_chemical_formula_structural   Ce2SiS5
_chemical_formula_sum   'Ce8 Si4 S20'
_cell_volume   734.33783063
_cell_formula_units_Z   4
loop_
 _symmetry_equiv_pos_site_id
 _symmetry_equiv_pos_as_xyz
  1  'x, y, z'
loop_
 _atom_site_type_symbol
 _atom_site_label
 _atom_site_symmetry_multiplicity
 _atom_site_fract_x
 _atom_site_fract_y
 _atom_site_fract_z
 _atom_site_occupancy
  Ce  Ce0  1  0.45255400  0.48617500  0.31980800  1
  Ce  Ce1  1  0.95255400  0.51382500  0.18019200  1
  Ce  Ce2  1  0.54744600  0.51382500  0.68019200  1
  Ce  Ce3  1  0.04744600  0.48617500  0.81980800  1
  Ce  Ce4  1  0.59322300  0.24981900  0.99736000  1
  Ce  Ce5  1  0.09322300  0.75018100  0.50264000  1
  Ce  Ce6  1  0.40677700  0.75018100  0.00264000  1
  Ce  Ce7  1  0.90677700  0.24981900  0.49736000  1
  Si  Si8  1  0.91670300  0.90041600  0.83750700  1
  Si  Si9  1  0.41670300  0.09958400  0.66249300  1
  Si  Si10  1  0.08329700  0.09958400  0.16249300  1
  Si  Si11  1  0.58329700  0.90041600  0.33750700  1
  S  S12  1  0.32791300  0.45627200  0.08035300  1
  S  S13  1  0.82791300  0.54372800  0.41964700  1
  S  S14  1  0.67208700  0.54372800  0.91964700  1
  S  S15  1  0.17208700  0.45627200  0.58035300  1
  S  S16  1  0.15442200  0.04221100  0.59464200  1
  S  S17  1  0.65442200  0.95778900  0.90535800  1
  S  S18  1  0.84557800  0.95778900  0.40535800  1
  S  S19  1  0.34557800  0.04221100  0.09464200  1
  S  S20  1  0.35499200  0.27244900  0.80403500  1
  S  S21  1  0.85499200  0.72755100  0.69596500  1
  S  S22  1  0.64500800  0.72755100  0.19596500  1
  S  S23  1  0.14500800  0.27244900  0.30403500  1
  S  S24  1  0.97177900  0.26324700  0.01786700  1
  S  S25  1  0.47177900  0.73675300  0.48213300  1
  S  S26  1  0.02822100  0.73675300  0.98213300  1
  S  S27  1  0.52822100  0.26324700  0.51786700  1
  S  S28  1  0.69062800  0.28631600  0.23100300  1
  S  S29  1  0.19062800  0.71368400  0.26899700  1
  S  S30  1  0.30937200  0.71368400  0.76899700  1
  S  S31  1  0.80937200  0.28631600  0.73100300  1
