# generated using pymatgen
data_Si6C8N2O19
_symmetry_space_group_name_H-M   'P 1'
_cell_length_a   14.90497001
_cell_length_b   14.90497001
_cell_length_c   14.90497001
_cell_angle_alpha   145.68742081
_cell_angle_beta   144.24728593
_cell_angle_gamma   50.39279639
_symmetry_Int_Tables_number   1
_chemical_formula_structural   Si6C8N2O19
_chemical_formula_sum   'Si12 C16 N4 O38'
_cell_volume   1085.20164733
_cell_formula_units_Z   2
loop_
 _symmetry_equiv_pos_site_id
 _symmetry_equiv_pos_as_xyz
  1  'x, y, z'
loop_
 _atom_site_type_symbol
 _atom_site_label
 _atom_site_symmetry_multiplicity
 _atom_site_fract_x
 _atom_site_fract_y
 _atom_site_fract_z
 _atom_site_occupancy
  Si  Si0  1  0.71752100  0.71752100  0.00000000  1
  Si  Si1  1  0.71752100  0.21752100  0.50000000  1
  Si  Si2  1  0.02084700  0.89678600  0.31290300  1
  Si  Si3  1  0.58388300  0.70794400  0.68709700  1
  Si  Si4  1  0.02084700  0.20794400  0.62406000  1
  Si  Si5  1  0.58388300  0.39678600  0.37594000  1
  Si  Si6  1  0.38236400  0.74720900  0.79727500  1
  Si  Si7  1  0.94993400  0.58508900  0.20272500  1
  Si  Si8  1  0.38236400  0.08508900  0.13515500  1
  Si  Si9  1  0.94993400  0.24720900  0.86484500  1
  Si  Si10  1  0.24953700  0.74953700  0.50000000  1
  Si  Si11  1  0.24953700  0.24953700  0.00000000  1
  C  C12  1  0.38050100  0.38385600  0.66682700  1
  C  C13  1  0.71702800  0.71367300  0.33317300  1
  C  C14  1  0.38050100  0.21367300  0.49664500  1
  C  C15  1  0.71702800  0.88385600  0.50335500  1
  C  C16  1  0.44749800  0.26841700  0.67908200  1
  C  C17  1  0.58933500  0.76841700  0.32091800  1
  C  C18  1  0.35928000  0.38066400  0.47861600  1
  C  C19  1  0.90204800  0.88066400  0.52138400  1
  C  C20  1  0.96504900  0.57768300  0.88736600  1
  C  C21  1  0.69031700  0.07768300  0.11263400  1
  C  C22  1  0.12516000  0.76861600  0.13176900  1
  C  C23  1  0.63684700  0.99339100  0.86823100  1
  C  C24  1  0.12516000  0.49339100  0.85654300  1
  C  C25  1  0.63684700  0.26861600  0.14345700  1
  C  C26  1  0.03627600  0.63349700  0.90277900  1
  C  C27  1  0.73071900  0.13349700  0.09722100  1
  N  N28  1  0.30644800  0.32759800  0.47885000  1
  N  N29  1  0.84874800  0.82759800  0.52115000  1
  N  N30  1  0.14327800  0.59818100  0.04509700  1
  N  N31  1  0.55308300  0.09818100  0.95490300  1
  O  O32  1  0.56933500  0.76820800  0.97898900  1
  O  O33  1  0.78922000  0.59034600  0.02101100  1
  O  O34  1  0.56933500  0.09034600  0.30112700  1
  O  O35  1  0.78922000  0.26820800  0.69887300  1
  O  O36  1  0.86635600  0.84379500  0.20293100  1
  O  O37  1  0.64086500  0.66342500  0.79706900  1
  O  O38  1  0.86635600  0.16342500  0.52256100  1
  O  O39  1  0.64086500  0.34379500  0.47743900  1
  O  O40  1  0.02431500  0.08199100  0.44232500  1
  O  O41  1  0.63966600  0.58199100  0.55767500  1
  O  O42  1  0.17543900  0.87609900  0.47947900  1
  O  O43  1  0.39662000  0.69596000  0.52052100  1
  O  O44  1  0.17543900  0.19596000  0.79934100  1
  O  O45  1  0.39662000  0.37609900  0.20065900  1
  O  O46  1  0.00852900  0.81297100  0.13530200  1
  O  O47  1  0.67766900  0.87322700  0.86469800  1
  O  O48  1  0.00852900  0.37322700  0.69555800  1
  O  O49  1  0.67766900  0.31297100  0.30444200  1
  O  O50  1  0.32635700  0.88678400  0.93957300  1
  O  O51  1  0.94721200  0.38678400  0.06042700  1
  O  O52  1  0.32836400  0.53803800  0.56749400  1
  O  O53  1  0.97054400  0.76087000  0.43250600  1
  O  O54  1  0.32836400  0.26087000  0.29032600  1
  O  O55  1  0.97054400  0.03803800  0.70967400  1
  O  O56  1  0.32089900  0.81057800  0.70476700  1
  O  O57  1  0.10581000  0.61613100  0.29523300  1
  O  O58  1  0.32089900  0.11613100  0.01032100  1
  O  O59  1  0.10581000  0.31057800  0.98967900  1
  O  O60  1  0.86123500  0.53658100  0.49247600  1
  O  O61  1  0.04410500  0.36876000  0.50752400  1
  O  O62  1  0.86123500  0.86876000  0.82465500  1
  O  O63  1  0.04410500  0.03658100  0.17534500  1
  O  O64  1  0.97776300  0.47776300  0.50000000  1
  O  O65  1  0.97776300  0.97776300  0.00000000  1
  O  O66  1  0.24470800  0.70470700  0.89990400  1
  O  O67  1  0.80480300  0.34480400  0.10009600  1
  O  O68  1  0.24470800  0.84480400  0.04000100  1
  O  O69  1  0.80480300  0.20470700  0.95999900  1
