# generated using pymatgen
data_K3InF6
_symmetry_space_group_name_H-M   'P 1'
_cell_length_a   12.86236145
_cell_length_b   12.86236145
_cell_length_c   12.86236145
_cell_angle_alpha   60.00000000
_cell_angle_beta   60.00000000
_cell_angle_gamma   60.00000000
_symmetry_Int_Tables_number   1
_chemical_formula_structural   K3InF6
_chemical_formula_sum   'K24 In8 F48'
_cell_volume   1504.69033276
_cell_formula_units_Z   8
loop_
 _symmetry_equiv_pos_site_id
 _symmetry_equiv_pos_as_xyz
  1  'x, y, z'
loop_
 _atom_site_type_symbol
 _atom_site_label
 _atom_site_symmetry_multiplicity
 _atom_site_fract_x
 _atom_site_fract_y
 _atom_site_fract_z
 _atom_site_occupancy
  K  K0  1  0.00000000  0.00000000  0.00000000  1
  K  K1  1  0.25000000  0.25000000  0.25000000  1
  K  K2  1  0.50000000  0.50000000  0.50000000  1
  K  K3  1  0.75000000  0.75000000  0.75000000  1
  K  K4  1  0.35924500  0.88025200  0.88025200  1
  K  K5  1  0.88025200  0.88025200  0.35924500  1
  K  K6  1  0.88025200  0.35924500  0.88025200  1
  K  K7  1  0.88025200  0.88025200  0.88025200  1
  K  K8  1  0.89075500  0.36974800  0.36974800  1
  K  K9  1  0.36974800  0.36974800  0.89075500  1
  K  K10  1  0.36974800  0.89075500  0.36974800  1
  K  K11  1  0.36974800  0.36974800  0.36974800  1
  K  K12  1  0.26061700  0.73938300  0.26061700  1
  K  K13  1  0.73938300  0.26061700  0.73938300  1
  K  K14  1  0.26061700  0.26061700  0.73938300  1
  K  K15  1  0.73938300  0.73938300  0.26061700  1
  K  K16  1  0.73938300  0.26061700  0.26061700  1
  K  K17  1  0.26061700  0.73938300  0.73938300  1
  K  K18  1  0.98938300  0.51061700  0.98938300  1
  K  K19  1  0.51061700  0.98938300  0.51061700  1
  K  K20  1  0.98938300  0.98938300  0.51061700  1
  K  K21  1  0.51061700  0.51061700  0.98938300  1
  K  K22  1  0.51061700  0.98938300  0.98938300  1
  K  K23  1  0.98938300  0.51061700  0.51061700  1
  In  In24  1  0.62500000  0.12500000  0.12500000  1
  In  In25  1  0.12500000  0.12500000  0.62500000  1
  In  In26  1  0.12500000  0.62500000  0.12500000  1
  In  In27  1  0.12500000  0.12500000  0.12500000  1
  In  In28  1  0.12500000  0.62500000  0.62500000  1
  In  In29  1  0.62500000  0.62500000  0.12500000  1
  In  In30  1  0.62500000  0.12500000  0.62500000  1
  In  In31  1  0.62500000  0.62500000  0.62500000  1
  F  F32  1  0.74143700  0.07241500  0.22591900  1
  F  F33  1  0.22591900  0.96022800  0.74143700  1
  F  F34  1  0.07241500  0.74143700  0.96022800  1
  F  F35  1  0.96022800  0.22591900  0.07241500  1
  F  F36  1  0.22591900  0.74143700  0.07241500  1
  F  F37  1  0.74143700  0.22591900  0.96022800  1
  F  F38  1  0.96022800  0.07241500  0.74143700  1
  F  F39  1  0.07241500  0.96022800  0.22591900  1
  F  F40  1  0.07241500  0.22591900  0.74143700  1
  F  F41  1  0.96022800  0.74143700  0.22591900  1
  F  F42  1  0.74143700  0.96022800  0.07241500  1
  F  F43  1  0.22591900  0.07241500  0.96022800  1
  F  F44  1  0.50856300  0.17758500  0.02408100  1
  F  F45  1  0.02408100  0.28977200  0.50856300  1
  F  F46  1  0.17758500  0.50856300  0.28977200  1
  F  F47  1  0.28977200  0.02408100  0.17758500  1
  F  F48  1  0.02408100  0.50856300  0.17758500  1
  F  F49  1  0.50856300  0.02408100  0.28977200  1
  F  F50  1  0.28977200  0.17758500  0.50856300  1
  F  F51  1  0.17758500  0.28977200  0.02408100  1
  F  F52  1  0.17758500  0.02408100  0.50856300  1
  F  F53  1  0.28977200  0.50856300  0.02408100  1
  F  F54  1  0.50856300  0.28977200  0.17758500  1
  F  F55  1  0.02408100  0.17758500  0.28977200  1
  F  F56  1  0.24180400  0.53206700  0.73757000  1
  F  F57  1  0.73757000  0.48855800  0.24180400  1
  F  F58  1  0.53206700  0.24180400  0.48855800  1
  F  F59  1  0.48855800  0.73757000  0.53206700  1
  F  F60  1  0.73757000  0.24180400  0.53206700  1
  F  F61  1  0.24180400  0.73757000  0.48855800  1
  F  F62  1  0.48855800  0.53206700  0.24180400  1
  F  F63  1  0.53206700  0.48855800  0.73757000  1
  F  F64  1  0.53206700  0.73757000  0.24180400  1
  F  F65  1  0.48855800  0.24180400  0.73757000  1
  F  F66  1  0.24180400  0.48855800  0.53206700  1
  F  F67  1  0.73757000  0.53206700  0.48855800  1
  F  F68  1  0.00819600  0.71793300  0.51243000  1
  F  F69  1  0.51243000  0.76144200  0.00819600  1
  F  F70  1  0.71793300  0.00819600  0.76144200  1
  F  F71  1  0.76144200  0.51243000  0.71793300  1
  F  F72  1  0.51243000  0.00819600  0.71793300  1
  F  F73  1  0.00819600  0.51243000  0.76144200  1
  F  F74  1  0.76144200  0.71793300  0.00819600  1
  F  F75  1  0.71793300  0.76144200  0.51243000  1
  F  F76  1  0.71793300  0.51243000  0.00819600  1
  F  F77  1  0.76144200  0.00819600  0.51243000  1
  F  F78  1  0.00819600  0.76144200  0.71793300  1
  F  F79  1  0.51243000  0.71793300  0.76144200  1
