# generated using pymatgen
data_NpUP4H4(CO8)2
_symmetry_space_group_name_H-M   'P 1'
_cell_length_a   19.98960000
_cell_length_b   5.62006700
_cell_length_c   7.06843856
_cell_angle_alpha   82.09343946
_cell_angle_beta   90.00000000
_cell_angle_gamma   90.00000000
_symmetry_Int_Tables_number   1
_chemical_formula_structural   NpUP4H4(CO8)2
_chemical_formula_sum   'Np2 U2 P8 H8 C4 O32'
_cell_volume   786.53999368
_cell_formula_units_Z   2
loop_
 _symmetry_equiv_pos_site_id
 _symmetry_equiv_pos_as_xyz
  1  'x, y, z'
loop_
 _atom_site_type_symbol
 _atom_site_label
 _atom_site_symmetry_multiplicity
 _atom_site_fract_x
 _atom_site_fract_y
 _atom_site_fract_z
 _atom_site_occupancy
  Np  Np0  1  0.25000000  0.80785900  0.65151000  1
  Np  Np1  1  0.75000000  0.19214100  0.34849000  1
  U  U2  1  0.50000000  0.00000000  0.00000000  1
  U  U3  1  0.00000000  0.00000000  0.00000000  1
  P  P4  1  0.36529500  0.30206900  0.71380100  1
  P  P5  1  0.86529500  0.69793100  0.28619900  1
  P  P6  1  0.63470500  0.69793100  0.28619900  1
  P  P7  1  0.13470500  0.30206900  0.71380100  1
  P  P8  1  0.37505100  0.59123000  0.31846300  1
  P  P9  1  0.87505100  0.40877000  0.68153700  1
  P  P10  1  0.62494900  0.40877000  0.68153700  1
  P  P11  1  0.12494900  0.59123000  0.31846300  1
  H  H12  1  0.44886100  0.28528100  0.47315400  1
  H  H13  1  0.94886100  0.71471900  0.52684600  1
  H  H14  1  0.55113900  0.71471900  0.52684600  1
  H  H15  1  0.05113900  0.28528100  0.47315400  1
  H  H16  1  0.45116400  0.55371700  0.58535600  1
  H  H17  1  0.95116400  0.44628300  0.41464400  1
  H  H18  1  0.54883600  0.44628300  0.41464400  1
  H  H19  1  0.04883600  0.55371700  0.58535600  1
  C  C20  1  0.41826600  0.42856100  0.52182000  1
  C  C21  1  0.91826600  0.57143900  0.47818000  1
  C  C22  1  0.58173400  0.57143900  0.47818000  1
  C  C23  1  0.08173400  0.42856100  0.52182000  1
  O  O24  1  0.31748300  0.50349300  0.75729000  1
  O  O25  1  0.81748300  0.49650700  0.24271000  1
  O  O26  1  0.68251700  0.49650700  0.24271000  1
  O  O27  1  0.18251700  0.50349300  0.75729000  1
  O  O28  1  0.40925900  0.21692000  0.88610600  1
  O  O29  1  0.90925900  0.78308000  0.11389400  1
  O  O30  1  0.59074100  0.78308000  0.11389400  1
  O  O31  1  0.09074100  0.21692000  0.88610600  1
  O  O32  1  0.32601500  0.08892000  0.64620300  1
  O  O33  1  0.82601500  0.91108000  0.35379700  1
  O  O34  1  0.67398500  0.91108000  0.35379700  1
  O  O35  1  0.17398500  0.08892000  0.64620300  1
  O  O36  1  0.33986100  0.42046800  0.20197700  1
  O  O37  1  0.83986100  0.57953200  0.79802300  1
  O  O38  1  0.66013900  0.57953200  0.79802300  1
  O  O39  1  0.16013900  0.42046800  0.20197700  1
  O  O40  1  0.42727900  0.75675700  0.20895200  1
  O  O41  1  0.92727900  0.24324300  0.79104800  1
  O  O42  1  0.57272100  0.24324300  0.79104800  1
  O  O43  1  0.07272100  0.75675700  0.20895200  1
  O  O44  1  0.31878100  0.73756200  0.41015800  1
  O  O45  1  0.81878100  0.26243800  0.58984200  1
  O  O46  1  0.68121900  0.26243800  0.58984200  1
  O  O47  1  0.18121900  0.73756200  0.41015800  1
  O  O48  1  0.48852500  0.81317700  0.81354200  1
  O  O49  1  0.98852500  0.18682300  0.18645800  1
  O  O50  1  0.51147500  0.18682300  0.18645800  1
  O  O51  1  0.01147500  0.81317700  0.81354200  1
  O  O52  1  0.25000000  0.05897500  0.33715800  1
  O  O53  1  0.75000000  0.94102500  0.66284200  1
  O  O54  1  0.25000000  0.84221500  0.90209700  1
  O  O55  1  0.75000000  0.15778500  0.09790300  1
