# generated using pymatgen
data_NaSi8H7O20
_symmetry_space_group_name_H-M   'P 1'
_cell_length_a   7.45284705
_cell_length_b   15.06894653
_cell_length_c   49.25506308
_cell_angle_alpha   90.23102480
_cell_angle_beta   90.04489127
_cell_angle_gamma   90.09445778
_symmetry_Int_Tables_number   1
_chemical_formula_structural   NaSi8H7O20
_chemical_formula_sum   'Na4 Si32 H28 O80'
_cell_volume   5531.61217779
_cell_formula_units_Z   4
loop_
 _symmetry_equiv_pos_site_id
 _symmetry_equiv_pos_as_xyz
  1  'x, y, z'
loop_
 _atom_site_type_symbol
 _atom_site_label
 _atom_site_symmetry_multiplicity
 _atom_site_fract_x
 _atom_site_fract_y
 _atom_site_fract_z
 _atom_site_occupancy
  Na  Na0  1  0.01739557  0.05285223  0.26217860  1
  Na  Na1  1  0.51872677  0.15595535  0.27984956  1
  Na  Na2  1  0.00904265  0.59825268  0.15895466  1
  Na  Na3  1  0.50421211  0.70582511  0.18684727  1
  Si  Si4  1  0.52120860  0.25918512  0.37264203  1
  Si  Si5  1  0.53027673  0.46249347  0.36499969  1
  Si  Si6  1  0.24629084  0.01803999  0.32964685  1
  Si  Si7  1  0.23404806  0.22199452  0.32710378  1
  Si  Si8  1  0.82322983  0.01067077  0.32439854  1
  Si  Si9  1  0.80692449  0.21688901  0.32691253  1
  Si  Si10  1  0.31906041  0.35915939  0.27860786  1
  Si  Si11  1  0.73128113  0.35397948  0.27852976  1
  Si  Si12  1  0.21361852  0.40344211  0.16391401  1
  Si  Si13  1  0.80030534  0.39565458  0.16394116  1
  Si  Si14  1  0.28662807  0.03736320  0.12189343  1
  Si  Si15  1  0.30124614  0.24268526  0.12546624  1
  Si  Si16  1  0.71092264  0.03085298  0.12284762  1
  Si  Si17  1  0.72094915  0.23790919  0.12472688  1
  Si  Si18  1  0.01303839  0.28244445  0.07913776  1
  Si  Si19  1  0.00345920  0.48740151  0.07001021  1
  Si  Si20  1  0.51411834  0.76074440  0.36732999  1
  Si  Si21  1  0.53614722  0.96565688  0.37086356  1
  Si  Si22  1  0.23708590  0.51373632  0.32053556  1
  Si  Si23  1  0.22799187  0.72064551  0.32062149  1
  Si  Si24  1  0.81936942  0.50920663  0.31972208  1
  Si  Si25  1  0.80425336  0.71515140  0.32226701  1
  Si  Si26  1  0.31954955  0.87926049  0.28207442  1
  Si  Si27  1  0.73205218  0.86610763  0.27820806  1
  Si  Si28  1  0.21167848  0.88467505  0.16539322  1
  Si  Si29  1  0.80008540  0.87197490  0.16342081  1
  Si  Si30  1  0.28927761  0.53577399  0.11431934  1
  Si  Si31  1  0.30723861  0.74105827  0.12007627  1
  Si  Si32  1  0.71485240  0.52878544  0.11401043  1
  Si  Si33  1  0.73175782  0.73319269  0.11572873  1
  Si  Si34  1  0.02288599  0.78349633  0.07333832  1
  Si  Si35  1  0.99802106  0.98825913  0.07697267  1
  H  H36  1  0.24078563  0.08743329  0.19029009  1
  H  H37  1  0.84871319  0.95223539  0.22584365  1
  H  H38  1  0.29037890  0.99570488  0.20379683  1
  H  H39  1  0.98514981  0.01739494  0.21105834  1
  H  H40  1  0.23033207  0.21263977  0.25010444  1
  H  H41  1  0.77551984  0.11691623  0.23611867  1
  H  H42  1  0.27226559  0.12039218  0.23485146  1
  H  H43  1  0.81133306  0.21398588  0.25010527  1
  H  H44  1  0.52514155  0.43133961  0.18730152  1
  H  H45  1  0.03382476  0.33162826  0.25486284  1
  H  H46  1  0.00118664  0.15606229  0.05172002  1
  H  H47  1  0.02143370  0.02223234  0.03257679  1
  H  H48  1  0.53322397  0.14245600  0.40096694  1
  H  H49  1  0.62666420  0.99744322  0.41397045  1
  H  H50  1  0.28661377  0.54901741  0.19220924  1
  H  H51  1  0.82685911  0.64288072  0.20327336  1
  H  H52  1  0.18435876  0.63469692  0.20569472  1
  H  H53  1  0.73248351  0.55188948  0.19357473  1
  H  H54  1  0.95540798  0.73632592  0.23662348  1
  H  H55  1  0.63600343  0.77875938  0.23108953  1
  H  H56  1  0.00244299  0.77150175  0.20856750  1
  H  H57  1  0.51445276  0.71806810  0.24867111  1
  H  H58  1  0.49741230  0.87941705  0.18838804  1
  H  H59  1  0.04305661  0.88198526  0.25709304  1
  H  H60  1  0.03339038  0.66384392  0.04435390  1
  H  H61  1  0.04767569  0.51395370  0.02493492  1
  H  H62  1  0.50734607  0.63690195  0.39354138  1
  H  H63  1  0.57839607  0.50332888  0.40835304  1
  O  O64  1  0.57179812  0.02582681  0.39842826  1
  O  O65  1  0.51619547  0.20730437  0.40127591  1
  O  O66  1  0.53075230  0.36520365  0.37890866  1
  O  O67  1  0.33676305  0.24262684  0.35527159  1
  O  O68  1  0.69865043  0.23001077  0.35511252  1
  O  O69  1  0.35228554  0.48460948  0.34736310  1
  O  O70  1  0.70486663  0.47521706  0.34589339  1
  O  O71  1  0.03208813  0.00351338  0.33397835  1
  O  O72  1  0.01976403  0.23433350  0.33167579  1
  O  O73  1  0.28042389  0.11869638  0.31802770  1
  O  O74  1  0.77513324  0.11361584  0.31661542  1
  O  O75  1  0.31139112  0.28172875  0.30274094  1
  O  O76  1  0.72222308  0.27864711  0.30355678  1
  O  O77  1  0.28580535  0.45460679  0.29399171  1
  O  O78  1  0.77878563  0.44960639  0.29300386  1
  O  O79  1  0.52459426  0.35651380  0.26745228  1
  O  O80  1  0.18683994  0.33189294  0.25444353  1
  O  O81  1  0.86408039  0.32163106  0.25533381  1
  O  O82  1  0.22894110  0.05461594  0.20719202  1
  O  O83  1  0.26257599  0.14916908  0.25307225  1
  O  O84  1  0.86756377  0.01433882  0.22014520  1
  O  O85  1  0.77210124  0.15063464  0.25329572  1
  O  O86  1  0.34586354  0.44337238  0.18605642  1
  O  O87  1  0.67176492  0.42914095  0.18791801  1
  O  O88  1  0.00597526  0.40553472  0.17473343  1
  O  O89  1  0.25763685  0.30328262  0.15202781  1
  O  O90  1  0.20495512  0.47020330  0.13663542  1
  O  O91  1  0.76983711  0.29485019  0.15193075  1
  O  O92  1  0.78518670  0.46269854  0.13717619  1
  O  O93  1  0.25689272  0.13856500  0.13304144  1
  O  O94  1  0.75780851  0.13294124  0.13118949  1
  O  O95  1  0.49806818  0.01946890  0.11584555  1
  O  O96  1  0.51099535  0.25203571  0.11701716  1
  O  O97  1  0.18729146  0.27224461  0.09897212  1
  O  O98  1  0.83563681  0.26897062  0.09828328  1
  O  O99  1  0.17923477  0.52599745  0.08601252  1
  O  O100  1  0.81758807  0.51237839  0.08544529  1
  O  O101  1  0.01741093  0.38196766  0.06593441  1
  O  O102  1  0.97846324  0.04918292  0.04926825  1
  O  O103  1  0.01754064  0.22110819  0.05234641  1
  O  O104  1  0.53676738  0.53004406  0.39159720  1
  O  O105  1  0.49287991  0.70220143  0.39440769  1
  O  O106  1  0.52330476  0.86267134  0.37894227  1
  O  O107  1  0.34252183  0.75452095  0.34667564  1
  O  O108  1  0.69580175  0.73696866  0.35014759  1
  O  O109  1  0.34987181  0.00520374  0.35841538  1
  O  O110  1  0.69900842  0.97769925  0.34919164  1
  O  O111  1  0.02817687  0.50028043  0.32882844  1
  O  O112  1  0.01669804  0.73174351  0.32811248  1
  O  O113  1  0.27606517  0.61766935  0.31339829  1
  O  O114  1  0.77064543  0.61232371  0.31299717  1
  O  O115  1  0.27517828  0.78009135  0.29387354  1
  O  O116  1  0.73426844  0.77906260  0.29808338  1
  O  O117  1  0.32978059  0.95050968  0.30755683  1
  O  O118  1  0.79297490  0.95464982  0.29658786  1
  O  O119  1  0.52099505  0.87990193  0.26897461  1
  O  O120  1  0.17054259  0.91288810  0.26067872  1
  O  O121  1  0.86028336  0.85727825  0.25236967  1
  O  O122  1  0.25050810  0.61341677  0.18968398  1
  O  O123  1  0.00048148  0.71601441  0.21892218  1
  O  O124  1  0.76625215  0.61267849  0.18787684  1
  O  O125  1  0.57651501  0.72085078  0.23131634  1
  O  O126  1  0.34570293  0.89833512  0.19072701  1
  O  O127  1  0.65162951  0.84763620  0.18543914  1
  O  O128  1  0.00525641  0.87190817  0.17662863  1
  O  O129  1  0.27189888  0.79442161  0.14835470  1
  O  O130  1  0.21139727  0.96987340  0.14485026  1
  O  O131  1  0.81427430  0.79279691  0.13996424  1
  O  O132  1  0.76718666  0.96620695  0.14763455  1
  O  O133  1  0.25538879  0.63707497  0.12610843  1
  O  O134  1  0.76776758  0.62952638  0.12442223  1
  O  O135  1  0.50087822  0.52058698  0.10860615  1
  O  O136  1  0.51756583  0.74885348  0.11176024  1
  O  O137  1  0.18517320  0.77762229  0.09563538  1
  O  O138  1  0.83311456  0.75351894  0.08732059  1
  O  O139  1  0.17557069  0.01993429  0.09372769  1
  O  O140  1  0.82007059  0.00331456  0.09525859  1
  O  O141  1  0.01287671  0.88792690  0.06520575  1
  O  O142  1  0.99438663  0.54111990  0.04086363  1
  O  O143  1  0.06117782  0.72744841  0.04591356  1
