# generated using pymatgen
data_NaSeO3
_symmetry_space_group_name_H-M   'P 1'
_cell_length_a   11.71227130
_cell_length_b   11.71227130
_cell_length_c   10.48761755
_cell_angle_alpha   78.60325856
_cell_angle_beta   78.60325856
_cell_angle_gamma   29.19252132
_symmetry_Int_Tables_number   1
_chemical_formula_structural   NaSeO3
_chemical_formula_sum   'Na8 Se8 O24'
_cell_volume   686.91752036
_cell_formula_units_Z   8
loop_
 _symmetry_equiv_pos_site_id
 _symmetry_equiv_pos_as_xyz
  1  'x, y, z'
loop_
 _atom_site_type_symbol
 _atom_site_label
 _atom_site_symmetry_multiplicity
 _atom_site_fract_x
 _atom_site_fract_y
 _atom_site_fract_z
 _atom_site_occupancy
  Na  Na0  1  0.08156800  0.51852700  0.21611700  1
  Na  Na1  1  0.48147300  0.91843200  0.28388300  1
  Na  Na2  1  0.91843200  0.48147300  0.78388300  1
  Na  Na3  1  0.51852700  0.08156800  0.71611700  1
  Na  Na4  1  0.84957300  0.39857100  0.16608500  1
  Na  Na5  1  0.60142900  0.15042700  0.33391500  1
  Na  Na6  1  0.15042700  0.60142900  0.83391500  1
  Na  Na7  1  0.39857100  0.84957300  0.66608500  1
  Se  Se8  1  0.94595500  0.38821800  0.45775400  1
  Se  Se9  1  0.61178200  0.05404500  0.04224600  1
  Se  Se10  1  0.05404500  0.61178200  0.54224600  1
  Se  Se11  1  0.38821800  0.94595500  0.95775400  1
  Se  Se12  1  0.17024800  0.72130600  0.11439400  1
  Se  Se13  1  0.27869400  0.82975200  0.38560600  1
  Se  Se14  1  0.82975200  0.27869400  0.88560600  1
  Se  Se15  1  0.72130600  0.17024800  0.61439400  1
  O  O16  1  0.77599300  0.59535000  0.56503600  1
  O  O17  1  0.40465000  0.22400700  0.93496400  1
  O  O18  1  0.22400700  0.40465000  0.43496400  1
  O  O19  1  0.59535000  0.77599300  0.06503600  1
  O  O20  1  0.23139100  0.16620000  0.47684000  1
  O  O21  1  0.83380000  0.76860900  0.02316000  1
  O  O22  1  0.76860900  0.83380000  0.52316000  1
  O  O23  1  0.16620000  0.23139100  0.97684000  1
  O  O24  1  0.88185500  0.51743300  0.30789500  1
  O  O25  1  0.48256700  0.11814500  0.19210500  1
  O  O26  1  0.11814500  0.48256700  0.69210500  1
  O  O27  1  0.51743300  0.88185500  0.80789500  1
  O  O28  1  0.10537900  0.78919500  0.95856900  1
  O  O29  1  0.21080500  0.89462100  0.54143100  1
  O  O30  1  0.89462100  0.21080500  0.04143100  1
  O  O31  1  0.78919500  0.10537900  0.45856900  1
  O  O32  1  0.95469600  0.83202700  0.21198600  1
  O  O33  1  0.16797300  0.04530400  0.28801400  1
  O  O34  1  0.04530400  0.16797300  0.78801400  1
  O  O35  1  0.83202700  0.95469600  0.71198600  1
  O  O36  1  0.42189600  0.42692800  0.14390300  1
  O  O37  1  0.57307200  0.57810400  0.35609700  1
  O  O38  1  0.57810400  0.57307200  0.85609700  1
  O  O39  1  0.42692800  0.42189600  0.64390300  1
