# generated using pymatgen
data_UH25C12NO8
_symmetry_space_group_name_H-M   'P 1'
_cell_length_a   11.05051798
_cell_length_b   12.91577941
_cell_length_c   13.81067338
_cell_angle_alpha   90.00000000
_cell_angle_beta   90.00000000
_cell_angle_gamma   90.00000000
_symmetry_Int_Tables_number   1
_chemical_formula_structural   UH25C12NO8
_chemical_formula_sum   'U4 H100 C48 N4 O32'
_cell_volume   1971.14289522
_cell_formula_units_Z   4
loop_
 _symmetry_equiv_pos_site_id
 _symmetry_equiv_pos_as_xyz
  1  'x, y, z'
loop_
 _atom_site_type_symbol
 _atom_site_label
 _atom_site_symmetry_multiplicity
 _atom_site_fract_x
 _atom_site_fract_y
 _atom_site_fract_z
 _atom_site_occupancy
  U  U0  1  0.89472162  0.00107817  0.29814374  1
  U  U1  1  0.10527838  0.50107817  0.70185626  1
  U  U2  1  0.39472162  0.50107817  0.20185626  1
  U  U3  1  0.60527838  0.00107817  0.79814374  1
  H  H4  1  0.31403028  0.12059824  0.27870776  1
  H  H5  1  0.68596972  0.62059824  0.72129224  1
  H  H6  1  0.81403028  0.62059824  0.22129224  1
  H  H7  1  0.18596972  0.12059824  0.77870776  1
  H  H8  1  0.27062340  0.12616411  0.15388138  1
  H  H9  1  0.72937660  0.62616411  0.84611862  1
  H  H10  1  0.77062340  0.62616411  0.34611862  1
  H  H11  1  0.22937660  0.12616411  0.65388138  1
  H  H12  1  0.23387986  0.22971985  0.23149706  1
  H  H13  1  0.76612014  0.72971985  0.76850294  1
  H  H14  1  0.73387986  0.72971985  0.26850294  1
  H  H15  1  0.26612014  0.22971985  0.73149706  1
  H  H16  1  0.80267088  0.72205872  0.52489099  1
  H  H17  1  0.19732912  0.22205872  0.47510901  1
  H  H18  1  0.30267088  0.22205872  0.97510901  1
  H  H19  1  0.69732912  0.72205872  0.02489099  1
  H  H20  1  0.94460218  0.76592875  0.57211132  1
  H  H21  1  0.05539782  0.26592875  0.42788868  1
  H  H22  1  0.44460218  0.26592875  0.92788868  1
  H  H23  1  0.55539782  0.76592875  0.07211132  1
  H  H24  1  0.80655218  0.83061267  0.60273083  1
  H  H25  1  0.19344782  0.33061267  0.39726917  1
  H  H26  1  0.30655218  0.33061267  0.89726917  1
  H  H27  1  0.69344782  0.83061267  0.10273083  1
  H  H28  1  0.50203973  0.05941400  0.13960672  1
  H  H29  1  0.49796027  0.55941400  0.86039328  1
  H  H30  1  0.00203973  0.55941400  0.36039328  1
  H  H31  1  0.99796027  0.05941400  0.63960672  1
  H  H32  1  0.55832068  0.18685338  0.15897550  1
  H  H33  1  0.44167932  0.68685338  0.84102450  1
  H  H34  1  0.05832068  0.68685338  0.34102450  1
  H  H35  1  0.94167932  0.18685338  0.65897550  1
  H  H36  1  0.60094972  0.11829859  0.05266827  1
  H  H37  1  0.39905028  0.61829859  0.94733173  1
  H  H38  1  0.10094972  0.61829859  0.44733173  1
  H  H39  1  0.89905028  0.11829859  0.55266827  1
  H  H40  1  0.72135151  0.35007544  0.09817513  1
  H  H41  1  0.27864849  0.85007544  0.90182487  1
  H  H42  1  0.22135151  0.85007544  0.40182487  1
  H  H43  1  0.77864849  0.35007544  0.59817513  1
  H  H44  1  0.73935864  0.27755132  0.99008796  1
  H  H45  1  0.26064136  0.77755132  0.00991204  1
  H  H46  1  0.23935864  0.77755132  0.50991204  1
  H  H47  1  0.76064136  0.27755132  0.49008796  1
  H  H48  1  0.70260137  0.46219397  0.95967490  1
  H  H49  1  0.29739863  0.96219397  0.04032510  1
  H  H50  1  0.20260137  0.96219397  0.54032510  1
  H  H51  1  0.79739863  0.46219397  0.45967490  1
  H  H52  1  0.83502478  0.49976508  0.02239579  1
  H  H53  1  0.16497522  0.99976508  0.97760421  1
  H  H54  1  0.33502478  0.99976508  0.47760421  1
  H  H55  1  0.66497522  0.49976508  0.52239579  1
  H  H56  1  0.84793860  0.42853098  0.91250862  1
  H  H57  1  0.15206140  0.92853098  0.08749138  1
  H  H58  1  0.34793860  0.92853098  0.58749138  1
  H  H59  1  0.65206140  0.42853098  0.41250862  1
  H  H60  1  0.01515257  0.33842704  0.96038418  1
  H  H61  1  0.98484743  0.83842704  0.03961582  1
  H  H62  1  0.51515257  0.83842704  0.53961582  1
  H  H63  1  0.48484743  0.33842704  0.46038418  1
  H  H64  1  0.06454041  0.23474539  0.03488040  1
  H  H65  1  0.93545959  0.73474539  0.96511960  1
  H  H66  1  0.56454041  0.73474539  0.46511960  1
  H  H67  1  0.43545959  0.23474539  0.53488040  1
  H  H68  1  0.01271642  0.16681319  0.87592296  1
  H  H69  1  0.98728358  0.66681319  0.12407704  1
  H  H70  1  0.51271642  0.66681319  0.62407704  1
  H  H71  1  0.48728358  0.16681319  0.37592296  1
  H  H72  1  0.90035453  0.12073517  0.95877557  1
  H  H73  1  0.09964547  0.62073517  0.04122443  1
  H  H74  1  0.40035453  0.62073517  0.54122443  1
  H  H75  1  0.59964547  0.12073517  0.45877557  1
  H  H76  1  0.86644397  0.22232391  0.87656192  1
  H  H77  1  0.13355603  0.72232391  0.12343808  1
  H  H78  1  0.36644397  0.72232391  0.62343808  1
  H  H79  1  0.63355603  0.22232391  0.37656192  1
  H  H80  1  0.04452420  0.32556062  0.16325301  1
  H  H81  1  0.95547580  0.82556062  0.83674699  1
  H  H82  1  0.54452420  0.82556062  0.33674699  1
  H  H83  1  0.45547580  0.32556062  0.66325301  1
  H  H84  1  0.97028104  0.43608893  0.11842542  1
  H  H85  1  0.02971896  0.93608893  0.88157458  1
  H  H86  1  0.47028104  0.93608893  0.38157458  1
  H  H87  1  0.52971896  0.43608893  0.61842542  1
  H  H88  1  0.93660069  0.40151616  0.29729698  1
  H  H89  1  0.06339931  0.90151616  0.70270302  1
  H  H90  1  0.43660069  0.90151616  0.20270302  1
  H  H91  1  0.56339931  0.40151616  0.79729698  1
  H  H92  1  0.79663325  0.40787455  0.23294575  1
  H  H93  1  0.20336675  0.90787455  0.76705425  1
  H  H94  1  0.29663325  0.90787455  0.26705425  1
  H  H95  1  0.70336675  0.40787455  0.73294575  1
  H  H96  1  0.85838937  0.28561822  0.26764096  1
  H  H97  1  0.14161063  0.78561822  0.73235904  1
  H  H98  1  0.35838937  0.78561822  0.23235904  1
  H  H99  1  0.64161063  0.28561822  0.76764096  1
  H  H100  1  0.87169075  0.22342812  0.10751560  1
  H  H101  1  0.12830925  0.72342812  0.89248440  1
  H  H102  1  0.37169075  0.72342812  0.39248440  1
  H  H103  1  0.62830925  0.22342812  0.60751560  1
  C  C104  1  0.78015242  0.33780992  0.03540245  1
  C  C105  1  0.21984758  0.83780992  0.96459755  1
  C  C106  1  0.28015242  0.83780992  0.46459755  1
  C  C107  1  0.71984758  0.33780992  0.53540245  1
  C  C108  1  0.79452292  0.43766028  0.97897222  1
  C  C109  1  0.20547708  0.93766028  0.02102778  1
  C  C110  1  0.29452292  0.93766028  0.52102778  1
  C  C111  1  0.70547708  0.43766028  0.47897222  1
  C  C112  1  0.98658952  0.26646226  0.99580357  1
  C  C113  1  0.01341048  0.76646226  0.00419643  1
  C  C114  1  0.48658952  0.76646226  0.50419643  1
  C  C115  1  0.51341048  0.26646226  0.49580357  1
  C  C116  1  0.93737392  0.18968970  0.92299042  1
  C  C117  1  0.06262608  0.68968970  0.07700958  1
  C  C118  1  0.43737392  0.68968970  0.57700958  1
  C  C119  1  0.56262608  0.18968970  0.42299042  1
  C  C120  1  0.95522967  0.35930862  0.14994492  1
  C  C121  1  0.04477033  0.85930862  0.85005508  1
  C  C122  1  0.45522967  0.85930862  0.35005508  1
  C  C123  1  0.54477033  0.35930862  0.64994492  1
  C  C124  1  0.88078527  0.36378681  0.24194365  1
  C  C125  1  0.11921473  0.86378681  0.75805635  1
  C  C126  1  0.38078527  0.86378681  0.25805635  1
  C  C127  1  0.61921473  0.36378681  0.74194365  1
  C  C128  1  0.12478366  0.09332156  0.25106003  1
  C  C129  1  0.87521634  0.59332156  0.74893997  1
  C  C130  1  0.62478366  0.59332156  0.24893997  1
  C  C131  1  0.37521634  0.09332156  0.75106003  1
  C  C132  1  0.86930517  0.86198135  0.45911441  1
  C  C133  1  0.13069483  0.36198135  0.54088559  1
  C  C134  1  0.36930517  0.36198135  0.04088559  1
  C  C135  1  0.63069483  0.86198135  0.95911441  1
  C  C136  1  0.68873032  0.06833302  0.18366361  1
  C  C137  1  0.31126968  0.56833302  0.81633639  1
  C  C138  1  0.18873032  0.56833302  0.31633639  1
  C  C139  1  0.81126968  0.06833302  0.68366361  1
  C  C140  1  0.24329428  0.14516428  0.22827583  1
  C  C141  1  0.75670572  0.64516428  0.77172417  1
  C  C142  1  0.74329428  0.64516428  0.27172417  1
  C  C143  1  0.25670572  0.14516428  0.72827583  1
  C  C144  1  0.85611783  0.79051288  0.54469361  1
  C  C145  1  0.14388217  0.29051288  0.45530639  1
  C  C146  1  0.35611783  0.29051288  0.95530639  1
  C  C147  1  0.64388217  0.79051288  0.04469361  1
  C  C148  1  0.58076922  0.10979192  0.13009688  1
  C  C149  1  0.41923078  0.60979192  0.86990312  1
  C  C150  1  0.08076922  0.60979192  0.36990312  1
  C  C151  1  0.91923078  0.10979192  0.63009688  1
  N  N152  1  0.89665918  0.29277791  0.07376817  1
  N  N153  1  0.10334082  0.79277791  0.92623183  1
  N  N154  1  0.39665918  0.79277791  0.42623183  1
  N  N155  1  0.60334082  0.29277791  0.57376817  1
  O  O156  1  0.86482772  0.11061023  0.37758154  1
  O  O157  1  0.13517228  0.61061023  0.62241846  1
  O  O158  1  0.36482772  0.61061023  0.12241846  1
  O  O159  1  0.63517228  0.11061023  0.87758154  1
  O  O160  1  0.92441528  0.89239805  0.21841681  1
  O  O161  1  0.07558472  0.39239805  0.78158319  1
  O  O162  1  0.42441528  0.39239805  0.28158319  1
  O  O163  1  0.57558472  0.89239805  0.71841681  1
  O  O164  1  0.11608364  0.02824973  0.32056136  1
  O  O165  1  0.88391636  0.52824973  0.67943864  1
  O  O166  1  0.61608364  0.52824973  0.17943864  1
  O  O167  1  0.38391636  0.02824973  0.82056136  1
  O  O168  1  0.03084467  0.11435449  0.20031584  1
  O  O169  1  0.96915533  0.61435449  0.79968416  1
  O  O170  1  0.53084467  0.61435449  0.29968416  1
  O  O171  1  0.46915533  0.11435449  0.70031584  1
  O  O172  1  0.97273009  0.90065217  0.43765392  1
  O  O173  1  0.02726991  0.40065217  0.56234608  1
  O  O174  1  0.47273009  0.40065217  0.06234608  1
  O  O175  1  0.52726991  0.90065217  0.93765392  1
  O  O176  1  0.77709068  0.88585087  0.40732632  1
  O  O177  1  0.22290932  0.38585087  0.59267368  1
  O  O178  1  0.27709068  0.38585087  0.09267368  1
  O  O179  1  0.72290932  0.88585087  0.90732632  1
  O  O180  1  0.79478634  0.10486966  0.16594350  1
  O  O181  1  0.20521366  0.60486966  0.83405650  1
  O  O182  1  0.29478634  0.60486966  0.33405650  1
  O  O183  1  0.70521366  0.10486966  0.66594350  1
  O  O184  1  0.67764798  0.99840973  0.24843024  1
  O  O185  1  0.32235202  0.49840973  0.75156976  1
  O  O186  1  0.17764798  0.49840973  0.25156976  1
  O  O187  1  0.82235202  0.99840973  0.74843024  1
