data_image0
_chemical_formula_structural       Ge4Ni2Y2
_chemical_formula_sum              "Ge4 Ni2 Y2"
_cell_length_a       4.1832
_cell_length_b       4.11449
_cell_length_c       8.61902
_cell_angle_alpha    76.1909
_cell_angle_beta     90
_cell_angle_gamma    90

_space_group_name_H-M_alt    "P 1"
_space_group_IT_number       1

loop_
  _space_group_symop_operation_xyz
  'x, y, z'

loop_
  _atom_site_type_symbol
  _atom_site_label
  _atom_site_symmetry_multiplicity
  _atom_site_fract_x
  _atom_site_fract_y
  _atom_site_fract_z
  _atom_site_occupancy
  Ge  Ge1       1.0  0.75000  0.45900  0.08260  1.0000
  Ge  Ge2       1.0  0.25000  0.25100  0.49700  1.0000
  Ge  Ge3       1.0  0.75000  0.74900  0.50300  1.0000
  Ge  Ge4       1.0  0.25000  0.54100  0.91700  1.0000
  Ni  Ni1       1.0  0.75000  0.32100  0.35700  1.0000
  Ni  Ni2       1.0  0.25000  0.67900  0.64300  1.0000
  Y   Y1        1.0  0.25000  0.89300  0.21400  1.0000
  Y   Y2        1.0  0.75000  0.10700  0.78600  1.0000
