# generated using pymatgen
data_Pt2Cl8O7
_symmetry_space_group_name_H-M   'P 1'
_cell_length_a   7.68632000
_cell_length_b   9.16944800
_cell_length_c   21.11076400
_cell_angle_alpha   90.00000000
_cell_angle_beta   90.00000000
_cell_angle_gamma   90.00000000
_symmetry_Int_Tables_number   1
_chemical_formula_structural   Pt2Cl8O7
_chemical_formula_sum   'Pt8 Cl32 O28'
_cell_volume   1487.87211304
_cell_formula_units_Z   4
loop_
 _symmetry_equiv_pos_site_id
 _symmetry_equiv_pos_as_xyz
  1  'x, y, z'
loop_
 _atom_site_type_symbol
 _atom_site_label
 _atom_site_symmetry_multiplicity
 _atom_site_fract_x
 _atom_site_fract_y
 _atom_site_fract_z
 _atom_site_occupancy
  Pt  Pt0  1  0.11243500  0.89664600  0.64182200  1
  Pt  Pt1  1  0.38756500  0.60335400  0.14182200  1
  Pt  Pt2  1  0.61243500  0.60335400  0.35817800  1
  Pt  Pt3  1  0.88756500  0.89664600  0.85817800  1
  Pt  Pt4  1  0.88756500  0.10335400  0.35817800  1
  Pt  Pt5  1  0.61243500  0.39664600  0.85817800  1
  Pt  Pt6  1  0.38756500  0.39664600  0.64182200  1
  Pt  Pt7  1  0.11243500  0.10335400  0.14182200  1
  Cl  Cl8  1  0.28222000  0.51251200  0.93312200  1
  Cl  Cl9  1  0.21778000  0.98748800  0.43312200  1
  Cl  Cl10  1  0.78222000  0.98748800  0.06687800  1
  Cl  Cl11  1  0.71778000  0.51251200  0.56687800  1
  Cl  Cl12  1  0.71778000  0.48748800  0.06687800  1
  Cl  Cl13  1  0.78222000  0.01251200  0.56687800  1
  Cl  Cl14  1  0.21778000  0.01251200  0.93312200  1
  Cl  Cl15  1  0.28222000  0.48748800  0.43312200  1
  Cl  Cl16  1  0.96230100  0.70049900  0.67960200  1
  Cl  Cl17  1  0.53769900  0.79950100  0.17960200  1
  Cl  Cl18  1  0.46230100  0.79950100  0.32039800  1
  Cl  Cl19  1  0.03769900  0.70049900  0.82039800  1
  Cl  Cl20  1  0.03769900  0.29950100  0.32039800  1
  Cl  Cl21  1  0.46230100  0.20049900  0.82039800  1
  Cl  Cl22  1  0.53769900  0.20049900  0.67960200  1
  Cl  Cl23  1  0.96230100  0.29950100  0.17960200  1
  Cl  Cl24  1  0.30328900  0.71773000  0.58002200  1
  Cl  Cl25  1  0.19671100  0.78227000  0.08002200  1
  Cl  Cl26  1  0.80328900  0.78227000  0.41997800  1
  Cl  Cl27  1  0.69671100  0.71773000  0.91997800  1
  Cl  Cl28  1  0.69671100  0.28227000  0.41997800  1
  Cl  Cl29  1  0.80328900  0.21773000  0.91997800  1
  Cl  Cl30  1  0.19671100  0.21773000  0.58002200  1
  Cl  Cl31  1  0.30328900  0.28227000  0.08002200  1
  Cl  Cl32  1  0.32290700  0.89246500  0.71734700  1
  Cl  Cl33  1  0.17709300  0.60753500  0.21734700  1
  Cl  Cl34  1  0.82290700  0.60753500  0.28265300  1
  Cl  Cl35  1  0.67709300  0.89246500  0.78265300  1
  Cl  Cl36  1  0.67709300  0.10753500  0.28265300  1
  Cl  Cl37  1  0.82290700  0.39246500  0.78265300  1
  Cl  Cl38  1  0.17709300  0.39246500  0.71734700  1
  Cl  Cl39  1  0.32290700  0.10753500  0.21734700  1
  O  O40  1  0.50000000  0.60061500  0.75000000  1
  O  O41  1  0.00000000  0.89938500  0.25000000  1
  O  O42  1  0.50000000  0.39938500  0.25000000  1
  O  O43  1  0.00000000  0.10061500  0.75000000  1
  O  O44  1  0.94709000  0.02408000  0.69673200  1
  O  O45  1  0.55291000  0.47592000  0.19673200  1
  O  O46  1  0.44709000  0.47592000  0.30326800  1
  O  O47  1  0.05291000  0.02408000  0.80326800  1
  O  O48  1  0.05291000  0.97592000  0.30326800  1
  O  O49  1  0.44709000  0.52408000  0.80326800  1
  O  O50  1  0.55291000  0.52408000  0.69673200  1
  O  O51  1  0.94709000  0.97592000  0.19673200  1
  O  O52  1  0.94350400  0.89453300  0.56751600  1
  O  O53  1  0.55649600  0.60546700  0.06751600  1
  O  O54  1  0.44350400  0.60546700  0.43248400  1
  O  O55  1  0.05649600  0.89453300  0.93248400  1
  O  O56  1  0.05649600  0.10546700  0.43248400  1
  O  O57  1  0.44350400  0.39453300  0.93248400  1
  O  O58  1  0.55649600  0.39453300  0.56751600  1
  O  O59  1  0.94350400  0.10546700  0.06751600  1
  O  O60  1  0.25691800  0.04813500  0.59221500  1
  O  O61  1  0.24308200  0.45186500  0.09221500  1
  O  O62  1  0.75691800  0.45186500  0.40778500  1
  O  O63  1  0.74308200  0.04813500  0.90778500  1
  O  O64  1  0.74308200  0.95186500  0.40778500  1
  O  O65  1  0.75691800  0.54813500  0.90778500  1
  O  O66  1  0.24308200  0.54813500  0.59221500  1
  O  O67  1  0.25691800  0.95186500  0.09221500  1
