# generated using pymatgen
data_U6Cu2Se13
_symmetry_space_group_name_H-M   'P 1'
_cell_length_a   8.48896948
_cell_length_b   8.48896948
_cell_length_c   14.97085881
_cell_angle_alpha   98.63212013
_cell_angle_beta   98.63212013
_cell_angle_gamma   100.87068635
_symmetry_Int_Tables_number   1
_chemical_formula_structural   U6Cu2Se13
_chemical_formula_sum   'U12 Cu4 Se26'
_cell_volume   1029.64551213
_cell_formula_units_Z   2
loop_
 _symmetry_equiv_pos_site_id
 _symmetry_equiv_pos_as_xyz
  1  'x, y, z'
loop_
 _atom_site_type_symbol
 _atom_site_label
 _atom_site_symmetry_multiplicity
 _atom_site_fract_x
 _atom_site_fract_y
 _atom_site_fract_z
 _atom_site_occupancy
  U  U0  1  0.01176500  0.66759700  0.88802600  1
  U  U1  1  0.33240300  0.98823500  0.61197400  1
  U  U2  1  0.98823500  0.33240300  0.11197400  1
  U  U3  1  0.66759700  0.01176500  0.38802600  1
  U  U4  1  0.15635900  0.49505900  0.64526300  1
  U  U5  1  0.50494100  0.84364100  0.85473700  1
  U  U6  1  0.84364100  0.50494100  0.35473700  1
  U  U7  1  0.49505900  0.15635900  0.14526300  1
  U  U8  1  0.83851700  0.82199900  0.64189000  1
  U  U9  1  0.17800100  0.16148300  0.85811000  1
  U  U10  1  0.16148300  0.17800100  0.35811000  1
  U  U11  1  0.82199900  0.83851700  0.14189000  1
  Cu  Cu12  1  0.68281500  0.39152400  0.87071700  1
  Cu  Cu13  1  0.60847600  0.31718500  0.62928300  1
  Cu  Cu14  1  0.31718500  0.60847600  0.12928300  1
  Cu  Cu15  1  0.39152400  0.68281500  0.37071700  1
  Se  Se16  1  0.68640900  0.65054700  0.95207700  1
  Se  Se17  1  0.34945300  0.31359100  0.54792300  1
  Se  Se18  1  0.31359100  0.34945300  0.04792300  1
  Se  Se19  1  0.65054700  0.68640900  0.45207700  1
  Se  Se20  1  0.06822300  0.14496800  0.66757700  1
  Se  Se21  1  0.85503200  0.93177700  0.83242300  1
  Se  Se22  1  0.93177700  0.85503200  0.33242300  1
  Se  Se23  1  0.14496800  0.06822300  0.16757700  1
  Se  Se24  1  0.27878400  0.51292900  0.83713800  1
  Se  Se25  1  0.48707100  0.72121600  0.66286200  1
  Se  Se26  1  0.72121600  0.48707100  0.16286200  1
  Se  Se27  1  0.51292900  0.27878400  0.33713800  1
  Se  Se28  1  0.84277400  0.51193100  0.70195200  1
  Se  Se29  1  0.48806900  0.15722600  0.79804800  1
  Se  Se30  1  0.15722600  0.48806900  0.29804800  1
  Se  Se31  1  0.51193100  0.84277400  0.20195200  1
  Se  Se32  1  0.93803200  0.32993600  0.91567000  1
  Se  Se33  1  0.67006400  0.06196800  0.58433000  1
  Se  Se34  1  0.06196800  0.67006400  0.08433000  1
  Se  Se35  1  0.32993600  0.93803200  0.41567000  1
  Se  Se36  1  0.06179900  0.71073800  0.52400300  1
  Se  Se37  1  0.28926200  0.93820100  0.97599700  1
  Se  Se38  1  0.93820100  0.28926200  0.47599700  1
  Se  Se39  1  0.71073800  0.06179900  0.02400300  1
  Se  Se40  1  0.17102900  0.82897100  0.75000000  1
  Se  Se41  1  0.82897100  0.17102900  0.25000000  1
