# generated using pymatgen
data_HC2N3
_symmetry_space_group_name_H-M   'P 1'
_cell_length_a   4.17065015
_cell_length_b   12.75812159
_cell_length_c   16.92335362
_cell_angle_alpha   90.02723868
_cell_angle_beta   91.07756351
_cell_angle_gamma   90.23191081
_symmetry_Int_Tables_number   1
_chemical_formula_structural   HC2N3
_chemical_formula_sum   'H12 C24 N36'
_cell_volume   900.31915965
_cell_formula_units_Z   12
loop_
 _symmetry_equiv_pos_site_id
 _symmetry_equiv_pos_as_xyz
  1  'x, y, z'
loop_
 _atom_site_type_symbol
 _atom_site_label
 _atom_site_symmetry_multiplicity
 _atom_site_fract_x
 _atom_site_fract_y
 _atom_site_fract_z
 _atom_site_occupancy
  H  H0  1  0.07947300  0.05129500  0.58006100  1
  H  H1  1  0.06546600  0.17535700  0.62714800  1
  H  H2  1  0.92163700  0.94143200  0.42126000  1
  H  H3  1  0.93608600  0.81725100  0.37450400  1
  H  H4  1  0.99482200  0.38669800  0.61768400  1
  H  H5  1  0.00856600  0.60420100  0.38219900  1
  H  H6  1  0.90652100  0.55397800  0.92055000  1
  H  H7  1  0.88947300  0.68078500  0.87708900  1
  H  H8  1  0.09178600  0.44258400  0.07571200  1
  H  H9  1  0.11096500  0.31817400  0.12332700  1
  H  H10  1  0.93898000  0.88908000  0.88378000  1
  H  H11  1  0.05617600  0.10339800  0.11844500  1
  C  C12  1  0.98634000  0.03535500  0.83808300  1
  C  C13  1  0.98753500  0.17087200  0.92654500  1
  C  C14  1  0.00911800  0.19728900  0.78380800  1
  C  C15  1  0.94892700  0.34693100  0.87079800  1
  C  C16  1  0.96561700  0.36576000  0.73725700  1
  C  C17  1  0.93733900  0.53491600  0.66150900  1
  C  C18  1  0.92876100  0.67090000  0.57361900  1
  C  C19  1  0.91607800  0.86578600  0.76334500  1
  C  C20  1  0.90014800  0.84760900  0.62936900  1
  C  C21  1  0.91310700  0.81840400  0.49583800  1
  C  C22  1  0.08803600  0.17401900  0.50565300  1
  C  C23  1  0.10060900  0.14393000  0.37222800  1
  C  C24  1  0.08343800  0.12532300  0.23848300  1
  C  C25  1  0.07304300  0.32097200  0.42728300  1
  C  C26  1  0.09840700  0.29426700  0.28450400  1
  C  C27  1  0.06508000  0.45622200  0.33869500  1
  C  C28  1  0.03664500  0.62544700  0.26273600  1
  C  C29  1  0.05090400  0.64515500  0.12915200  1
  C  C30  1  0.99280900  0.79407900  0.21698400  1
  C  C31  1  0.01067200  0.82170600  0.07437700  1
  C  C32  1  0.01284400  0.95635500  0.16330000  1
  C  C33  1  0.01093800  0.31860400  0.00389400  1
  C  C34  1  0.90300700  0.69661100  0.71649000  1
  C  C35  1  0.98819500  0.67488600  0.99617100  1
  N  N36  1  0.02711300  0.09406000  0.77328200  1
  N  N37  1  0.97996800  0.06752300  0.91357100  1
  N  N38  1  0.97860900  0.23817800  0.86005200  1
  N  N39  1  0.01625700  0.26258700  0.72216600  1
  N  N40  1  0.95486000  0.38651100  0.94265200  1
  N  N41  1  0.92168900  0.40940700  0.80752900  1
  N  N42  1  0.96286700  0.42686700  0.66964900  1
  N  N43  1  0.90878200  0.59353000  0.72680300  1
  N  N44  1  0.94938000  0.56765700  0.58622300  1
  N  N45  1  0.93180600  0.71174600  0.50145800  1
  N  N46  1  0.90713900  0.73831500  0.64005200  1
  N  N47  1  0.90109300  0.76155700  0.77882100  1
  N  N48  1  0.94853100  0.92751800  0.83046000  1
  N  N49  1  0.90321300  0.91084700  0.69266000  1
  N  N50  1  0.89938300  0.88708300  0.55763400  1
  N  N51  1  0.91092500  0.86154700  0.42467500  1
  N  N52  1  0.09007700  0.13117800  0.57683500  1
  N  N53  1  0.10128900  0.10487200  0.44417700  1
  N  N54  1  0.09669700  0.08041900  0.30916100  1
  N  N55  1  0.04927900  0.06399800  0.17126200  1
  N  N56  1  0.06986200  0.28070100  0.49960800  1
  N  N57  1  0.09432300  0.25319000  0.36115900  1
  N  N58  1  0.09949600  0.22938400  0.22243600  1
  N  N59  1  0.05312800  0.42411100  0.41414600  1
  N  N60  1  0.09313600  0.39737200  0.27364200  1
  N  N61  1  0.04007000  0.56411100  0.33026500  1
  N  N62  1  0.07911600  0.58218500  0.19220500  1
  N  N63  1  0.04442900  0.60631900  0.05694500  1
  N  N64  1  0.98713600  0.72847100  0.27836900  1
  N  N65  1  0.02047300  0.75377200  0.14048000  1
  N  N66  1  0.97562700  0.89720500  0.22794700  1
  N  N67  1  0.01723700  0.92491700  0.08766900  1
  N  N68  1  0.99410600  0.78180100  0.00214400  1
  N  N69  1  0.08214800  0.36226700  0.07293400  1
  N  N70  1  0.00424600  0.21165300  0.99862100  1
  N  N71  1  0.91676200  0.63390900  0.92623200  1
