# generated using pymatgen
data_SrMo4H4O15
_symmetry_space_group_name_H-M   'P 1'
_cell_length_a   7.63479973
_cell_length_b   15.85604890
_cell_length_c   19.80090226
_cell_angle_alpha   90.00000000
_cell_angle_beta   90.00000000
_cell_angle_gamma   90.00000000
_symmetry_Int_Tables_number   1
_chemical_formula_structural   SrMo4H4O15
_chemical_formula_sum   'Sr8 Mo32 H32 O120'
_cell_volume   2397.05283121
_cell_formula_units_Z   8
loop_
 _symmetry_equiv_pos_site_id
 _symmetry_equiv_pos_as_xyz
  1  'x, y, z'
loop_
 _atom_site_type_symbol
 _atom_site_label
 _atom_site_symmetry_multiplicity
 _atom_site_fract_x
 _atom_site_fract_y
 _atom_site_fract_z
 _atom_site_occupancy
  Sr  Sr0  1  0.62786877  0.61704939  0.96541116  1
  Sr  Sr1  1  0.87213123  0.11704939  0.53458884  1
  Sr  Sr2  1  0.87213123  0.38295061  0.46541116  1
  Sr  Sr3  1  0.62786877  0.88295061  0.03458884  1
  Sr  Sr4  1  0.37213123  0.38295061  0.03458884  1
  Sr  Sr5  1  0.12786877  0.88295061  0.46541116  1
  Sr  Sr6  1  0.12786877  0.61704939  0.53458884  1
  Sr  Sr7  1  0.37213123  0.11704939  0.96541116  1
  Mo  Mo8  1  0.87215279  0.47504154  0.11402282  1
  Mo  Mo9  1  0.62784721  0.97504154  0.38597718  1
  Mo  Mo10  1  0.62784721  0.52495846  0.61402282  1
  Mo  Mo11  1  0.87215279  0.02495846  0.88597718  1
  Mo  Mo12  1  0.12784721  0.52495846  0.88597718  1
  Mo  Mo13  1  0.37215279  0.02495846  0.61402282  1
  Mo  Mo14  1  0.37215279  0.47504154  0.38597718  1
  Mo  Mo15  1  0.12784721  0.97504154  0.11402282  1
  Mo  Mo16  1  0.96948957  0.68091756  0.10438345  1
  Mo  Mo17  1  0.53051043  0.18091756  0.39561655  1
  Mo  Mo18  1  0.53051043  0.31908244  0.60438345  1
  Mo  Mo19  1  0.96948957  0.81908244  0.89561655  1
  Mo  Mo20  1  0.03051043  0.31908244  0.89561655  1
  Mo  Mo21  1  0.46948957  0.81908244  0.60438345  1
  Mo  Mo22  1  0.46948957  0.68091756  0.39561655  1
  Mo  Mo23  1  0.03051043  0.18091756  0.10438345  1
  Mo  Mo24  1  0.14925313  0.61151774  0.24626269  1
  Mo  Mo25  1  0.35074687  0.11151774  0.25373731  1
  Mo  Mo26  1  0.35074687  0.38848226  0.74626269  1
  Mo  Mo27  1  0.14925313  0.88848226  0.75373731  1
  Mo  Mo28  1  0.85074687  0.38848226  0.75373731  1
  Mo  Mo29  1  0.64925313  0.88848226  0.74626269  1
  Mo  Mo30  1  0.64925313  0.61151774  0.25373731  1
  Mo  Mo31  1  0.85074687  0.11151774  0.24626269  1
  Mo  Mo32  1  0.15608990  0.82163885  0.25529012  1
  Mo  Mo33  1  0.34391010  0.32163885  0.24470988  1
  Mo  Mo34  1  0.34391010  0.17836115  0.75529012  1
  Mo  Mo35  1  0.15608990  0.67836115  0.74470988  1
  Mo  Mo36  1  0.84391010  0.17836115  0.74470988  1
  Mo  Mo37  1  0.65608990  0.67836115  0.75529012  1
  Mo  Mo38  1  0.65608990  0.82163885  0.24470988  1
  Mo  Mo39  1  0.84391010  0.32163885  0.25529012  1
  H  H40  1  0.53752169  0.72216310  0.11775165  1
  H  H41  1  0.96247831  0.22216310  0.38224835  1
  H  H42  1  0.96247831  0.27783690  0.61775165  1
  H  H43  1  0.53752169  0.77783690  0.88224835  1
  H  H44  1  0.46247831  0.27783690  0.88224835  1
  H  H45  1  0.03752169  0.77783690  0.61775165  1
  H  H46  1  0.03752169  0.72216310  0.38224835  1
  H  H47  1  0.46247831  0.22216310  0.11775165  1
  H  H48  1  0.36557221  0.73121625  0.07354103  1
  H  H49  1  0.13442779  0.23121625  0.42645897  1
  H  H50  1  0.13442779  0.26878375  0.57354103  1
  H  H51  1  0.36557221  0.76878375  0.92645897  1
  H  H52  1  0.63442779  0.26878375  0.92645897  1
  H  H53  1  0.86557221  0.76878375  0.57354103  1
  H  H54  1  0.86557221  0.73121625  0.42645897  1
  H  H55  1  0.63442779  0.23121625  0.07354103  1
  H  H56  1  0.95112332  0.54342405  0.38430664  1
  H  H57  1  0.54887668  0.04342405  0.11569336  1
  H  H58  1  0.54887668  0.45657595  0.88430664  1
  H  H59  1  0.95112332  0.95657595  0.61569336  1
  H  H60  1  0.04887668  0.45657595  0.61569336  1
  H  H61  1  0.45112332  0.95657595  0.88430664  1
  H  H62  1  0.45112332  0.54342405  0.11569336  1
  H  H63  1  0.04887668  0.04342405  0.38430664  1
  H  H64  1  0.80764993  0.58068217  0.43251379  1
  H  H65  1  0.69235007  0.08068217  0.06748621  1
  H  H66  1  0.69235007  0.41931783  0.93251379  1
  H  H67  1  0.80764993  0.91931783  0.56748621  1
  H  H68  1  0.19235007  0.41931783  0.56748621  1
  H  H69  1  0.30764993  0.91931783  0.93251379  1
  H  H70  1  0.30764993  0.58068217  0.06748621  1
  H  H71  1  0.19235007  0.08068217  0.43251379  1
  O  O72  1  0.67094431  0.52987882  0.19315735  1
  O  O73  1  0.82905569  0.02987882  0.30684265  1
  O  O74  1  0.82905569  0.47012118  0.69315735  1
  O  O75  1  0.67094431  0.97012118  0.80684265  1
  O  O76  1  0.32905569  0.47012118  0.80684265  1
  O  O77  1  0.17094431  0.97012118  0.69315735  1
  O  O78  1  0.17094431  0.52987882  0.30684265  1
  O  O79  1  0.32905569  0.02987882  0.19315735  1
  O  O80  1  0.02748923  0.56790896  0.17009067  1
  O  O81  1  0.47251077  0.06790896  0.32990933  1
  O  O82  1  0.47251077  0.43209104  0.67009067  1
  O  O83  1  0.02748923  0.93209104  0.82990933  1
  O  O84  1  0.97251077  0.43209104  0.82990933  1
  O  O85  1  0.52748923  0.93209104  0.67009067  1
  O  O86  1  0.52748923  0.56790896  0.32990933  1
  O  O87  1  0.97251077  0.06790896  0.17009067  1
  O  O88  1  0.81608415  0.59057460  0.07484981  1
  O  O89  1  0.68391585  0.09057460  0.42515019  1
  O  O90  1  0.68391585  0.40942540  0.57484981  1
  O  O91  1  0.81608415  0.90942540  0.92515019  1
  O  O92  1  0.18391585  0.40942540  0.92515019  1
  O  O93  1  0.31608415  0.90942540  0.57484981  1
  O  O94  1  0.31608415  0.59057460  0.42515019  1
  O  O95  1  0.18391585  0.09057460  0.07484981  1
  O  O96  1  0.04963351  0.44841913  0.06341137  1
  O  O97  1  0.45036649  0.94841913  0.43658863  1
  O  O98  1  0.45036649  0.55158087  0.56341137  1
  O  O99  1  0.04963351  0.05158087  0.93658863  1
  O  O100  1  0.95036649  0.55158087  0.93658863  1
  O  O101  1  0.54963351  0.05158087  0.56341137  1
  O  O102  1  0.54963351  0.44841913  0.43658863  1
  O  O103  1  0.95036649  0.94841913  0.06341137  1
  O  O104  1  0.91755533  0.40191582  0.18945916  1
  O  O105  1  0.58244467  0.90191582  0.31054084  1
  O  O106  1  0.58244467  0.59808418  0.68945916  1
  O  O107  1  0.91755533  0.09808418  0.81054084  1
  O  O108  1  0.08244467  0.59808418  0.81054084  1
  O  O109  1  0.41755533  0.09808418  0.68945916  1
  O  O110  1  0.41755533  0.40191582  0.31054084  1
  O  O111  1  0.08244467  0.90191582  0.18945916  1
  O  O112  1  0.69367711  0.42418431  0.07610250  1
  O  O113  1  0.80632289  0.92418431  0.42389750  1
  O  O114  1  0.80632289  0.57581569  0.57610250  1
  O  O115  1  0.69367711  0.07581569  0.92389750  1
  O  O116  1  0.30632289  0.57581569  0.92389750  1
  O  O117  1  0.19367711  0.07581569  0.57610250  1
  O  O118  1  0.19367711  0.42418431  0.42389750  1
  O  O119  1  0.30632289  0.92418431  0.07610250  1
  O  O120  1  0.06230295  0.72321168  0.18714939  1
  O  O121  1  0.43769705  0.22321168  0.31285061  1
  O  O122  1  0.43769705  0.27678832  0.68714939  1
  O  O123  1  0.06230295  0.77678832  0.81285061  1
  O  O124  1  0.93769705  0.27678832  0.81285061  1
  O  O125  1  0.56230295  0.77678832  0.68714939  1
  O  O126  1  0.56230295  0.72321168  0.31285061  1
  O  O127  1  0.93769705  0.22321168  0.18714939  1
  O  O128  1  0.85564205  0.76707358  0.07108611  1
  O  O129  1  0.64435795  0.26707358  0.42891389  1
  O  O130  1  0.64435795  0.23292642  0.57108611  1
  O  O131  1  0.85564205  0.73292642  0.92891389  1
  O  O132  1  0.14435795  0.23292642  0.92891389  1
  O  O133  1  0.35564205  0.73292642  0.57108611  1
  O  O134  1  0.35564205  0.76707358  0.42891389  1
  O  O135  1  0.14435795  0.26707358  0.07108611  1
  O  O136  1  0.15780535  0.67082053  0.05473987  1
  O  O137  1  0.34219465  0.17082053  0.44526013  1
  O  O138  1  0.34219465  0.32917947  0.55473987  1
  O  O139  1  0.15780535  0.82917947  0.94526013  1
  O  O140  1  0.84219465  0.32917947  0.94526013  1
  O  O141  1  0.65780535  0.82917947  0.55473987  1
  O  O142  1  0.65780535  0.67082053  0.44526013  1
  O  O143  1  0.84219465  0.17082053  0.05473987  1
  O  O144  1  0.36485504  0.61570345  0.21249116  1
  O  O145  1  0.13514496  0.11570345  0.28750884  1
  O  O146  1  0.13514496  0.38429655  0.71249116  1
  O  O147  1  0.36485504  0.88429655  0.78750884  1
  O  O148  1  0.63514496  0.38429655  0.78750884  1
  O  O149  1  0.86485504  0.88429655  0.71249116  1
  O  O150  1  0.86485504  0.61570345  0.28750884  1
  O  O151  1  0.63514496  0.11570345  0.21249116  1
  O  O152  1  0.17087951  0.70862326  0.30581507  1
  O  O153  1  0.32912049  0.20862326  0.19418493  1
  O  O154  1  0.32912049  0.29137674  0.80581507  1
  O  O155  1  0.17087951  0.79137674  0.69418493  1
  O  O156  1  0.82912049  0.29137674  0.69418493  1
  O  O157  1  0.67087951  0.79137674  0.80581507  1
  O  O158  1  0.67087951  0.70862326  0.19418493  1
  O  O159  1  0.82912049  0.20862326  0.30581507  1
  O  O160  1  0.37550956  0.81371326  0.22430844  1
  O  O161  1  0.12449044  0.31371326  0.27569156  1
  O  O162  1  0.12449044  0.18628674  0.72430844  1
  O  O163  1  0.37550956  0.68628674  0.77569156  1
  O  O164  1  0.62449044  0.18628674  0.77569156  1
  O  O165  1  0.87550956  0.68628674  0.72430844  1
  O  O166  1  0.87550956  0.81371326  0.27569156  1
  O  O167  1  0.62449044  0.31371326  0.22430844  1
  O  O168  1  0.17678178  0.88062657  0.32893876  1
  O  O169  1  0.32321822  0.38062657  0.17106124  1
  O  O170  1  0.32321822  0.11937343  0.82893876  1
  O  O171  1  0.17678178  0.61937343  0.67106124  1
  O  O172  1  0.82321822  0.11937343  0.67106124  1
  O  O173  1  0.67678178  0.61937343  0.82893876  1
  O  O174  1  0.67678178  0.88062657  0.17106124  1
  O  O175  1  0.82321822  0.38062657  0.32893876  1
  O  O176  1  0.49349875  0.73843663  0.07236077  1
  O  O177  1  0.00650125  0.23843663  0.42763923  1
  O  O178  1  0.00650125  0.26156337  0.57236077  1
  O  O179  1  0.49349875  0.76156337  0.92763923  1
  O  O180  1  0.50650125  0.26156337  0.92763923  1
  O  O181  1  0.99349875  0.76156337  0.57236077  1
  O  O182  1  0.99349875  0.73843663  0.42763923  1
  O  O183  1  0.50650125  0.23843663  0.07236077  1
  O  O184  1  0.90889887  0.54198150  0.43130573  1
  O  O185  1  0.59110113  0.04198150  0.06869427  1
  O  O186  1  0.59110113  0.45801850  0.93130573  1
  O  O187  1  0.90889887  0.95801850  0.56869427  1
  O  O188  1  0.09110113  0.45801850  0.56869427  1
  O  O189  1  0.40889887  0.95801850  0.93130573  1
  O  O190  1  0.40889887  0.54198150  0.06869427  1
  O  O191  1  0.09110113  0.04198150  0.43130573  1
