# generated using pymatgen
data_CsV(PO3)4
_symmetry_space_group_name_H-M   'P 1'
_cell_length_a   14.82106836
_cell_length_b   14.82106836
_cell_length_c   14.82106836
_cell_angle_alpha   90.00000000
_cell_angle_beta   90.00000000
_cell_angle_gamma   90.00000000
_symmetry_Int_Tables_number   1
_chemical_formula_structural   CsV(PO3)4
_chemical_formula_sum   'Cs12 V12 P48 O144'
_cell_volume   3255.65615816
_cell_formula_units_Z   12
loop_
 _symmetry_equiv_pos_site_id
 _symmetry_equiv_pos_as_xyz
  1  'x, y, z'
loop_
 _atom_site_type_symbol
 _atom_site_label
 _atom_site_symmetry_multiplicity
 _atom_site_fract_x
 _atom_site_fract_y
 _atom_site_fract_z
 _atom_site_occupancy
  Cs  Cs0  1  0.00000000  -0.00000000  0.50000000  1
  Cs  Cs1  1  0.00000000  0.50000000  0.00000000  1
  Cs  Cs2  1  0.50000000  -0.00000000  0.00000000  1
  Cs  Cs3  1  0.50000000  0.50000000  0.50000000  1
  Cs  Cs4  1  0.15691110  0.15691110  0.15691110  1
  Cs  Cs5  1  0.84308890  0.65691110  0.34308890  1
  Cs  Cs6  1  0.34308890  0.84308890  0.65691110  1
  Cs  Cs7  1  0.65691110  0.34308890  0.84308890  1
  Cs  Cs8  1  0.84308890  0.84308890  0.84308890  1
  Cs  Cs9  1  0.15691110  0.34308890  0.65691110  1
  Cs  Cs10  1  0.65691110  0.15691110  0.34308890  1
  Cs  Cs11  1  0.34308890  0.65691110  0.15691110  1
  V  V12  1  0.00000000  -0.00000000  0.00000000  1
  V  V13  1  0.00000000  0.50000000  0.50000000  1
  V  V14  1  0.50000000  -0.00000000  0.50000000  1
  V  V15  1  0.50000000  0.50000000  0.00000000  1
  V  V16  1  0.18959286  0.81040714  0.31040714  1
  V  V17  1  0.81040714  0.31040714  0.18959286  1
  V  V18  1  0.31040714  0.18959286  0.81040714  1
  V  V19  1  0.68959286  0.68959286  0.68959286  1
  V  V20  1  0.81040714  0.18959286  0.68959286  1
  V  V21  1  0.18959286  0.68959286  0.81040714  1
  V  V22  1  0.68959286  0.81040714  0.18959286  1
  V  V23  1  0.31040714  0.31040714  0.31040714  1
  P  P24  1  0.02241946  0.91544601  0.21245862  1
  P  P25  1  0.97758054  0.41544601  0.28754138  1
  P  P26  1  0.47758054  0.08455399  0.71245862  1
  P  P27  1  0.52241946  0.58455399  0.78754138  1
  P  P28  1  0.21245862  0.02241946  0.91544601  1
  P  P29  1  0.28754138  0.97758054  0.41544601  1
  P  P30  1  0.71245862  0.47758054  0.08455399  1
  P  P31  1  0.78754138  0.52241946  0.58455399  1
  P  P32  1  0.91544601  0.21245862  0.02241946  1
  P  P33  1  0.41544601  0.28754138  0.97758054  1
  P  P34  1  0.08455399  0.71245862  0.47758054  1
  P  P35  1  0.58455399  0.78754138  0.52241946  1
  P  P36  1  0.97758054  0.08455399  0.78754138  1
  P  P37  1  0.02241946  0.58455399  0.71245862  1
  P  P38  1  0.52241946  0.91544601  0.28754138  1
  P  P39  1  0.47758054  0.41544601  0.21245862  1
  P  P40  1  0.78754138  0.97758054  0.08455399  1
  P  P41  1  0.71245862  0.02241946  0.58455399  1
  P  P42  1  0.28754138  0.52241946  0.91544601  1
  P  P43  1  0.21245862  0.47758054  0.41544601  1
  P  P44  1  0.08455399  0.78754138  0.97758054  1
  P  P45  1  0.58455399  0.71245862  0.02241946  1
  P  P46  1  0.91544601  0.28754138  0.52241946  1
  P  P47  1  0.41544601  0.21245862  0.47758054  1
  P  P48  1  0.04962596  0.72208957  0.16575954  1
  P  P49  1  0.95037404  0.22208957  0.33424046  1
  P  P50  1  0.45037404  0.27791043  0.66575954  1
  P  P51  1  0.54962596  0.77791043  0.83424046  1
  P  P52  1  0.16575954  0.04962596  0.72208957  1
  P  P53  1  0.33424046  0.95037404  0.22208957  1
  P  P54  1  0.66575954  0.45037404  0.27791043  1
  P  P55  1  0.83424046  0.54962596  0.77791043  1
  P  P56  1  0.72208957  0.16575954  0.04962596  1
  P  P57  1  0.22208957  0.33424046  0.95037404  1
  P  P58  1  0.27791043  0.66575954  0.45037404  1
  P  P59  1  0.77791043  0.83424046  0.54962596  1
  P  P60  1  0.95037404  0.27791043  0.83424046  1
  P  P61  1  0.04962596  0.77791043  0.66575954  1
  P  P62  1  0.54962596  0.72208957  0.33424046  1
  P  P63  1  0.45037404  0.22208957  0.16575954  1
  P  P64  1  0.83424046  0.95037404  0.27791043  1
  P  P65  1  0.66575954  0.04962596  0.77791043  1
  P  P66  1  0.33424046  0.54962596  0.72208957  1
  P  P67  1  0.16575954  0.45037404  0.22208957  1
  P  P68  1  0.27791043  0.83424046  0.95037404  1
  P  P69  1  0.77791043  0.66575954  0.04962596  1
  P  P70  1  0.72208957  0.33424046  0.54962596  1
  P  P71  1  0.22208957  0.16575954  0.45037404  1
  O  O72  1  0.99457392  0.81643810  0.17888203  1
  O  O73  1  0.00542608  0.31643810  0.32111797  1
  O  O74  1  0.50542608  0.18356190  0.67888203  1
  O  O75  1  0.49457392  0.68356190  0.82111797  1
  O  O76  1  0.17888203  0.99457392  0.81643810  1
  O  O77  1  0.32111797  0.00542608  0.31643810  1
  O  O78  1  0.67888203  0.50542608  0.18356190  1
  O  O79  1  0.82111797  0.49457392  0.68356190  1
  O  O80  1  0.81643810  0.17888203  0.99457392  1
  O  O81  1  0.31643810  0.32111797  0.00542608  1
  O  O82  1  0.18356190  0.67888203  0.50542608  1
  O  O83  1  0.68356190  0.82111797  0.49457392  1
  O  O84  1  0.00542608  0.18356190  0.82111797  1
  O  O85  1  0.99457392  0.68356190  0.67888203  1
  O  O86  1  0.49457392  0.81643810  0.32111797  1
  O  O87  1  0.50542608  0.31643810  0.17888203  1
  O  O88  1  0.82111797  0.00542608  0.18356190  1
  O  O89  1  0.67888203  0.99457392  0.68356190  1
  O  O90  1  0.32111797  0.49457392  0.81643810  1
  O  O91  1  0.17888203  0.50542608  0.31643810  1
  O  O92  1  0.18356190  0.82111797  0.00542608  1
  O  O93  1  0.68356190  0.67888203  0.99457392  1
  O  O94  1  0.81643810  0.32111797  0.49457392  1
  O  O95  1  0.31643810  0.17888203  0.50542608  1
  O  O96  1  0.94343189  0.93797383  0.28217116  1
  O  O97  1  0.05656811  0.43797383  0.21782884  1
  O  O98  1  0.55656811  0.06202617  0.78217116  1
  O  O99  1  0.44343189  0.56202617  0.71782884  1
  O  O100  1  0.28217116  0.94343189  0.93797383  1
  O  O101  1  0.21782884  0.05656811  0.43797383  1
  O  O102  1  0.78217116  0.55656811  0.06202617  1
  O  O103  1  0.71782884  0.44343189  0.56202617  1
  O  O104  1  0.93797383  0.28217116  0.94343189  1
  O  O105  1  0.43797383  0.21782884  0.05656811  1
  O  O106  1  0.06202617  0.78217116  0.55656811  1
  O  O107  1  0.56202617  0.71782884  0.44343189  1
  O  O108  1  0.05656811  0.06202617  0.71782884  1
  O  O109  1  0.94343189  0.56202617  0.78217116  1
  O  O110  1  0.44343189  0.93797383  0.21782884  1
  O  O111  1  0.55656811  0.43797383  0.28217116  1
  O  O112  1  0.71782884  0.05656811  0.06202617  1
  O  O113  1  0.78217116  0.94343189  0.56202617  1
  O  O114  1  0.21782884  0.44343189  0.93797383  1
  O  O115  1  0.28217116  0.55656811  0.43797383  1
  O  O116  1  0.06202617  0.71782884  0.05656811  1
  O  O117  1  0.56202617  0.78217116  0.94343189  1
  O  O118  1  0.93797383  0.21782884  0.44343189  1
  O  O119  1  0.43797383  0.28217116  0.55656811  1
  O  O120  1  0.02069095  0.98015794  0.13470819  1
  O  O121  1  0.97930905  0.48015794  0.36529181  1
  O  O122  1  0.47930905  0.01984206  0.63470819  1
  O  O123  1  0.52069095  0.51984206  0.86529181  1
  O  O124  1  0.13470819  0.02069095  0.98015794  1
  O  O125  1  0.36529181  0.97930905  0.48015794  1
  O  O126  1  0.63470819  0.47930905  0.01984206  1
  O  O127  1  0.86529181  0.52069095  0.51984206  1
  O  O128  1  0.98015794  0.13470819  0.02069095  1
  O  O129  1  0.48015794  0.36529181  0.97930905  1
  O  O130  1  0.01984206  0.63470819  0.47930905  1
  O  O131  1  0.51984206  0.86529181  0.52069095  1
  O  O132  1  0.97930905  0.01984206  0.86529181  1
  O  O133  1  0.02069095  0.51984206  0.63470819  1
  O  O134  1  0.52069095  0.98015794  0.36529181  1
  O  O135  1  0.47930905  0.48015794  0.13470819  1
  O  O136  1  0.86529181  0.97930905  0.01984206  1
  O  O137  1  0.63470819  0.02069095  0.51984206  1
  O  O138  1  0.36529181  0.52069095  0.98015794  1
  O  O139  1  0.13470819  0.47930905  0.48015794  1
  O  O140  1  0.01984206  0.86529181  0.97930905  1
  O  O141  1  0.51984206  0.63470819  0.02069095  1
  O  O142  1  0.98015794  0.36529181  0.52069095  1
  O  O143  1  0.48015794  0.13470819  0.47930905  1
  O  O144  1  0.10878254  0.91318901  0.26650056  1
  O  O145  1  0.89121746  0.41318901  0.23349944  1
  O  O146  1  0.39121746  0.08681099  0.76650056  1
  O  O147  1  0.60878254  0.58681099  0.73349944  1
  O  O148  1  0.26650056  0.10878254  0.91318901  1
  O  O149  1  0.23349944  0.89121746  0.41318901  1
  O  O150  1  0.76650056  0.39121746  0.08681099  1
  O  O151  1  0.73349944  0.60878254  0.58681099  1
  O  O152  1  0.91318901  0.26650056  0.10878254  1
  O  O153  1  0.41318901  0.23349944  0.89121746  1
  O  O154  1  0.08681099  0.76650056  0.39121746  1
  O  O155  1  0.58681099  0.73349944  0.60878254  1
  O  O156  1  0.89121746  0.08681099  0.73349944  1
  O  O157  1  0.10878254  0.58681099  0.76650056  1
  O  O158  1  0.60878254  0.91318901  0.23349944  1
  O  O159  1  0.39121746  0.41318901  0.26650056  1
  O  O160  1  0.73349944  0.89121746  0.08681099  1
  O  O161  1  0.76650056  0.10878254  0.58681099  1
  O  O162  1  0.23349944  0.60878254  0.91318901  1
  O  O163  1  0.26650056  0.39121746  0.41318901  1
  O  O164  1  0.08681099  0.73349944  0.89121746  1
  O  O165  1  0.58681099  0.76650056  0.10878254  1
  O  O166  1  0.91318901  0.23349944  0.60878254  1
  O  O167  1  0.41318901  0.26650056  0.39121746  1
  O  O168  1  0.14335751  0.73565861  0.20592046  1
  O  O169  1  0.85664249  0.23565861  0.29407954  1
  O  O170  1  0.35664249  0.26434139  0.70592046  1
  O  O171  1  0.64335751  0.76434139  0.79407954  1
  O  O172  1  0.20592046  0.14335751  0.73565861  1
  O  O173  1  0.29407954  0.85664249  0.23565861  1
  O  O174  1  0.70592046  0.35664249  0.26434139  1
  O  O175  1  0.79407954  0.64335751  0.76434139  1
  O  O176  1  0.73565861  0.20592046  0.14335751  1
  O  O177  1  0.23565861  0.29407954  0.85664249  1
  O  O178  1  0.26434139  0.70592046  0.35664249  1
  O  O179  1  0.76434139  0.79407954  0.64335751  1
  O  O180  1  0.85664249  0.26434139  0.79407954  1
  O  O181  1  0.14335751  0.76434139  0.70592046  1
  O  O182  1  0.64335751  0.73565861  0.29407954  1
  O  O183  1  0.35664249  0.23565861  0.20592046  1
  O  O184  1  0.79407954  0.85664249  0.26434139  1
  O  O185  1  0.70592046  0.14335751  0.76434139  1
  O  O186  1  0.29407954  0.64335751  0.73565861  1
  O  O187  1  0.20592046  0.35664249  0.23565861  1
  O  O188  1  0.26434139  0.79407954  0.85664249  1
  O  O189  1  0.76434139  0.70592046  0.14335751  1
  O  O190  1  0.73565861  0.29407954  0.64335751  1
  O  O191  1  0.23565861  0.20592046  0.35664249  1
  O  O192  1  0.99273660  0.64521741  0.19263732  1
  O  O193  1  0.00726340  0.14521741  0.30736268  1
  O  O194  1  0.50726340  0.35478259  0.69263732  1
  O  O195  1  0.49273660  0.85478259  0.80736268  1
  O  O196  1  0.19263732  0.99273660  0.64521741  1
  O  O197  1  0.30736268  0.00726340  0.14521741  1
  O  O198  1  0.69263732  0.50726340  0.35478259  1
  O  O199  1  0.80736268  0.49273660  0.85478259  1
  O  O200  1  0.64521741  0.19263732  0.99273660  1
  O  O201  1  0.14521741  0.30736268  0.00726340  1
  O  O202  1  0.35478259  0.69263732  0.50726340  1
  O  O203  1  0.85478259  0.80736268  0.49273660  1
  O  O204  1  0.00726340  0.35478259  0.80736268  1
  O  O205  1  0.99273660  0.85478259  0.69263732  1
  O  O206  1  0.49273660  0.64521741  0.30736268  1
  O  O207  1  0.50726340  0.14521741  0.19263732  1
  O  O208  1  0.80736268  0.00726340  0.35478259  1
  O  O209  1  0.69263732  0.99273660  0.85478259  1
  O  O210  1  0.30736268  0.49273660  0.64521741  1
  O  O211  1  0.19263732  0.50726340  0.14521741  1
  O  O212  1  0.35478259  0.80736268  0.00726340  1
  O  O213  1  0.85478259  0.69263732  0.99273660  1
  O  O214  1  0.64521741  0.30736268  0.49273660  1
  O  O215  1  0.14521741  0.19263732  0.50726340  1
