# generated using pymatgen
data_Er2ZrS5
_symmetry_space_group_name_H-M   'P 1'
_cell_length_a   7.23053400
_cell_length_b   7.71627300
_cell_length_c   11.56241700
_cell_angle_alpha   90.00000000
_cell_angle_beta   90.00000000
_cell_angle_gamma   90.00000000
_symmetry_Int_Tables_number   1
_chemical_formula_structural   Er2ZrS5
_chemical_formula_sum   'Er8 Zr4 S20'
_cell_volume   645.09932181
_cell_formula_units_Z   4
loop_
 _symmetry_equiv_pos_site_id
 _symmetry_equiv_pos_as_xyz
  1  'x, y, z'
loop_
 _atom_site_type_symbol
 _atom_site_label
 _atom_site_symmetry_multiplicity
 _atom_site_fract_x
 _atom_site_fract_y
 _atom_site_fract_z
 _atom_site_occupancy
  Er  Er0  1  0.52132100  0.49791100  0.32098600  1
  Er  Er1  1  0.97867900  0.00208900  0.82098600  1
  Er  Er2  1  0.47867900  0.99791100  0.67901400  1
  Er  Er3  1  0.02132100  0.50208900  0.17901400  1
  Er  Er4  1  0.47867900  0.50208900  0.67901400  1
  Er  Er5  1  0.02132100  0.99791100  0.17901400  1
  Er  Er6  1  0.52132100  0.00208900  0.32098600  1
  Er  Er7  1  0.97867900  0.49791100  0.82098600  1
  Zr  Zr8  1  0.07955500  0.75000000  0.49312900  1
  Zr  Zr9  1  0.42044500  0.75000000  0.99312900  1
  Zr  Zr10  1  0.92044500  0.25000000  0.50687100  1
  Zr  Zr11  1  0.57955500  0.25000000  0.00687100  1
  S  S12  1  0.83893200  0.96173300  0.59608300  1
  S  S13  1  0.66106800  0.53826700  0.09608300  1
  S  S14  1  0.16106800  0.46173300  0.40391700  1
  S  S15  1  0.33893200  0.03826700  0.90391700  1
  S  S16  1  0.16106800  0.03826700  0.40391700  1
  S  S17  1  0.33893200  0.46173300  0.90391700  1
  S  S18  1  0.83893200  0.53826700  0.59608300  1
  S  S19  1  0.66106800  0.96173300  0.09608300  1
  S  S20  1  0.83012100  0.75000000  0.31702500  1
  S  S21  1  0.66987900  0.75000000  0.81702500  1
  S  S22  1  0.16987900  0.25000000  0.68297500  1
  S  S23  1  0.33012100  0.25000000  0.18297500  1
  S  S24  1  0.45153800  0.75000000  0.49793000  1
  S  S25  1  0.04846200  0.75000000  0.99793000  1
  S  S26  1  0.54846200  0.25000000  0.50207000  1
  S  S27  1  0.95153800  0.25000000  0.00207000  1
  S  S28  1  0.19262300  0.75000000  0.70918300  1
  S  S29  1  0.30737700  0.75000000  0.20918300  1
  S  S30  1  0.80737700  0.25000000  0.29081700  1
  S  S31  1  0.69262300  0.25000000  0.79081700  1
