# generated using pymatgen
data_Na2FePO5
_symmetry_space_group_name_H-M   'P 1'
_cell_length_a   5.31887600
_cell_length_b   11.82666700
_cell_length_c   14.08115600
_cell_angle_alpha   90.00000000
_cell_angle_beta   90.00000000
_cell_angle_gamma   90.00000000
_symmetry_Int_Tables_number   1
_chemical_formula_structural   Na2FePO5
_chemical_formula_sum   'Na16 Fe8 P8 O40'
_cell_volume   885.76913744
_cell_formula_units_Z   8
loop_
 _symmetry_equiv_pos_site_id
 _symmetry_equiv_pos_as_xyz
  1  'x, y, z'
loop_
 _atom_site_type_symbol
 _atom_site_label
 _atom_site_symmetry_multiplicity
 _atom_site_fract_x
 _atom_site_fract_y
 _atom_site_fract_z
 _atom_site_occupancy
  Na  Na0  1  0.26198500  0.17492800  0.75638900  1
  Na  Na1  1  0.23801500  0.67492800  0.74361100  1
  Na  Na2  1  0.76198500  0.82507200  0.74361100  1
  Na  Na3  1  0.73801500  0.32507200  0.75638900  1
  Na  Na4  1  0.73801500  0.82507200  0.24361100  1
  Na  Na5  1  0.76198500  0.32507200  0.25638900  1
  Na  Na6  1  0.23801500  0.17492800  0.25638900  1
  Na  Na7  1  0.26198500  0.67492800  0.24361100  1
  Na  Na8  1  0.24357000  0.41616100  0.87519300  1
  Na  Na9  1  0.25643000  0.91616100  0.62480700  1
  Na  Na10  1  0.74357000  0.58383900  0.62480700  1
  Na  Na11  1  0.75643000  0.08383900  0.87519300  1
  Na  Na12  1  0.75643000  0.58383900  0.12480700  1
  Na  Na13  1  0.74357000  0.08383900  0.37519300  1
  Na  Na14  1  0.25643000  0.41616100  0.37519300  1
  Na  Na15  1  0.24357000  0.91616100  0.12480700  1
  Fe  Fe16  1  0.22651800  0.18312600  0.97645400  1
  Fe  Fe17  1  0.27348200  0.68312600  0.52354600  1
  Fe  Fe18  1  0.72651800  0.81687400  0.52354600  1
  Fe  Fe19  1  0.77348200  0.31687400  0.97645400  1
  Fe  Fe20  1  0.77348200  0.81687400  0.02354600  1
  Fe  Fe21  1  0.72651800  0.31687400  0.47645400  1
  Fe  Fe22  1  0.27348200  0.18312600  0.47645400  1
  Fe  Fe23  1  0.22651800  0.68312600  0.02354600  1
  P  P24  1  0.20298600  0.41073700  0.61697900  1
  P  P25  1  0.29701400  0.91073700  0.88302100  1
  P  P26  1  0.70298600  0.58926300  0.88302100  1
  P  P27  1  0.79701400  0.08926300  0.61697900  1
  P  P28  1  0.79701400  0.58926300  0.38302100  1
  P  P29  1  0.70298600  0.08926300  0.11697900  1
  P  P30  1  0.29701400  0.41073700  0.11697900  1
  P  P31  1  0.20298600  0.91073700  0.38302100  1
  O  O32  1  0.35823500  0.34629900  0.53982900  1
  O  O33  1  0.14176500  0.84629900  0.96017100  1
  O  O34  1  0.85823500  0.65370100  0.96017100  1
  O  O35  1  0.64176500  0.15370100  0.53982900  1
  O  O36  1  0.64176500  0.65370100  0.46017100  1
  O  O37  1  0.85823500  0.15370100  0.03982900  1
  O  O38  1  0.14176500  0.34629900  0.03982900  1
  O  O39  1  0.35823500  0.84629900  0.46017100  1
  O  O40  1  0.27764900  0.37012800  0.71650900  1
  O  O41  1  0.22235100  0.87012800  0.78349100  1
  O  O42  1  0.77764900  0.62987200  0.78349100  1
  O  O43  1  0.72235100  0.12987200  0.71650900  1
  O  O44  1  0.72235100  0.62987200  0.28349100  1
  O  O45  1  0.77764900  0.12987200  0.21650900  1
  O  O46  1  0.22235100  0.37012800  0.21650900  1
  O  O47  1  0.27764900  0.87012800  0.28349100  1
  O  O48  1  0.08549500  0.10922800  0.59730500  1
  O  O49  1  0.41450500  0.60922800  0.90269500  1
  O  O50  1  0.58549500  0.89077200  0.90269500  1
  O  O51  1  0.91450500  0.39077200  0.59730500  1
  O  O52  1  0.91450500  0.89077200  0.40269500  1
  O  O53  1  0.58549500  0.39077200  0.09730500  1
  O  O54  1  0.41450500  0.10922800  0.09730500  1
  O  O55  1  0.08549500  0.60922800  0.40269500  1
  O  O56  1  0.23654100  0.03963900  0.89223200  1
  O  O57  1  0.26345900  0.53963900  0.60776800  1
  O  O58  1  0.73654100  0.96036100  0.60776800  1
  O  O59  1  0.76345900  0.46036100  0.89223200  1
  O  O60  1  0.76345900  0.96036100  0.10776800  1
  O  O61  1  0.73654100  0.46036100  0.39223200  1
  O  O62  1  0.26345900  0.03963900  0.39223200  1
  O  O63  1  0.23654100  0.53963900  0.10776800  1
  O  O64  1  0.00000000  0.25000000  0.88326800  1
  O  O65  1  0.50000000  0.75000000  0.61673200  1
  O  O66  1  0.00000000  0.75000000  0.11673200  1
  O  O67  1  0.50000000  0.25000000  0.38326800  1
  O  O68  1  0.50000000  0.25000000  0.91215200  1
  O  O69  1  0.00000000  0.75000000  0.58784800  1
  O  O70  1  0.50000000  0.75000000  0.08784800  1
  O  O71  1  0.00000000  0.25000000  0.41215200  1
