# generated using pymatgen
data_CuH36S8I2(N3O4)3
_symmetry_space_group_name_H-M   'P 1'
_cell_length_a   12.57767503
_cell_length_b   12.57767503
_cell_length_c   12.57767503
_cell_angle_alpha   116.35991150
_cell_angle_beta   116.35991150
_cell_angle_gamma   96.42965538
_symmetry_Int_Tables_number   1
_chemical_formula_structural   CuH36S8I2(N3O4)3
_chemical_formula_sum   'Cu2 H72 S16 I4 N18 O24'
_cell_volume   1474.33080188
_cell_formula_units_Z   2
loop_
 _symmetry_equiv_pos_site_id
 _symmetry_equiv_pos_as_xyz
  1  'x, y, z'
loop_
 _atom_site_type_symbol
 _atom_site_label
 _atom_site_symmetry_multiplicity
 _atom_site_fract_x
 _atom_site_fract_y
 _atom_site_fract_z
 _atom_site_occupancy
  Cu  Cu0  1  0.75000000  0.25000000  0.50000000  1
  Cu  Cu1  1  0.00000000  0.00000000  0.00000000  1
  H  H2  1  0.21998200  0.77819700  0.56949700  1
  H  H3  1  0.54130000  0.47180300  0.94178500  1
  H  H4  1  0.20870000  0.65048500  0.43050300  1
  H  H5  1  0.53001800  0.59951500  0.05821500  1
  H  H6  1  0.34951500  0.78001800  0.55821500  1
  H  H7  1  0.52819700  0.46998200  0.06949700  1
  H  H8  1  0.22180300  0.79130000  0.44178500  1
  H  H9  1  0.40048500  0.45870000  0.93050300  1
  H  H10  1  0.92572100  0.51577300  0.49727700  1
  H  H11  1  0.73150500  0.73422700  0.90994900  1
  H  H12  1  0.01849500  0.42844400  0.50272300  1
  H  H13  1  0.82427900  0.82155600  0.09005100  1
  H  H14  1  0.57155600  0.07427900  0.59005100  1
  H  H15  1  0.26577300  0.17572100  0.99727700  1
  H  H16  1  0.48422700  0.98150500  0.40994900  1
  H  H17  1  0.17844400  0.26849500  0.00272300  1
  H  H18  1  0.00055300  0.49754700  0.41077500  1
  H  H19  1  0.66322800  0.75245300  0.00300600  1
  H  H20  1  0.08677200  0.58977700  0.58922500  1
  H  H21  1  0.74944700  0.66022300  0.99699400  1
  H  H22  1  0.41022300  0.99944700  0.49699400  1
  H  H23  1  0.24754700  0.25055300  0.91077500  1
  H  H24  1  0.50245300  0.91322800  0.50300600  1
  H  H25  1  0.33977700  0.33677200  0.08922500  1
  H  H26  1  0.82235700  0.57769600  0.75272200  1
  H  H27  1  0.92502600  0.67230400  0.74466100  1
  H  H28  1  0.82497400  0.06963500  0.24727800  1
  H  H29  1  0.92764300  0.18036500  0.25533900  1
  H  H30  1  0.93036500  0.17764300  0.75533900  1
  H  H31  1  0.32769600  0.07235700  0.25272200  1
  H  H32  1  0.42230400  0.17502600  0.24466100  1
  H  H33  1  0.81963500  0.07497400  0.74727800  1
  H  H34  1  0.96706100  0.69062000  0.90242800  1
  H  H35  1  0.96180700  0.55938000  0.77644000  1
  H  H36  1  0.78819300  0.06463300  0.09757200  1
  H  H37  1  0.78293900  0.18536700  0.22356000  1
  H  H38  1  0.93536700  0.03293900  0.72356000  1
  H  H39  1  0.44062000  0.21706100  0.40242800  1
  H  H40  1  0.30938000  0.21180700  0.27644000  1
  H  H41  1  0.81463300  0.03819300  0.59757200  1
  H  H42  1  0.01347500  0.05503300  0.48278800  1
  H  H43  1  0.17775500  0.19496700  0.45844200  1
  H  H44  1  0.57224500  0.53068600  0.51721200  1
  H  H45  1  0.73652500  0.71931400  0.54155800  1
  H  H46  1  0.46931400  0.98652500  0.04155800  1
  H  H47  1  0.80503300  0.26347500  0.98278800  1
  H  H48  1  0.94496700  0.42775500  0.95844200  1
  H  H49  1  0.28068600  0.82224500  0.01721200  1
  H  H50  1  0.95834000  0.89297400  0.38672400  1
  H  H51  1  0.24374900  0.35702600  0.56536500  1
  H  H52  1  0.50625100  0.57161600  0.61327600  1
  H  H53  1  0.79166000  0.67838400  0.43463500  1
  H  H54  1  0.42838400  0.04166000  0.93463500  1
  H  H55  1  0.64297400  0.20834000  0.88672400  1
  H  H56  1  0.10702600  0.49374900  0.06536500  1
  H  H57  1  0.32161600  0.75625100  0.11327600  1
  H  H58  1  0.11699500  0.97692100  0.48722600  1
  H  H59  1  0.26030500  0.27307900  0.64007400  1
  H  H60  1  0.48969500  0.62976900  0.51277400  1
  H  H61  1  0.63300500  0.62023100  0.35992600  1
  H  H62  1  0.37023100  0.88300500  0.85992600  1
  H  H63  1  0.72692100  0.36699500  0.98722600  1
  H  H64  1  0.02307900  0.51030500  0.14007400  1
  H  H65  1  0.37976900  0.73969500  0.01277400  1
  H  H66  1  0.03677400  0.97392600  0.56481800  1
  H  H67  1  0.34089200  0.27607400  0.56284800  1
  H  H68  1  0.40910800  0.47195600  0.43518200  1
  H  H69  1  0.71322600  0.77804400  0.43715200  1
  H  H70  1  0.52804400  0.96322600  0.93715200  1
  H  H71  1  0.72392600  0.28677400  0.06481800  1
  H  H72  1  0.02607400  0.59089200  0.06284800  1
  H  H73  1  0.22195600  0.65910800  0.93518200  1
  S  S74  1  0.95528200  0.24945100  0.55164700  1
  S  S75  1  0.05219600  0.00054900  0.20583000  1
  S  S76  1  0.69780400  0.40363500  0.44835300  1
  S  S77  1  0.79471800  0.84636500  0.79417000  1
  S  S78  1  0.59636500  0.04471800  0.29417000  1
  S  S79  1  0.99945100  0.20528200  0.05164700  1
  S  S80  1  0.75054900  0.30219600  0.70583000  1
  S  S81  1  0.15363500  0.94780400  0.94835300  1
  S  S82  1  0.09344900  0.37056200  0.76661200  1
  S  S83  1  0.14605000  0.87943800  0.22288600  1
  S  S84  1  0.60395000  0.32683700  0.23338800  1
  S  S85  1  0.65655100  0.92316300  0.77711400  1
  S  S86  1  0.67316300  0.90655100  0.27711400  1
  S  S87  1  0.12056200  0.34344900  0.26661200  1
  S  S88  1  0.62943800  0.39605000  0.72288600  1
  S  S89  1  0.07683700  0.85395000  0.73338800  1
  I  I90  1  0.37925700  0.12500000  0.75425700  1
  I  I91  1  0.37074300  0.62500000  0.24574300  1
  I  I92  1  0.37500000  0.62074300  0.74574300  1
  I  I93  1  0.87500000  0.62925700  0.25425700  1
  N  N94  1  0.25000000  0.75000000  0.50000000  1
  N  N95  1  0.50000000  0.50000000  0.00000000  1
  N  N96  1  0.00766200  0.50766200  0.50000000  1
  N  N97  1  0.74233800  0.74233800  0.00000000  1
  N  N98  1  0.49233800  0.99233800  0.50000000  1
  N  N99  1  0.25766200  0.25766200  0.00000000  1
  N  N100  1  0.91799700  0.62500000  0.79299700  1
  N  N101  1  0.83200300  0.12500000  0.20700300  1
  N  N102  1  0.87500000  0.08200300  0.70700300  1
  N  N103  1  0.37500000  0.16799700  0.29299700  1
  N  N104  1  0.03213000  0.97630000  0.48092900  1
  N  N105  1  0.25462900  0.27370000  0.55583000  1
  N  N106  1  0.49537100  0.55120100  0.51907100  1
  N  N107  1  0.71787000  0.69879900  0.44417000  1
  N  N108  1  0.44879900  0.96787000  0.94417000  1
  N  N109  1  0.72630000  0.28213000  0.98092900  1
  N  N110  1  0.02370000  0.50462900  0.05583000  1
  N  N111  1  0.30120100  0.74537100  0.01907100  1
  O  O112  1  0.09420000  0.50198600  0.81186400  1
  O  O113  1  0.05987900  0.74801400  0.09221400  1
  O  O114  1  0.69012100  0.28233500  0.18813600  1
  O  O115  1  0.65580000  0.96766500  0.90778600  1
  O  O116  1  0.71766500  0.90580000  0.40778600  1
  O  O117  1  0.25198600  0.34420000  0.31186400  1
  O  O118  1  0.49801400  0.30987900  0.59221400  1
  O  O119  1  0.03233500  0.94012100  0.68813600  1
  O  O120  1  0.21906800  0.36528200  0.79097700  1
  O  O121  1  0.17569600  0.88471800  0.35378700  1
  O  O122  1  0.57430400  0.42809100  0.20902300  1
  O  O123  1  0.53093200  0.82190900  0.64621300  1
  O  O124  1  0.57190900  0.78093200  0.14621300  1
  O  O125  1  0.11528200  0.46906800  0.29097700  1
  O  O126  1  0.63471800  0.42569600  0.85378700  1
  O  O127  1  0.17809100  0.82430400  0.70902300  1
  O  O128  1  0.05941300  0.32460600  0.84217700  1
  O  O129  1  0.26757100  0.92539400  0.23480700  1
  O  O130  1  0.48242900  0.21723600  0.15782300  1
  O  O131  1  0.69058700  0.03276400  0.76519300  1
  O  O132  1  0.78276400  0.94058700  0.26519300  1
  O  O133  1  0.07460600  0.30941300  0.34217700  1
  O  O134  1  0.67539400  0.51757100  0.73480700  1
  O  O135  1  0.96723600  0.73242900  0.65782300  1
