# generated using pymatgen
data_Cs3Re6Se8(Cl3O)2
_symmetry_space_group_name_H-M   'P 1'
_cell_length_a   13.37900100
_cell_length_b   10.05013100
_cell_length_c   12.03573434
_cell_angle_alpha   64.17272844
_cell_angle_beta   90.00000000
_cell_angle_gamma   90.00000000
_symmetry_Int_Tables_number   1
_chemical_formula_structural   Cs3Re6Se8(Cl3O)2
_chemical_formula_sum   'Cs6 Re12 Se16 Cl12 O4'
_cell_volume   1456.68053441
_cell_formula_units_Z   2
loop_
 _symmetry_equiv_pos_site_id
 _symmetry_equiv_pos_as_xyz
  1  'x, y, z'
loop_
 _atom_site_type_symbol
 _atom_site_label
 _atom_site_symmetry_multiplicity
 _atom_site_fract_x
 _atom_site_fract_y
 _atom_site_fract_z
 _atom_site_occupancy
  Cs  Cs0  1  0.72707200  0.96460500  0.08949800  1
  Cs  Cs1  1  0.77292800  0.96460500  0.58949800  1
  Cs  Cs2  1  0.27292800  0.03539500  0.91050200  1
  Cs  Cs3  1  0.22707200  0.03539500  0.41050200  1
  Cs  Cs4  1  0.50000000  0.50000000  0.50000000  1
  Cs  Cs5  1  0.00000000  0.50000000  0.00000000  1
  Re  Re6  1  0.62427400  0.60390700  0.96039700  1
  Re  Re7  1  0.87572600  0.60390700  0.46039700  1
  Re  Re8  1  0.37572600  0.39609300  0.03960300  1
  Re  Re9  1  0.12427400  0.39609300  0.53960300  1
  Re  Re10  1  0.55878500  0.34888700  0.13664100  1
  Re  Re11  1  0.94121500  0.34888700  0.63664100  1
  Re  Re12  1  0.44121500  0.65111300  0.86335900  1
  Re  Re13  1  0.05878500  0.65111300  0.36335900  1
  Re  Re14  1  0.53508000  0.40271000  0.90590900  1
  Re  Re15  1  0.96492000  0.40271000  0.40590900  1
  Re  Re16  1  0.46492000  0.59729000  0.09409100  1
  Re  Re17  1  0.03508000  0.59729000  0.59409100  1
  Se  Se18  1  0.71073600  0.36554700  0.99975800  1
  Se  Se19  1  0.78926400  0.36554700  0.49975800  1
  Se  Se20  1  0.28926400  0.63445300  0.00024200  1
  Se  Se21  1  0.21073600  0.63445300  0.50024200  1
  Se  Se22  1  0.53081200  0.83786100  0.91927300  1
  Se  Se23  1  0.96918800  0.83786100  0.41927300  1
  Se  Se24  1  0.46918800  0.16213900  0.08072700  1
  Se  Se25  1  0.03081200  0.16213900  0.58072700  1
  Se  Se26  1  0.64142200  0.54391400  0.18713300  1
  Se  Se27  1  0.85857800  0.54391400  0.68713300  1
  Se  Se28  1  0.35857800  0.45608600  0.81286700  1
  Se  Se29  1  0.14142200  0.45608600  0.31286700  1
  Se  Se30  1  0.59364500  0.65008900  0.73800300  1
  Se  Se31  1  0.90635500  0.65008900  0.23800300  1
  Se  Se32  1  0.40635500  0.34991100  0.26199700  1
  Se  Se33  1  0.09364500  0.34991100  0.76199700  1
  Cl  Cl34  1  0.78313600  0.73918900  0.91247900  1
  Cl  Cl35  1  0.71686400  0.73918900  0.41247900  1
  Cl  Cl36  1  0.21686400  0.26081100  0.08752100  1
  Cl  Cl37  1  0.28313600  0.26081100  0.58752100  1
  Cl  Cl38  1  0.63228900  0.14436300  0.31236000  1
  Cl  Cl39  1  0.86771100  0.14436300  0.81236000  1
  Cl  Cl40  1  0.36771100  0.85563700  0.68764000  1
  Cl  Cl41  1  0.13228900  0.85563700  0.18764000  1
  Cl  Cl42  1  0.58178500  0.26220700  0.79245400  1
  Cl  Cl43  1  0.91821500  0.26220700  0.29245400  1
  Cl  Cl44  1  0.41821500  0.73779300  0.20754600  1
  Cl  Cl45  1  0.08178500  0.73779300  0.70754600  1
  O  O46  1  0.93600800  0.12547500  0.06636500  1
  O  O47  1  0.56399200  0.12547500  0.56636500  1
  O  O48  1  0.06399200  0.87452500  0.93363500  1
  O  O49  1  0.43600800  0.87452500  0.43363500  1
