# generated using pymatgen
data_CuH12C3S3BrN6
_symmetry_space_group_name_H-M   'P 1'
_cell_length_a   14.03919614
_cell_length_b   14.03919614
_cell_length_c   14.10838982
_cell_angle_alpha   90.00000000
_cell_angle_beta   90.00000000
_cell_angle_gamma   90.00000000
_symmetry_Int_Tables_number   1
_chemical_formula_structural   CuH12C3S3BrN6
_chemical_formula_sum   'Cu8 H96 C24 S24 Br8 N48'
_cell_volume   2780.74992380
_cell_formula_units_Z   8
loop_
 _symmetry_equiv_pos_site_id
 _symmetry_equiv_pos_as_xyz
  1  'x, y, z'
loop_
 _atom_site_type_symbol
 _atom_site_label
 _atom_site_symmetry_multiplicity
 _atom_site_fract_x
 _atom_site_fract_y
 _atom_site_fract_z
 _atom_site_occupancy
  Cu  Cu0  1  0.52793439  0.85184766  0.33391754  1
  Cu  Cu1  1  0.47206561  0.14815234  0.83391754  1
  Cu  Cu2  1  0.35184766  0.97206561  0.58391754  1
  Cu  Cu3  1  0.64815234  0.02793439  0.08391754  1
  Cu  Cu4  1  0.14815234  0.47206561  0.16608246  1
  Cu  Cu5  1  0.85184766  0.52793439  0.66608246  1
  Cu  Cu6  1  0.97206561  0.35184766  0.41608246  1
  Cu  Cu7  1  0.02793439  0.64815234  0.91608246  1
  H  H8  1  0.74550019  0.91736545  0.53933787  1
  H  H9  1  0.25449981  0.08263455  0.03933787  1
  H  H10  1  0.41736545  0.75449981  0.78933787  1
  H  H11  1  0.58263455  0.24550019  0.28933787  1
  H  H12  1  0.08263455  0.25449981  0.96066213  1
  H  H13  1  0.91736545  0.74550019  0.46066213  1
  H  H14  1  0.75449981  0.41736545  0.21066213  1
  H  H15  1  0.24550019  0.58263455  0.71066213  1
  H  H16  1  0.68172194  0.85250866  0.45091808  1
  H  H17  1  0.31827806  0.14749134  0.95091808  1
  H  H18  1  0.35250866  0.81827806  0.70091808  1
  H  H19  1  0.64749134  0.18172194  0.20091808  1
  H  H20  1  0.14749134  0.31827806  0.04908192  1
  H  H21  1  0.85250866  0.68172194  0.54908192  1
  H  H22  1  0.81827806  0.35250866  0.29908192  1
  H  H23  1  0.18172194  0.64749134  0.79908192  1
  H  H24  1  0.66934306  0.00012348  0.64919848  1
  H  H25  1  0.33065694  0.99987652  0.14919848  1
  H  H26  1  0.50012348  0.83065694  0.89919848  1
  H  H27  1  0.49987652  0.16934306  0.39919848  1
  H  H28  1  0.99987652  0.33065694  0.85080152  1
  H  H29  1  0.00012348  0.66934306  0.35080152  1
  H  H30  1  0.83065694  0.50012348  0.10080152  1
  H  H31  1  0.16934306  0.49987652  0.60080152  1
  H  H32  1  0.54383675  0.00556446  0.65412787  1
  H  H33  1  0.45616325  0.99443554  0.15412787  1
  H  H34  1  0.50556446  0.95616325  0.90412787  1
  H  H35  1  0.49443554  0.04383675  0.40412787  1
  H  H36  1  0.99443554  0.45616325  0.84587213  1
  H  H37  1  0.00556446  0.54383675  0.34587213  1
  H  H38  1  0.95616325  0.50556446  0.09587213  1
  H  H39  1  0.04383675  0.49443554  0.59587213  1
  H  H40  1  0.36157525  0.73256955  0.02176606  1
  H  H41  1  0.63842475  0.26743045  0.52176606  1
  H  H42  1  0.23256955  0.13842475  0.27176606  1
  H  H43  1  0.76743045  0.86157525  0.77176606  1
  H  H44  1  0.26743045  0.63842475  0.47823394  1
  H  H45  1  0.73256955  0.36157525  0.97823394  1
  H  H46  1  0.13842475  0.23256955  0.72823394  1
  H  H47  1  0.86157525  0.76743045  0.22823394  1
  H  H48  1  0.28131937  0.78916193  0.09915849  1
  H  H49  1  0.71868063  0.21083807  0.59915849  1
  H  H50  1  0.28916193  0.21868063  0.34915849  1
  H  H51  1  0.71083807  0.78131937  0.84915849  1
  H  H52  1  0.21083807  0.71868063  0.40084151  1
  H  H53  1  0.78916193  0.28131937  0.90084151  1
  H  H54  1  0.21868063  0.28916193  0.65084151  1
  H  H55  1  0.78131937  0.71083807  0.15084151  1
  H  H56  1  0.51285741  0.70306967  0.06536291  1
  H  H57  1  0.48714259  0.29693033  0.56536291  1
  H  H58  1  0.20306967  0.98714259  0.31536291  1
  H  H59  1  0.79693033  0.01285741  0.81536291  1
  H  H60  1  0.29693033  0.48714259  0.43463709  1
  H  H61  1  0.70306967  0.51285741  0.93463709  1
  H  H62  1  0.98714259  0.20306967  0.68463709  1
  H  H63  1  0.01285741  0.79693033  0.18463709  1
  H  H64  1  0.55329963  0.73389621  0.18065385  1
  H  H65  1  0.44670037  0.26610379  0.68065385  1
  H  H66  1  0.23389621  0.94670037  0.43065385  1
  H  H67  1  0.76610379  0.05329963  0.93065385  1
  H  H68  1  0.26610379  0.44670037  0.31934615  1
  H  H69  1  0.73389621  0.55329963  0.81934615  1
  H  H70  1  0.94670037  0.23389621  0.56934615  1
  H  H71  1  0.05329963  0.76610379  0.06934615  1
  H  H72  1  0.48253652  0.54929072  0.37597313  1
  H  H73  1  0.51746348  0.45070928  0.87597313  1
  H  H74  1  0.04929072  0.01746348  0.62597313  1
  H  H75  1  0.95070928  0.98253652  0.12597313  1
  H  H76  1  0.45070928  0.51746348  0.12402687  1
  H  H77  1  0.54929072  0.48253652  0.62402687  1
  H  H78  1  0.01746348  0.04929072  0.37402687  1
  H  H79  1  0.98253652  0.95070928  0.87402687  1
  H  H80  1  0.46207889  0.66818934  0.33875105  1
  H  H81  1  0.53792111  0.33181066  0.83875105  1
  H  H82  1  0.16818934  0.03792111  0.58875105  1
  H  H83  1  0.83181066  0.96207889  0.08875105  1
  H  H84  1  0.33181066  0.53792111  0.16124895  1
  H  H85  1  0.66818934  0.46207889  0.66124895  1
  H  H86  1  0.03792111  0.16818934  0.41124895  1
  H  H87  1  0.96207889  0.83181066  0.91124895  1
  H  H88  1  0.63013753  0.49481708  0.40010681  1
  H  H89  1  0.36986247  0.50518292  0.90010681  1
  H  H90  1  0.99481708  0.86986247  0.65010681  1
  H  H91  1  0.00518292  0.13013753  0.15010681  1
  H  H92  1  0.50518292  0.36986247  0.09989319  1
  H  H93  1  0.49481708  0.63013753  0.59989319  1
  H  H94  1  0.86986247  0.99481708  0.34989319  1
  H  H95  1  0.13013753  0.00518292  0.84989319  1
  H  H96  1  0.72976239  0.56985256  0.38896810  1
  H  H97  1  0.27023761  0.43014744  0.88896810  1
  H  H98  1  0.06985256  0.77023761  0.63896810  1
  H  H99  1  0.93014744  0.22976239  0.13896810  1
  H  H100  1  0.43014744  0.27023761  0.11103190  1
  H  H101  1  0.56985256  0.72976239  0.61103190  1
  H  H102  1  0.77023761  0.06985256  0.36103190  1
  H  H103  1  0.22976239  0.93014744  0.86103190  1
  C  C104  1  0.60048091  0.92832803  0.54397485  1
  C  C105  1  0.39951909  0.07167197  0.04397485  1
  C  C106  1  0.42832803  0.89951909  0.79397485  1
  C  C107  1  0.57167197  0.10048091  0.29397485  1
  C  C108  1  0.07167197  0.39951909  0.95602515  1
  C  C109  1  0.92832803  0.60048091  0.45602515  1
  C  C110  1  0.89951909  0.42832803  0.20602515  1
  C  C111  1  0.10048091  0.57167197  0.70602515  1
  C  C112  1  0.41510341  0.76790724  0.15248643  1
  C  C113  1  0.58489659  0.23209276  0.65248643  1
  C  C114  1  0.26790724  0.08489659  0.40248643  1
  C  C115  1  0.73209276  0.91510341  0.90248643  1
  C  C116  1  0.23209276  0.58489659  0.34751357  1
  C  C117  1  0.76790724  0.41510341  0.84751357  1
  C  C118  1  0.08489659  0.26790724  0.59751357  1
  C  C119  1  0.91510341  0.73209276  0.09751357  1
  C  C120  1  0.60114291  0.63225909  0.36057431  1
  C  C121  1  0.39885709  0.36774091  0.86057431  1
  C  C122  1  0.13225909  0.89885709  0.61057431  1
  C  C123  1  0.86774091  0.10114291  0.11057431  1
  C  C124  1  0.36774091  0.39885709  0.13942569  1
  C  C125  1  0.63225909  0.60114291  0.63942569  1
  C  C126  1  0.89885709  0.13225909  0.38942569  1
  C  C127  1  0.10114291  0.86774091  0.88942569  1
  S  S128  1  0.49234925  0.89732014  0.49305793  1
  S  S129  1  0.50765075  0.10267986  0.99305793  1
  S  S130  1  0.39732014  0.00765075  0.74305793  1
  S  S131  1  0.60267986  0.99234925  0.24305793  1
  S  S132  1  0.10267986  0.50765075  0.00694207  1
  S  S133  1  0.89732014  0.49234925  0.50694207  1
  S  S134  1  0.00765075  0.39732014  0.25694207  1
  S  S135  1  0.99234925  0.60267986  0.75694207  1
  S  S136  1  0.38841844  0.81777787  0.26053632  1
  S  S137  1  0.61158156  0.18222213  0.76053632  1
  S  S138  1  0.31777787  0.11158156  0.51053632  1
  S  S139  1  0.68222213  0.88841844  0.01053632  1
  S  S140  1  0.18222213  0.61158156  0.23946368  1
  S  S141  1  0.81777787  0.38841844  0.73946368  1
  S  S142  1  0.11158156  0.31777787  0.48946368  1
  S  S143  1  0.88841844  0.68222213  0.98946368  1
  S  S144  1  0.64907520  0.74041410  0.32725578  1
  S  S145  1  0.35092480  0.25958590  0.82725578  1
  S  S146  1  0.24041410  0.85092480  0.57725578  1
  S  S147  1  0.75958590  0.14907520  0.07725578  1
  S  S148  1  0.25958590  0.35092480  0.17274422  1
  S  S149  1  0.74041410  0.64907520  0.67274422  1
  S  S150  1  0.85092480  0.24041410  0.42274422  1
  S  S151  1  0.14907520  0.75958590  0.92274422  1
  Br  Br152  1  0.98324444  0.85395210  0.34674929  1
  Br  Br153  1  0.01675556  0.14604790  0.84674929  1
  Br  Br154  1  0.35395210  0.51675556  0.59674929  1
  Br  Br155  1  0.64604790  0.48324444  0.09674929  1
  Br  Br156  1  0.14604790  0.01675556  0.15325071  1
  Br  Br157  1  0.85395210  0.98324444  0.65325071  1
  Br  Br158  1  0.51675556  0.35395210  0.40325071  1
  Br  Br159  1  0.48324444  0.64604790  0.90325071  1
  N  N160  1  0.68276231  0.89959230  0.50596484  1
  N  N161  1  0.31723769  0.10040770  0.00596484  1
  N  N162  1  0.39959230  0.81723769  0.75596484  1
  N  N163  1  0.60040770  0.18276231  0.25596484  1
  N  N164  1  0.10040770  0.31723769  0.99403516  1
  N  N165  1  0.89959230  0.68276231  0.49403516  1
  N  N166  1  0.81723769  0.39959230  0.24403516  1
  N  N167  1  0.18276231  0.60040770  0.74403516  1
  N  N168  1  0.60438286  0.98156198  0.62205493  1
  N  N169  1  0.39561714  0.01843802  0.12205493  1
  N  N170  1  0.48156198  0.89561714  0.87205493  1
  N  N171  1  0.51843802  0.10438286  0.37205493  1
  N  N172  1  0.01843802  0.39561714  0.87794507  1
  N  N173  1  0.98156198  0.60438286  0.37794507  1
  N  N174  1  0.89561714  0.48156198  0.12794507  1
  N  N175  1  0.10438286  0.51843802  0.62794507  1
  N  N176  1  0.34714449  0.76360255  0.08558495  1
  N  N177  1  0.65285551  0.23639745  0.58558495  1
  N  N178  1  0.26360255  0.15285551  0.33558495  1
  N  N179  1  0.73639745  0.84714449  0.83558495  1
  N  N180  1  0.23639745  0.65285551  0.41441505  1
  N  N181  1  0.76360255  0.34714449  0.91441505  1
  N  N182  1  0.15285551  0.26360255  0.66441505  1
  N  N183  1  0.84714449  0.73639745  0.16441505  1
  N  N184  1  0.50039921  0.73189584  0.13124474  1
  N  N185  1  0.49960079  0.26810416  0.63124474  1
  N  N186  1  0.23189584  0.99960079  0.38124474  1
  N  N187  1  0.76810416  0.00039921  0.88124474  1
  N  N188  1  0.26810416  0.49960079  0.36875526  1
  N  N189  1  0.73189584  0.50039921  0.86875526  1
  N  N190  1  0.99960079  0.23189584  0.61875526  1
  N  N191  1  0.00039921  0.76810416  0.11875526  1
  N  N192  1  0.50758129  0.61576740  0.36011585  1
  N  N193  1  0.49241871  0.38423260  0.86011585  1
  N  N194  1  0.11576740  0.99241871  0.61011585  1
  N  N195  1  0.88423260  0.00758129  0.11011585  1
  N  N196  1  0.38423260  0.49241871  0.13988415  1
  N  N197  1  0.61576740  0.50758129  0.63988415  1
  N  N198  1  0.99241871  0.11576740  0.38988415  1
  N  N199  1  0.00758129  0.88423260  0.88988415  1
  N  N200  1  0.65837657  0.56081771  0.38682063  1
  N  N201  1  0.34162343  0.43918229  0.88682063  1
  N  N202  1  0.06081771  0.84162343  0.63682063  1
  N  N203  1  0.93918229  0.15837657  0.13682063  1
  N  N204  1  0.43918229  0.34162343  0.11317937  1
  N  N205  1  0.56081771  0.65837657  0.61317937  1
  N  N206  1  0.84162343  0.06081771  0.36317937  1
  N  N207  1  0.15837657  0.93918229  0.86317937  1
