# generated using pymatgen
data_H24Rh2(N4O5)3
_symmetry_space_group_name_H-M   'P 1'
_cell_length_a   15.22804500
_cell_length_b   12.26918000
_cell_length_c   10.54289800
_cell_angle_alpha   90.00000000
_cell_angle_beta   90.00000000
_cell_angle_gamma   90.00000000
_symmetry_Int_Tables_number   1
_chemical_formula_structural   H24Rh2(N4O5)3
_chemical_formula_sum   'H96 Rh8 N48 O60'
_cell_volume   1969.78893876
_cell_formula_units_Z   4
loop_
 _symmetry_equiv_pos_site_id
 _symmetry_equiv_pos_as_xyz
  1  'x, y, z'
loop_
 _atom_site_type_symbol
 _atom_site_label
 _atom_site_symmetry_multiplicity
 _atom_site_fract_x
 _atom_site_fract_y
 _atom_site_fract_z
 _atom_site_occupancy
  H  H0  1  0.53391200  0.87220500  0.82712500  1
  H  H1  1  0.46608800  0.12779500  0.32712500  1
  H  H2  1  0.96608800  0.37220500  0.32712500  1
  H  H3  1  0.03391200  0.62779500  0.82712500  1
  H  H4  1  0.49514600  0.83822600  0.68746900  1
  H  H5  1  0.50485400  0.16177400  0.18746900  1
  H  H6  1  0.00485400  0.33822600  0.18746900  1
  H  H7  1  0.99514600  0.66177400  0.68746900  1
  H  H8  1  0.46735800  0.76643700  0.81138400  1
  H  H9  1  0.53264200  0.23356300  0.31138400  1
  H  H10  1  0.03264200  0.26643700  0.31138400  1
  H  H11  1  0.96735800  0.73356300  0.81138400  1
  H  H12  1  0.66932900  0.85573400  0.90978300  1
  H  H13  1  0.33067100  0.14426600  0.40978300  1
  H  H14  1  0.83067100  0.35573400  0.40978300  1
  H  H15  1  0.16932900  0.64426600  0.90978300  1
  H  H16  1  0.74715900  0.76383500  0.91175700  1
  H  H17  1  0.25284100  0.23616500  0.41175700  1
  H  H18  1  0.75284100  0.26383500  0.41175700  1
  H  H19  1  0.24715900  0.73616500  0.91175700  1
  H  H20  1  0.74511600  0.85395700  0.79364200  1
  H  H21  1  0.25488400  0.14604300  0.29364200  1
  H  H22  1  0.75488400  0.35395700  0.29364200  1
  H  H23  1  0.24511600  0.64604300  0.79364200  1
  H  H24  1  0.63949800  0.63286600  0.98145700  1
  H  H25  1  0.36050200  0.36713400  0.48145700  1
  H  H26  1  0.86050200  0.13286600  0.48145700  1
  H  H27  1  0.13949800  0.86713400  0.98145700  1
  H  H28  1  0.53225600  0.64237600  0.95081800  1
  H  H29  1  0.46774400  0.35762400  0.45081800  1
  H  H30  1  0.96774400  0.14237600  0.45081800  1
  H  H31  1  0.03225600  0.85762400  0.95081800  1
  H  H32  1  0.59034800  0.53541400  0.90263300  1
  H  H33  1  0.40965200  0.46458600  0.40263300  1
  H  H34  1  0.90965200  0.03541400  0.40263300  1
  H  H35  1  0.09034800  0.96458600  0.90263300  1
  H  H36  1  0.72647800  0.52972400  0.68927900  1
  H  H37  1  0.27352200  0.47027600  0.18927900  1
  H  H38  1  0.77352200  0.02972400  0.18927900  1
  H  H39  1  0.22647800  0.97027600  0.68927900  1
  H  H40  1  0.78710200  0.64543300  0.69263200  1
  H  H41  1  0.21289800  0.35456700  0.19263200  1
  H  H42  1  0.71289800  0.14543300  0.19263200  1
  H  H43  1  0.28710200  0.85456700  0.69263200  1
  H  H44  1  0.76262100  0.58202300  0.82676300  1
  H  H45  1  0.23737900  0.41797700  0.32676300  1
  H  H46  1  0.73737900  0.08202300  0.32676300  1
  H  H47  1  0.26262100  0.91797700  0.82676300  1
  H  H48  1  0.53111800  0.86634200  0.33091000  1
  H  H49  1  0.46888200  0.13365800  0.83091000  1
  H  H50  1  0.96888200  0.36634200  0.83091000  1
  H  H51  1  0.03111800  0.63365800  0.33091000  1
  H  H52  1  0.46331200  0.76747900  0.37605600  1
  H  H53  1  0.53668800  0.23252100  0.87605600  1
  H  H54  1  0.03668800  0.26747900  0.87605600  1
  H  H55  1  0.96331200  0.73252100  0.37605600  1
  H  H56  1  0.49799100  0.85890000  0.47859800  1
  H  H57  1  0.50200900  0.14110000  0.97859800  1
  H  H58  1  0.00200900  0.35890000  0.97859800  1
  H  H59  1  0.99799100  0.64110000  0.47859800  1
  H  H60  1  0.66901900  0.89488900  0.32954500  1
  H  H61  1  0.33098100  0.10511100  0.82954500  1
  H  H62  1  0.83098100  0.39488900  0.82954500  1
  H  H63  1  0.16901900  0.60511100  0.32954500  1
  H  H64  1  0.76139500  0.83529600  0.37559700  1
  H  H65  1  0.23860500  0.16470400  0.87559700  1
  H  H66  1  0.73860500  0.33529600  0.87559700  1
  H  H67  1  0.26139500  0.66470400  0.37559700  1
  H  H68  1  0.71392200  0.80062100  0.23873700  1
  H  H69  1  0.28607800  0.19937900  0.73873700  1
  H  H70  1  0.78607800  0.30062100  0.73873700  1
  H  H71  1  0.21392200  0.69937900  0.23873700  1
  H  H72  1  0.53087400  0.65611100  0.22253800  1
  H  H73  1  0.46912600  0.34388900  0.72253800  1
  H  H74  1  0.96912600  0.15611100  0.72253800  1
  H  H75  1  0.03087400  0.84388900  0.22253800  1
  H  H76  1  0.63635800  0.62525300  0.19512400  1
  H  H77  1  0.36364200  0.37474700  0.69512400  1
  H  H78  1  0.86364200  0.12525300  0.69512400  1
  H  H79  1  0.13635800  0.87474700  0.19512400  1
  H  H80  1  0.57466800  0.54494000  0.28251800  1
  H  H81  1  0.42533200  0.45506000  0.78251800  1
  H  H82  1  0.92533200  0.04494000  0.78251800  1
  H  H83  1  0.07466800  0.95506000  0.28251800  1
  H  H84  1  0.72351000  0.53005700  0.46390400  1
  H  H85  1  0.27649000  0.46994300  0.96390400  1
  H  H86  1  0.77649000  0.03005700  0.96390400  1
  H  H87  1  0.22351000  0.96994300  0.46390400  1
  H  H88  1  0.76243900  0.59406000  0.33566000  1
  H  H89  1  0.23756100  0.40594000  0.83566000  1
  H  H90  1  0.73756100  0.09406000  0.83566000  1
  H  H91  1  0.26243900  0.90594000  0.33566000  1
  H  H92  1  0.78819700  0.63935200  0.47843700  1
  H  H93  1  0.21180300  0.36064800  0.97843700  1
  H  H94  1  0.71180300  0.13935200  0.97843700  1
  H  H95  1  0.28819700  0.86064800  0.47843700  1
  Rh  Rh96  1  0.62733600  0.70151900  0.74476300  1
  Rh  Rh97  1  0.37266400  0.29848100  0.24476300  1
  Rh  Rh98  1  0.87266400  0.20151900  0.24476300  1
  Rh  Rh99  1  0.12733600  0.79848100  0.74476300  1
  Rh  Rh100  1  0.62651000  0.70738800  0.43014100  1
  Rh  Rh101  1  0.37349000  0.29261200  0.93014100  1
  Rh  Rh102  1  0.87349000  0.20738800  0.93014100  1
  Rh  Rh103  1  0.12651000  0.79261200  0.43014100  1
  N  N104  1  0.51906500  0.80650000  0.77025600  1
  N  N105  1  0.48093500  0.19350000  0.27025600  1
  N  N106  1  0.98093500  0.30650000  0.27025600  1
  N  N107  1  0.01906500  0.69350000  0.77025600  1
  N  N108  1  0.70644700  0.80648600  0.85188700  1
  N  N109  1  0.29355300  0.19351400  0.35188700  1
  N  N110  1  0.79355300  0.30648600  0.35188700  1
  N  N111  1  0.20644700  0.69351400  0.85188700  1
  N  N112  1  0.59195500  0.61858400  0.91390000  1
  N  N113  1  0.40804500  0.38141600  0.41390000  1
  N  N114  1  0.90804500  0.11858400  0.41390000  1
  N  N115  1  0.09195500  0.88141600  0.91390000  1
  N  N116  1  0.73845500  0.60156900  0.73788400  1
  N  N117  1  0.26154500  0.39843100  0.23788400  1
  N  N118  1  0.76154500  0.10156900  0.23788400  1
  N  N119  1  0.23845500  0.89843100  0.73788400  1
  N  N120  1  0.51737000  0.81174800  0.40319500  1
  N  N121  1  0.48263000  0.18825200  0.90319500  1
  N  N122  1  0.98263000  0.31174800  0.90319500  1
  N  N123  1  0.01737000  0.68825200  0.40319500  1
  N  N124  1  0.70178300  0.82196400  0.33111600  1
  N  N125  1  0.29821700  0.17803600  0.83111600  1
  N  N126  1  0.79821700  0.32196400  0.83111600  1
  N  N127  1  0.20178300  0.67803600  0.33111600  1
  N  N128  1  0.58744700  0.62509500  0.26245800  1
  N  N129  1  0.41255300  0.37490500  0.76245800  1
  N  N130  1  0.91255300  0.12509500  0.76245800  1
  N  N131  1  0.08744700  0.87490500  0.26245800  1
  N  N132  1  0.73773100  0.60590000  0.42639400  1
  N  N133  1  0.26226900  0.39410000  0.92639400  1
  N  N134  1  0.76226900  0.10590000  0.92639400  1
  N  N135  1  0.23773100  0.89410000  0.42639400  1
  N  N136  1  0.92604800  0.42791000  0.59059200  1
  N  N137  1  0.07395200  0.57209000  0.09059200  1
  N  N138  1  0.57395200  0.92791000  0.09059200  1
  N  N139  1  0.42604800  0.07209000  0.59059200  1
  N  N140  1  0.63036500  0.36412300  0.59351800  1
  N  N141  1  0.36963500  0.63587700  0.09351800  1
  N  N142  1  0.86963500  0.86412300  0.09351800  1
  N  N143  1  0.13036500  0.13587700  0.59351800  1
  N  N144  1  0.64496100  0.34373200  0.08189700  1
  N  N145  1  0.35503900  0.65626800  0.58189700  1
  N  N146  1  0.85503900  0.84373200  0.58189700  1
  N  N147  1  0.14496100  0.15626800  0.08189700  1
  N  N148  1  0.80410900  0.57622800  0.08589100  1
  N  N149  1  0.19589100  0.42377200  0.58589100  1
  N  N150  1  0.69589100  0.07622800  0.58589100  1
  N  N151  1  0.30410900  0.92377200  0.08589100  1
  O  O152  1  0.55256300  0.59665500  0.64982300  1
  O  O153  1  0.44743700  0.40334500  0.14982300  1
  O  O154  1  0.94743700  0.09665500  0.14982300  1
  O  O155  1  0.05256300  0.90334500  0.64982300  1
  O  O156  1  0.55419100  0.59670400  0.52109100  1
  O  O157  1  0.44580900  0.40329600  0.02109100  1
  O  O158  1  0.94580900  0.09670400  0.02109100  1
  O  O159  1  0.05419100  0.90329600  0.52109100  1
  O  O160  1  0.66327300  0.77532000  0.58874800  1
  O  O161  1  0.33672700  0.22468000  0.08874800  1
  O  O162  1  0.83672700  0.27532000  0.08874800  1
  O  O163  1  0.16327300  0.72468000  0.58874800  1
  O  O164  1  0.91883400  0.32541400  0.58822000  1
  O  O165  1  0.08116600  0.67458600  0.08822000  1
  O  O166  1  0.58116600  0.82541400  0.08822000  1
  O  O167  1  0.41883400  0.17458600  0.58822000  1
  O  O168  1  0.93451500  0.47788900  0.69579500  1
  O  O169  1  0.06548500  0.52211100  0.19579500  1
  O  O170  1  0.56548500  0.97788900  0.19579500  1
  O  O171  1  0.43451500  0.02211100  0.69579500  1
  O  O172  1  0.92331400  0.48193700  0.48726800  1
  O  O173  1  0.07668600  0.51806300  0.98726800  1
  O  O174  1  0.57668600  0.98193700  0.98726800  1
  O  O175  1  0.42331400  0.01806300  0.48726800  1
  O  O176  1  0.59961100  0.35208200  0.70340100  1
  O  O177  1  0.40038900  0.64791800  0.20340100  1
  O  O178  1  0.90038900  0.85208200  0.20340100  1
  O  O179  1  0.09961100  0.14791800  0.70340100  1
  O  O180  1  0.59080800  0.32929200  0.49655900  1
  O  O181  1  0.40919200  0.67070800  0.99655900  1
  O  O182  1  0.90919200  0.82929200  0.99655900  1
  O  O183  1  0.09080800  0.17070800  0.49655900  1
  O  O184  1  0.70468900  0.41276500  0.58016800  1
  O  O185  1  0.29531100  0.58723500  0.08016800  1
  O  O186  1  0.79531100  0.91276500  0.08016800  1
  O  O187  1  0.20468900  0.08723500  0.58016800  1
  O  O188  1  0.63687200  0.24176000  0.10610100  1
  O  O189  1  0.36312800  0.75824000  0.60610100  1
  O  O190  1  0.86312800  0.74176000  0.60610100  1
  O  O191  1  0.13687200  0.25824000  0.10610100  1
  O  O192  1  0.63839300  0.37491900  0.96757600  1
  O  O193  1  0.36160700  0.62508100  0.46757600  1
  O  O194  1  0.86160700  0.87491900  0.46757600  1
  O  O195  1  0.13839300  0.12508100  0.96757600  1
  O  O196  1  0.65859300  0.41068900  0.16983800  1
  O  O197  1  0.34140700  0.58931100  0.66983800  1
  O  O198  1  0.84140700  0.91068900  0.66983800  1
  O  O199  1  0.15859300  0.08931100  0.16983800  1
  O  O200  1  0.83405800  0.54465900  0.19074600  1
  O  O201  1  0.16594200  0.45534100  0.69074600  1
  O  O202  1  0.66594200  0.04465900  0.69074600  1
  O  O203  1  0.33405800  0.95534100  0.19074600  1
  O  O204  1  0.83186700  0.53788800  0.98238700  1
  O  O205  1  0.16813300  0.46211200  0.48238700  1
  O  O206  1  0.66813300  0.03788800  0.48238700  1
  O  O207  1  0.33186700  0.96211200  0.98238700  1
  O  O208  1  0.74381600  0.65045400  0.08392500  1
  O  O209  1  0.25618400  0.34954600  0.58392500  1
  O  O210  1  0.75618400  0.15045400  0.58392500  1
  O  O211  1  0.24381600  0.84954600  0.08392500  1
