# generated using pymatgen
data_OsXeO3F8
_symmetry_space_group_name_H-M   'P 1'
_cell_length_a   17.63694100
_cell_length_b   17.63694100
_cell_length_c   5.69911400
_cell_angle_alpha   90.00000000
_cell_angle_beta   90.00000000
_cell_angle_gamma   90.00000000
_symmetry_Int_Tables_number   1
_chemical_formula_structural   OsXeO3F8
_chemical_formula_sum   'Os8 Xe8 O24 F64'
_cell_volume   1772.77602002
_cell_formula_units_Z   8
loop_
 _symmetry_equiv_pos_site_id
 _symmetry_equiv_pos_as_xyz
  1  'x, y, z'
loop_
 _atom_site_type_symbol
 _atom_site_label
 _atom_site_symmetry_multiplicity
 _atom_site_fract_x
 _atom_site_fract_y
 _atom_site_fract_z
 _atom_site_occupancy
  Os  Os0  1  0.82763000  0.54905800  0.21597300  1
  Os  Os1  1  0.17237000  0.45094200  0.21597300  1
  Os  Os2  1  0.95094200  0.32763000  0.71597300  1
  Os  Os3  1  0.04905800  0.67237000  0.71597300  1
  Os  Os4  1  0.67237000  0.95094200  0.28402700  1
  Os  Os5  1  0.32763000  0.04905800  0.28402700  1
  Os  Os6  1  0.54905800  0.17237000  0.78402700  1
  Os  Os7  1  0.45094200  0.82763000  0.78402700  1
  Xe  Xe8  1  0.68537100  0.40801600  0.27203700  1
  Xe  Xe9  1  0.31462900  0.59198400  0.27203700  1
  Xe  Xe10  1  0.09198400  0.18537100  0.77203700  1
  Xe  Xe11  1  0.90801600  0.81462900  0.77203700  1
  Xe  Xe12  1  0.81462900  0.09198400  0.22796300  1
  Xe  Xe13  1  0.18537100  0.90801600  0.22796300  1
  Xe  Xe14  1  0.40801600  0.31462900  0.72796300  1
  Xe  Xe15  1  0.59198400  0.68537100  0.72796300  1
  O  O16  1  0.91660000  0.52949600  0.32127800  1
  O  O17  1  0.08340000  0.47050400  0.32127800  1
  O  O18  1  0.97050400  0.41660000  0.82127800  1
  O  O19  1  0.02949600  0.58340000  0.82127800  1
  O  O20  1  0.58340000  0.97050400  0.17872200  1
  O  O21  1  0.41660000  0.02949600  0.17872200  1
  O  O22  1  0.52949600  0.08340000  0.67872200  1
  O  O23  1  0.47050400  0.91660000  0.67872200  1
  O  O24  1  0.84379300  0.57531200  0.93073600  1
  O  O25  1  0.15620700  0.42468800  0.93073600  1
  O  O26  1  0.92468800  0.34379300  0.43073600  1
  O  O27  1  0.07531200  0.65620700  0.43073600  1
  O  O28  1  0.65620700  0.92468800  0.56926400  1
  O  O29  1  0.34379300  0.07531200  0.56926400  1
  O  O30  1  0.57531200  0.15620700  0.06926400  1
  O  O31  1  0.42468800  0.84379300  0.06926400  1
  O  O32  1  0.80462300  0.63300800  0.34890200  1
  O  O33  1  0.19537700  0.36699200  0.34890200  1
  O  O34  1  0.86699200  0.30462300  0.84890200  1
  O  O35  1  0.13300800  0.69537700  0.84890200  1
  O  O36  1  0.69537700  0.86699200  0.15109800  1
  O  O37  1  0.30462300  0.13300800  0.15109800  1
  O  O38  1  0.63300800  0.19537700  0.65109800  1
  O  O39  1  0.36699200  0.80462300  0.65109800  1
  F  F40  1  0.78116800  0.49038400  0.48829500  1
  F  F41  1  0.21883200  0.50961600  0.48829500  1
  F  F42  1  0.00961600  0.28116800  0.98829500  1
  F  F43  1  0.99038400  0.71883200  0.98829500  1
  F  F44  1  0.71883200  0.00961600  0.01170500  1
  F  F45  1  0.28116800  0.99038400  0.01170500  1
  F  F46  1  0.49038400  0.21883200  0.51170500  1
  F  F47  1  0.50961600  0.78116800  0.51170500  1
  F  F48  1  0.75168500  0.33731700  0.45713300  1
  F  F49  1  0.24831500  0.66268300  0.45713300  1
  F  F50  1  0.16268300  0.25168500  0.95713300  1
  F  F51  1  0.83731700  0.74831500  0.95713300  1
  F  F52  1  0.74831500  0.16268300  0.04286700  1
  F  F53  1  0.25168500  0.83731700  0.04286700  1
  F  F54  1  0.33731700  0.24831500  0.54286700  1
  F  F55  1  0.66268300  0.75168500  0.54286700  1
  F  F56  1  0.59482300  0.44730100  0.10162600  1
  F  F57  1  0.40517700  0.55269900  0.10162600  1
  F  F58  1  0.05269900  0.09482300  0.60162600  1
  F  F59  1  0.94730100  0.90517700  0.60162600  1
  F  F60  1  0.90517700  0.05269900  0.39837400  1
  F  F61  1  0.09482300  0.94730100  0.39837400  1
  F  F62  1  0.44730100  0.40517700  0.89837400  1
  F  F63  1  0.55269900  0.59482300  0.89837400  1
  F  F64  1  0.63663000  0.44884400  0.56279800  1
  F  F65  1  0.36337000  0.55115600  0.56279800  1
  F  F66  1  0.05115600  0.13663000  0.06279800  1
  F  F67  1  0.94884400  0.86337000  0.06279800  1
  F  F68  1  0.86337000  0.05115600  0.93720200  1
  F  F69  1  0.13663000  0.94884400  0.93720200  1
  F  F70  1  0.44884400  0.36337000  0.43720200  1
  F  F71  1  0.55115600  0.63663000  0.43720200  1
  F  F72  1  0.71267100  0.53550500  0.13741100  1
  F  F73  1  0.28732900  0.46449500  0.13741100  1
  F  F74  1  0.96449500  0.21267100  0.63741100  1
  F  F75  1  0.03550500  0.78732900  0.63741100  1
  F  F76  1  0.78732900  0.96449500  0.36258900  1
  F  F77  1  0.21267100  0.03550500  0.36258900  1
  F  F78  1  0.53550500  0.28732900  0.86258900  1
  F  F79  1  0.46449500  0.71267100  0.86258900  1
  F  F80  1  0.81421300  0.43972100  0.10176500  1
  F  F81  1  0.18578700  0.56027900  0.10176500  1
  F  F82  1  0.06027900  0.31421300  0.60176500  1
  F  F83  1  0.93972100  0.68578700  0.60176500  1
  F  F84  1  0.68578700  0.06027900  0.39823500  1
  F  F85  1  0.31421300  0.93972100  0.39823500  1
  F  F86  1  0.43972100  0.18578700  0.89823500  1
  F  F87  1  0.56027900  0.81421300  0.89823500  1
  F  F88  1  0.70339500  0.34454000  0.98629000  1
  F  F89  1  0.29660500  0.65546000  0.98629000  1
  F  F90  1  0.15546000  0.20339500  0.48629000  1
  F  F91  1  0.84454000  0.79660500  0.48629000  1
  F  F92  1  0.79660500  0.15546000  0.51371000  1
  F  F93  1  0.20339500  0.84454000  0.51371000  1
  F  F94  1  0.34454000  0.29660500  0.01371000  1
  F  F95  1  0.65546000  0.70339500  0.01371000  1
  F  F96  1  0.61316500  0.32491200  0.33661800  1
  F  F97  1  0.38683500  0.67508800  0.33661800  1
  F  F98  1  0.17508800  0.11316500  0.83661800  1
  F  F99  1  0.82491200  0.88683500  0.83661800  1
  F  F100  1  0.88683500  0.17508800  0.16338200  1
  F  F101  1  0.11316500  0.82491200  0.16338200  1
  F  F102  1  0.32491200  0.38683500  0.66338200  1
  F  F103  1  0.67508800  0.61316500  0.66338200  1
