# generated using pymatgen
data_CsH2SNO3
_symmetry_space_group_name_H-M   'P 1'
_cell_length_a   7.65417400
_cell_length_b   8.32305468
_cell_length_c   8.72321792
_cell_angle_alpha   115.27251358
_cell_angle_beta   90.00000000
_cell_angle_gamma   90.00000000
_symmetry_Int_Tables_number   1
_chemical_formula_structural   CsH2SNO3
_chemical_formula_sum   'Cs4 H8 S4 N4 O12'
_cell_volume   502.53268021
_cell_formula_units_Z   4
loop_
 _symmetry_equiv_pos_site_id
 _symmetry_equiv_pos_as_xyz
  1  'x, y, z'
loop_
 _atom_site_type_symbol
 _atom_site_label
 _atom_site_symmetry_multiplicity
 _atom_site_fract_x
 _atom_site_fract_y
 _atom_site_fract_z
 _atom_site_occupancy
  Cs  Cs0  1  0.64600100  0.81629000  0.55951400  1
  Cs  Cs1  1  0.14600100  0.18371000  0.94048600  1
  Cs  Cs2  1  0.35399900  0.18371000  0.44048600  1
  Cs  Cs3  1  0.85399900  0.81629000  0.05951400  1
  H  H4  1  0.49249900  0.47039400  0.15924800  1
  H  H5  1  0.99249900  0.52960600  0.34075200  1
  H  H6  1  0.50750100  0.52960600  0.84075200  1
  H  H7  1  0.00750100  0.47039400  0.65924800  1
  H  H8  1  0.61747200  0.35656100  0.23572100  1
  H  H9  1  0.11747200  0.64343900  0.26427900  1
  H  H10  1  0.38252800  0.64343900  0.76427900  1
  H  H11  1  0.88252800  0.35656100  0.73572100  1
  S  S12  1  0.65161600  0.27131600  0.95507700  1
  S  S13  1  0.15161600  0.72868400  0.54492300  1
  S  S14  1  0.34838400  0.72868400  0.04492300  1
  S  S15  1  0.84838400  0.27131600  0.45507700  1
  N  N16  1  0.53740400  0.34556900  0.13623100  1
  N  N17  1  0.03740400  0.65443100  0.36376900  1
  N  N18  1  0.46259600  0.65443100  0.86376900  1
  N  N19  1  0.96259600  0.34556900  0.63623100  1
  O  O20  1  0.78725800  0.40359700  0.96856800  1
  O  O21  1  0.28725800  0.59640300  0.53143200  1
  O  O22  1  0.21274200  0.59640300  0.03143200  1
  O  O23  1  0.71274200  0.40359700  0.46856800  1
  O  O24  1  0.51910300  0.25378500  0.82604100  1
  O  O25  1  0.01910300  0.74621500  0.67395900  1
  O  O26  1  0.48089700  0.74621500  0.17395900  1
  O  O27  1  0.98089700  0.25378500  0.32604100  1
  O  O28  1  0.72820800  0.10157500  0.93393900  1
  O  O29  1  0.22820800  0.89842500  0.56606100  1
  O  O30  1  0.27179200  0.89842500  0.06606100  1
  O  O31  1  0.77179200  0.10157500  0.43393900  1
