# generated using pymatgen
data_Na3P3H5N3O7
_symmetry_space_group_name_H-M   'P 1'
_cell_length_a   7.95502594
_cell_length_b   7.95502594
_cell_length_c   7.70600357
_cell_angle_alpha   81.01241973
_cell_angle_beta   81.01241973
_cell_angle_gamma   101.99076954
_symmetry_Int_Tables_number   1
_chemical_formula_structural   Na3P3H5N3O7
_chemical_formula_sum   'Na6 P6 H10 N6 O14'
_cell_volume   462.08678121
_cell_formula_units_Z   2
loop_
 _symmetry_equiv_pos_site_id
 _symmetry_equiv_pos_as_xyz
  1  'x, y, z'
loop_
 _atom_site_type_symbol
 _atom_site_label
 _atom_site_symmetry_multiplicity
 _atom_site_fract_x
 _atom_site_fract_y
 _atom_site_fract_z
 _atom_site_occupancy
  Na  Na0  1  0.25140200  0.50324100  0.38796700  1
  Na  Na1  1  0.49675900  0.74859800  0.61203300  1
  Na  Na2  1  0.22858900  0.77141100  0.00000000  1
  Na  Na3  1  0.53183300  0.46816700  0.00000000  1
  Na  Na4  1  0.30546800  0.13766900  0.57227600  1
  Na  Na5  1  0.86233100  0.69453200  0.42772400  1
  P  P6  1  0.15854400  0.39090600  0.84543400  1
  P  P7  1  0.60909400  0.84145600  0.15456600  1
  P  P8  1  0.90130900  0.39130600  0.17310800  1
  P  P9  1  0.60869400  0.09869100  0.82689200  1
  P  P10  1  0.13737200  0.14457000  0.19543100  1
  P  P11  1  0.85543000  0.86262800  0.80456900  1
  H  H12  1  0.20424000  0.84204100  0.39425000  1
  H  H13  1  0.15795900  0.79576000  0.60575000  1
  H  H14  1  0.59780100  0.42832700  0.39382200  1
  H  H15  1  0.57167300  0.40219900  0.60617800  1
  H  H16  1  0.86821600  0.40057800  0.87872100  1
  H  H17  1  0.59942200  0.13178400  0.12127900  1
  H  H18  1  0.83996600  0.09542800  0.29918100  1
  H  H19  1  0.90457200  0.16003400  0.70081900  1
  H  H20  1  0.14512300  0.10158900  0.91228700  1
  H  H21  1  0.89841100  0.85487700  0.08771300  1
  N  N22  1  0.96796000  0.42501600  0.94760900  1
  N  N23  1  0.57498400  0.03204000  0.05239100  1
  N  N24  1  0.94662900  0.20019700  0.25910200  1
  N  N25  1  0.79980300  0.05337100  0.74089800  1
  N  N26  1  0.18966100  0.20675100  0.96927100  1
  N  N27  1  0.79324900  0.81033900  0.03072900  1
  O  O28  1  0.30387500  0.54460300  0.85364700  1
  O  O29  1  0.45539700  0.69612500  0.14635300  1
  O  O30  1  0.13443300  0.34228000  0.66763400  1
  O  O31  1  0.65772000  0.86556700  0.33236600  1
  O  O32  1  0.01170200  0.53730800  0.24089800  1
  O  O33  1  0.46269200  0.98829800  0.75910200  1
  O  O34  1  0.70335000  0.36374000  0.20972500  1
  O  O35  1  0.63626000  0.29665000  0.79027500  1
  O  O36  1  0.27817500  0.24495800  0.27613700  1
  O  O37  1  0.75504200  0.72182500  0.72386300  1
  O  O38  1  0.09920700  0.94422200  0.23322400  1
  O  O39  1  0.05577800  0.90079300  0.76677600  1
  O  O40  1  0.22976500  0.77023500  0.50000000  1
  O  O41  1  0.53610900  0.46389100  0.50000000  1
