# generated using pymatgen
data_MnBePO5
_symmetry_space_group_name_H-M   'P 1'
_cell_length_a   14.06423600
_cell_length_b   4.76763900
_cell_length_c   5.46092500
_cell_angle_alpha   76.18015603
_cell_angle_beta   90.00000000
_cell_angle_gamma   90.00000000
_symmetry_Int_Tables_number   1
_chemical_formula_structural   MnBePO5
_chemical_formula_sum   'Mn4 Be4 P4 O20'
_cell_volume   355.57239140
_cell_formula_units_Z   4
loop_
 _symmetry_equiv_pos_site_id
 _symmetry_equiv_pos_as_xyz
  1  'x, y, z'
loop_
 _atom_site_type_symbol
 _atom_site_label
 _atom_site_symmetry_multiplicity
 _atom_site_fract_x
 _atom_site_fract_y
 _atom_site_fract_z
 _atom_site_occupancy
  Mn  Mn0  1  0.07337000  0.11541500  0.75369600  1
  Mn  Mn1  1  0.57337000  0.88458500  0.74630400  1
  Mn  Mn2  1  0.92663000  0.88458500  0.24630400  1
  Mn  Mn3  1  0.42663000  0.11541500  0.25369600  1
  Be  Be4  1  0.24113100  0.21945400  0.94772800  1
  Be  Be5  1  0.74113100  0.78054600  0.55227200  1
  Be  Be6  1  0.75886900  0.78054600  0.05227200  1
  Be  Be7  1  0.25886900  0.21945400  0.44772800  1
  P  P8  1  0.39645200  0.47297500  0.71264300  1
  P  P9  1  0.89645200  0.52702500  0.78735700  1
  P  P10  1  0.60354800  0.52702500  0.28735700  1
  P  P11  1  0.10354800  0.47297500  0.21264300  1
  O  O12  1  0.46582300  0.26064900  0.88936200  1
  O  O13  1  0.96582300  0.73935100  0.61063800  1
  O  O14  1  0.53417700  0.73935100  0.11063800  1
  O  O15  1  0.03417700  0.26064900  0.38936200  1
  O  O16  1  0.13201700  0.34067800  0.98705000  1
  O  O17  1  0.63201700  0.65932200  0.51295000  1
  O  O18  1  0.86798300  0.65932200  0.01295000  1
  O  O19  1  0.36798300  0.34067800  0.48705000  1
  O  O20  1  0.30486200  0.50775800  0.84731400  1
  O  O21  1  0.80486200  0.49224200  0.65268600  1
  O  O22  1  0.69513800  0.49224200  0.15268600  1
  O  O23  1  0.19513800  0.50775800  0.34731400  1
  O  O24  1  0.44754900  0.76836100  0.60965200  1
  O  O25  1  0.94754900  0.23163900  0.89034800  1
  O  O26  1  0.55245100  0.23163900  0.39034800  1
  O  O27  1  0.05245100  0.76836100  0.10965200  1
  O  O28  1  0.20537600  0.06077800  0.71564500  1
  O  O29  1  0.70537600  0.93922200  0.78435500  1
  O  O30  1  0.79462400  0.93922200  0.28435500  1
  O  O31  1  0.29462400  0.06077800  0.21564500  1
