# generated using pymatgen
data_Co3B7O13F
_symmetry_space_group_name_H-M   'P 1'
_cell_length_a   8.63433637
_cell_length_b   8.63433637
_cell_length_c   8.63433671
_cell_angle_alpha   59.47842676
_cell_angle_beta   59.47842676
_cell_angle_gamma   59.47842891
_symmetry_Int_Tables_number   1
_chemical_formula_structural   Co3B7O13F
_chemical_formula_sum   'Co6 B14 O26 F2'
_cell_volume   449.76830514
_cell_formula_units_Z   2
loop_
 _symmetry_equiv_pos_site_id
 _symmetry_equiv_pos_as_xyz
  1  'x, y, z'
loop_
 _atom_site_type_symbol
 _atom_site_label
 _atom_site_symmetry_multiplicity
 _atom_site_fract_x
 _atom_site_fract_y
 _atom_site_fract_z
 _atom_site_occupancy
  Co  Co0  1  0.96737700  0.96630300  0.54645400  1
  Co  Co1  1  0.54645400  0.96737700  0.96630300  1
  Co  Co2  1  0.96630300  0.54645400  0.96737700  1
  Co  Co3  1  0.04645400  0.46630300  0.46737700  1
  Co  Co4  1  0.46737700  0.04645400  0.46630300  1
  Co  Co5  1  0.46630300  0.46737700  0.04645400  1
  B  B6  1  0.74957800  0.25701400  0.75118400  1
  B  B7  1  0.75118400  0.74957800  0.25701400  1
  B  B8  1  0.25701400  0.75118400  0.74957800  1
  B  B9  1  0.25118400  0.75701400  0.24957800  1
  B  B10  1  0.24957800  0.25118400  0.75701400  1
  B  B11  1  0.75701400  0.24957800  0.25118400  1
  B  B12  1  0.57670700  0.26943400  0.57687500  1
  B  B13  1  0.57687500  0.57670700  0.26943400  1
  B  B14  1  0.26943400  0.57687500  0.57670700  1
  B  B15  1  0.07687500  0.76943400  0.07670700  1
  B  B16  1  0.07670700  0.07687500  0.76943400  1
  B  B17  1  0.76943400  0.07670700  0.07687500  1
  B  B18  1  0.60579900  0.60579900  0.60579900  1
  B  B19  1  0.10579900  0.10579900  0.10579900  1
  O  O20  1  0.49165300  0.49165300  0.49165300  1
  O  O21  1  0.99165300  0.99165300  0.99165300  1
  O  O22  1  0.44791500  0.77014700  0.60714800  1
  O  O23  1  0.60714800  0.44791500  0.77014700  1
  O  O24  1  0.77014700  0.60714800  0.44791500  1
  O  O25  1  0.10714800  0.27014700  0.94791500  1
  O  O26  1  0.94791500  0.10714800  0.27014700  1
  O  O27  1  0.27014700  0.94791500  0.10714800  1
  O  O28  1  0.75838300  0.43898800  0.20150500  1
  O  O29  1  0.20150500  0.75838300  0.43898800  1
  O  O30  1  0.43898800  0.20150500  0.75838300  1
  O  O31  1  0.70150500  0.93898800  0.25838300  1
  O  O32  1  0.25838300  0.70150500  0.93898800  1
  O  O33  1  0.93898800  0.25838300  0.70150500  1
  O  O34  1  0.61470400  0.19209000  0.43928500  1
  O  O35  1  0.43928500  0.61470400  0.19209000  1
  O  O36  1  0.19209000  0.43928500  0.61470400  1
  O  O37  1  0.93928500  0.69209000  0.11470400  1
  O  O38  1  0.11470400  0.93928500  0.69209000  1
  O  O39  1  0.69209000  0.11470400  0.93928500  1
  O  O40  1  0.21570900  0.60376200  0.75337700  1
  O  O41  1  0.75337700  0.21570900  0.60376200  1
  O  O42  1  0.60376200  0.75337700  0.21570900  1
  O  O43  1  0.25337700  0.10376200  0.71570900  1
  O  O44  1  0.71570900  0.25337700  0.10376200  1
  O  O45  1  0.10376200  0.71570900  0.25337700  1
  F  F46  1  0.79640700  0.79640700  0.79640700  1
  F  F47  1  0.29640700  0.29640700  0.29640700  1
