# generated using pymatgen
data_Na3PO12
_symmetry_space_group_name_H-M   'P 1'
_cell_length_a   6.37846366
_cell_length_b   11.88698165
_cell_length_c   15.93327819
_cell_angle_alpha   93.17978757
_cell_angle_beta   95.90675656
_cell_angle_gamma   114.63043699
_symmetry_Int_Tables_number   1
_chemical_formula_structural   Na3PO12
_chemical_formula_sum   'Na12 P4 O48'
_cell_volume   1085.84280663
_cell_formula_units_Z   4
loop_
 _symmetry_equiv_pos_site_id
 _symmetry_equiv_pos_as_xyz
  1  'x, y, z'
loop_
 _atom_site_type_symbol
 _atom_site_label
 _atom_site_symmetry_multiplicity
 _atom_site_fract_x
 _atom_site_fract_y
 _atom_site_fract_z
 _atom_site_occupancy
  Na  Na0  1  0.19165100  0.43501400  0.95879300  1
  Na  Na1  1  0.80834900  0.56498600  0.04120700  1
  Na  Na2  1  0.46301300  0.67741000  0.25648600  1
  Na  Na3  1  0.53698700  0.32259000  0.74351400  1
  Na  Na4  1  0.48647800  0.37263000  0.41563200  1
  Na  Na5  1  0.51352200  0.62737000  0.58436800  1
  Na  Na6  1  0.49909800  0.89590400  0.77561900  1
  Na  Na7  1  0.50090200  0.10409600  0.22438100  1
  Na  Na8  1  0.78471300  0.12145500  0.44910400  1
  Na  Na9  1  0.21528700  0.87854500  0.55089600  1
  Na  Na10  1  0.36797600  0.84695800  0.03949500  1
  Na  Na11  1  0.63202400  0.15304200  0.96050500  1
  P  P12  1  0.96970300  0.16905300  0.82069100  1
  P  P13  1  0.03029700  0.83094700  0.17930900  1
  P  P14  1  0.89906500  0.31274600  0.33727000  1
  P  P15  1  0.10093500  0.68725400  0.66273000  1
  O  O16  1  0.94792000  0.25971500  0.88735700  1
  O  O17  1  0.05208000  0.74028500  0.11264300  1
  O  O18  1  0.19973600  0.20941200  0.78773600  1
  O  O19  1  0.80026400  0.79058800  0.21226400  1
  O  O20  1  0.00421700  0.05689300  0.88822500  1
  O  O21  1  0.99578300  0.94310700  0.11177500  1
  O  O22  1  0.74804500  0.09524200  0.76051800  1
  O  O23  1  0.25195500  0.90475800  0.23948200  1
  O  O24  1  0.97918300  0.45911200  0.35233200  1
  O  O25  1  0.02081700  0.54088800  0.64766800  1
  O  O26  1  0.66258500  0.24564800  0.37184700  1
  O  O27  1  0.33741500  0.75435200  0.62815300  1
  O  O28  1  0.86312500  0.26942100  0.24204500  1
  O  O29  1  0.13687500  0.73057900  0.75795500  1
  O  O30  1  0.08381000  0.27777200  0.38713300  1
  O  O31  1  0.91619000  0.72222800  0.61286700  1
  O  O32  1  0.20314800  0.28017500  0.60529800  1
  O  O33  1  0.79685200  0.71982500  0.39470200  1
  O  O34  1  0.82716600  0.98964500  0.92826000  1
  O  O35  1  0.17283400  0.01035500  0.07174000  1
  O  O36  1  0.00024200  0.43547600  0.15212600  1
  O  O37  1  0.99975800  0.56452400  0.84787400  1
  O  O38  1  0.54017000  0.13844900  0.55838500  1
  O  O39  1  0.45983000  0.86155100  0.44161500  1
  O  O40  1  0.78274600  0.52669100  0.53541400  1
  O  O41  1  0.21725400  0.47330900  0.46458600  1
  O  O42  1  0.07783800  0.99393200  0.65692600  1
  O  O43  1  0.92216200  0.00606800  0.34307400  1
  O  O44  1  0.64569000  0.72055300  0.92790000  1
  O  O45  1  0.35431000  0.27944700  0.07210000  1
  O  O46  1  0.13597300  0.18856300  0.55104100  1
  O  O47  1  0.86402700  0.81143700  0.44895900  1
  O  O48  1  0.66632800  0.23696400  0.60542000  1
  O  O49  1  0.33367200  0.76303600  0.39458000  1
  O  O50  1  0.06460400  0.60437800  0.92520700  1
  O  O51  1  0.93539600  0.39562200  0.07479300  1
  O  O52  1  0.68041300  0.73043300  0.85316700  1
  O  O53  1  0.31958700  0.26956700  0.14683300  1
  O  O54  1  0.44540900  0.94601900  0.91950500  1
  O  O55  1  0.55459100  0.05398100  0.08049500  1
  O  O56  1  0.39380900  0.63555800  0.09177100  1
  O  O57  1  0.60619100  0.36444200  0.90822900  1
  O  O58  1  0.87111400  0.96853100  0.63249900  1
  O  O59  1  0.12888600  0.03146900  0.36750100  1
  O  O60  1  0.37505100  0.53675700  0.36045300  1
  O  O61  1  0.62494900  0.46324300  0.63954700  1
  O  O62  1  0.45961400  0.54688200  0.08703900  1
  O  O63  1  0.54038600  0.45311800  0.91296100  1
