# generated using pymatgen
data_K3V5Te4(HO3)8
_symmetry_space_group_name_H-M   'P 1'
_cell_length_a   7.65892100
_cell_length_b   9.03824600
_cell_length_c   17.15362600
_cell_angle_alpha   90.00000000
_cell_angle_beta   90.00000000
_cell_angle_gamma   90.00000000
_symmetry_Int_Tables_number   1
_chemical_formula_structural   K3V5Te4(HO3)8
_chemical_formula_sum   'K6 V10 Te8 H16 O48'
_cell_volume   1187.42909075
_cell_formula_units_Z   2
loop_
 _symmetry_equiv_pos_site_id
 _symmetry_equiv_pos_as_xyz
  1  'x, y, z'
loop_
 _atom_site_type_symbol
 _atom_site_label
 _atom_site_symmetry_multiplicity
 _atom_site_fract_x
 _atom_site_fract_y
 _atom_site_fract_z
 _atom_site_occupancy
  K  K0  1  0.50000000  0.04666300  0.50000000  1
  K  K1  1  0.00000000  0.95333700  0.00000000  1
  K  K2  1  0.00000000  0.02358400  0.50000000  1
  K  K3  1  0.50000000  0.97641600  0.00000000  1
  K  K4  1  0.50000000  0.60900900  0.50000000  1
  K  K5  1  0.00000000  0.39099100  0.00000000  1
  V  V6  1  0.80595500  0.75512500  0.65835500  1
  V  V7  1  0.80595500  0.75512500  0.34164500  1
  V  V8  1  0.19404500  0.75512500  0.65835500  1
  V  V9  1  0.19404500  0.75512500  0.34164500  1
  V  V10  1  0.69404500  0.24487500  0.84164500  1
  V  V11  1  0.69404500  0.24487500  0.15835500  1
  V  V12  1  0.30595500  0.24487500  0.84164500  1
  V  V13  1  0.30595500  0.24487500  0.15835500  1
  V  V14  1  0.00000000  0.55945400  0.50000000  1
  V  V15  1  0.50000000  0.44054600  0.00000000  1
  Te  Te16  1  0.50000000  0.54283400  0.74933700  1
  Te  Te17  1  0.50000000  0.54283400  0.25066300  1
  Te  Te18  1  0.00000000  0.45716600  0.75066300  1
  Te  Te19  1  0.00000000  0.45716600  0.24933700  1
  Te  Te20  1  0.50000000  0.98499100  0.72674600  1
  Te  Te21  1  0.50000000  0.98499100  0.27325400  1
  Te  Te22  1  0.00000000  0.01500900  0.77325400  1
  Te  Te23  1  0.00000000  0.01500900  0.22674600  1
  H  H24  1  0.75674900  0.30031400  0.43032800  1
  H  H25  1  0.75674900  0.30031400  0.56967200  1
  H  H26  1  0.24325100  0.30031400  0.43032800  1
  H  H27  1  0.24325100  0.30031400  0.56967200  1
  H  H28  1  0.74325100  0.69968600  0.06967200  1
  H  H29  1  0.74325100  0.69968600  0.93032800  1
  H  H30  1  0.25674900  0.69968600  0.06967200  1
  H  H31  1  0.25674900  0.69968600  0.93032800  1
  H  H32  1  0.77131400  0.19894600  0.35579900  1
  H  H33  1  0.77131400  0.19894600  0.64420100  1
  H  H34  1  0.22868600  0.19894600  0.35579900  1
  H  H35  1  0.22868600  0.19894600  0.64420100  1
  H  H36  1  0.72868600  0.80105400  0.14420100  1
  H  H37  1  0.72868600  0.80105400  0.85579900  1
  H  H38  1  0.27131400  0.80105400  0.14420100  1
  H  H39  1  0.27131400  0.80105400  0.85579900  1
  O  O40  1  0.69081100  0.83864500  0.58897300  1
  O  O41  1  0.69081100  0.83864500  0.41102700  1
  O  O42  1  0.30918900  0.83864500  0.58897300  1
  O  O43  1  0.30918900  0.83864500  0.41102700  1
  O  O44  1  0.80918900  0.16135500  0.91102700  1
  O  O45  1  0.80918900  0.16135500  0.08897300  1
  O  O46  1  0.19081100  0.16135500  0.91102700  1
  O  O47  1  0.19081100  0.16135500  0.08897300  1
  O  O48  1  0.68506700  0.56318600  0.67396100  1
  O  O49  1  0.68506700  0.56318600  0.32603900  1
  O  O50  1  0.31493300  0.56318600  0.67396100  1
  O  O51  1  0.31493300  0.56318600  0.32603900  1
  O  O52  1  0.81493300  0.43681400  0.82603900  1
  O  O53  1  0.81493300  0.43681400  0.17396100  1
  O  O54  1  0.18506700  0.43681400  0.82603900  1
  O  O55  1  0.18506700  0.43681400  0.17396100  1
  O  O56  1  0.68273700  0.84777900  0.75251900  1
  O  O57  1  0.68273700  0.84777900  0.24748100  1
  O  O58  1  0.31726300  0.84777900  0.75251900  1
  O  O59  1  0.31726300  0.84777900  0.24748100  1
  O  O60  1  0.81726300  0.15222100  0.74748100  1
  O  O61  1  0.81726300  0.15222100  0.25251900  1
  O  O62  1  0.18273700  0.15222100  0.74748100  1
  O  O63  1  0.18273700  0.15222100  0.25251900  1
  O  O64  1  0.00000000  0.91669500  0.67295700  1
  O  O65  1  0.00000000  0.91669500  0.32704300  1
  O  O66  1  0.50000000  0.08330500  0.82704300  1
  O  O67  1  0.50000000  0.08330500  0.17295700  1
  O  O68  1  0.00000000  0.66862000  0.59024500  1
  O  O69  1  0.00000000  0.66862000  0.40975500  1
  O  O70  1  0.50000000  0.33138000  0.90975500  1
  O  O71  1  0.50000000  0.33138000  0.09024500  1
  O  O72  1  0.00000000  0.66774700  0.74618700  1
  O  O73  1  0.00000000  0.66774700  0.25381300  1
  O  O74  1  0.50000000  0.33225300  0.75381300  1
  O  O75  1  0.50000000  0.33225300  0.24618700  1
  O  O76  1  0.81641100  0.45716800  0.50000000  1
  O  O77  1  0.18358900  0.45716800  0.50000000  1
  O  O78  1  0.68358900  0.54283200  0.00000000  1
  O  O79  1  0.31641100  0.54283200  0.00000000  1
  O  O80  1  0.74979500  0.19678100  0.41221800  1
  O  O81  1  0.74979500  0.19678100  0.58778200  1
  O  O82  1  0.25020500  0.19678100  0.41221800  1
  O  O83  1  0.25020500  0.19678100  0.58778200  1
  O  O84  1  0.75020500  0.80321900  0.08778200  1
  O  O85  1  0.75020500  0.80321900  0.91221800  1
  O  O86  1  0.24979500  0.80321900  0.08778200  1
  O  O87  1  0.24979500  0.80321900  0.91221800  1
