# generated using pymatgen
data_Dy2HfS5
_symmetry_space_group_name_H-M   'P 1'
_cell_length_a   7.24995000
_cell_length_b   7.73539900
_cell_length_c   11.54747700
_cell_angle_alpha   90.00000000
_cell_angle_beta   90.00000000
_cell_angle_gamma   90.00000000
_symmetry_Int_Tables_number   1
_chemical_formula_structural   Dy2HfS5
_chemical_formula_sum   'Dy8 Hf4 S20'
_cell_volume   647.59701356
_cell_formula_units_Z   4
loop_
 _symmetry_equiv_pos_site_id
 _symmetry_equiv_pos_as_xyz
  1  'x, y, z'
loop_
 _atom_site_type_symbol
 _atom_site_label
 _atom_site_symmetry_multiplicity
 _atom_site_fract_x
 _atom_site_fract_y
 _atom_site_fract_z
 _atom_site_occupancy
  Dy  Dy0  1  0.52366500  0.00254700  0.32157500  1
  Dy  Dy1  1  0.97633500  0.49745300  0.82157500  1
  Dy  Dy2  1  0.47633500  0.50254700  0.67842500  1
  Dy  Dy3  1  0.02366500  0.99745300  0.17842500  1
  Dy  Dy4  1  0.47633500  0.99745300  0.67842500  1
  Dy  Dy5  1  0.02366500  0.50254700  0.17842500  1
  Dy  Dy6  1  0.52366500  0.49745300  0.32157500  1
  Dy  Dy7  1  0.97633500  0.00254700  0.82157500  1
  Hf  Hf8  1  0.07548500  0.75000000  0.49407900  1
  Hf  Hf9  1  0.42451500  0.75000000  0.99407900  1
  Hf  Hf10  1  0.92451500  0.25000000  0.50592100  1
  Hf  Hf11  1  0.57548500  0.25000000  0.00592100  1
  S  S12  1  0.83895600  0.53616700  0.59368900  1
  S  S13  1  0.66104400  0.96383300  0.09368900  1
  S  S14  1  0.16104400  0.03616700  0.40631100  1
  S  S15  1  0.33895600  0.46383300  0.90631100  1
  S  S16  1  0.16104400  0.46383300  0.40631100  1
  S  S17  1  0.33895600  0.03616700  0.90631100  1
  S  S18  1  0.83895600  0.96383300  0.59368900  1
  S  S19  1  0.66104400  0.53616700  0.09368900  1
  S  S20  1  0.83294700  0.75000000  0.31879500  1
  S  S21  1  0.66705300  0.75000000  0.81879500  1
  S  S22  1  0.16705300  0.25000000  0.68120500  1
  S  S23  1  0.33294700  0.25000000  0.18120500  1
  S  S24  1  0.44662200  0.75000000  0.49668300  1
  S  S25  1  0.05337800  0.75000000  0.99668300  1
  S  S26  1  0.55337800  0.25000000  0.50331700  1
  S  S27  1  0.94662200  0.25000000  0.00331700  1
  S  S28  1  0.18826000  0.75000000  0.70717100  1
  S  S29  1  0.31174000  0.75000000  0.20717100  1
  S  S30  1  0.81174000  0.25000000  0.29282900  1
  S  S31  1  0.68826000  0.25000000  0.79282900  1
