# generated using pymatgen
data_Nd2Sb4Ir3
_symmetry_space_group_name_H-M   'P 1'
_cell_length_a   4.58540600
_cell_length_b   11.07275900
_cell_length_c   16.31671900
_cell_angle_alpha   90.00000000
_cell_angle_beta   90.00000000
_cell_angle_gamma   90.00000000
_symmetry_Int_Tables_number   1
_chemical_formula_structural   Nd2Sb4Ir3
_chemical_formula_sum   'Nd8 Sb16 Ir12'
_cell_volume   828.45033293
_cell_formula_units_Z   4
loop_
 _symmetry_equiv_pos_site_id
 _symmetry_equiv_pos_as_xyz
  1  'x, y, z'
loop_
 _atom_site_type_symbol
 _atom_site_label
 _atom_site_symmetry_multiplicity
 _atom_site_fract_x
 _atom_site_fract_y
 _atom_site_fract_z
 _atom_site_occupancy
  Nd  Nd0  1  0.25000000  0.74812200  0.50668000  1
  Nd  Nd1  1  0.25000000  0.75187800  0.00668000  1
  Nd  Nd2  1  0.75000000  0.25187800  0.49332000  1
  Nd  Nd3  1  0.75000000  0.24812200  0.99332000  1
  Nd  Nd4  1  0.25000000  0.58917300  0.75141000  1
  Nd  Nd5  1  0.25000000  0.91082700  0.25141000  1
  Nd  Nd6  1  0.75000000  0.41082700  0.24859000  1
  Nd  Nd7  1  0.75000000  0.08917300  0.74859000  1
  Sb  Sb8  1  0.25000000  0.27508700  0.64979000  1
  Sb  Sb9  1  0.25000000  0.22491300  0.14979000  1
  Sb  Sb10  1  0.75000000  0.72491300  0.35021000  1
  Sb  Sb11  1  0.75000000  0.77508700  0.85021000  1
  Sb  Sb12  1  0.25000000  0.88679400  0.71059700  1
  Sb  Sb13  1  0.25000000  0.61320600  0.21059700  1
  Sb  Sb14  1  0.75000000  0.11320600  0.28940300  1
  Sb  Sb15  1  0.75000000  0.38679400  0.78940300  1
  Sb  Sb16  1  0.25000000  0.06266600  0.89421600  1
  Sb  Sb17  1  0.25000000  0.43733400  0.39421600  1
  Sb  Sb18  1  0.75000000  0.93733400  0.10578400  1
  Sb  Sb19  1  0.75000000  0.56266600  0.60578400  1
  Sb  Sb20  1  0.25000000  0.44705900  0.93159800  1
  Sb  Sb21  1  0.25000000  0.05294100  0.43159800  1
  Sb  Sb22  1  0.75000000  0.55294100  0.06840200  1
  Sb  Sb23  1  0.75000000  0.94705900  0.56840200  1
  Ir  Ir24  1  0.25000000  0.46602300  0.55623300  1
  Ir  Ir25  1  0.25000000  0.03397700  0.05623300  1
  Ir  Ir26  1  0.75000000  0.53397700  0.44376700  1
  Ir  Ir27  1  0.75000000  0.96602300  0.94376700  1
  Ir  Ir28  1  0.25000000  0.05639400  0.59238700  1
  Ir  Ir29  1  0.25000000  0.44360600  0.09238700  1
  Ir  Ir30  1  0.75000000  0.94360600  0.40761300  1
  Ir  Ir31  1  0.75000000  0.55639400  0.90761300  1
  Ir  Ir32  1  0.25000000  0.27689200  0.81756400  1
  Ir  Ir33  1  0.25000000  0.22310800  0.31756400  1
  Ir  Ir34  1  0.75000000  0.72310800  0.18243600  1
  Ir  Ir35  1  0.75000000  0.77689200  0.68243600  1
