# generated using pymatgen
data_CdP2H10(NO4)2
_symmetry_space_group_name_H-M   'P 1'
_cell_length_a   6.54315300
_cell_length_b   10.77889000
_cell_length_c   13.36534644
_cell_angle_alpha   90.00000000
_cell_angle_beta   103.10605537
_cell_angle_gamma   90.00000000
_symmetry_Int_Tables_number   1
_chemical_formula_structural   CdP2H10(NO4)2
_chemical_formula_sum   'Cd4 P8 H40 N8 O32'
_cell_volume   918.07654722
_cell_formula_units_Z   4
loop_
 _symmetry_equiv_pos_site_id
 _symmetry_equiv_pos_as_xyz
  1  'x, y, z'
loop_
 _atom_site_type_symbol
 _atom_site_label
 _atom_site_symmetry_multiplicity
 _atom_site_fract_x
 _atom_site_fract_y
 _atom_site_fract_z
 _atom_site_occupancy
  Cd  Cd0  1  0.04122900  0.18726500  0.64977200  1
  Cd  Cd1  1  0.95877100  0.68726500  0.85022800  1
  Cd  Cd2  1  0.95877100  0.81273500  0.35022800  1
  Cd  Cd3  1  0.04122900  0.31273500  0.14977200  1
  P  P4  1  0.26393700  0.47194700  0.60490600  1
  P  P5  1  0.73606300  0.97194700  0.89509400  1
  P  P6  1  0.73606300  0.52805300  0.39509400  1
  P  P7  1  0.26393700  0.02805300  0.10490600  1
  P  P8  1  0.04622900  0.18445100  0.91816700  1
  P  P9  1  0.95377100  0.68445100  0.58183300  1
  P  P10  1  0.95377100  0.81554900  0.08183300  1
  P  P11  1  0.04622900  0.31554900  0.41816700  1
  H  H12  1  0.30553100  0.04286700  0.93766400  1
  H  H13  1  0.69446900  0.54286700  0.56233600  1
  H  H14  1  0.69446900  0.95713300  0.06233600  1
  H  H15  1  0.30553100  0.45713300  0.43766400  1
  H  H16  1  0.30902700  0.81221200  0.11059600  1
  H  H17  1  0.69097300  0.31221200  0.38940400  1
  H  H18  1  0.69097300  0.18778800  0.88940400  1
  H  H19  1  0.30902700  0.68778800  0.61059600  1
  H  H20  1  0.48191400  0.13354300  0.65648900  1
  H  H21  1  0.51808600  0.63354400  0.84351100  1
  H  H22  1  0.51808600  0.86645600  0.34351100  1
  H  H23  1  0.48191400  0.36645700  0.15648900  1
  H  H24  1  0.41367500  0.04522500  0.73934600  1
  H  H25  1  0.58632500  0.54522500  0.76065400  1
  H  H26  1  0.58632500  0.95477500  0.26065400  1
  H  H27  1  0.41367500  0.45477500  0.23934600  1
  H  H28  1  0.62136000  0.32409300  0.62828100  1
  H  H29  1  0.37864000  0.82409300  0.87171900  1
  H  H30  1  0.37864000  0.67590700  0.37171900  1
  H  H31  1  0.62136000  0.17590700  0.12828100  1
  H  H32  1  0.61698800  0.22044500  0.54176000  1
  H  H33  1  0.38301200  0.72044500  0.95824000  1
  H  H34  1  0.38301200  0.77955500  0.45824000  1
  H  H35  1  0.61698800  0.27955500  0.04176000  1
  H  H36  1  0.06744300  0.42917800  0.89949300  1
  H  H37  1  0.93255700  0.92917800  0.60050700  1
  H  H38  1  0.93255700  0.57082200  0.10050700  1
  H  H39  1  0.06744300  0.07082200  0.39949300  1
  H  H40  1  0.10023800  0.45610300  0.78655000  1
  H  H41  1  0.89976200  0.95610300  0.71345000  1
  H  H42  1  0.89976200  0.54389700  0.21345000  1
  H  H43  1  0.10023800  0.04389700  0.28655000  1
  H  H44  1  0.39001800  0.30953500  0.87221100  1
  H  H45  1  0.60998200  0.80953500  0.62778900  1
  H  H46  1  0.60998200  0.69046500  0.12778900  1
  H  H47  1  0.39001800  0.19046500  0.37221100  1
  H  H48  1  0.57296800  0.40943300  0.89183300  1
  H  H49  1  0.42703200  0.90943300  0.60816700  1
  H  H50  1  0.42703200  0.59056700  0.10816700  1
  H  H51  1  0.57296800  0.09056700  0.39183300  1
  N  N52  1  0.21221100  0.07944500  0.98285400  1
  N  N53  1  0.78778900  0.57944500  0.51714600  1
  N  N54  1  0.78778900  0.92055500  0.01714600  1
  N  N55  1  0.21221100  0.42055500  0.48285400  1
  N  N56  1  0.19332800  0.87906700  0.10620800  1
  N  N57  1  0.80667200  0.37906700  0.39379200  1
  N  N58  1  0.80667200  0.12093300  0.89379200  1
  N  N59  1  0.19332800  0.62093300  0.60620800  1
  O  O60  1  0.13057400  0.39688300  0.66234100  1
  O  O61  1  0.86942600  0.89688300  0.83765900  1
  O  O62  1  0.86942600  0.60311700  0.33765900  1
  O  O63  1  0.13057400  0.10311700  0.16234100  1
  O  O64  1  0.50218800  0.47088300  0.64278600  1
  O  O65  1  0.49781200  0.97088300  0.85721400  1
  O  O66  1  0.49781200  0.52911700  0.35721400  1
  O  O67  1  0.50218800  0.02911700  0.14278600  1
  O  O68  1  0.03309200  0.30253500  0.97932900  1
  O  O69  1  0.96690800  0.80253500  0.52067100  1
  O  O70  1  0.96690800  0.69746500  0.02067100  1
  O  O71  1  0.03309200  0.19746500  0.47932900  1
  O  O72  1  0.12602300  0.20940100  0.82186500  1
  O  O73  1  0.87397700  0.70940100  0.67813500  1
  O  O74  1  0.87397700  0.79059900  0.17813500  1
  O  O75  1  0.12602300  0.29059900  0.32186500  1
  O  O76  1  0.36861500  0.07703800  0.66743900  1
  O  O77  1  0.63138500  0.57703800  0.83256100  1
  O  O78  1  0.63138500  0.92296200  0.33256100  1
  O  O79  1  0.36861500  0.42296200  0.16743900  1
  O  O80  1  0.66716100  0.23807300  0.61658400  1
  O  O81  1  0.33283900  0.73807300  0.88341600  1
  O  O82  1  0.33283900  0.76192700  0.38341600  1
  O  O83  1  0.66716100  0.26192700  0.11658400  1
  O  O84  1  0.10606700  0.49436500  0.85444700  1
  O  O85  1  0.89393300  0.99436500  0.64555300  1
  O  O86  1  0.89393300  0.50563500  0.14555300  1
  O  O87  1  0.10606700  0.00563500  0.35444700  1
  O  O88  1  0.53631400  0.32402300  0.90844300  1
  O  O89  1  0.46368600  0.82402300  0.59155700  1
  O  O90  1  0.46368600  0.67597700  0.09155700  1
  O  O91  1  0.53631400  0.17597700  0.40844300  1
