# generated using pymatgen
data_Bi14Mo5O36
_symmetry_space_group_name_H-M   'P 1'
_cell_length_a   17.68267643
_cell_length_b   17.68267643
_cell_length_c   8.76550713
_cell_angle_alpha   80.24013349
_cell_angle_beta   80.24013349
_cell_angle_gamma   18.65918818
_symmetry_Int_Tables_number   1
_chemical_formula_structural   Bi14Mo5O36
_chemical_formula_sum   'Bi14 Mo5 O36'
_cell_volume   863.84169085
_cell_formula_units_Z   1
loop_
 _symmetry_equiv_pos_site_id
 _symmetry_equiv_pos_as_xyz
  1  'x, y, z'
loop_
 _atom_site_type_symbol
 _atom_site_label
 _atom_site_symmetry_multiplicity
 _atom_site_fract_x
 _atom_site_fract_y
 _atom_site_fract_z
 _atom_site_occupancy
  Bi  Bi0  1  0.26512300  0.25052500  0.81167400  1
  Bi  Bi1  1  0.74947500  0.73487700  0.18832600  1
  Bi  Bi2  1  0.27666900  0.14453600  0.46776800  1
  Bi  Bi3  1  0.85546400  0.72333100  0.53223200  1
  Bi  Bi4  1  0.68818200  0.67092800  0.77119600  1
  Bi  Bi5  1  0.32907200  0.31181800  0.22880400  1
  Bi  Bi6  1  0.61087300  0.65029500  0.43960200  1
  Bi  Bi7  1  0.34970500  0.38912700  0.56039800  1
  Bi  Bi8  1  0.08302300  0.12518400  0.72730800  1
  Bi  Bi9  1  0.87481600  0.91697700  0.27269200  1
  Bi  Bi10  1  0.05547000  0.04751700  0.38849200  1
  Bi  Bi11  1  0.95248300  0.94453000  0.61150800  1
  Bi  Bi12  1  0.52720000  0.52725100  0.66899800  1
  Bi  Bi13  1  0.47274900  0.47280000  0.33100200  1
  Mo  Mo14  1  0.99437000  0.00563000  0.00000000  1
  Mo  Mo15  1  0.41276600  0.42940300  0.94653000  1
  Mo  Mo16  1  0.57059700  0.58723400  0.05347000  1
  Mo  Mo17  1  0.86690000  0.80870100  0.90253200  1
  Mo  Mo18  1  0.19129900  0.13310000  0.09746800  1
  O  O19  1  0.95349600  0.51124000  0.69178500  1
  O  O20  1  0.48876000  0.04650400  0.30821500  1
  O  O21  1  0.47179400  0.99035100  0.66012500  1
  O  O22  1  0.00964900  0.52820600  0.33987500  1
  O  O23  1  0.87217000  0.42797200  0.61655800  1
  O  O24  1  0.57202800  0.12783000  0.38344200  1
  O  O25  1  0.38661300  0.91827400  0.60608300  1
  O  O26  1  0.08172600  0.61338700  0.39391700  1
  O  O27  1  0.84779900  0.30118900  0.56006500  1
  O  O28  1  0.69881100  0.15220100  0.43993500  1
  O  O29  1  0.33964200  0.81287000  0.54869700  1
  O  O30  1  0.18713000  0.66035800  0.45130300  1
  O  O31  1  0.73644800  0.26355200  0.50000000  1
  O  O32  1  0.23225600  0.76774400  0.50000000  1
  O  O33  1  0.29501200  0.62293300  0.81775200  1
  O  O34  1  0.37706700  0.70498800  0.18224800  1
  O  O35  1  0.56479700  0.29352400  0.12593500  1
  O  O36  1  0.70647600  0.43520300  0.87406500  1
  O  O37  1  0.17043900  0.59429900  0.01761900  1
  O  O38  1  0.40570100  0.82956100  0.98238100  1
  O  O39  1  0.58325000  0.21760900  0.82357400  1
  O  O40  1  0.78239100  0.41675000  0.17642600  1
  O  O41  1  0.98689000  0.75783900  0.73099200  1
  O  O42  1  0.24216100  0.01311000  0.26900800  1
  O  O43  1  0.71981500  0.97087200  0.07793000  1
  O  O44  1  0.02912800  0.28018500  0.92207000  1
  O  O45  1  0.06759600  0.53995400  0.96354500  1
  O  O46  1  0.46004600  0.93240400  0.03645500  1
  O  O47  1  0.63628300  0.97678600  0.82075600  1
  O  O48  1  0.02321300  0.36371700  0.17924400  1
  O  O49  1  0.20205200  0.87282800  0.88094100  1
  O  O50  1  0.12717200  0.79794800  0.11905900  1
  O  O51  1  0.83105000  0.20907300  0.13390100  1
  O  O52  1  0.79092700  0.16895000  0.86609900  1
  O  O53  1  0.21739100  0.38641900  0.62518200  1
  O  O54  1  0.61358100  0.78260900  0.37481800  1
