# generated using pymatgen
data_CsU(OF)3
_symmetry_space_group_name_H-M   'P 1'
_cell_length_a   11.69476100
_cell_length_b   6.17766900
_cell_length_c   9.46858499
_cell_angle_alpha   85.34140520
_cell_angle_beta   90.00000000
_cell_angle_gamma   90.00000000
_symmetry_Int_Tables_number   1
_chemical_formula_structural   CsU(OF)3
_chemical_formula_sum   'Cs4 U4 O12 F12'
_cell_volume   681.81088573
_cell_formula_units_Z   4
loop_
 _symmetry_equiv_pos_site_id
 _symmetry_equiv_pos_as_xyz
  1  'x, y, z'
loop_
 _atom_site_type_symbol
 _atom_site_label
 _atom_site_symmetry_multiplicity
 _atom_site_fract_x
 _atom_site_fract_y
 _atom_site_fract_z
 _atom_site_occupancy
  Cs  Cs0  1  0.21254200  0.41466700  0.48792300  1
  Cs  Cs1  1  0.71254200  0.58533300  0.01207700  1
  Cs  Cs2  1  0.78745800  0.58533300  0.51207700  1
  Cs  Cs3  1  0.28745800  0.41466700  0.98792300  1
  U  U4  1  0.03910500  0.89280200  0.19546600  1
  U  U5  1  0.53910500  0.10719800  0.30453400  1
  U  U6  1  0.96089500  0.10719800  0.80453400  1
  U  U7  1  0.46089500  0.89280200  0.69546600  1
  O  O8  1  0.12626400  0.13380500  0.21721100  1
  O  O9  1  0.62626400  0.86619500  0.28278900  1
  O  O10  1  0.87373600  0.86619500  0.78278900  1
  O  O11  1  0.37373600  0.13380500  0.71721100  1
  O  O12  1  0.94225700  0.66428700  0.17663200  1
  O  O13  1  0.44225700  0.33571300  0.32336800  1
  O  O14  1  0.05774300  0.33571300  0.82336800  1
  O  O15  1  0.55774300  0.66428700  0.67663200  1
  O  O16  1  0.88778900  0.03544600  0.33523500  1
  O  O17  1  0.38778900  0.96455400  0.16476500  1
  O  O18  1  0.11221100  0.96455400  0.66476500  1
  O  O19  1  0.61221100  0.03544600  0.83523500  1
  F  F20  1  0.09069600  0.90643700  0.95549400  1
  F  F21  1  0.59069600  0.09356300  0.54450600  1
  F  F22  1  0.90930400  0.09356300  0.04450600  1
  F  F23  1  0.40930400  0.90643700  0.45549400  1
  F  F24  1  0.18738500  0.68171900  0.20895300  1
  F  F25  1  0.68738500  0.31828100  0.29104700  1
  F  F26  1  0.81261500  0.31828100  0.79104700  1
  F  F27  1  0.31261500  0.68171900  0.70895300  1
  F  F28  1  0.03181800  0.79650700  0.42760000  1
  F  F29  1  0.53181800  0.20349300  0.07240000  1
  F  F30  1  0.96818200  0.20349300  0.57240000  1
  F  F31  1  0.46818200  0.79650700  0.92760000  1
