# generated using pymatgen
data_RbCN2
_symmetry_space_group_name_H-M   'P 1'
_cell_length_a   7.69289400
_cell_length_b   9.32746300
_cell_length_c   9.41050500
_cell_angle_alpha   90.00000000
_cell_angle_beta   90.00000000
_cell_angle_gamma   90.00000000
_symmetry_Int_Tables_number   1
_chemical_formula_structural   RbCN2
_chemical_formula_sum   'Rb8 C8 N16'
_cell_volume   675.25251920
_cell_formula_units_Z   8
loop_
 _symmetry_equiv_pos_site_id
 _symmetry_equiv_pos_as_xyz
  1  'x, y, z'
loop_
 _atom_site_type_symbol
 _atom_site_label
 _atom_site_symmetry_multiplicity
 _atom_site_fract_x
 _atom_site_fract_y
 _atom_site_fract_z
 _atom_site_occupancy
  Rb  Rb0  1  0.51584500  0.25189300  0.15213200  1
  Rb  Rb1  1  0.48415500  0.75189300  0.34786800  1
  Rb  Rb2  1  0.01584500  0.24810700  0.84786800  1
  Rb  Rb3  1  0.98415500  0.74810700  0.65213200  1
  Rb  Rb4  1  0.73374200  0.09834200  0.50904700  1
  Rb  Rb5  1  0.26625800  0.59834200  0.99095300  1
  Rb  Rb6  1  0.23374200  0.40165800  0.49095300  1
  Rb  Rb7  1  0.76625800  0.90165800  0.00904700  1
  C  C8  1  0.73156800  0.43943800  0.48986400  1
  C  C9  1  0.26843200  0.93943800  0.01013600  1
  C  C10  1  0.23156800  0.06056200  0.51013600  1
  C  C11  1  0.76843200  0.56056200  0.98986400  1
  C  C12  1  0.98473300  0.74906000  0.31371900  1
  C  C13  1  0.01526700  0.24906000  0.18628100  1
  C  C14  1  0.48473300  0.75094000  0.68628100  1
  C  C15  1  0.51526700  0.25094000  0.81371900  1
  N  N16  1  0.85931100  0.43712600  0.56966600  1
  N  N17  1  0.14068900  0.93712600  0.93033400  1
  N  N18  1  0.35931100  0.06287400  0.43033400  1
  N  N19  1  0.64068900  0.56287400  0.06966600  1
  N  N20  1  0.60416000  0.43809100  0.40980300  1
  N  N21  1  0.39584000  0.93809100  0.09019700  1
  N  N22  1  0.10416000  0.06190900  0.59019700  1
  N  N23  1  0.89584000  0.56190900  0.90980300  1
  N  N24  1  0.11123700  0.66831400  0.29992400  1
  N  N25  1  0.88876300  0.16831400  0.20007600  1
  N  N26  1  0.61123700  0.83168600  0.70007600  1
  N  N27  1  0.38876300  0.33168600  0.79992400  1
  N  N28  1  0.85948000  0.83026000  0.33123300  1
  N  N29  1  0.14052000  0.33026000  0.16876700  1
  N  N30  1  0.35948000  0.66974000  0.66876700  1
  N  N31  1  0.64052000  0.16974000  0.83123300  1
