# generated using pymatgen
data_MgH7C3NO6
_symmetry_space_group_name_H-M   'P 1'
_cell_length_a   12.86496100
_cell_length_b   12.86496071
_cell_length_c   8.18927200
_cell_angle_alpha   90.00000000
_cell_angle_beta   90.00000000
_cell_angle_gamma   119.99999817
_symmetry_Int_Tables_number   1
_chemical_formula_structural   MgH7C3NO6
_chemical_formula_sum   'Mg6 H42 C18 N6 O36'
_cell_volume   1173.79667247
_cell_formula_units_Z   6
loop_
 _symmetry_equiv_pos_site_id
 _symmetry_equiv_pos_as_xyz
  1  'x, y, z'
loop_
 _atom_site_type_symbol
 _atom_site_label
 _atom_site_symmetry_multiplicity
 _atom_site_fract_x
 _atom_site_fract_y
 _atom_site_fract_z
 _atom_site_occupancy
  Mg  Mg0  1  0.00449400  0.33581700  0.08648000  1
  Mg  Mg1  1  0.33132300  0.99550600  0.08648000  1
  Mg  Mg2  1  0.66418300  0.66867700  0.08648000  1
  Mg  Mg3  1  0.99550600  0.66418300  0.58648000  1
  Mg  Mg4  1  0.66867700  0.00449400  0.58648000  1
  Mg  Mg5  1  0.33581700  0.33132300  0.58648000  1
  H  H6  1  0.27309300  0.57882000  0.99429900  1
  H  H7  1  0.30572700  0.72690700  0.99429900  1
  H  H8  1  0.42118000  0.69427300  0.99429900  1
  H  H9  1  0.72690700  0.42118000  0.49429900  1
  H  H10  1  0.69427300  0.27309300  0.49429900  1
  H  H11  1  0.57882000  0.30572700  0.49429900  1
  H  H12  1  0.33333300  0.66666700  0.15858500  1
  H  H13  1  0.66666700  0.33333300  0.65858500  1
  H  H14  1  0.75384300  0.35780600  0.99036500  1
  H  H15  1  0.60396300  0.24615700  0.99036500  1
  H  H16  1  0.64219400  0.39603700  0.99036500  1
  H  H17  1  0.24615700  0.64219400  0.49036500  1
  H  H18  1  0.39603700  0.75384300  0.49036500  1
  H  H19  1  0.35780600  0.60396300  0.49036500  1
  H  H20  1  0.66666700  0.33333300  0.15486400  1
  H  H21  1  0.33333300  0.66666700  0.65486400  1
  H  H22  1  0.93939500  0.02722900  0.68353300  1
  H  H23  1  0.08783400  0.06060500  0.68353300  1
  H  H24  1  0.97277100  0.91216600  0.68353300  1
  H  H25  1  0.06060500  0.97277100  0.18353300  1
  H  H26  1  0.91216600  0.93939500  0.18353300  1
  H  H27  1  0.02722900  0.08783400  0.18353300  1
  H  H28  1  0.00000000  0.00000000  0.51916900  1
  H  H29  1  0.00000000  0.00000000  0.01916900  1
  H  H30  1  0.12241200  0.27668000  0.80747500  1
  H  H31  1  0.15426800  0.87758800  0.80747500  1
  H  H32  1  0.72332000  0.84573200  0.80747500  1
  H  H33  1  0.87758800  0.72332000  0.30747500  1
  H  H34  1  0.84573200  0.12241200  0.30747500  1
  H  H35  1  0.27668000  0.15426800  0.30747500  1
  H  H36  1  0.05531200  0.50358500  0.79701600  1
  H  H37  1  0.44827300  0.94468800  0.79701600  1
  H  H38  1  0.49641500  0.55172700  0.79701600  1
  H  H39  1  0.94468800  0.49641500  0.29701600  1
  H  H40  1  0.55172700  0.05531200  0.29701600  1
  H  H41  1  0.50358500  0.44827300  0.29701600  1
  H  H42  1  0.77808100  0.16253800  0.89201500  1
  H  H43  1  0.38445700  0.22191900  0.89201500  1
  H  H44  1  0.83746200  0.61554300  0.89201500  1
  H  H45  1  0.22191900  0.83746200  0.39201500  1
  H  H46  1  0.61554300  0.77808100  0.39201500  1
  H  H47  1  0.16253800  0.38445700  0.39201500  1
  C  C48  1  0.18591200  0.37346400  0.82619900  1
  C  C49  1  0.18755200  0.81408800  0.82619900  1
  C  C50  1  0.62653600  0.81244800  0.82619900  1
  C  C51  1  0.81408800  0.62653600  0.32619900  1
  C  C52  1  0.81244800  0.18591200  0.32619900  1
  C  C53  1  0.37346400  0.18755200  0.32619900  1
  C  C54  1  0.95914000  0.47113400  0.82003500  1
  C  C55  1  0.51199400  0.04086000  0.82003500  1
  C  C56  1  0.52886600  0.48800600  0.82003500  1
  C  C57  1  0.04086000  0.52886600  0.32003500  1
  C  C58  1  0.48800600  0.95914000  0.32003500  1
  C  C59  1  0.47113400  0.51199400  0.32003500  1
  C  C60  1  0.84668900  0.13811300  0.85949600  1
  C  C61  1  0.29142300  0.15331100  0.85949600  1
  C  C62  1  0.86188700  0.70857700  0.85949600  1
  C  C63  1  0.15331100  0.86188700  0.35949600  1
  C  C64  1  0.70857700  0.84668900  0.35949600  1
  C  C65  1  0.13811300  0.29142300  0.35949600  1
  N  N66  1  0.33333300  0.66666700  0.03363900  1
  N  N67  1  0.66666700  0.33333300  0.53363900  1
  N  N68  1  0.66666700  0.33333300  0.02978800  1
  N  N69  1  0.33333300  0.66666700  0.52978800  1
  N  N70  1  0.00000000  0.00000000  0.64423600  1
  N  N71  1  0.00000000  0.00000000  0.14423600  1
  O  O72  1  0.16150200  0.42462500  0.94147600  1
  O  O73  1  0.26312300  0.83849800  0.94147600  1
  O  O74  1  0.57537500  0.73687700  0.94147600  1
  O  O75  1  0.83849800  0.57537500  0.44147600  1
  O  O76  1  0.73687700  0.16150200  0.44147600  1
  O  O77  1  0.42462500  0.26312300  0.44147600  1
  O  O78  1  0.27623900  0.42567400  0.73335200  1
  O  O79  1  0.14943600  0.72376100  0.73335200  1
  O  O80  1  0.57432600  0.85056400  0.73335200  1
  O  O81  1  0.72376100  0.57432600  0.23335200  1
  O  O82  1  0.85056400  0.27623900  0.23335200  1
  O  O83  1  0.42567400  0.14943600  0.23335200  1
  O  O84  1  0.90970100  0.39753400  0.93762700  1
  O  O85  1  0.48783300  0.09029900  0.93762700  1
  O  O86  1  0.60246600  0.51216700  0.93762700  1
  O  O87  1  0.09029900  0.60246600  0.43762700  1
  O  O88  1  0.51216700  0.90970100  0.43762700  1
  O  O89  1  0.39753400  0.48783300  0.43762700  1
  O  O90  1  0.90601000  0.50984300  0.72974600  1
  O  O91  1  0.60383200  0.09399000  0.72974600  1
  O  O92  1  0.49015700  0.39616800  0.72974600  1
  O  O93  1  0.09399000  0.49015700  0.22974600  1
  O  O94  1  0.39616800  0.90601000  0.22974600  1
  O  O95  1  0.50984300  0.60383200  0.22974600  1
  O  O96  1  0.94068000  0.18024400  0.94556200  1
  O  O97  1  0.23956400  0.05932000  0.94556200  1
  O  O98  1  0.81975600  0.76043600  0.94556200  1
  O  O99  1  0.05932000  0.81975600  0.44556200  1
  O  O100  1  0.76043600  0.94068000  0.44556200  1
  O  O101  1  0.18024400  0.23956400  0.44556200  1
  O  O102  1  0.82491300  0.06899300  0.73690300  1
  O  O103  1  0.24408000  0.17508700  0.73690300  1
  O  O104  1  0.93100700  0.75592000  0.73690300  1
  O  O105  1  0.17508700  0.93100700  0.23690300  1
  O  O106  1  0.75592000  0.82491300  0.23690300  1
  O  O107  1  0.06899300  0.24408000  0.23690300  1
