# generated using pymatgen
data_CsCoH24(C7N4)2
_symmetry_space_group_name_H-M   'P 1'
_cell_length_a   9.52696312
_cell_length_b   9.52696312
_cell_length_c   9.53845341
_cell_angle_alpha   60.57652998
_cell_angle_beta   60.57652998
_cell_angle_gamma   60.15551150
_symmetry_Int_Tables_number   1
_chemical_formula_structural   CsCoH24(C7N4)2
_chemical_formula_sum   'Cs1 Co1 H24 C14 N8'
_cell_volume   618.18513669
_cell_formula_units_Z   1
loop_
 _symmetry_equiv_pos_site_id
 _symmetry_equiv_pos_as_xyz
  1  'x, y, z'
loop_
 _atom_site_type_symbol
 _atom_site_label
 _atom_site_symmetry_multiplicity
 _atom_site_fract_x
 _atom_site_fract_y
 _atom_site_fract_z
 _atom_site_occupancy
  Cs  Cs0  1  0.50000000  0.50000000  0.50000000  1
  Co  Co1  1  0.00000000  0.00000000  0.00000000  1
  H  H2  1  0.24418000  0.24418000  0.48026800  1
  H  H3  1  0.75582000  0.75582000  0.51973200  1
  H  H4  1  0.25147300  0.44039200  0.30419500  1
  H  H5  1  0.55960800  0.74852700  0.69580500  1
  H  H6  1  0.74852700  0.55960800  0.69580500  1
  H  H7  1  0.44039200  0.25147300  0.30419500  1
  H  H8  1  0.28480100  0.28480100  0.00418000  1
  H  H9  1  0.71519900  0.71519900  0.99582000  1
  H  H10  1  0.27499600  0.46362100  0.03200800  1
  H  H11  1  0.53637900  0.72500400  0.96799200  1
  H  H12  1  0.72500400  0.53637900  0.96799200  1
  H  H13  1  0.46362100  0.27499600  0.03200800  1
  H  H14  1  0.00489500  0.25959400  0.43989700  1
  H  H15  1  0.74040600  0.99510500  0.56010300  1
  H  H16  1  0.99510500  0.74040600  0.56010300  1
  H  H17  1  0.25959400  0.00489500  0.43989700  1
  H  H18  1  0.02402000  0.27825400  0.23424100  1
  H  H19  1  0.72174600  0.97598000  0.76575900  1
  H  H20  1  0.97598000  0.72174600  0.76575900  1
  H  H21  1  0.27825400  0.02402000  0.23424100  1
  H  H22  1  0.01556200  0.45531700  0.26446200  1
  H  H23  1  0.54468300  0.98443800  0.73553800  1
  H  H24  1  0.98443800  0.54468300  0.73553800  1
  H  H25  1  0.45531700  0.01556200  0.26446200  1
  C  C26  1  0.13861200  0.13861200  0.87185400  1
  C  C27  1  0.86138800  0.86138800  0.12814600  1
  C  C28  1  0.86368300  0.14361700  0.85722500  1
  C  C29  1  0.85638300  0.13631700  0.14277500  1
  C  C30  1  0.13631700  0.85638300  0.14277500  1
  C  C31  1  0.14361700  0.86368300  0.85722500  1
  C  C32  1  0.30022600  0.30022600  0.34272800  1
  C  C33  1  0.69977400  0.69977400  0.65727200  1
  C  C34  1  0.32418600  0.32418600  0.06575300  1
  C  C35  1  0.67581400  0.67581400  0.93424700  1
  C  C36  1  0.05855400  0.31555300  0.30184200  1
  C  C37  1  0.68444700  0.94144600  0.69815800  1
  C  C38  1  0.94144600  0.68444700  0.69815800  1
  C  C39  1  0.31555300  0.05855400  0.30184200  1
  N  N40  1  0.22531600  0.22531600  0.79117400  1
  N  N41  1  0.77468400  0.77468400  0.20882600  1
  N  N42  1  0.77813200  0.23368500  0.76839100  1
  N  N43  1  0.76631500  0.22186800  0.23160900  1
  N  N44  1  0.22186800  0.76631500  0.23160900  1
  N  N45  1  0.23368500  0.77813200  0.76839100  1
  N  N46  1  0.24928200  0.24928200  0.25377900  1
  N  N47  1  0.75071800  0.75071800  0.74622100  1
