# generated using pymatgen
data_CrN3O4
_symmetry_space_group_name_H-M   'P 1'
_cell_length_a   7.93610000
_cell_length_b   9.76319200
_cell_length_c   24.37750100
_cell_angle_alpha   90.00000000
_cell_angle_beta   90.00000000
_cell_angle_gamma   90.00000000
_symmetry_Int_Tables_number   1
_chemical_formula_structural   CrN3O4
_chemical_formula_sum   'Cr12 N36 O48'
_cell_volume   1888.80943991
_cell_formula_units_Z   12
loop_
 _symmetry_equiv_pos_site_id
 _symmetry_equiv_pos_as_xyz
  1  'x, y, z'
loop_
 _atom_site_type_symbol
 _atom_site_label
 _atom_site_symmetry_multiplicity
 _atom_site_fract_x
 _atom_site_fract_y
 _atom_site_fract_z
 _atom_site_occupancy
  Cr  Cr0  1  0.37205200  0.69026800  0.08493400  1
  Cr  Cr1  1  0.12794800  0.19026800  0.41506600  1
  Cr  Cr2  1  0.62794800  0.30973200  0.58493400  1
  Cr  Cr3  1  0.87205200  0.80973200  0.91506600  1
  Cr  Cr4  1  0.62794800  0.30973200  0.91506600  1
  Cr  Cr5  1  0.87205200  0.80973200  0.58493400  1
  Cr  Cr6  1  0.37205200  0.69026800  0.41506600  1
  Cr  Cr7  1  0.12794800  0.19026800  0.08493400  1
  Cr  Cr8  1  0.81852700  0.63693000  0.25000000  1
  Cr  Cr9  1  0.68147300  0.13693000  0.25000000  1
  Cr  Cr10  1  0.18147300  0.36307000  0.75000000  1
  Cr  Cr11  1  0.31852700  0.86307000  0.75000000  1
  N  N12  1  0.46862500  0.52588000  0.08533500  1
  N  N13  1  0.03137500  0.02588000  0.41466500  1
  N  N14  1  0.53137500  0.47412000  0.58533500  1
  N  N15  1  0.96862500  0.97412000  0.91466500  1
  N  N16  1  0.53137500  0.47412000  0.91466500  1
  N  N17  1  0.96862500  0.97412000  0.58533500  1
  N  N18  1  0.46862500  0.52588000  0.41466500  1
  N  N19  1  0.03137500  0.02588000  0.08533500  1
  N  N20  1  0.15162500  0.62853000  0.07618500  1
  N  N21  1  0.34837500  0.12853000  0.42381500  1
  N  N22  1  0.84837500  0.37147000  0.57618500  1
  N  N23  1  0.65162500  0.87147000  0.92381500  1
  N  N24  1  0.84837500  0.37147000  0.92381500  1
  N  N25  1  0.65162500  0.87147000  0.57618500  1
  N  N26  1  0.15162500  0.62853000  0.42381500  1
  N  N27  1  0.34837500  0.12853000  0.07618500  1
  N  N28  1  0.57064800  0.79210600  0.09304600  1
  N  N29  1  0.92935200  0.29210600  0.40695400  1
  N  N30  1  0.42935200  0.20789400  0.59304600  1
  N  N31  1  0.07064800  0.70789400  0.90695400  1
  N  N32  1  0.42935200  0.20789400  0.90695400  1
  N  N33  1  0.07064800  0.70789400  0.59304600  1
  N  N34  1  0.57064800  0.79210600  0.40695400  1
  N  N35  1  0.92935200  0.29210600  0.09304600  1
  N  N36  1  0.97260300  0.77905900  0.25000000  1
  N  N37  1  0.52739700  0.27905900  0.25000000  1
  N  N38  1  0.02739700  0.22094100  0.75000000  1
  N  N39  1  0.47260300  0.72094100  0.75000000  1
  N  N40  1  0.65304500  0.72333500  0.25000000  1
  N  N41  1  0.84695500  0.22333500  0.25000000  1
  N  N42  1  0.34695500  0.27666500  0.75000000  1
  N  N43  1  0.15304500  0.77666500  0.75000000  1
  N  N44  1  0.11031600  0.47865000  0.25000000  1
  N  N45  1  0.38968400  0.97865000  0.25000000  1
  N  N46  1  0.88968400  0.52135000  0.75000000  1
  N  N47  1  0.61031600  0.02135000  0.75000000  1
  O  O48  1  0.39584800  0.70230800  0.00102200  1
  O  O49  1  0.10415200  0.20230800  0.49897800  1
  O  O50  1  0.60415200  0.29769200  0.50102200  1
  O  O51  1  0.89584800  0.79769200  0.99897800  1
  O  O52  1  0.60415200  0.29769200  0.99897800  1
  O  O53  1  0.89584800  0.79769200  0.50102200  1
  O  O54  1  0.39584800  0.70230800  0.49897800  1
  O  O55  1  0.10415200  0.20230800  0.00102200  1
  O  O56  1  0.34473000  0.68201900  0.16870200  1
  O  O57  1  0.15527000  0.18201900  0.33129800  1
  O  O58  1  0.65527000  0.31798100  0.66870200  1
  O  O59  1  0.84473000  0.81798100  0.83129800  1
  O  O60  1  0.65527000  0.31798100  0.83129800  1
  O  O61  1  0.84473000  0.81798100  0.66870200  1
  O  O62  1  0.34473000  0.68201900  0.33129800  1
  O  O63  1  0.15527000  0.18201900  0.16870200  1
  O  O64  1  0.32452300  0.81666700  0.01600600  1
  O  O65  1  0.17547700  0.31666700  0.48399400  1
  O  O66  1  0.67547700  0.18333300  0.51600600  1
  O  O67  1  0.82452300  0.68333300  0.98399400  1
  O  O68  1  0.67547700  0.18333300  0.98399400  1
  O  O69  1  0.82452300  0.68333300  0.51600600  1
  O  O70  1  0.32452300  0.81666700  0.48399400  1
  O  O71  1  0.17547700  0.31666700  0.01600600  1
  O  O72  1  0.28223600  0.79970000  0.15357000  1
  O  O73  1  0.21776400  0.29970000  0.34643000  1
  O  O74  1  0.71776400  0.20030000  0.65357000  1
  O  O75  1  0.78223600  0.70030000  0.84643000  1
  O  O76  1  0.71776400  0.20030000  0.84643000  1
  O  O77  1  0.78223600  0.70030000  0.65357000  1
  O  O78  1  0.28223600  0.79970000  0.34643000  1
  O  O79  1  0.21776400  0.29970000  0.15357000  1
  O  O80  1  0.87208700  0.61255900  0.17061100  1
  O  O81  1  0.62791300  0.11255900  0.32938900  1
  O  O82  1  0.12791300  0.38744100  0.67061100  1
  O  O83  1  0.37208700  0.88744100  0.82938900  1
  O  O84  1  0.12791300  0.38744100  0.82938900  1
  O  O85  1  0.37208700  0.88744100  0.67061100  1
  O  O86  1  0.87208700  0.61255900  0.32938900  1
  O  O87  1  0.62791300  0.11255900  0.17061100  1
  O  O88  1  0.78986000  0.50400000  0.18844100  1
  O  O89  1  0.71014000  0.00400000  0.31155900  1
  O  O90  1  0.21014000  0.49600000  0.68844100  1
  O  O91  1  0.28986000  0.99600000  0.81155900  1
  O  O92  1  0.21014000  0.49600000  0.81155900  1
  O  O93  1  0.28986000  0.99600000  0.68844100  1
  O  O94  1  0.78986000  0.50400000  0.31155900  1
  O  O95  1  0.71014000  0.00400000  0.18844100  1
