# generated using pymatgen
data_K3VMo3H4O15
_symmetry_space_group_name_H-M   'P 1'
_cell_length_a   10.01049759
_cell_length_b   10.01049759
_cell_length_c   9.50735401
_cell_angle_alpha   61.71118334
_cell_angle_beta   61.71118334
_cell_angle_gamma   82.03561332
_symmetry_Int_Tables_number   1
_chemical_formula_structural   K3VMo3H4O15
_chemical_formula_sum   'K6 V2 Mo6 H8 O30'
_cell_volume   734.19002303
_cell_formula_units_Z   2
loop_
 _symmetry_equiv_pos_site_id
 _symmetry_equiv_pos_as_xyz
  1  'x, y, z'
loop_
 _atom_site_type_symbol
 _atom_site_label
 _atom_site_symmetry_multiplicity
 _atom_site_fract_x
 _atom_site_fract_y
 _atom_site_fract_z
 _atom_site_occupancy
  K  K0  1  0.00000000  0.00000000  0.50000000  1
  K  K1  1  0.98342400  0.59051500  0.76863400  1
  K  K2  1  0.59051500  0.98342400  0.76863400  1
  K  K3  1  0.01657600  0.40948500  0.23136600  1
  K  K4  1  0.40948500  0.01657600  0.23136600  1
  K  K5  1  0.50000000  0.50000000  0.00000000  1
  V  V6  1  0.11745800  0.11745800  0.99950600  1
  V  V7  1  0.88254200  0.88254200  0.00049400  1
  Mo  Mo8  1  0.26856500  0.26856500  0.53784300  1
  Mo  Mo9  1  0.73143500  0.73143500  0.46215700  1
  Mo  Mo10  1  0.89311800  0.24060300  0.77461000  1
  Mo  Mo11  1  0.24060300  0.89311800  0.77461000  1
  Mo  Mo12  1  0.10688200  0.75939700  0.22539000  1
  Mo  Mo13  1  0.75939700  0.10688200  0.22539000  1
  H  H14  1  0.25918900  0.42636100  0.81826200  1
  H  H15  1  0.42636100  0.25918900  0.81826200  1
  H  H16  1  0.74081100  0.57363900  0.18173800  1
  H  H17  1  0.57363900  0.74081100  0.18173800  1
  H  H18  1  0.32271700  0.58417200  0.77149300  1
  H  H19  1  0.58417200  0.32271700  0.77149300  1
  H  H20  1  0.67728300  0.41582800  0.22850700  1
  H  H21  1  0.41582800  0.67728300  0.22850700  1
  O  O22  1  0.25371300  0.25371300  0.78686400  1
  O  O23  1  0.74628700  0.74628700  0.21313600  1
  O  O24  1  0.14772900  0.14772900  0.13919800  1
  O  O25  1  0.85227100  0.85227100  0.86080200  1
  O  O26  1  0.86568800  0.20979100  0.62285600  1
  O  O27  1  0.20979100  0.86568800  0.62285600  1
  O  O28  1  0.13431200  0.79020900  0.37714400  1
  O  O29  1  0.79020900  0.13431200  0.37714400  1
  O  O30  1  0.94332800  0.23013400  0.99957600  1
  O  O31  1  0.23013400  0.94332800  0.99957600  1
  O  O32  1  0.05667200  0.76986600  0.00042400  1
  O  O33  1  0.76986700  0.05667200  0.00042400  1
  O  O34  1  0.23579900  0.23579900  0.38874500  1
  O  O35  1  0.76420100  0.76420100  0.61125500  1
  O  O36  1  0.08616800  0.36864700  0.61439700  1
  O  O37  1  0.36864700  0.08616800  0.61439700  1
  O  O38  1  0.91383200  0.63135300  0.38560300  1
  O  O39  1  0.63135300  0.91383200  0.38560300  1
  O  O40  1  0.06260700  0.06260700  0.80874800  1
  O  O41  1  0.93739300  0.93739300  0.19125200  1
  O  O42  1  0.41630000  0.41630000  0.39474000  1
  O  O43  1  0.58370000  0.58370000  0.60526000  1
  O  O44  1  0.77587400  0.38188100  0.80462500  1
  O  O45  1  0.38188100  0.77587400  0.80462500  1
  O  O46  1  0.22412600  0.61811900  0.19537500  1
  O  O47  1  0.61811900  0.22412600  0.19537500  1
  O  O48  1  0.23410100  0.50697500  0.85584400  1
  O  O49  1  0.50697500  0.23410100  0.85584400  1
  O  O50  1  0.76589900  0.49302500  0.14415600  1
  O  O51  1  0.49302500  0.76589900  0.14415600  1
