# generated using pymatgen
data_AsH3C(OF3)2
_symmetry_space_group_name_H-M   'P 1'
_cell_length_a   8.24995500
_cell_length_b   10.30221900
_cell_length_c   15.88693000
_cell_angle_alpha   90.00000000
_cell_angle_beta   90.00000000
_cell_angle_gamma   90.00000000
_symmetry_Int_Tables_number   1
_chemical_formula_structural   AsH3C(OF3)2
_chemical_formula_sum   'As8 H24 C8 O16 F48'
_cell_volume   1350.27534963
_cell_formula_units_Z   8
loop_
 _symmetry_equiv_pos_site_id
 _symmetry_equiv_pos_as_xyz
  1  'x, y, z'
loop_
 _atom_site_type_symbol
 _atom_site_label
 _atom_site_symmetry_multiplicity
 _atom_site_fract_x
 _atom_site_fract_y
 _atom_site_fract_z
 _atom_site_occupancy
  As  As0  1  0.35158600  0.50606000  0.14777300  1
  As  As1  1  0.64841400  0.00606000  0.35222700  1
  As  As2  1  0.14841400  0.49394000  0.64777300  1
  As  As3  1  0.85158600  0.99394000  0.85222700  1
  As  As4  1  0.64841400  0.49394000  0.85222700  1
  As  As5  1  0.35158600  0.99394000  0.64777300  1
  As  As6  1  0.85158600  0.50606000  0.35222700  1
  As  As7  1  0.14841400  0.00606000  0.14777300  1
  H  H8  1  0.25365500  0.82552200  0.50362900  1
  H  H9  1  0.74634500  0.32552200  0.99637100  1
  H  H10  1  0.24634500  0.17447800  0.00362900  1
  H  H11  1  0.75365500  0.67447800  0.49637100  1
  H  H12  1  0.74634500  0.17447800  0.49637100  1
  H  H13  1  0.25365500  0.67447800  0.00362900  1
  H  H14  1  0.75365500  0.82552200  0.99637100  1
  H  H15  1  0.24634500  0.32552200  0.50362900  1
  H  H16  1  0.40996400  0.64202400  0.34725900  1
  H  H17  1  0.59003600  0.14202400  0.15274100  1
  H  H18  1  0.09003600  0.35797600  0.84725900  1
  H  H19  1  0.90996400  0.85797600  0.65274100  1
  H  H20  1  0.59003600  0.35797600  0.65274100  1
  H  H21  1  0.40996400  0.85797600  0.84725900  1
  H  H22  1  0.90996400  0.64202400  0.15274100  1
  H  H23  1  0.09003600  0.14202400  0.34725900  1
  H  H24  1  0.19092400  0.76069900  0.32803200  1
  H  H25  1  0.80907600  0.26069900  0.17196800  1
  H  H26  1  0.30907600  0.23930100  0.82803200  1
  H  H27  1  0.69092400  0.73930100  0.67196800  1
  H  H28  1  0.80907600  0.23930100  0.67196800  1
  H  H29  1  0.19092400  0.73930100  0.82803200  1
  H  H30  1  0.69092400  0.76069900  0.17196800  1
  H  H31  1  0.30907600  0.26069900  0.32803200  1
  C  C32  1  0.25177000  0.75733400  0.38911600  1
  C  C33  1  0.74823000  0.25733400  0.11088400  1
  C  C34  1  0.24823000  0.24266600  0.88911600  1
  C  C35  1  0.75177000  0.74266600  0.61088400  1
  C  C36  1  0.74823000  0.24266600  0.61088400  1
  C  C37  1  0.25177000  0.74266600  0.88911600  1
  C  C38  1  0.75177000  0.75733400  0.11088400  1
  C  C39  1  0.24823000  0.25733400  0.38911600  1
  O  O40  1  0.19117600  0.82537900  0.44796000  1
  O  O41  1  0.80882400  0.32537900  0.05204000  1
  O  O42  1  0.30882400  0.17462100  0.94796000  1
  O  O43  1  0.69117600  0.67462100  0.55204000  1
  O  O44  1  0.80882400  0.17462100  0.55204000  1
  O  O45  1  0.19117600  0.67462100  0.94796000  1
  O  O46  1  0.69117600  0.82537900  0.05204000  1
  O  O47  1  0.30882400  0.32537900  0.44796000  1
  O  O48  1  0.38016300  0.68861600  0.40013600  1
  O  O49  1  0.61983700  0.18861600  0.09986400  1
  O  O50  1  0.11983700  0.31138400  0.90013600  1
  O  O51  1  0.88016300  0.81138400  0.59986400  1
  O  O52  1  0.61983700  0.31138400  0.59986400  1
  O  O53  1  0.38016300  0.81138400  0.90013600  1
  O  O54  1  0.88016300  0.68861600  0.09986400  1
  O  O55  1  0.11983700  0.18861600  0.40013600  1
  F  F56  1  0.34360300  0.65428200  0.08581500  1
  F  F57  1  0.65639700  0.15428200  0.41418500  1
  F  F58  1  0.15639700  0.34571800  0.58581500  1
  F  F59  1  0.84360300  0.84571800  0.91418500  1
  F  F60  1  0.65639700  0.34571800  0.91418500  1
  F  F61  1  0.34360300  0.84571800  0.58581500  1
  F  F62  1  0.84360300  0.65428200  0.41418500  1
  F  F63  1  0.15639700  0.15428200  0.08581500  1
  F  F64  1  0.34242600  0.41332700  0.05498500  1
  F  F65  1  0.65757400  0.91332700  0.44501500  1
  F  F66  1  0.15757400  0.58667300  0.55498500  1
  F  F67  1  0.84242600  0.08667300  0.94501500  1
  F  F68  1  0.65757400  0.58667300  0.94501500  1
  F  F69  1  0.34242600  0.08667300  0.55498500  1
  F  F70  1  0.84242600  0.41332700  0.44501500  1
  F  F71  1  0.15757400  0.91332700  0.05498500  1
  F  F72  1  0.36508000  0.36676800  0.21131200  1
  F  F73  1  0.63492000  0.86676800  0.28868800  1
  F  F74  1  0.13492000  0.63323200  0.71131200  1
  F  F75  1  0.86508000  0.13323200  0.78868800  1
  F  F76  1  0.63492000  0.63323200  0.78868800  1
  F  F77  1  0.36508000  0.13323200  0.71131200  1
  F  F78  1  0.86508000  0.36676800  0.28868800  1
  F  F79  1  0.13492000  0.86676800  0.21131200  1
  F  F80  1  0.36127200  0.60776900  0.23929200  1
  F  F81  1  0.63872800  0.10776900  0.26070800  1
  F  F82  1  0.13872800  0.39223100  0.73929200  1
  F  F83  1  0.86127200  0.89223100  0.76070800  1
  F  F84  1  0.63872800  0.39223100  0.76070800  1
  F  F85  1  0.36127200  0.89223100  0.73929200  1
  F  F86  1  0.86127200  0.60776900  0.26070800  1
  F  F87  1  0.13872800  0.10776900  0.23929200  1
  F  F88  1  0.56515500  0.51271300  0.13967100  1
  F  F89  1  0.43484500  0.01271300  0.36032900  1
  F  F90  1  0.93484500  0.48728700  0.63967100  1
  F  F91  1  0.06515500  0.98728700  0.86032900  1
  F  F92  1  0.43484500  0.48728700  0.86032900  1
  F  F93  1  0.56515500  0.98728700  0.63967100  1
  F  F94  1  0.06515500  0.51271300  0.36032900  1
  F  F95  1  0.93484500  0.01271300  0.13967100  1
  F  F96  1  0.13831800  0.50693100  0.15376800  1
  F  F97  1  0.86168200  0.00693100  0.34623200  1
  F  F98  1  0.36168200  0.49306900  0.65376800  1
  F  F99  1  0.63831800  0.99306900  0.84623200  1
  F  F100  1  0.86168200  0.49306900  0.84623200  1
  F  F101  1  0.13831800  0.99306900  0.65376800  1
  F  F102  1  0.63831800  0.50693100  0.34623200  1
  F  F103  1  0.36168200  0.00693100  0.15376800  1
