# generated using pymatgen
data_WO3
_symmetry_space_group_name_H-M   'P 1'
_cell_length_a   7.56772700
_cell_length_b   7.65911147
_cell_length_c   7.68231848
_cell_angle_alpha   89.06676712
_cell_angle_beta   89.32060751
_cell_angle_gamma   89.30809005
_symmetry_Int_Tables_number   1
_chemical_formula_structural   WO3
_chemical_formula_sum   'W8 O24'
_cell_volume   445.16123153
_cell_formula_units_Z   8
loop_
 _symmetry_equiv_pos_site_id
 _symmetry_equiv_pos_as_xyz
  1  'x, y, z'
loop_
 _atom_site_type_symbol
 _atom_site_label
 _atom_site_symmetry_multiplicity
 _atom_site_fract_x
 _atom_site_fract_y
 _atom_site_fract_z
 _atom_site_occupancy
  W  W0  1  0.74774100  0.01564800  0.26715000  1
  W  W1  1  0.25225900  0.98435200  0.73285000  1
  W  W2  1  0.75020200  0.51670000  0.23341800  1
  W  W3  1  0.24979800  0.48330000  0.76658200  1
  W  W4  1  0.75222300  0.01831000  0.76538400  1
  W  W5  1  0.24777700  0.98169000  0.23461600  1
  W  W6  1  0.75014700  0.51884700  0.73499500  1
  W  W7  1  0.24985300  0.48115300  0.26500500  1
  O  O8  1  0.99985700  0.02967600  0.21349500  1
  O  O9  1  0.00014300  0.97032400  0.78650500  1
  O  O10  1  0.49855100  0.53044500  0.21564800  1
  O  O11  1  0.50144900  0.46955500  0.78435200  1
  O  O12  1  0.99802500  0.46769900  0.28453400  1
  O  O13  1  0.00197500  0.53230100  0.71546600  1
  O  O14  1  0.50011200  0.96864800  0.28469100  1
  O  O15  1  0.49988800  0.03135200  0.71530900  1
  O  O16  1  0.71929100  0.25729000  0.27524500  1
  O  O17  1  0.28070900  0.74271000  0.72475500  1
  O  O18  1  0.78163400  0.75746900  0.22401900  1
  O  O19  1  0.21836600  0.24253100  0.77598100  1
  O  O20  1  0.78116600  0.25779700  0.72521100  1
  O  O21  1  0.21883400  0.74220300  0.27478900  1
  O  O22  1  0.71840800  0.75772400  0.77548700  1
  O  O23  1  0.28159200  0.24227600  0.22451300  1
  O  O24  1  0.71452800  0.03560300  0.00328500  1
  O  O25  1  0.28547200  0.96439700  0.99671500  1
  O  O26  1  0.71609900  0.53510700  0.49696200  1
  O  O27  1  0.28390100  0.46489300  0.50303800  1
  O  O28  1  0.78493700  0.48466800  0.99633100  1
  O  O29  1  0.21506300  0.51533200  0.00366900  1
  O  O30  1  0.78594900  0.98479900  0.50355800  1
  O  O31  1  0.21405100  0.01520100  0.49644200  1
