# generated using pymatgen
data_CaCO3
_symmetry_space_group_name_H-M   'P 1'
_cell_length_a   7.22808400
_cell_length_b   7.26345356
_cell_length_c   26.00444062
_cell_angle_alpha   82.20230341
_cell_angle_beta   82.35132484
_cell_angle_gamma   60.19834816
_symmetry_Int_Tables_number   1
_chemical_formula_structural   CaCO3
_chemical_formula_sum   'Ca18 C18 O54'
_cell_volume   1170.31828057
_cell_formula_units_Z   18
loop_
 _symmetry_equiv_pos_site_id
 _symmetry_equiv_pos_as_xyz
  1  'x, y, z'
loop_
 _atom_site_type_symbol
 _atom_site_label
 _atom_site_symmetry_multiplicity
 _atom_site_fract_x
 _atom_site_fract_y
 _atom_site_fract_z
 _atom_site_occupancy
  Ca  Ca0  1  0.35359600  0.34690600  0.49993000  1
  Ca  Ca1  1  0.64640400  0.65309400  0.50007000  1
  Ca  Ca2  1  0.62048800  0.58048500  0.66621200  1
  Ca  Ca3  1  0.37951200  0.41951500  0.33378800  1
  Ca  Ca4  1  0.92378500  0.97874300  0.66714800  1
  Ca  Ca5  1  0.07621500  0.02125700  0.33285200  1
  Ca  Ca6  1  0.88750600  0.88812700  0.83260200  1
  Ca  Ca7  1  0.11249400  0.11187300  0.16739800  1
  Ca  Ca8  1  0.27224900  0.27049400  0.66666900  1
  Ca  Ca9  1  0.72775100  0.72950600  0.33333100  1
  Ca  Ca10  1  0.58168700  0.53733300  0.83373200  1
  Ca  Ca11  1  0.41831300  0.46266700  0.16626800  1
  Ca  Ca12  1  0.19050100  0.23230800  0.83339800  1
  Ca  Ca13  1  0.80949900  0.76769200  0.16660200  1
  Ca  Ca14  1  0.15089900  0.20105600  0.99873100  1
  Ca  Ca15  1  0.84910100  0.79894400  0.00126900  1
  Ca  Ca16  1  0.00000000  0.00000000  0.50000000  1
  Ca  Ca17  1  0.50000000  0.50000000  0.00000000  1
  C  C18  1  0.91287200  0.61516500  0.74638400  1
  C  C19  1  0.08712800  0.38483500  0.25361600  1
  C  C20  1  0.54161900  0.24432700  0.75442500  1
  C  C21  1  0.45838100  0.75567300  0.24557500  1
  C  C22  1  0.63667300  0.93368200  0.58455200  1
  C  C23  1  0.36332700  0.06631800  0.41544800  1
  C  C24  1  0.28592800  0.87361100  0.74929900  1
  C  C25  1  0.71407200  0.12638900  0.25070100  1
  C  C26  1  0.01560000  0.30282600  0.57804500  1
  C  C27  1  0.98440000  0.69717400  0.42195500  1
  C  C28  1  0.23113000  0.53187200  0.91091900  1
  C  C29  1  0.76887000  0.46812800  0.08908100  1
  C  C30  1  0.85914000  0.14543000  0.92117800  1
  C  C31  1  0.14086000  0.85457000  0.07882200  1
  C  C32  1  0.26014600  0.67914700  0.58786300  1
  C  C33  1  0.73985400  0.32085300  0.41213700  1
  C  C34  1  0.50759800  0.10360100  0.08377300  1
  C  C35  1  0.49240200  0.89639900  0.91622700  1
  O  O36  1  0.65702400  0.03751200  0.54126000  1
  O  O37  1  0.34297600  0.96248800  0.45874000  1
  O  O38  1  0.87316400  0.25025400  0.87766300  1
  O  O39  1  0.12683600  0.74974600  0.12233700  1
  O  O40  1  0.22020100  0.97243400  0.70407800  1
  O  O41  1  0.77979900  0.02756600  0.29592200  1
  O  O42  1  0.08757700  0.86281500  0.58600200  1
  O  O43  1  0.91242300  0.13718500  0.41399800  1
  O  O44  1  0.60591100  0.22636500  0.80016100  1
  O  O45  1  0.39408900  0.77363500  0.19983900  1
  O  O46  1  0.19866100  0.29213400  0.58061700  1
  O  O47  1  0.80133900  0.70786600  0.41938300  1
  O  O48  1  0.36473400  0.60399900  0.54425600  1
  O  O49  1  0.63526600  0.39600100  0.45574400  1
  O  O50  1  0.90511200  0.29519700  0.62102700  1
  O  O51  1  0.09488800  0.70480300  0.37897300  1
  O  O52  1  0.32269200  0.57721300  0.63266800  1
  O  O53  1  0.67730800  0.42278700  0.36733200  1
  O  O54  1  0.59028100  0.82559200  0.87149600  1
  O  O55  1  0.40971900  0.17440800  0.12850400  1
  O  O56  1  0.94974700  0.32054100  0.53255600  1
  O  O57  1  0.05025300  0.67945900  0.46744400  1
  O  O58  1  0.17670400  0.54619400  0.86417700  1
  O  O59  1  0.82329600  0.45380600  0.13582300  1
  O  O60  1  0.93048000  0.54390000  0.70179600  1
  O  O61  1  0.06952000  0.45610000  0.29820400  1
  O  O62  1  0.18143700  0.95074400  0.79286400  1
  O  O63  1  0.81856300  0.04925600  0.20713600  1
  O  O64  1  0.11803600  0.51472500  0.95221900  1
  O  O65  1  0.88196400  0.48527500  0.04778100  1
  O  O66  1  0.90868500  0.79552700  0.74753900  1
  O  O67  1  0.09131500  0.20447300  0.25246100  1
  O  O68  1  0.62037400  0.99926700  0.63006800  1
  O  O69  1  0.37962600  0.00073300  0.36993200  1
  O  O70  1  0.83843800  0.21544700  0.96617700  1
  O  O71  1  0.16156200  0.78455300  0.03382300  1
  O  O72  1  0.63217300  0.75806400  0.58280600  1
  O  O73  1  0.36782700  0.24193600  0.41719400  1
  O  O74  1  0.31550900  0.07698700  0.91658000  1
  O  O75  1  0.68449100  0.92301300  0.08342000  1
  O  O76  1  0.36407400  0.24455400  0.75134100  1
  O  O77  1  0.63592600  0.75544600  0.24865900  1
  O  O78  1  0.86619300  0.96462000  0.91926400  1
  O  O79  1  0.13380700  0.03538000  0.08073600  1
  O  O80  1  0.64995400  0.26126200  0.71193700  1
  O  O81  1  0.35004600  0.73873800  0.28806300  1
  O  O82  1  0.46146600  0.69240200  0.75043100  1
  O  O83  1  0.53853400  0.30759800  0.24956900  1
  O  O84  1  0.56527400  0.79294400  0.96043300  1
  O  O85  1  0.43472600  0.20705600  0.03956700  1
  O  O86  1  0.89909200  0.51208000  0.79007200  1
  O  O87  1  0.10090800  0.48792000  0.20992800  1
  O  O88  1  0.40616500  0.53465600  0.91587200  1
  O  O89  1  0.59383500  0.46534400  0.08412800  1
