# generated using pymatgen
data_Rb4Mo5H4Se2O23
_symmetry_space_group_name_H-M   'P 1'
_cell_length_a   10.46502800
_cell_length_b   11.37207737
_cell_length_c   12.45882731
_cell_angle_alpha   104.51984306
_cell_angle_beta   90.00000000
_cell_angle_gamma   117.39481575
_symmetry_Int_Tables_number   1
_chemical_formula_structural   Rb4Mo5H4Se2O23
_chemical_formula_sum   'Rb8 Mo10 H8 Se4 O46'
_cell_volume   1262.86143844
_cell_formula_units_Z   2
loop_
 _symmetry_equiv_pos_site_id
 _symmetry_equiv_pos_as_xyz
  1  'x, y, z'
loop_
 _atom_site_type_symbol
 _atom_site_label
 _atom_site_symmetry_multiplicity
 _atom_site_fract_x
 _atom_site_fract_y
 _atom_site_fract_z
 _atom_site_occupancy
  Rb  Rb0  1  0.02472900  0.35407100  0.76859500  1
  Rb  Rb1  1  0.67065900  0.64592900  0.23140500  1
  Rb  Rb2  1  0.66468800  0.02109500  0.24815500  1
  Rb  Rb3  1  0.64359300  0.97890500  0.75184500  1
  Rb  Rb4  1  0.25808700  0.64088600  0.09562400  1
  Rb  Rb5  1  0.61720100  0.35911400  0.90437600  1
  Rb  Rb6  1  0.07885300  0.37408600  0.40637600  1
  Rb  Rb7  1  0.70476600  0.62591400  0.59362400  1
  Mo  Mo8  1  0.30880100  0.00000000  0.00000000  1
  Mo  Mo9  1  0.26180900  0.28913300  0.09862000  1
  Mo  Mo10  1  0.97267500  0.71086700  0.90138000  1
  Mo  Mo11  1  0.90407600  0.19403700  0.03554800  1
  Mo  Mo12  1  0.71003900  0.80596300  0.96445200  1
  Mo  Mo13  1  0.35140100  0.28366900  0.61789000  1
  Mo  Mo14  1  0.06773200  0.71633100  0.38211000  1
  Mo  Mo15  1  0.62090800  0.19460500  0.55369500  1
  Mo  Mo16  1  0.42630300  0.80539500  0.44630500  1
  Mo  Mo17  1  0.01818600  0.00000000  0.50000000  1
  H  H18  1  0.05212100  0.59169200  0.63776500  1
  H  H19  1  0.46043000  0.40830800  0.36223500  1
  H  H20  1  0.21382800  0.62762800  0.63989800  1
  H  H21  1  0.58620000  0.37237200  0.36010200  1
  H  H22  1  0.38336300  0.61192400  0.83209200  1
  H  H23  1  0.77143900  0.38807600  0.16790800  1
  H  H24  1  0.28707600  0.68426400  0.84153000  1
  H  H25  1  0.60281200  0.31573600  0.15847000  1
  Se  Se26  1  0.02551000  0.98483200  0.16731200  1
  Se  Se27  1  0.04067800  0.01516800  0.83268800  1
  Se  Se28  1  0.31478900  0.03872000  0.33933200  1
  Se  Se29  1  0.27606900  0.96128000  0.66066800  1
  O  O30  1  0.11660100  0.55028100  0.63140400  1
  O  O31  1  0.56631900  0.44971900  0.36859600  1
  O  O32  1  0.84293400  0.88793900  0.14255600  1
  O  O33  1  0.95499500  0.11206100  0.85744400  1
  O  O34  1  0.29144400  0.60538200  0.85514200  1
  O  O35  1  0.68606200  0.39461800  0.14485800  1
  O  O36  1  0.08659400  0.89209300  0.06615200  1
  O  O37  1  0.19450100  0.10790700  0.93384800  1
  O  O38  1  0.04625100  0.12092300  0.11353200  1
  O  O39  1  0.92532800  0.87907700  0.88646800  1
  O  O40  1  0.49669100  0.13830500  0.37542700  1
  O  O41  1  0.35838600  0.86169500  0.62457300  1
  O  O42  1  0.24565500  0.11630300  0.44505800  1
  O  O43  1  0.12935200  0.88369700  0.55494200  1
  O  O44  1  0.28571200  0.88853500  0.37443400  1
  O  O45  1  0.39717700  0.11146500  0.62556600  1
  O  O46  1  0.10958300  0.32480500  0.04443900  1
  O  O47  1  0.78477700  0.67519500  0.95556100  1
  O  O48  1  0.33725500  0.16378900  0.11850600  1
  O  O49  1  0.17346500  0.83621100  0.88149400  1
  O  O50  1  0.82541300  0.25570000  0.95589800  1
  O  O51  1  0.56971400  0.74430000  0.04410200  1
  O  O52  1  0.40520600  0.40245600  0.04361000  1
  O  O53  1  0.00275000  0.59754400  0.95639000  1
  O  O54  1  0.14810200  0.15213000  0.62856100  1
  O  O55  1  0.99597200  0.84787000  0.37143900  1
  O  O56  1  0.32604700  0.39629100  0.55853600  1
  O  O57  1  0.92975600  0.60370900  0.44146400  1
  O  O58  1  0.86900000  0.25314500  0.17140300  1
  O  O59  1  0.61585600  0.74685500  0.82859700  1
  O  O60  1  0.54866900  0.32762700  0.57807200  1
  O  O61  1  0.22104200  0.67237300  0.42192800  1
  O  O62  1  0.56673400  0.00000000  0.50000000  1
  O  O63  1  0.70406700  0.22969300  0.68943700  1
  O  O64  1  0.47437400  0.77030700  0.31056300  1
  O  O65  1  0.95667400  0.08266100  0.42855300  1
  O  O66  1  0.87401300  0.91733900  0.57144700  1
  O  O67  1  0.44611600  0.06808700  0.91857100  1
  O  O68  1  0.37802900  0.93191300  0.08142900  1
  O  O69  1  0.28998600  0.37818400  0.24057400  1
  O  O70  1  0.91180200  0.62181600  0.75942600  1
  O  O71  1  0.39757100  0.36921800  0.76044800  1
  O  O72  1  0.02835300  0.63078200  0.23955200  1
  O  O73  1  0.76991000  0.26816100  0.48485600  1
  O  O74  1  0.50174900  0.73183900  0.51514400  1
  O  O75  1  0.75866500  0.00000000  0.00000000  1
