# generated using pymatgen
data_K3ZrC7O16
_symmetry_space_group_name_H-M   'P 1'
_cell_length_a   13.68948400
_cell_length_b   9.16616500
_cell_length_c   15.60686029
_cell_angle_alpha   58.37750113
_cell_angle_beta   90.00000000
_cell_angle_gamma   90.00000000
_symmetry_Int_Tables_number   1
_chemical_formula_structural   K3ZrC7O16
_chemical_formula_sum   'K12 Zr4 C28 O64'
_cell_volume   1667.57628751
_cell_formula_units_Z   4
loop_
 _symmetry_equiv_pos_site_id
 _symmetry_equiv_pos_as_xyz
  1  'x, y, z'
loop_
 _atom_site_type_symbol
 _atom_site_label
 _atom_site_symmetry_multiplicity
 _atom_site_fract_x
 _atom_site_fract_y
 _atom_site_fract_z
 _atom_site_occupancy
  K  K0  1  0.23633800  0.70501900  0.47071400  1
  K  K1  1  0.26366200  0.70501900  0.97071400  1
  K  K2  1  0.76366200  0.29498100  0.52928600  1
  K  K3  1  0.73633800  0.29498100  0.02928600  1
  K  K4  1  0.97904000  0.96470200  0.80573400  1
  K  K5  1  0.52096000  0.96470200  0.30573400  1
  K  K6  1  0.02096000  0.03529800  0.19426600  1
  K  K7  1  0.47904000  0.03529800  0.69426600  1
  K  K8  1  0.77718300  0.68142700  0.74839300  1
  K  K9  1  0.72281700  0.68142700  0.24839300  1
  K  K10  1  0.22281700  0.31857300  0.25160700  1
  K  K11  1  0.27718300  0.31857300  0.75160700  1
  Zr  Zr12  1  0.07324800  0.67673600  0.69118600  1
  Zr  Zr13  1  0.42675200  0.67673600  0.19118600  1
  Zr  Zr14  1  0.92675200  0.32326400  0.30881400  1
  Zr  Zr15  1  0.57324800  0.32326400  0.80881400  1
  C  C16  1  0.96970400  0.49478800  0.89686100  1
  C  C17  1  0.53029600  0.49478800  0.39686100  1
  C  C18  1  0.03029600  0.50521200  0.10313900  1
  C  C19  1  0.46970400  0.50521200  0.60313900  1
  C  C20  1  0.05954000  0.38010300  0.91248500  1
  C  C21  1  0.44046000  0.38010300  0.41248500  1
  C  C22  1  0.94046000  0.61989700  0.08751500  1
  C  C23  1  0.55954000  0.61989700  0.58751500  1
  C  C24  1  0.03391300  0.40872200  0.63300700  1
  C  C25  1  0.46608700  0.40872200  0.13300700  1
  C  C26  1  0.96608700  0.59127800  0.36699300  1
  C  C27  1  0.53391300  0.59127800  0.86699300  1
  C  C28  1  0.93267800  0.49233700  0.62541700  1
  C  C29  1  0.56732200  0.49233700  0.12541700  1
  C  C30  1  0.06732200  0.50766300  0.37458300  1
  C  C31  1  0.43267800  0.50766300  0.87458300  1
  C  C32  1  0.23430600  0.87624200  0.72766600  1
  C  C33  1  0.26569400  0.87624200  0.22766600  1
  C  C34  1  0.76569400  0.12375800  0.27233400  1
  C  C35  1  0.73430600  0.12375800  0.77233400  1
  C  C36  1  0.29031500  0.78378200  0.68206100  1
  C  C37  1  0.20968500  0.78378200  0.18206100  1
  C  C38  1  0.70968500  0.21621800  0.31793900  1
  C  C39  1  0.79031500  0.21621800  0.81793900  1
  C  C40  1  0.03509300  0.98163600  0.46852400  1
  C  C41  1  0.46490700  0.98163600  0.96852400  1
  C  C42  1  0.96490700  0.01836400  0.53147600  1
  C  C43  1  0.53509300  0.01836400  0.03147600  1
  O  O44  1  0.97185700  0.64120800  0.81139000  1
  O  O45  1  0.52814300  0.64120800  0.31139000  1
  O  O46  1  0.02814300  0.35879200  0.18861000  1
  O  O47  1  0.47185700  0.35879200  0.68861000  1
  O  O48  1  0.90305800  0.44819700  0.95920700  1
  O  O49  1  0.59694200  0.44819700  0.45920700  1
  O  O50  1  0.09694200  0.55180300  0.04079300  1
  O  O51  1  0.40305800  0.55180300  0.54079300  1
  O  O52  1  0.11230300  0.44105300  0.83044200  1
  O  O53  1  0.38769700  0.44105300  0.33044200  1
  O  O54  1  0.88769700  0.55894700  0.16955800  1
  O  O55  1  0.61230300  0.55894700  0.66955800  1
  O  O56  1  0.07554400  0.24804200  0.99375300  1
  O  O57  1  0.42445600  0.24804200  0.49375300  1
  O  O58  1  0.92445600  0.75195800  0.00624700  1
  O  O59  1  0.57554400  0.75195800  0.50624700  1
  O  O60  1  0.10642400  0.49240700  0.64304900  1
  O  O61  1  0.39357600  0.49240700  0.14304900  1
  O  O62  1  0.89357600  0.50759300  0.35695100  1
  O  O63  1  0.60642400  0.50759300  0.85695100  1
  O  O64  1  0.04169900  0.27520600  0.63252200  1
  O  O65  1  0.45830100  0.27520600  0.13252200  1
  O  O66  1  0.95830100  0.72479400  0.36747800  1
  O  O67  1  0.54169900  0.72479400  0.86747800  1
  O  O68  1  0.93580000  0.60499100  0.65265900  1
  O  O69  1  0.56420000  0.60499100  0.15265900  1
  O  O70  1  0.06420000  0.39500900  0.34734100  1
  O  O71  1  0.43580000  0.39500900  0.84734100  1
  O  O72  1  0.85845300  0.45070400  0.59907000  1
  O  O73  1  0.64154700  0.45070400  0.09907000  1
  O  O74  1  0.14154700  0.54929600  0.40093000  1
  O  O75  1  0.35845300  0.54929600  0.90093000  1
  O  O76  1  0.14122400  0.84254200  0.73890600  1
  O  O77  1  0.35877600  0.84254200  0.23890600  1
  O  O78  1  0.85877600  0.15745800  0.26109400  1
  O  O79  1  0.64122400  0.15745800  0.76109400  1
  O  O80  1  0.27767400  0.96753200  0.75261000  1
  O  O81  1  0.22232600  0.96753200  0.25261000  1
  O  O82  1  0.72232600  0.03246800  0.24739000  1
  O  O83  1  0.77767400  0.03246800  0.74739000  1
  O  O84  1  0.23347000  0.68665700  0.66513500  1
  O  O85  1  0.26653000  0.68665700  0.16513500  1
  O  O86  1  0.76653000  0.31334300  0.33486500  1
  O  O87  1  0.73347000  0.31334300  0.83486500  1
  O  O88  1  0.37872500  0.80384600  0.66504500  1
  O  O89  1  0.12127500  0.80384600  0.16504500  1
  O  O90  1  0.62127500  0.19615400  0.33495500  1
  O  O91  1  0.87872500  0.19615400  0.83495500  1
  O  O92  1  0.09190900  0.85499200  0.51784900  1
  O  O93  1  0.40809100  0.85499200  0.01784900  1
  O  O94  1  0.90809100  0.14500800  0.48215100  1
  O  O95  1  0.59190900  0.14500800  0.98215100  1
  O  O96  1  0.03090900  0.08098700  0.37400800  1
  O  O97  1  0.46909100  0.08098700  0.87400800  1
  O  O98  1  0.96909100  0.91901300  0.62599200  1
  O  O99  1  0.53090900  0.91901300  0.12599200  1
  O  O100  1  0.18712000  0.02892100  0.94136000  1
  O  O101  1  0.31288000  0.02892100  0.44136000  1
  O  O102  1  0.81288000  0.97107900  0.05864000  1
  O  O103  1  0.68712000  0.97107900  0.55864000  1
  O  O104  1  0.26654400  0.10116100  0.47670200  1
  O  O105  1  0.23345600  0.10116100  0.97670200  1
  O  O106  1  0.73345600  0.89883900  0.52329800  1
  O  O107  1  0.76654400  0.89883900  0.02329800  1
