# generated using pymatgen
data_Ca(BO4)2
_symmetry_space_group_name_H-M   'P 1'
_cell_length_a   5.61445600
_cell_length_b   7.88146700
_cell_length_c   12.77706800
_cell_angle_alpha   90.00000000
_cell_angle_beta   90.00000000
_cell_angle_gamma   90.00000000
_symmetry_Int_Tables_number   1
_chemical_formula_structural   Ca(BO4)2
_chemical_formula_sum   'Ca4 B8 O32'
_cell_volume   565.38717156
_cell_formula_units_Z   4
loop_
 _symmetry_equiv_pos_site_id
 _symmetry_equiv_pos_as_xyz
  1  'x, y, z'
loop_
 _atom_site_type_symbol
 _atom_site_label
 _atom_site_symmetry_multiplicity
 _atom_site_fract_x
 _atom_site_fract_y
 _atom_site_fract_z
 _atom_site_occupancy
  Ca  Ca0  1  0.00000000  0.00000000  0.72060100  1
  Ca  Ca1  1  0.00000000  0.00000000  0.27939900  1
  Ca  Ca2  1  0.00000000  0.50000000  0.77939900  1
  Ca  Ca3  1  0.00000000  0.50000000  0.22060100  1
  B  B4  1  0.71593400  0.20831400  0.89239200  1
  B  B5  1  0.71593400  0.79168600  0.10760800  1
  B  B6  1  0.28406600  0.20831400  0.10760800  1
  B  B7  1  0.28406600  0.79168600  0.89239200  1
  B  B8  1  0.28406600  0.29168600  0.60760800  1
  B  B9  1  0.28406600  0.70831400  0.39239200  1
  B  B10  1  0.71593400  0.29168600  0.39239200  1
  B  B11  1  0.71593400  0.70831400  0.60760800  1
  O  O12  1  0.96934300  0.19020900  0.87859800  1
  O  O13  1  0.96934300  0.80979100  0.12140200  1
  O  O14  1  0.03065700  0.19020900  0.12140200  1
  O  O15  1  0.03065700  0.80979100  0.87859800  1
  O  O16  1  0.03065700  0.30979100  0.62140200  1
  O  O17  1  0.03065700  0.69020900  0.37859800  1
  O  O18  1  0.96934300  0.30979100  0.37859800  1
  O  O19  1  0.96934300  0.69020900  0.62140200  1
  O  O20  1  0.62023600  0.14438800  0.00092000  1
  O  O21  1  0.62023600  0.85561200  0.99908000  1
  O  O22  1  0.37976400  0.14438800  0.99908000  1
  O  O23  1  0.37976400  0.85561200  0.00092000  1
  O  O24  1  0.37976400  0.35561200  0.49908000  1
  O  O25  1  0.37976400  0.64438800  0.50092000  1
  O  O26  1  0.62023600  0.35561200  0.50092000  1
  O  O27  1  0.62023600  0.64438800  0.49908000  1
  O  O28  1  0.62986300  0.11990400  0.80392400  1
  O  O29  1  0.62986300  0.88009600  0.19607600  1
  O  O30  1  0.37013700  0.11990400  0.19607600  1
  O  O31  1  0.37013700  0.88009600  0.80392400  1
  O  O32  1  0.37013700  0.38009600  0.69607600  1
  O  O33  1  0.37013700  0.61990400  0.30392400  1
  O  O34  1  0.62986300  0.38009600  0.30392400  1
  O  O35  1  0.62986300  0.61990400  0.69607600  1
  O  O36  1  0.70571200  0.38784900  0.88988100  1
  O  O37  1  0.70571200  0.61215100  0.11011900  1
  O  O38  1  0.29428800  0.38784900  0.11011900  1
  O  O39  1  0.29428800  0.61215100  0.88988100  1
  O  O40  1  0.29428800  0.11215100  0.61011900  1
  O  O41  1  0.29428800  0.88784900  0.38988100  1
  O  O42  1  0.70571200  0.11215100  0.38988100  1
  O  O43  1  0.70571200  0.88784900  0.61011900  1
