# generated using pymatgen
data_Cu2As(HO3)2
_symmetry_space_group_name_H-M   'P 1'
_cell_length_a   5.41032200
_cell_length_b   9.06408348
_cell_length_c   9.94258793
_cell_angle_alpha   74.59639578
_cell_angle_beta   82.22515558
_cell_angle_gamma   79.42552586
_symmetry_Int_Tables_number   1
_chemical_formula_structural   Cu2As(HO3)2
_chemical_formula_sum   'Cu8 As4 H8 O24'
_cell_volume   460.15266579
_cell_formula_units_Z   4
loop_
 _symmetry_equiv_pos_site_id
 _symmetry_equiv_pos_as_xyz
  1  'x, y, z'
loop_
 _atom_site_type_symbol
 _atom_site_label
 _atom_site_symmetry_multiplicity
 _atom_site_fract_x
 _atom_site_fract_y
 _atom_site_fract_z
 _atom_site_occupancy
  Cu  Cu0  1  0.76672300  0.49185300  0.74667500  1
  Cu  Cu1  1  0.23327700  0.50814700  0.25332500  1
  Cu  Cu2  1  0.00000000  0.50000000  0.00000000  1
  Cu  Cu3  1  0.50000000  0.50000000  0.50000000  1
  Cu  Cu4  1  0.13634400  0.10429500  0.87164600  1
  Cu  Cu5  1  0.86365600  0.89570500  0.12835400  1
  Cu  Cu6  1  0.41320800  0.00189500  0.36373600  1
  Cu  Cu7  1  0.58679200  0.99810500  0.63626400  1
  As  As8  1  0.58977700  0.24713200  0.04133200  1
  As  As9  1  0.41022300  0.75286800  0.95866800  1
  As  As10  1  0.06987100  0.24691200  0.54100400  1
  As  As11  1  0.93012900  0.75308800  0.45899600  1
  H  H12  1  0.48062500  0.31444700  0.72973100  1
  H  H13  1  0.51937500  0.68555300  0.27026900  1
  H  H14  1  0.19147800  0.53211800  0.75799200  1
  H  H15  1  0.80852200  0.46788200  0.24200800  1
  H  H16  1  0.60402500  0.06956700  0.84727500  1
  H  H17  1  0.39597500  0.93043300  0.15272500  1
  H  H18  1  0.16070000  0.15429700  0.19206500  1
  H  H19  1  0.83930000  0.84570300  0.80793500  1
  O  O20  1  0.29690100  0.25337200  0.99306300  1
  O  O21  1  0.70309900  0.74662800  0.00693700  1
  O  O22  1  0.59938700  0.23548400  0.21138200  1
  O  O23  1  0.40061300  0.76451600  0.78861800  1
  O  O24  1  0.72975300  0.41048400  0.94375400  1
  O  O25  1  0.27024700  0.58951600  0.05624600  1
  O  O26  1  0.79844000  0.09161500  0.98139600  1
  O  O27  1  0.20156000  0.90838500  0.01860400  1
  O  O28  1  0.04151600  0.26702700  0.71227400  1
  O  O29  1  0.95848400  0.73297300  0.28772600  1
  O  O30  1  0.78355800  0.25811000  0.49018900  1
  O  O31  1  0.21644200  0.74189000  0.50981100  1
  O  O32  1  0.29586900  0.08032500  0.52917700  1
  O  O33  1  0.70413100  0.91967500  0.47082300  1
  O  O34  1  0.22256100  0.40615900  0.44779400  1
  O  O35  1  0.77743900  0.59384100  0.55220600  1
  O  O36  1  0.47892700  0.42829600  0.70081100  1
  O  O37  1  0.52107300  0.57170400  0.29918900  1
  O  O38  1  0.02253800  0.57364000  0.79972500  1
  O  O39  1  0.97746200  0.42636000  0.20027500  1
  O  O40  1  0.47175200  0.09664700  0.78029900  1
  O  O41  1  0.52824800  0.90335300  0.21970100  1
  O  O42  1  0.12518000  0.07192600  0.27659700  1
  O  O43  1  0.87482000  0.92807400  0.72340300  1
