# generated using pymatgen
data_Mg8SiW9O49
_symmetry_space_group_name_H-M   'P 1'
_cell_length_a   13.62039022
_cell_length_b   13.62039022
_cell_length_c   14.33487300
_cell_angle_alpha   90.00000000
_cell_angle_beta   90.00000000
_cell_angle_gamma   120.00000105
_symmetry_Int_Tables_number   1
_chemical_formula_structural   Mg8SiW9O49
_chemical_formula_sum   'Mg16 Si2 W18 O98'
_cell_volume   2303.05111427
_cell_formula_units_Z   2
loop_
 _symmetry_equiv_pos_site_id
 _symmetry_equiv_pos_as_xyz
  1  'x, y, z'
loop_
 _atom_site_type_symbol
 _atom_site_label
 _atom_site_symmetry_multiplicity
 _atom_site_fract_x
 _atom_site_fract_y
 _atom_site_fract_z
 _atom_site_occupancy
  Mg  Mg0  1  0.59097800  0.40843900  0.29640500  1
  Mg  Mg1  1  0.81746100  0.40902200  0.29640500  1
  Mg  Mg2  1  0.59156100  0.18253900  0.29640500  1
  Mg  Mg3  1  0.18253900  0.59156100  0.79640500  1
  Mg  Mg4  1  0.40843900  0.59097800  0.79640500  1
  Mg  Mg5  1  0.40902200  0.81746100  0.79640500  1
  Mg  Mg6  1  0.53475500  0.76735100  0.44201800  1
  Mg  Mg7  1  0.23259500  0.46524500  0.44201800  1
  Mg  Mg8  1  0.23264900  0.76740500  0.44201800  1
  Mg  Mg9  1  0.76740500  0.23264900  0.94201800  1
  Mg  Mg10  1  0.76735100  0.53475500  0.94201800  1
  Mg  Mg11  1  0.46524500  0.23259500  0.94201800  1
  Mg  Mg12  1  0.00000000  0.00000000  0.06974900  1
  Mg  Mg13  1  0.00000000  0.00000000  0.56974900  1
  Mg  Mg14  1  0.33333300  0.66666700  0.59181300  1
  Mg  Mg15  1  0.66666700  0.33333300  0.09181300  1
  Si  Si16  1  0.33333300  0.66666700  0.98853000  1
  Si  Si17  1  0.66666700  0.33333300  0.48853000  1
  W  W18  1  0.67132000  0.60061100  0.49525500  1
  W  W19  1  0.92929100  0.32868000  0.49525500  1
  W  W20  1  0.39938900  0.07070900  0.49525500  1
  W  W21  1  0.07070900  0.39938900  0.99525500  1
  W  W22  1  0.60061100  0.67132000  0.99525500  1
  W  W23  1  0.32868000  0.92929100  0.99525500  1
  W  W24  1  0.92925100  0.60128900  0.49495900  1
  W  W25  1  0.67203800  0.07074900  0.49495900  1
  W  W26  1  0.39871100  0.32796200  0.49495900  1
  W  W27  1  0.32796200  0.39871100  0.99495900  1
  W  W28  1  0.60128900  0.92925100  0.99495900  1
  W  W29  1  0.07074900  0.67203800  0.99495900  1
  W  W30  1  0.24124700  0.48218200  0.18888200  1
  W  W31  1  0.24093600  0.75875300  0.18888200  1
  W  W32  1  0.51781800  0.75906400  0.18888200  1
  W  W33  1  0.75906400  0.51781800  0.68888200  1
  W  W34  1  0.48218200  0.24124700  0.68888200  1
  W  W35  1  0.75875300  0.24093600  0.68888200  1
  O  O36  1  0.71108100  0.63739100  0.98731300  1
  O  O37  1  0.92631000  0.28891900  0.98731300  1
  O  O38  1  0.36260900  0.07369000  0.98731300  1
  O  O39  1  0.07369000  0.36260900  0.48731300  1
  O  O40  1  0.63739100  0.71108100  0.48731300  1
  O  O41  1  0.28891900  0.92631000  0.48731300  1
  O  O42  1  0.07331900  0.71148500  0.48655000  1
  O  O43  1  0.63816600  0.92668100  0.48655000  1
  O  O44  1  0.28851500  0.36183400  0.48655000  1
  O  O45  1  0.36183400  0.28851500  0.98655000  1
  O  O46  1  0.71148500  0.07331900  0.98655000  1
  O  O47  1  0.92668100  0.63816600  0.98655000  1
  O  O48  1  0.84200800  0.68493700  0.47804700  1
  O  O49  1  0.84293000  0.15799200  0.47804700  1
  O  O50  1  0.31506300  0.15707000  0.47804700  1
  O  O51  1  0.15707000  0.31506300  0.97804700  1
  O  O52  1  0.68493700  0.84200800  0.97804700  1
  O  O53  1  0.15799200  0.84293000  0.97804700  1
  O  O54  1  0.95349800  0.47708900  0.52638100  1
  O  O55  1  0.52359100  0.04650200  0.52638100  1
  O  O56  1  0.52291100  0.47640900  0.52638100  1
  O  O57  1  0.47640900  0.52291100  0.02638100  1
  O  O58  1  0.47708900  0.95349800  0.02638100  1
  O  O59  1  0.04650200  0.52359100  0.02638100  1
  O  O60  1  0.09542000  0.38943300  0.13205100  1
  O  O61  1  0.29401300  0.90458000  0.13205100  1
  O  O62  1  0.61056700  0.70598700  0.13205100  1
  O  O63  1  0.70598700  0.61056700  0.63205100  1
  O  O64  1  0.38943300  0.09542000  0.63205100  1
  O  O65  1  0.90458000  0.29401300  0.63205100  1
  O  O66  1  0.89156000  0.55150900  0.37518900  1
  O  O67  1  0.65994800  0.10844000  0.37518900  1
  O  O68  1  0.44849100  0.34005200  0.37518900  1
  O  O69  1  0.34005200  0.44849100  0.87518900  1
  O  O70  1  0.55150900  0.89156000  0.87518900  1
  O  O71  1  0.10844000  0.65994800  0.87518900  1
  O  O72  1  0.07701400  0.90674300  0.07027500  1
  O  O73  1  0.82972900  0.92298600  0.07027500  1
  O  O74  1  0.09325700  0.17027100  0.07027500  1
  O  O75  1  0.17027100  0.09325700  0.57027500  1
  O  O76  1  0.90674300  0.07701400  0.57027500  1
  O  O77  1  0.92298600  0.82972900  0.57027500  1
  O  O78  1  0.65903500  0.55117400  0.37551700  1
  O  O79  1  0.89213900  0.34096500  0.37551700  1
  O  O80  1  0.44882600  0.10786100  0.37551700  1
  O  O81  1  0.10786100  0.44882600  0.87551700  1
  O  O82  1  0.55117400  0.65903500  0.87551700  1
  O  O83  1  0.34096500  0.89213900  0.87551700  1
  O  O84  1  0.27812500  0.72264700  0.69910100  1
  O  O85  1  0.44452100  0.72187500  0.69910100  1
  O  O86  1  0.27735300  0.55547900  0.69910100  1
  O  O87  1  0.55547900  0.27735300  0.19910100  1
  O  O88  1  0.72264700  0.27812500  0.19910100  1
  O  O89  1  0.72187500  0.44452100  0.19910100  1
  O  O90  1  0.39668800  0.60320300  0.20023800  1
  O  O91  1  0.20651500  0.60331200  0.20023800  1
  O  O92  1  0.39679700  0.79348500  0.20023800  1
  O  O93  1  0.79348500  0.39679700  0.70023800  1
  O  O94  1  0.60320300  0.39668800  0.70023800  1
  O  O95  1  0.60331200  0.20651500  0.70023800  1
  O  O96  1  0.21632000  0.43273500  0.30643500  1
  O  O97  1  0.21641400  0.78368000  0.30643500  1
  O  O98  1  0.56726500  0.78358600  0.30643500  1
  O  O99  1  0.78358600  0.56726500  0.80643500  1
  O  O100  1  0.43273500  0.21632000  0.80643500  1
  O  O101  1  0.78368000  0.21641400  0.80643500  1
  O  O102  1  0.29308900  0.38876100  0.13178200  1
  O  O103  1  0.09567200  0.70691100  0.13178200  1
  O  O104  1  0.61123900  0.90432800  0.13178200  1
  O  O105  1  0.90432800  0.61123900  0.63178200  1
  O  O106  1  0.38876100  0.29308900  0.63178200  1
  O  O107  1  0.70691100  0.09567200  0.63178200  1
  O  O108  1  0.38787300  0.77627800  0.48042100  1
  O  O109  1  0.38840600  0.61212700  0.48042100  1
  O  O110  1  0.22372200  0.61159400  0.48042100  1
  O  O111  1  0.61159400  0.22372200  0.98042100  1
  O  O112  1  0.77627800  0.38787300  0.98042100  1
  O  O113  1  0.61212700  0.38840600  0.98042100  1
  O  O114  1  0.51005000  0.48134000  0.21844100  1
  O  O115  1  0.97129000  0.48995000  0.21844100  1
  O  O116  1  0.51866000  0.02871000  0.21844100  1
  O  O117  1  0.02871000  0.51866000  0.71844100  1
  O  O118  1  0.48134000  0.51005000  0.71844100  1
  O  O119  1  0.48995000  0.97129000  0.71844100  1
  O  O120  1  0.95263000  0.88259700  0.96126100  1
  O  O121  1  0.92996700  0.04737000  0.96126100  1
  O  O122  1  0.11740300  0.07003300  0.96126100  1
  O  O123  1  0.07003300  0.11740300  0.46126100  1
  O  O124  1  0.88259700  0.95263000  0.46126100  1
  O  O125  1  0.04737000  0.92996700  0.46126100  1
  O  O126  1  0.26681300  0.53412100  0.02917400  1
  O  O127  1  0.26730900  0.73318700  0.02917400  1
  O  O128  1  0.46587900  0.73269100  0.02917400  1
  O  O129  1  0.73269100  0.46587900  0.52917400  1
  O  O130  1  0.53412100  0.26681300  0.52917400  1
  O  O131  1  0.73318700  0.26730900  0.52917400  1
  O  O132  1  0.33333300  0.66666700  0.87509500  1
  O  O133  1  0.66666700  0.33333300  0.37509500  1
