# generated using pymatgen
data_H12WC2(S2N)2
_symmetry_space_group_name_H-M   'P 1'
_cell_length_a   7.24544800
_cell_length_b   9.65779300
_cell_length_c   16.23712200
_cell_angle_alpha   90.00000000
_cell_angle_beta   90.00000000
_cell_angle_gamma   90.00000000
_symmetry_Int_Tables_number   1
_chemical_formula_structural   H12WC2(S2N)2
_chemical_formula_sum   'H48 W4 C8 S16 N8'
_cell_volume   1136.19321234
_cell_formula_units_Z   4
loop_
 _symmetry_equiv_pos_site_id
 _symmetry_equiv_pos_as_xyz
  1  'x, y, z'
loop_
 _atom_site_type_symbol
 _atom_site_label
 _atom_site_symmetry_multiplicity
 _atom_site_fract_x
 _atom_site_fract_y
 _atom_site_fract_z
 _atom_site_occupancy
  H  H0  1  0.13511400  0.88450800  0.60551900  1
  H  H1  1  0.36488600  0.38450800  0.89448100  1
  H  H2  1  0.63511400  0.11549200  0.39448100  1
  H  H3  1  0.86488600  0.61549200  0.10551900  1
  H  H4  1  0.86488600  0.11549200  0.39448100  1
  H  H5  1  0.63511400  0.61549200  0.10551900  1
  H  H6  1  0.36488600  0.88450800  0.60551900  1
  H  H7  1  0.13511400  0.38450800  0.89448100  1
  H  H8  1  0.25000000  0.03782900  0.59466700  1
  H  H9  1  0.25000000  0.53782900  0.90533300  1
  H  H10  1  0.75000000  0.96217100  0.40533300  1
  H  H11  1  0.75000000  0.46217100  0.09466700  1
  H  H12  1  0.12715300  0.02158900  0.73168400  1
  H  H13  1  0.37284700  0.52158900  0.76831600  1
  H  H14  1  0.62715300  0.97841100  0.26831600  1
  H  H15  1  0.87284700  0.47841100  0.23168400  1
  H  H16  1  0.87284700  0.97841100  0.26831600  1
  H  H17  1  0.62715300  0.47841100  0.23168400  1
  H  H18  1  0.37284700  0.02158900  0.73168400  1
  H  H19  1  0.12715300  0.52158900  0.76831600  1
  H  H20  1  0.25000000  0.86224800  0.74617300  1
  H  H21  1  0.25000000  0.36224800  0.75382700  1
  H  H22  1  0.75000000  0.13775200  0.25382700  1
  H  H23  1  0.75000000  0.63775200  0.24617300  1
  H  H24  1  0.13482000  0.60835700  0.43003200  1
  H  H25  1  0.36518000  0.10835700  0.06996800  1
  H  H26  1  0.63482000  0.39164300  0.56996800  1
  H  H27  1  0.86518000  0.89164300  0.93003200  1
  H  H28  1  0.86518000  0.39164300  0.56996800  1
  H  H29  1  0.63482000  0.89164300  0.93003200  1
  H  H30  1  0.36518000  0.60835700  0.43003200  1
  H  H31  1  0.13482000  0.10835700  0.06996800  1
  H  H32  1  0.25000000  0.75814500  0.43727500  1
  H  H33  1  0.25000000  0.25814500  0.06272500  1
  H  H34  1  0.75000000  0.24185500  0.56272500  1
  H  H35  1  0.75000000  0.74185500  0.93727500  1
  H  H36  1  0.37385100  0.73011300  0.29868300  1
  H  H37  1  0.12614900  0.23011300  0.20131700  1
  H  H38  1  0.87385100  0.26988700  0.70131700  1
  H  H39  1  0.62614900  0.76988700  0.79868300  1
  H  H40  1  0.62614900  0.26988700  0.70131700  1
  H  H41  1  0.87385100  0.76988700  0.79868300  1
  H  H42  1  0.12614900  0.73011300  0.29868300  1
  H  H43  1  0.37385100  0.23011300  0.20131700  1
  H  H44  1  0.25000000  0.56957800  0.29191000  1
  H  H45  1  0.25000000  0.06957800  0.20809000  1
  H  H46  1  0.75000000  0.43042200  0.70809000  1
  H  H47  1  0.75000000  0.93042200  0.79191000  1
  W  W48  1  0.25000000  0.24150100  0.44964800  1
  W  W49  1  0.25000000  0.74150100  0.05035200  1
  W  W50  1  0.75000000  0.75849900  0.55035200  1
  W  W51  1  0.75000000  0.25849900  0.94964800  1
  C  C52  1  0.25000000  0.96242700  0.71446500  1
  C  C53  1  0.25000000  0.46242700  0.78553500  1
  C  C54  1  0.75000000  0.03757300  0.28553500  1
  C  C55  1  0.75000000  0.53757300  0.21446500  1
  C  C56  1  0.25000000  0.67409800  0.31807100  1
  C  C57  1  0.25000000  0.17409800  0.18192900  1
  C  C58  1  0.75000000  0.32590200  0.68192900  1
  C  C59  1  0.75000000  0.82590200  0.81807100  1
  S  S60  1  0.25000000  0.02074700  0.41398700  1
  S  S61  1  0.25000000  0.52074700  0.08601300  1
  S  S62  1  0.75000000  0.97925300  0.58601300  1
  S  S63  1  0.75000000  0.47925300  0.91398700  1
  S  S64  1  0.25000000  0.26242000  0.58556100  1
  S  S65  1  0.25000000  0.76242000  0.91443900  1
  S  S66  1  0.75000000  0.73758000  0.41443900  1
  S  S67  1  0.75000000  0.23758000  0.08556100  1
  S  S68  1  0.00317600  0.34570700  0.39973500  1
  S  S69  1  0.49682400  0.84570700  0.10026500  1
  S  S70  1  0.50317600  0.65429300  0.60026500  1
  S  S71  1  0.99682400  0.15429300  0.89973500  1
  S  S72  1  0.99682400  0.65429300  0.60026500  1
  S  S73  1  0.50317600  0.15429300  0.89973500  1
  S  S74  1  0.49682400  0.34570700  0.39973500  1
  S  S75  1  0.00317600  0.84570700  0.10026500  1
  N  N76  1  0.25000000  0.94078400  0.62408600  1
  N  N77  1  0.25000000  0.44078400  0.87591400  1
  N  N78  1  0.75000000  0.05921600  0.37591400  1
  N  N79  1  0.75000000  0.55921600  0.12408600  1
  N  N80  1  0.25000000  0.66161000  0.40959600  1
  N  N81  1  0.25000000  0.16161000  0.09040400  1
  N  N82  1  0.75000000  0.33839000  0.59040400  1
  N  N83  1  0.75000000  0.83839000  0.90959600  1
