# generated using pymatgen
data_CsMo2H2C7S7(OF)21
_symmetry_space_group_name_H-M   'P 1'
_cell_length_a   12.00663900
_cell_length_b   15.89541000
_cell_length_c   12.08712527
_cell_angle_alpha   90.00000000
_cell_angle_beta   113.25431605
_cell_angle_gamma   90.00000000
_symmetry_Int_Tables_number   1
_chemical_formula_structural   CsMo2H2C7S7(OF)21
_chemical_formula_sum   'Cs2 Mo4 H4 C14 S14 O42 F42'
_cell_volume   2119.42955044
_cell_formula_units_Z   2
loop_
 _symmetry_equiv_pos_site_id
 _symmetry_equiv_pos_as_xyz
  1  'x, y, z'
loop_
 _atom_site_type_symbol
 _atom_site_label
 _atom_site_symmetry_multiplicity
 _atom_site_fract_x
 _atom_site_fract_y
 _atom_site_fract_z
 _atom_site_occupancy
  Cs  Cs0  1  0.04187800  0.75000000  0.09591000  1
  Cs  Cs1  1  0.95812200  0.25000000  0.90409000  1
  Mo  Mo2  1  0.97275100  0.84050600  0.55697500  1
  Mo  Mo3  1  0.02724900  0.34050600  0.44302500  1
  Mo  Mo4  1  0.02724900  0.15949400  0.44302500  1
  Mo  Mo5  1  0.97275100  0.65949400  0.55697500  1
  H  H6  1  0.16790000  0.99378700  0.21147300  1
  H  H7  1  0.83210000  0.49378700  0.78852700  1
  H  H8  1  0.83210000  0.00621300  0.78852700  1
  H  H9  1  0.16790000  0.50621300  0.21147300  1
  C  C10  1  0.65256900  0.75000000  0.64546300  1
  C  C11  1  0.34743100  0.25000000  0.35453700  1
  C  C12  1  0.33890300  0.75000000  0.78936900  1
  C  C13  1  0.66109700  0.25000000  0.21063100  1
  C  C14  1  0.63748500  0.75000000  0.21472300  1
  C  C15  1  0.36251500  0.25000000  0.78527700  1
  C  C16  1  0.29252700  0.95273300  0.52241600  1
  C  C17  1  0.70747300  0.45273300  0.47758400  1
  C  C18  1  0.70747300  0.04726700  0.47758400  1
  C  C19  1  0.29252700  0.54726700  0.52241600  1
  C  C20  1  0.34263800  0.98175200  0.07796700  1
  C  C21  1  0.65736200  0.48175200  0.92203300  1
  C  C22  1  0.65736200  0.01824800  0.92203300  1
  C  C23  1  0.34263800  0.51824800  0.07796700  1
  S  S24  1  0.82150700  0.75000000  0.70070700  1
  S  S25  1  0.17849300  0.25000000  0.29929300  1
  S  S26  1  0.18545500  0.75000000  0.79607000  1
  S  S27  1  0.81454500  0.25000000  0.20393000  1
  S  S28  1  0.80436200  0.75000000  0.30754300  1
  S  S29  1  0.19563800  0.25000000  0.69245700  1
  S  S30  1  0.13194400  0.93472600  0.41500100  1
  S  S31  1  0.86805600  0.43472600  0.58499900  1
  S  S32  1  0.86805600  0.06527400  0.58499900  1
  S  S33  1  0.13194400  0.56527400  0.41500100  1
  S  S34  1  0.17999000  0.01138500  0.03902900  1
  S  S35  1  0.82001000  0.51138500  0.96097100  1
  S  S36  1  0.82001000  0.98861500  0.96097100  1
  S  S37  1  0.17999000  0.48861500  0.03902900  1
  O  O38  1  0.82093200  0.82820600  0.38048000  1
  O  O39  1  0.17906800  0.32820600  0.61952000  1
  O  O40  1  0.17906800  0.17179400  0.61952000  1
  O  O41  1  0.82093200  0.67179400  0.38048000  1
  O  O42  1  0.09630900  0.85961500  0.46599200  1
  O  O43  1  0.90369100  0.35961500  0.53400800  1
  O  O44  1  0.90369100  0.14038500  0.53400800  1
  O  O45  1  0.09630900  0.64038500  0.46599200  1
  O  O46  1  0.84716800  0.82734500  0.64598500  1
  O  O47  1  0.15283200  0.32734500  0.35401500  1
  O  O48  1  0.15283200  0.17265500  0.35401500  1
  O  O49  1  0.84716800  0.67265500  0.64598500  1
  O  O50  1  0.12821100  0.82810500  0.73016200  1
  O  O51  1  0.87178900  0.32810500  0.26983800  1
  O  O52  1  0.87178900  0.17189500  0.26983800  1
  O  O53  1  0.12821100  0.67189500  0.73016200  1
  O  O54  1  0.20751700  0.75000000  0.92158000  1
  O  O55  1  0.79248300  0.25000000  0.07842000  1
  O  O56  1  0.06662600  0.01085000  0.42038100  1
  O  O57  1  0.93337400  0.51085000  0.57961900  1
  O  O58  1  0.93337400  0.98915000  0.57961900  1
  O  O59  1  0.06662600  0.48915000  0.42038100  1
  O  O60  1  0.86627700  0.75000000  0.82951100  1
  O  O61  1  0.13372300  0.25000000  0.17048900  1
  O  O62  1  0.14030000  0.91696000  0.30014300  1
  O  O63  1  0.85970000  0.41696000  0.69985700  1
  O  O64  1  0.85970000  0.08304000  0.69985700  1
  O  O65  1  0.14030000  0.58304000  0.30014300  1
  O  O66  1  0.86192700  0.75000000  0.22359100  1
  O  O67  1  0.13807300  0.25000000  0.77640900  1
  O  O68  1  0.18783600  0.04059900  0.16605200  1
  O  O69  1  0.81216400  0.54059900  0.83394800  1
  O  O70  1  0.81216400  0.95940100  0.83394800  1
  O  O71  1  0.18783600  0.45940100  0.16605200  1
  O  O72  1  0.11033000  0.93527700  0.00177400  1
  O  O73  1  0.88967000  0.43527700  0.99822600  1
  O  O74  1  0.88967000  0.06472300  0.99822600  1
  O  O75  1  0.11033000  0.56472300  0.00177400  1
  O  O76  1  0.15665800  0.08366500  0.96236000  1
  O  O77  1  0.84334200  0.58366500  0.03764000  1
  O  O78  1  0.84334200  0.91633500  0.03764000  1
  O  O79  1  0.15665800  0.41633500  0.96236000  1
  F  F80  1  0.61748800  0.81922400  0.68750400  1
  F  F81  1  0.38251200  0.31922400  0.31249600  1
  F  F82  1  0.38251200  0.18077600  0.31249600  1
  F  F83  1  0.61748800  0.68077600  0.68750400  1
  F  F84  1  0.60010800  0.75000000  0.52415600  1
  F  F85  1  0.39989200  0.25000000  0.47584400  1
  F  F86  1  0.29804800  0.96407500  0.63505100  1
  F  F87  1  0.70195200  0.46407500  0.36494900  1
  F  F88  1  0.70195200  0.03592500  0.36494900  1
  F  F89  1  0.29804800  0.53592500  0.63505100  1
  F  F90  1  0.33440600  0.02244600  0.48742100  1
  F  F91  1  0.66559400  0.52244600  0.51257900  1
  F  F92  1  0.66559400  0.97755400  0.51257900  1
  F  F93  1  0.33440600  0.47755400  0.48742100  1
  F  F94  1  0.36261700  0.88669700  0.52144800  1
  F  F95  1  0.63738300  0.38669700  0.47855200  1
  F  F96  1  0.63738300  0.11330300  0.47855200  1
  F  F97  1  0.36261700  0.61330300  0.52144800  1
  F  F98  1  0.40044700  0.81909500  0.84513600  1
  F  F99  1  0.59955300  0.31909500  0.15486400  1
  F  F100  1  0.59955300  0.18090500  0.15486400  1
  F  F101  1  0.40044700  0.68090500  0.84513600  1
  F  F102  1  0.60979700  0.81927500  0.14475800  1
  F  F103  1  0.39020300  0.31927500  0.85524200  1
  F  F104  1  0.39020300  0.18072500  0.85524200  1
  F  F105  1  0.60979700  0.68072500  0.14475800  1
  F  F106  1  0.32822300  0.75000000  0.67381500  1
  F  F107  1  0.67177700  0.25000000  0.32618500  1
  F  F108  1  0.57240500  0.75000000  0.28356700  1
  F  F109  1  0.42759500  0.25000000  0.71643300  1
  F  F110  1  0.41756500  0.04647700  0.12974000  1
  F  F111  1  0.58243500  0.54647700  0.87026000  1
  F  F112  1  0.58243500  0.95352300  0.87026000  1
  F  F113  1  0.41756500  0.45352300  0.12974000  1
  F  F114  1  0.35622700  0.95900300  0.97670500  1
  F  F115  1  0.64377300  0.45900300  0.02329500  1
  F  F116  1  0.64377300  0.04099700  0.02329500  1
  F  F117  1  0.35622700  0.54099700  0.97670500  1
  F  F118  1  0.37183500  0.91610900  0.15569200  1
  F  F119  1  0.62816500  0.41610900  0.84430800  1
  F  F120  1  0.62816500  0.08389100  0.84430800  1
  F  F121  1  0.37183500  0.58389100  0.15569200  1
