# generated using pymatgen
data_Tm2Al2Fe15
_symmetry_space_group_name_H-M   'P 1'
_cell_length_a   8.32194408
_cell_length_b   8.32194408
_cell_length_c   8.37400700
_cell_angle_alpha   90.00000000
_cell_angle_beta   90.00000000
_cell_angle_gamma   120.00000060
_symmetry_Int_Tables_number   1
_chemical_formula_structural   Tm2Al2Fe15
_chemical_formula_sum   'Tm4 Al4 Fe30'
_cell_volume   502.24258607
_cell_formula_units_Z   2
loop_
 _symmetry_equiv_pos_site_id
 _symmetry_equiv_pos_as_xyz
  1  'x, y, z'
loop_
 _atom_site_type_symbol
 _atom_site_label
 _atom_site_symmetry_multiplicity
 _atom_site_fract_x
 _atom_site_fract_y
 _atom_site_fract_z
 _atom_site_occupancy
  Tm  Tm0  1  0.00000000  0.00000000  0.25000000  1
  Tm  Tm1  1  0.00000000  0.00000000  0.75000000  1
  Tm  Tm2  1  0.33333300  0.66666700  0.75000000  1
  Tm  Tm3  1  0.66666700  0.33333300  0.25000000  1
  Al  Al4  1  0.33333300  0.66666700  0.39977800  1
  Al  Al5  1  0.66666700  0.33333300  0.60022200  1
  Al  Al6  1  0.66666700  0.33333300  0.89977800  1
  Al  Al7  1  0.33333300  0.66666700  0.10022200  1
  Fe  Fe8  1  0.50000000  0.50000000  0.50000000  1
  Fe  Fe9  1  0.50000000  0.00000000  0.50000000  1
  Fe  Fe10  1  0.00000000  0.50000000  0.50000000  1
  Fe  Fe11  1  0.50000000  0.50000000  0.00000000  1
  Fe  Fe12  1  0.50000000  0.00000000  0.00000000  1
  Fe  Fe13  1  0.00000000  0.50000000  0.00000000  1
  Fe  Fe14  1  0.33057200  0.36183700  0.25000000  1
  Fe  Fe15  1  0.63816300  0.96873500  0.25000000  1
  Fe  Fe16  1  0.03126500  0.66942800  0.25000000  1
  Fe  Fe17  1  0.63816300  0.66942800  0.25000000  1
  Fe  Fe18  1  0.03126500  0.36183700  0.25000000  1
  Fe  Fe19  1  0.33057200  0.96873500  0.25000000  1
  Fe  Fe20  1  0.66942800  0.63816300  0.75000000  1
  Fe  Fe21  1  0.36183700  0.03126500  0.75000000  1
  Fe  Fe22  1  0.96873500  0.33057200  0.75000000  1
  Fe  Fe23  1  0.36183700  0.33057200  0.75000000  1
  Fe  Fe24  1  0.96873500  0.63816300  0.75000000  1
  Fe  Fe25  1  0.66942800  0.03126500  0.75000000  1
  Fe  Fe26  1  0.16538700  0.83461300  0.51208100  1
  Fe  Fe27  1  0.16538700  0.33077400  0.51208100  1
  Fe  Fe28  1  0.66922600  0.83461300  0.51208100  1
  Fe  Fe29  1  0.83461300  0.16538700  0.48791900  1
  Fe  Fe30  1  0.83461300  0.66922600  0.48791900  1
  Fe  Fe31  1  0.33077400  0.16538700  0.48791900  1
  Fe  Fe32  1  0.83461300  0.16538700  0.01208100  1
  Fe  Fe33  1  0.83461300  0.66922600  0.01208100  1
  Fe  Fe34  1  0.33077400  0.16538700  0.01208100  1
  Fe  Fe35  1  0.16538700  0.83461300  0.98791900  1
  Fe  Fe36  1  0.16538700  0.33077400  0.98791900  1
  Fe  Fe37  1  0.66922600  0.83461300  0.98791900  1
