# generated using pymatgen
data_ZnS
_symmetry_space_group_name_H-M   'P 1'
_cell_length_a   3.87552826
_cell_length_b   3.87552826
_cell_length_c   56.54851128
_cell_angle_alpha   88.03624477
_cell_angle_beta   88.03624477
_cell_angle_gamma   59.99999558
_symmetry_Int_Tables_number   1
_chemical_formula_structural   ZnS
_chemical_formula_sum   'Zn18 S18'
_cell_volume   734.97633971
_cell_formula_units_Z   18
loop_
 _symmetry_equiv_pos_site_id
 _symmetry_equiv_pos_as_xyz
  1  'x, y, z'
loop_
 _atom_site_type_symbol
 _atom_site_label
 _atom_site_symmetry_multiplicity
 _atom_site_fract_x
 _atom_site_fract_y
 _atom_site_fract_z
 _atom_site_occupancy
  Zn  Zn0  1  0.99999300  0.99999300  0.00002200  1
  Zn  Zn1  1  0.94443600  0.94443600  0.16669200  1
  Zn  Zn2  1  0.88888000  0.88888000  0.33336100  1
  Zn  Zn3  1  0.85184300  0.85184300  0.44447000  1
  Zn  Zn4  1  0.79629000  0.79629000  0.61113000  1
  Zn  Zn5  1  0.75924800  0.75924800  0.72225500  1
  Zn  Zn6  1  0.72221100  0.72221100  0.83336700  1
  Zn  Zn7  1  0.64814700  0.64814700  0.05556000  1
  Zn  Zn8  1  0.59258200  0.59258200  0.22225500  1
  Zn  Zn9  1  0.53703300  0.53703300  0.38890200  1
  Zn  Zn10  1  0.48147300  0.48147300  0.55558200  1
  Zn  Zn11  1  0.40740500  0.40740500  0.77778600  1
  Zn  Zn12  1  0.35184700  0.35184700  0.94445900  1
  Zn  Zn13  1  0.29629600  0.29629600  0.11111200  1
  Zn  Zn14  1  0.24073100  0.24073100  0.27780800  1
  Zn  Zn15  1  0.16666400  0.16666400  0.50000700  1
  Zn  Zn16  1  0.11110200  0.11110200  0.66669400  1
  Zn  Zn17  1  0.03703300  0.03703300  0.88890000  1
  S  S18  1  0.98612300  0.98612300  0.04163000  1
  S  S19  1  0.93056700  0.93056700  0.20829900  1
  S  S20  1  0.87502500  0.87502500  0.37492600  1
  S  S21  1  0.83797500  0.83797500  0.48607400  1
  S  S22  1  0.78244000  0.78244000  0.65267900  1
  S  S23  1  0.74539800  0.74539800  0.76380600  1
  S  S24  1  0.70834800  0.70834800  0.87495700  1
  S  S25  1  0.63427400  0.63427400  0.09717800  1
  S  S26  1  0.57871800  0.57871800  0.26384600  1
  S  S27  1  0.52315400  0.52315400  0.43053900  1
  S  S28  1  0.46761000  0.46761000  0.59717000  1
  S  S29  1  0.39352600  0.39352600  0.81942200  1
  S  S30  1  0.33796600  0.33796600  0.98610200  1
  S  S31  1  0.28242300  0.28242300  0.15273000  1
  S  S32  1  0.22686900  0.22686900  0.31939400  1
  S  S33  1  0.15279500  0.15279500  0.54161500  1
  S  S34  1  0.09723000  0.09723000  0.70831000  1
  S  S35  1  0.02317600  0.02317600  0.93047200  1
