# generated using pymatgen
data_CsB5O8
_symmetry_space_group_name_H-M   'P 1'
_cell_length_a   8.58582600
_cell_length_b   8.82077000
_cell_length_c   21.53481800
_cell_angle_alpha   90.00000000
_cell_angle_beta   90.00000000
_cell_angle_gamma   90.00000000
_symmetry_Int_Tables_number   1
_chemical_formula_structural   CsB5O8
_chemical_formula_sum   'Cs8 B40 O64'
_cell_volume   1630.90921509
_cell_formula_units_Z   8
loop_
 _symmetry_equiv_pos_site_id
 _symmetry_equiv_pos_as_xyz
  1  'x, y, z'
loop_
 _atom_site_type_symbol
 _atom_site_label
 _atom_site_symmetry_multiplicity
 _atom_site_fract_x
 _atom_site_fract_y
 _atom_site_fract_z
 _atom_site_occupancy
  Cs  Cs0  1  0.96664600  0.64283300  0.88142100  1
  Cs  Cs1  1  0.53335400  0.14283300  0.11857900  1
  Cs  Cs2  1  0.46664600  0.35716700  0.61857900  1
  Cs  Cs3  1  0.03335400  0.85716700  0.38142100  1
  Cs  Cs4  1  0.03335400  0.35716700  0.11857900  1
  Cs  Cs5  1  0.46664600  0.85716700  0.88142100  1
  Cs  Cs6  1  0.53335400  0.64283300  0.38142100  1
  Cs  Cs7  1  0.96664600  0.14283300  0.61857900  1
  B  B8  1  0.86846100  0.05268400  0.88057000  1
  B  B9  1  0.63153900  0.55268400  0.11943000  1
  B  B10  1  0.36846100  0.94731600  0.61943000  1
  B  B11  1  0.13153900  0.44731600  0.38057000  1
  B  B12  1  0.13153900  0.94731600  0.11943000  1
  B  B13  1  0.36846100  0.44731600  0.88057000  1
  B  B14  1  0.63153900  0.05268400  0.38057000  1
  B  B15  1  0.86846100  0.55268400  0.61943000  1
  B  B16  1  0.68783300  0.75787900  0.04391200  1
  B  B17  1  0.81216700  0.25787900  0.95608800  1
  B  B18  1  0.18783300  0.24212100  0.45608800  1
  B  B19  1  0.31216700  0.74212100  0.54391200  1
  B  B20  1  0.31216700  0.24212100  0.95608800  1
  B  B21  1  0.18783300  0.74212100  0.04391200  1
  B  B22  1  0.81216700  0.75787900  0.54391200  1
  B  B23  1  0.68783300  0.25787900  0.45608800  1
  B  B24  1  0.80972300  0.54576500  0.73161900  1
  B  B25  1  0.69027700  0.04576500  0.26838100  1
  B  B26  1  0.30972300  0.45423500  0.76838100  1
  B  B27  1  0.19027700  0.95423500  0.23161900  1
  B  B28  1  0.19027700  0.45423500  0.26838100  1
  B  B29  1  0.30972300  0.95423500  0.73161900  1
  B  B30  1  0.69027700  0.54576500  0.23161900  1
  B  B31  1  0.80972300  0.04576500  0.76838100  1
  B  B32  1  0.75335700  0.00186200  0.98481700  1
  B  B33  1  0.74664300  0.50186200  0.01518300  1
  B  B34  1  0.25335700  0.99813800  0.51518300  1
  B  B35  1  0.24664300  0.49813800  0.48481700  1
  B  B36  1  0.24664300  0.99813800  0.01518300  1
  B  B37  1  0.25335700  0.49813800  0.98481700  1
  B  B38  1  0.74664300  0.00186200  0.48481700  1
  B  B39  1  0.75335700  0.50186200  0.51518300  1
  B  B40  1  0.07202000  0.51353400  0.69855100  1
  B  B41  1  0.42798000  0.01353400  0.30144900  1
  B  B42  1  0.57202000  0.48646600  0.80144900  1
  B  B43  1  0.92798000  0.98646600  0.19855100  1
  B  B44  1  0.92798000  0.48646600  0.30144900  1
  B  B45  1  0.57202000  0.98646600  0.69855100  1
  B  B46  1  0.42798000  0.51353400  0.19855100  1
  B  B47  1  0.07202000  0.01353400  0.80144900  1
  O  O48  1  0.02671000  0.00256100  0.86156900  1
  O  O49  1  0.47329000  0.50256100  0.13843100  1
  O  O50  1  0.52671000  0.99743900  0.63843100  1
  O  O51  1  0.97329000  0.49743900  0.36156900  1
  O  O52  1  0.97329000  0.99743900  0.13843100  1
  O  O53  1  0.52671000  0.49743900  0.86156900  1
  O  O54  1  0.47329000  0.00256100  0.36156900  1
  O  O55  1  0.02671000  0.50256100  0.63843100  1
  O  O56  1  0.81271100  0.95011300  0.93064300  1
  O  O57  1  0.68728900  0.45011300  0.06935700  1
  O  O58  1  0.31271100  0.04988700  0.56935700  1
  O  O59  1  0.18728900  0.54988700  0.43064300  1
  O  O60  1  0.18728900  0.04988700  0.06935700  1
  O  O61  1  0.31271100  0.54988700  0.93064300  1
  O  O62  1  0.68728900  0.95011300  0.43064300  1
  O  O63  1  0.81271100  0.45011300  0.56935700  1
  O  O64  1  0.87112800  0.21181300  0.90115600  1
  O  O65  1  0.62887200  0.71181300  0.09884400  1
  O  O66  1  0.37112800  0.78818700  0.59884400  1
  O  O67  1  0.12887200  0.28818700  0.40115600  1
  O  O68  1  0.12887200  0.78818700  0.09884400  1
  O  O69  1  0.37112800  0.28818700  0.90115600  1
  O  O70  1  0.62887200  0.21181300  0.40115600  1
  O  O71  1  0.87112800  0.71181300  0.59884400  1
  O  O72  1  0.75771300  0.03401300  0.82723400  1
  O  O73  1  0.74228700  0.53401300  0.17276600  1
  O  O74  1  0.25771300  0.96598700  0.67276600  1
  O  O75  1  0.24228700  0.46598700  0.32723400  1
  O  O76  1  0.24228700  0.96598700  0.17276600  1
  O  O77  1  0.25771300  0.46598700  0.82723400  1
  O  O78  1  0.74228700  0.03401300  0.32723400  1
  O  O79  1  0.75771300  0.53401300  0.67276600  1
  O  O80  1  0.74972500  0.65612300  0.00083200  1
  O  O81  1  0.75027500  0.15612300  0.99916800  1
  O  O82  1  0.24972500  0.34387700  0.49916800  1
  O  O83  1  0.25027500  0.84387700  0.50083200  1
  O  O84  1  0.25027500  0.34387700  0.99916800  1
  O  O85  1  0.24972500  0.84387700  0.00083200  1
  O  O86  1  0.75027500  0.65612300  0.50083200  1
  O  O87  1  0.74972500  0.15612300  0.49916800  1
  O  O88  1  0.96916600  0.56467600  0.74423500  1
  O  O89  1  0.53083400  0.06467600  0.25576500  1
  O  O90  1  0.46916600  0.43532400  0.75576500  1
  O  O91  1  0.03083400  0.93532400  0.24423500  1
  O  O92  1  0.03083400  0.43532400  0.25576500  1
  O  O93  1  0.46916600  0.93532400  0.74423500  1
  O  O94  1  0.53083400  0.56467600  0.24423500  1
  O  O95  1  0.96916600  0.06467600  0.75576500  1
  O  O96  1  0.81606700  0.41058900  0.97088300  1
  O  O97  1  0.68393300  0.91058900  0.02911700  1
  O  O98  1  0.31606700  0.58941100  0.52911700  1
  O  O99  1  0.18393300  0.08941100  0.47088300  1
  O  O100  1  0.18393300  0.58941100  0.02911700  1
  O  O101  1  0.31606700  0.08941100  0.97088300  1
  O  O102  1  0.68393300  0.41058900  0.47088300  1
  O  O103  1  0.81606700  0.91058900  0.52911700  1
  O  O104  1  0.21909400  0.96386100  0.78474900  1
  O  O105  1  0.28090600  0.46386100  0.21525100  1
  O  O106  1  0.71909400  0.03613900  0.71525100  1
  O  O107  1  0.78090600  0.53613900  0.28474900  1
  O  O108  1  0.78090600  0.03613900  0.21525100  1
  O  O109  1  0.71909400  0.53613900  0.78474900  1
  O  O110  1  0.28090600  0.96386100  0.28474900  1
  O  O111  1  0.21909400  0.46386100  0.71525100  1
