# generated using pymatgen
data_Fe5(BO3)6
_symmetry_space_group_name_H-M   'P 1'
_cell_length_a   3.91203700
_cell_length_b   11.96928400
_cell_length_c   15.93255900
_cell_angle_alpha   90.00000000
_cell_angle_beta   90.00000000
_cell_angle_gamma   90.00000000
_symmetry_Int_Tables_number   1
_chemical_formula_structural   Fe5(BO3)6
_chemical_formula_sum   'Fe10 B12 O36'
_cell_volume   746.03063355
_cell_formula_units_Z   2
loop_
 _symmetry_equiv_pos_site_id
 _symmetry_equiv_pos_as_xyz
  1  'x, y, z'
loop_
 _atom_site_type_symbol
 _atom_site_label
 _atom_site_symmetry_multiplicity
 _atom_site_fract_x
 _atom_site_fract_y
 _atom_site_fract_z
 _atom_site_occupancy
  Fe  Fe0  1  0.00000000  0.37011100  0.61613400  1
  Fe  Fe1  1  0.00000000  0.37011100  0.38386600  1
  Fe  Fe2  1  0.50000000  0.62988900  0.88386600  1
  Fe  Fe3  1  0.50000000  0.62988900  0.11613400  1
  Fe  Fe4  1  0.00000000  0.44674300  0.80967100  1
  Fe  Fe5  1  0.00000000  0.44674300  0.19032900  1
  Fe  Fe6  1  0.50000000  0.55325700  0.69032900  1
  Fe  Fe7  1  0.50000000  0.55325700  0.30967100  1
  Fe  Fe8  1  0.00000000  0.49095800  0.00000000  1
  Fe  Fe9  1  0.50000000  0.50904200  0.50000000  1
  B  B10  1  0.00000000  0.12074400  0.62518500  1
  B  B11  1  0.00000000  0.12074400  0.37481500  1
  B  B12  1  0.50000000  0.87925600  0.87481500  1
  B  B13  1  0.50000000  0.87925600  0.12518500  1
  B  B14  1  0.00000000  0.20157400  0.76749300  1
  B  B15  1  0.00000000  0.20157400  0.23250700  1
  B  B16  1  0.50000000  0.79842600  0.73250700  1
  B  B17  1  0.50000000  0.79842600  0.26749300  1
  B  B18  1  0.00000000  0.24581900  0.92261000  1
  B  B19  1  0.00000000  0.24581900  0.07739000  1
  B  B20  1  0.50000000  0.75418100  0.57739000  1
  B  B21  1  0.50000000  0.75418100  0.42261000  1
  O  O22  1  0.50000000  0.54357300  0.00000000  1
  O  O23  1  0.00000000  0.45642700  0.50000000  1
  O  O24  1  0.50000000  0.48159800  0.80716400  1
  O  O25  1  0.50000000  0.48159800  0.19283600  1
  O  O26  1  0.00000000  0.51840200  0.69283600  1
  O  O27  1  0.00000000  0.51840200  0.30716400  1
  O  O28  1  0.50000000  0.41561800  0.60981300  1
  O  O29  1  0.50000000  0.41561800  0.39018700  1
  O  O30  1  0.00000000  0.58438200  0.89018700  1
  O  O31  1  0.00000000  0.58438200  0.10981300  1
  O  O32  1  0.00000000  0.36110400  0.91579300  1
  O  O33  1  0.00000000  0.36110400  0.08420700  1
  O  O34  1  0.50000000  0.63889600  0.58420700  1
  O  O35  1  0.50000000  0.63889600  0.41579300  1
  O  O36  1  0.00000000  0.30986600  0.73825700  1
  O  O37  1  0.00000000  0.30986600  0.26174300  1
  O  O38  1  0.50000000  0.69013400  0.76174300  1
  O  O39  1  0.50000000  0.69013400  0.23825700  1
  O  O40  1  0.00000000  0.21824200  0.58129000  1
  O  O41  1  0.00000000  0.21824200  0.41871000  1
  O  O42  1  0.50000000  0.78175800  0.91871000  1
  O  O43  1  0.50000000  0.78175800  0.08129000  1
  O  O44  1  0.00000000  0.19516100  0.00000000  1
  O  O45  1  0.50000000  0.80483900  0.50000000  1
  O  O46  1  0.00000000  0.11370500  0.71243900  1
  O  O47  1  0.00000000  0.11370500  0.28756100  1
  O  O48  1  0.50000000  0.88629500  0.78756100  1
  O  O49  1  0.50000000  0.88629500  0.21243900  1
  O  O50  1  0.00000000  0.17860900  0.85232200  1
  O  O51  1  0.00000000  0.17860900  0.14767800  1
  O  O52  1  0.50000000  0.82139100  0.64767800  1
  O  O53  1  0.50000000  0.82139100  0.35232200  1
  O  O54  1  0.00000000  0.02001500  0.58426500  1
  O  O55  1  0.00000000  0.02001500  0.41573500  1
  O  O56  1  0.50000000  0.97998500  0.91573500  1
  O  O57  1  0.50000000  0.97998500  0.08426500  1
