# generated using pymatgen
data_NbBi2O5F
_symmetry_space_group_name_H-M   'P 1'
_cell_length_a   5.46711800
_cell_length_b   5.47477600
_cell_length_c   16.98143800
_cell_angle_alpha   90.00000000
_cell_angle_beta   90.00000000
_cell_angle_gamma   90.00000000
_symmetry_Int_Tables_number   1
_chemical_formula_structural   NbBi2O5F
_chemical_formula_sum   'Nb4 Bi8 O20 F4'
_cell_volume   508.27560527
_cell_formula_units_Z   4
loop_
 _symmetry_equiv_pos_site_id
 _symmetry_equiv_pos_as_xyz
  1  'x, y, z'
loop_
 _atom_site_type_symbol
 _atom_site_label
 _atom_site_symmetry_multiplicity
 _atom_site_fract_x
 _atom_site_fract_y
 _atom_site_fract_z
 _atom_site_occupancy
  Nb  Nb0  1  0.01095800  0.51146500  0.75322500  1
  Nb  Nb1  1  0.51095800  0.48853500  0.24677500  1
  Nb  Nb2  1  0.51095800  0.98853500  0.75322500  1
  Nb  Nb3  1  0.01095800  0.01146500  0.24677500  1
  Bi  Bi4  1  0.99162000  0.00567600  0.57550300  1
  Bi  Bi5  1  0.49162000  0.99432400  0.42449700  1
  Bi  Bi6  1  0.49162000  0.49432400  0.57550300  1
  Bi  Bi7  1  0.99162000  0.50567600  0.42449700  1
  Bi  Bi8  1  0.99071600  0.97496600  0.92433800  1
  Bi  Bi9  1  0.49071600  0.02503400  0.07566200  1
  Bi  Bi10  1  0.49071600  0.52503400  0.92433800  1
  Bi  Bi11  1  0.99071600  0.47496600  0.07566200  1
  O  O12  1  0.03926400  0.57176300  0.86269100  1
  O  O13  1  0.53926400  0.42823700  0.13730900  1
  O  O14  1  0.53926400  0.92823700  0.86269100  1
  O  O15  1  0.03926400  0.07176300  0.13730900  1
  O  O16  1  0.25288100  0.75323100  0.00220600  1
  O  O17  1  0.75288100  0.24676900  0.99779400  1
  O  O18  1  0.75288100  0.74676900  0.00220600  1
  O  O19  1  0.25288100  0.25323100  0.99779400  1
  O  O20  1  0.25248100  0.75158500  0.50319000  1
  O  O21  1  0.75248100  0.24841500  0.49681000  1
  O  O22  1  0.75248100  0.74841500  0.50319000  1
  O  O23  1  0.25248100  0.25158500  0.49681000  1
  O  O24  1  0.23730600  0.20855800  0.75292100  1
  O  O25  1  0.73730600  0.79144200  0.24707900  1
  O  O26  1  0.73730600  0.29144200  0.75292100  1
  O  O27  1  0.23730600  0.70855800  0.24707900  1
  O  O28  1  0.32669300  0.70086200  0.72104800  1
  O  O29  1  0.82669300  0.29913800  0.27895200  1
  O  O30  1  0.82669300  0.79913800  0.72104800  1
  O  O31  1  0.32669300  0.20086200  0.27895200  1
  F  F32  1  0.52208300  0.05120200  0.62273800  1
  F  F33  1  0.02208300  0.94879800  0.37726200  1
  F  F34  1  0.02208300  0.44879800  0.62273800  1
  F  F35  1  0.52208300  0.55120200  0.37726200  1
