# generated using pymatgen
data_NaZn(PO3)3
_symmetry_space_group_name_H-M   'P 1'
_cell_length_a   14.46015427
_cell_length_b   14.46015427
_cell_length_c   14.46015427
_cell_angle_alpha   90.00000000
_cell_angle_beta   90.00000000
_cell_angle_gamma   90.00000000
_symmetry_Int_Tables_number   1
_chemical_formula_structural   NaZn(PO3)3
_chemical_formula_sum   'Na16 Zn16 P48 O144'
_cell_volume   3023.56130672
_cell_formula_units_Z   16
loop_
 _symmetry_equiv_pos_site_id
 _symmetry_equiv_pos_as_xyz
  1  'x, y, z'
loop_
 _atom_site_type_symbol
 _atom_site_label
 _atom_site_symmetry_multiplicity
 _atom_site_fract_x
 _atom_site_fract_y
 _atom_site_fract_z
 _atom_site_occupancy
  Na  Na0  1  0.00000000  0.00000000  0.50000000  1
  Na  Na1  1  0.00000000  0.50000000  0.00000000  1
  Na  Na2  1  0.50000000  0.00000000  0.00000000  1
  Na  Na3  1  0.50000000  0.50000000  0.50000000  1
  Na  Na4  1  0.50000000  0.50000000  0.00000000  1
  Na  Na5  1  0.50000000  0.00000000  0.50000000  1
  Na  Na6  1  0.00000000  0.50000000  0.50000000  1
  Na  Na7  1  0.00000000  0.00000000  0.00000000  1
  Na  Na8  1  0.24854096  0.75145904  0.25145904  1
  Na  Na9  1  0.75145904  0.25145904  0.24854096  1
  Na  Na10  1  0.25145904  0.24854096  0.75145904  1
  Na  Na11  1  0.74854096  0.74854096  0.74854096  1
  Na  Na12  1  0.75145904  0.24854096  0.74854096  1
  Na  Na13  1  0.24854096  0.74854096  0.75145904  1
  Na  Na14  1  0.74854096  0.75145904  0.24854096  1
  Na  Na15  1  0.25145904  0.25145904  0.25145904  1
  Zn  Zn16  1  0.36888215  0.63111785  0.13111785  1
  Zn  Zn17  1  0.63111785  0.13111785  0.36888215  1
  Zn  Zn18  1  0.13111785  0.36888215  0.63111785  1
  Zn  Zn19  1  0.86888215  0.86888215  0.86888215  1
  Zn  Zn20  1  0.63111785  0.36888215  0.86888215  1
  Zn  Zn21  1  0.36888215  0.86888215  0.63111785  1
  Zn  Zn22  1  0.86888215  0.63111785  0.36888215  1
  Zn  Zn23  1  0.13111785  0.13111785  0.13111785  1
  Zn  Zn24  1  0.12180242  0.87819758  0.37819758  1
  Zn  Zn25  1  0.87819758  0.37819758  0.12180242  1
  Zn  Zn26  1  0.37819758  0.12180242  0.87819758  1
  Zn  Zn27  1  0.62180242  0.62180242  0.62180242  1
  Zn  Zn28  1  0.87819758  0.12180242  0.62180242  1
  Zn  Zn29  1  0.12180242  0.62180242  0.87819758  1
  Zn  Zn30  1  0.62180242  0.87819758  0.12180242  1
  Zn  Zn31  1  0.37819758  0.37819758  0.37819758  1
  P  P32  1  0.02159664  0.52583819  0.24222172  1
  P  P33  1  0.97840336  0.02583819  0.25777828  1
  P  P34  1  0.47840336  0.47416181  0.74222172  1
  P  P35  1  0.52159664  0.97416181  0.75777828  1
  P  P36  1  0.24222172  0.02159664  0.52583819  1
  P  P37  1  0.25777828  0.97840336  0.02583819  1
  P  P38  1  0.74222172  0.47840336  0.47416181  1
  P  P39  1  0.75777828  0.52159664  0.97416181  1
  P  P40  1  0.52583819  0.24222172  0.02159664  1
  P  P41  1  0.02583819  0.25777828  0.97840336  1
  P  P42  1  0.47416181  0.74222172  0.47840336  1
  P  P43  1  0.97416181  0.75777828  0.52159664  1
  P  P44  1  0.97840336  0.47416181  0.75777828  1
  P  P45  1  0.02159664  0.97416181  0.74222172  1
  P  P46  1  0.52159664  0.52583819  0.25777828  1
  P  P47  1  0.47840336  0.02583819  0.24222172  1
  P  P48  1  0.75777828  0.97840336  0.47416181  1
  P  P49  1  0.74222172  0.02159664  0.97416181  1
  P  P50  1  0.25777828  0.52159664  0.52583819  1
  P  P51  1  0.24222172  0.47840336  0.02583819  1
  P  P52  1  0.47416181  0.75777828  0.97840336  1
  P  P53  1  0.97416181  0.74222172  0.02159664  1
  P  P54  1  0.52583819  0.25777828  0.52159664  1
  P  P55  1  0.02583819  0.24222172  0.47840336  1
  P  P56  1  0.01193947  0.72973255  0.22459992  1
  P  P57  1  0.98806053  0.22973255  0.27540008  1
  P  P58  1  0.48806053  0.27026745  0.72459992  1
  P  P59  1  0.51193947  0.77026745  0.77540008  1
  P  P60  1  0.22459992  0.01193947  0.72973255  1
  P  P61  1  0.27540008  0.98806053  0.22973255  1
  P  P62  1  0.72459992  0.48806053  0.27026745  1
  P  P63  1  0.77540008  0.51193947  0.77026745  1
  P  P64  1  0.72973255  0.22459992  0.01193947  1
  P  P65  1  0.22973255  0.27540008  0.98806053  1
  P  P66  1  0.27026745  0.72459992  0.48806053  1
  P  P67  1  0.77026745  0.77540008  0.51193947  1
  P  P68  1  0.98806053  0.27026745  0.77540008  1
  P  P69  1  0.01193947  0.77026745  0.72459992  1
  P  P70  1  0.51193947  0.72973255  0.27540008  1
  P  P71  1  0.48806053  0.22973255  0.22459992  1
  P  P72  1  0.77540008  0.98806053  0.27026745  1
  P  P73  1  0.72459992  0.01193947  0.77026745  1
  P  P74  1  0.27540008  0.51193947  0.72973255  1
  P  P75  1  0.22459992  0.48806053  0.22973255  1
  P  P76  1  0.27026745  0.77540008  0.98806053  1
  P  P77  1  0.77026745  0.72459992  0.01193947  1
  P  P78  1  0.72973255  0.27540008  0.51193947  1
  P  P79  1  0.22973255  0.22459992  0.48806053  1
  O  O80  1  0.37840423  0.98650243  0.27262499  1
  O  O81  1  0.62159577  0.48650243  0.22737501  1
  O  O82  1  0.12159577  0.01349757  0.77262499  1
  O  O83  1  0.87840423  0.51349757  0.72737501  1
  O  O84  1  0.27262499  0.37840423  0.98650243  1
  O  O85  1  0.22737501  0.62159577  0.48650243  1
  O  O86  1  0.77262499  0.12159577  0.01349757  1
  O  O87  1  0.72737501  0.87840423  0.51349757  1
  O  O88  1  0.98650243  0.27262499  0.37840423  1
  O  O89  1  0.48650243  0.22737501  0.62159577  1
  O  O90  1  0.01349757  0.77262499  0.12159577  1
  O  O91  1  0.51349757  0.72737501  0.87840423  1
  O  O92  1  0.62159577  0.01349757  0.72737501  1
  O  O93  1  0.37840423  0.51349757  0.77262499  1
  O  O94  1  0.87840423  0.98650243  0.22737501  1
  O  O95  1  0.12159577  0.48650243  0.27262499  1
  O  O96  1  0.72737501  0.62159577  0.01349757  1
  O  O97  1  0.77262499  0.37840423  0.51349757  1
  O  O98  1  0.22737501  0.87840423  0.98650243  1
  O  O99  1  0.27262499  0.12159577  0.48650243  1
  O  O100  1  0.01349757  0.72737501  0.62159577  1
  O  O101  1  0.51349757  0.77262499  0.37840423  1
  O  O102  1  0.98650243  0.22737501  0.87840423  1
  O  O103  1  0.48650243  0.27262499  0.12159577  1
  O  O104  1  0.46716913  0.53225099  0.16947856  1
  O  O105  1  0.53283087  0.03225099  0.33052144  1
  O  O106  1  0.03283087  0.46774901  0.66947856  1
  O  O107  1  0.96716913  0.96774901  0.83052144  1
  O  O108  1  0.16947856  0.46716913  0.53225099  1
  O  O109  1  0.33052144  0.53283087  0.03225099  1
  O  O110  1  0.66947856  0.03283087  0.46774901  1
  O  O111  1  0.83052144  0.96716913  0.96774901  1
  O  O112  1  0.53225099  0.16947856  0.46716913  1
  O  O113  1  0.03225099  0.33052144  0.53283087  1
  O  O114  1  0.46774901  0.66947856  0.03283087  1
  O  O115  1  0.96774901  0.83052144  0.96716913  1
  O  O116  1  0.53283087  0.46774901  0.83052144  1
  O  O117  1  0.46716913  0.96774901  0.66947856  1
  O  O118  1  0.96716913  0.53225099  0.33052144  1
  O  O119  1  0.03283087  0.03225099  0.16947856  1
  O  O120  1  0.83052144  0.53283087  0.46774901  1
  O  O121  1  0.66947856  0.46716913  0.96774901  1
  O  O122  1  0.33052144  0.96716913  0.53225099  1
  O  O123  1  0.16947856  0.03283087  0.03225099  1
  O  O124  1  0.46774901  0.83052144  0.53283087  1
  O  O125  1  0.96774901  0.66947856  0.46716913  1
  O  O126  1  0.53225099  0.33052144  0.96716913  1
  O  O127  1  0.03225099  0.16947856  0.03283087  1
  O  O128  1  0.01657881  0.97257898  0.33797428  1
  O  O129  1  0.98342119  0.47257898  0.16202572  1
  O  O130  1  0.48342119  0.02742102  0.83797428  1
  O  O131  1  0.51657881  0.52742102  0.66202572  1
  O  O132  1  0.33797428  0.01657881  0.97257898  1
  O  O133  1  0.16202572  0.98342119  0.47257898  1
  O  O134  1  0.83797428  0.48342119  0.02742102  1
  O  O135  1  0.66202572  0.51657881  0.52742102  1
  O  O136  1  0.97257898  0.33797428  0.01657881  1
  O  O137  1  0.47257898  0.16202572  0.98342119  1
  O  O138  1  0.02742102  0.83797428  0.48342119  1
  O  O139  1  0.52742102  0.66202572  0.51657881  1
  O  O140  1  0.98342119  0.02742102  0.66202572  1
  O  O141  1  0.01657881  0.52742102  0.83797428  1
  O  O142  1  0.51657881  0.97257898  0.16202572  1
  O  O143  1  0.48342119  0.47257898  0.33797428  1
  O  O144  1  0.66202572  0.98342119  0.02742102  1
  O  O145  1  0.83797428  0.01657881  0.52742102  1
  O  O146  1  0.16202572  0.51657881  0.97257898  1
  O  O147  1  0.33797428  0.48342119  0.47257898  1
  O  O148  1  0.02742102  0.66202572  0.98342119  1
  O  O149  1  0.52742102  0.83797428  0.01657881  1
  O  O150  1  0.97257898  0.16202572  0.51657881  1
  O  O151  1  0.47257898  0.33797428  0.48342119  1
  O  O152  1  0.41461766  0.72469912  0.23804153  1
  O  O153  1  0.58538234  0.22469912  0.26195847  1
  O  O154  1  0.08538234  0.27530088  0.73804153  1
  O  O155  1  0.91461766  0.77530088  0.76195847  1
  O  O156  1  0.23804153  0.41461766  0.72469912  1
  O  O157  1  0.26195847  0.58538234  0.22469912  1
  O  O158  1  0.73804153  0.08538234  0.27530088  1
  O  O159  1  0.76195847  0.91461766  0.77530088  1
  O  O160  1  0.72469912  0.23804153  0.41461766  1
  O  O161  1  0.22469912  0.26195847  0.58538234  1
  O  O162  1  0.27530088  0.73804153  0.08538234  1
  O  O163  1  0.77530088  0.76195847  0.91461766  1
  O  O164  1  0.58538234  0.27530088  0.76195847  1
  O  O165  1  0.41461766  0.77530088  0.73804153  1
  O  O166  1  0.91461766  0.72469912  0.26195847  1
  O  O167  1  0.08538234  0.22469912  0.23804153  1
  O  O168  1  0.76195847  0.58538234  0.27530088  1
  O  O169  1  0.73804153  0.41461766  0.77530088  1
  O  O170  1  0.26195847  0.91461766  0.72469912  1
  O  O171  1  0.23804153  0.08538234  0.22469912  1
  O  O172  1  0.27530088  0.76195847  0.58538234  1
  O  O173  1  0.77530088  0.73804153  0.41461766  1
  O  O174  1  0.72469912  0.26195847  0.91461766  1
  O  O175  1  0.22469912  0.23804153  0.08538234  1
  O  O176  1  0.08513793  0.78056283  0.27667119  1
  O  O177  1  0.91486207  0.28056283  0.22332881  1
  O  O178  1  0.41486207  0.21943717  0.77667119  1
  O  O179  1  0.58513793  0.71943717  0.72332881  1
  O  O180  1  0.27667119  0.08513793  0.78056283  1
  O  O181  1  0.22332881  0.91486207  0.28056283  1
  O  O182  1  0.77667119  0.41486207  0.21943717  1
  O  O183  1  0.72332881  0.58513793  0.71943717  1
  O  O184  1  0.78056283  0.27667119  0.08513793  1
  O  O185  1  0.28056283  0.22332881  0.91486207  1
  O  O186  1  0.21943717  0.77667119  0.41486207  1
  O  O187  1  0.71943717  0.72332881  0.58513793  1
  O  O188  1  0.91486207  0.21943717  0.72332881  1
  O  O189  1  0.08513793  0.71943717  0.77667119  1
  O  O190  1  0.58513793  0.78056283  0.22332881  1
  O  O191  1  0.41486207  0.28056283  0.27667119  1
  O  O192  1  0.72332881  0.91486207  0.21943717  1
  O  O193  1  0.77667119  0.08513793  0.71943717  1
  O  O194  1  0.22332881  0.58513793  0.78056283  1
  O  O195  1  0.27667119  0.41486207  0.28056283  1
  O  O196  1  0.21943717  0.72332881  0.91486207  1
  O  O197  1  0.71943717  0.77667119  0.08513793  1
  O  O198  1  0.78056283  0.22332881  0.58513793  1
  O  O199  1  0.28056283  0.27667119  0.41486207  1
  O  O200  1  0.04993096  0.62664677  0.20315659  1
  O  O201  1  0.95006904  0.12664677  0.29684341  1
  O  O202  1  0.45006904  0.37335323  0.70315659  1
  O  O203  1  0.54993096  0.87335323  0.79684341  1
  O  O204  1  0.20315659  0.04993096  0.62664677  1
  O  O205  1  0.29684341  0.95006904  0.12664677  1
  O  O206  1  0.70315659  0.45006904  0.37335323  1
  O  O207  1  0.79684341  0.54993096  0.87335323  1
  O  O208  1  0.62664677  0.20315659  0.04993096  1
  O  O209  1  0.12664677  0.29684341  0.95006904  1
  O  O210  1  0.37335323  0.70315659  0.45006904  1
  O  O211  1  0.87335323  0.79684341  0.54993096  1
  O  O212  1  0.95006904  0.37335323  0.79684341  1
  O  O213  1  0.04993096  0.87335323  0.70315659  1
  O  O214  1  0.54993096  0.62664677  0.29684341  1
  O  O215  1  0.45006904  0.12664677  0.20315659  1
  O  O216  1  0.79684341  0.95006904  0.37335323  1
  O  O217  1  0.70315659  0.04993096  0.87335323  1
  O  O218  1  0.29684341  0.54993096  0.62664677  1
  O  O219  1  0.20315659  0.45006904  0.12664677  1
  O  O220  1  0.37335323  0.79684341  0.95006904  1
  O  O221  1  0.87335323  0.70315659  0.04993096  1
  O  O222  1  0.62664677  0.29684341  0.54993096  1
  O  O223  1  0.12664677  0.20315659  0.45006904  1
