# generated using pymatgen
data_Na2NiMo6H26(NO15)2
_symmetry_space_group_name_H-M   'P 1'
_cell_length_a   11.36734000
_cell_length_b   12.02631000
_cell_length_c   12.07577125
_cell_angle_alpha   63.24371318
_cell_angle_beta   90.00000000
_cell_angle_gamma   90.00000000
_symmetry_Int_Tables_number   1
_chemical_formula_structural   Na2NiMo6H26(NO15)2
_chemical_formula_sum   'Na4 Ni2 Mo12 H52 N4 O60'
_cell_volume   1474.08768506
_cell_formula_units_Z   2
loop_
 _symmetry_equiv_pos_site_id
 _symmetry_equiv_pos_as_xyz
  1  'x, y, z'
loop_
 _atom_site_type_symbol
 _atom_site_label
 _atom_site_symmetry_multiplicity
 _atom_site_fract_x
 _atom_site_fract_y
 _atom_site_fract_z
 _atom_site_occupancy
  Na  Na0  1  0.80462700  0.42672400  0.91632200  1
  Na  Na1  1  0.30462700  0.07327600  0.08367800  1
  Na  Na2  1  0.19537300  0.57327600  0.08367800  1
  Na  Na3  1  0.69537300  0.92672400  0.91632200  1
  Ni  Ni4  1  0.50000000  0.50000000  0.50000000  1
  Ni  Ni5  1  0.00000000  0.00000000  0.50000000  1
  Mo  Mo6  1  0.72709100  0.31841700  0.66300400  1
  Mo  Mo7  1  0.22709100  0.18158300  0.33699600  1
  Mo  Mo8  1  0.27290900  0.68158300  0.33699600  1
  Mo  Mo9  1  0.77290900  0.81841700  0.66300400  1
  Mo  Mo10  1  0.50629800  0.63732600  0.18883600  1
  Mo  Mo11  1  0.00629800  0.86267400  0.81116400  1
  Mo  Mo12  1  0.49370200  0.36267400  0.81116400  1
  Mo  Mo13  1  0.99370200  0.13732600  0.18883600  1
  Mo  Mo14  1  0.73461900  0.45999800  0.35444000  1
  Mo  Mo15  1  0.23461900  0.04000200  0.64556000  1
  Mo  Mo16  1  0.26538100  0.54000200  0.64556000  1
  Mo  Mo17  1  0.76538100  0.95999800  0.35444000  1
  H  H18  1  0.65073800  0.55263400  0.64495200  1
  H  H19  1  0.15073800  0.94736600  0.35504800  1
  H  H20  1  0.34926200  0.44736600  0.35504800  1
  H  H21  1  0.84926200  0.05263400  0.64495200  1
  H  H22  1  0.57003700  0.28240500  0.49981200  1
  H  H23  1  0.07003700  0.21759500  0.50018800  1
  H  H24  1  0.42996300  0.71759500  0.50018800  1
  H  H25  1  0.92996300  0.78240500  0.49981200  1
  H  H26  1  0.64814800  0.68379600  0.35612800  1
  H  H27  1  0.14814800  0.81620400  0.64387200  1
  H  H28  1  0.35185200  0.31620400  0.64387200  1
  H  H29  1  0.85185200  0.18379600  0.35612800  1
  H  H30  1  0.77578900  0.65441800  0.94328100  1
  H  H31  1  0.27578900  0.84558200  0.05671900  1
  H  H32  1  0.22421100  0.34558200  0.05671900  1
  H  H33  1  0.72421100  0.15441800  0.94328100  1
  H  H34  1  0.71209600  0.56939100  0.06693300  1
  H  H35  1  0.21209600  0.93060900  0.93306700  1
  H  H36  1  0.28790400  0.43060900  0.93306700  1
  H  H37  1  0.78790400  0.06939100  0.06693300  1
  H  H38  1  0.52626300  0.16570000  0.40760500  1
  H  H39  1  0.02626300  0.33430000  0.59239500  1
  H  H40  1  0.47373700  0.83430000  0.59239500  1
  H  H41  1  0.97373700  0.66570000  0.40760500  1
  H  H42  1  0.47989000  0.10075900  0.54071900  1
  H  H43  1  0.97989000  0.39924100  0.45928100  1
  H  H44  1  0.52011000  0.89924100  0.45928100  1
  H  H45  1  0.02011000  0.60075900  0.54071900  1
  H  H46  1  0.06744200  0.47770700  0.89145000  1
  H  H47  1  0.56744200  0.02229300  0.10855000  1
  H  H48  1  0.93255800  0.52229300  0.10855000  1
  H  H49  1  0.43255800  0.97770700  0.89145000  1
  H  H50  1  0.98452000  0.59458900  0.83393200  1
  H  H51  1  0.48452000  0.90541100  0.16606800  1
  H  H52  1  0.01548000  0.40541100  0.16606800  1
  H  H53  1  0.51548000  0.09458900  0.83393200  1
  H  H54  1  0.55674400  0.36513300  0.19545700  1
  H  H55  1  0.05674400  0.13486700  0.80454300  1
  H  H56  1  0.44325600  0.63486700  0.80454300  1
  H  H57  1  0.94325600  0.86513300  0.19545700  1
  H  H58  1  0.59882400  0.22286100  0.20312900  1
  H  H59  1  0.09882400  0.27713900  0.79687100  1
  H  H60  1  0.40117600  0.77713900  0.79687100  1
  H  H61  1  0.90117600  0.72286100  0.20312900  1
  H  H62  1  0.45573300  0.26347200  0.18237000  1
  H  H63  1  0.95573300  0.23652800  0.81763000  1
  H  H64  1  0.54426700  0.73652800  0.81763000  1
  H  H65  1  0.04426700  0.76347200  0.18237000  1
  H  H66  1  0.55489800  0.34005000  0.06695800  1
  H  H67  1  0.05489800  0.15995000  0.93304200  1
  H  H68  1  0.44510200  0.65995000  0.93304200  1
  H  H69  1  0.94510200  0.84005000  0.06695800  1
  N  N70  1  0.54082000  0.29893000  0.16301100  1
  N  N71  1  0.04082000  0.20107000  0.83698900  1
  N  N72  1  0.45918000  0.70107000  0.83698900  1
  N  N73  1  0.95918000  0.79893000  0.16301100  1
  O  O74  1  0.60980900  0.48014500  0.64493500  1
  O  O75  1  0.10980900  0.01985500  0.35506500  1
  O  O76  1  0.39019100  0.51985500  0.35506500  1
  O  O77  1  0.89019100  0.98014500  0.64493500  1
  O  O78  1  0.60354800  0.35839300  0.50317700  1
  O  O79  1  0.10354800  0.14160700  0.49682300  1
  O  O80  1  0.39645200  0.64160700  0.49682300  1
  O  O81  1  0.89645200  0.85839300  0.50317700  1
  O  O82  1  0.61153400  0.60825100  0.35770400  1
  O  O83  1  0.11153400  0.89174900  0.64229600  1
  O  O84  1  0.38846600  0.39174900  0.64229600  1
  O  O85  1  0.88846600  0.10825100  0.35770400  1
  O  O86  1  0.58580000  0.24926300  0.77045900  1
  O  O87  1  0.08580000  0.25073700  0.22954100  1
  O  O88  1  0.41420000  0.75073700  0.22954100  1
  O  O89  1  0.91420000  0.74926300  0.77045900  1
  O  O90  1  0.81730200  0.33675300  0.77348700  1
  O  O91  1  0.31730200  0.16324700  0.22651300  1
  O  O92  1  0.18269800  0.66324700  0.22651300  1
  O  O93  1  0.68269800  0.83675300  0.77348700  1
  O  O94  1  0.77574800  0.17709200  0.67093800  1
  O  O95  1  0.27574800  0.32290800  0.32906200  1
  O  O96  1  0.22425200  0.82290800  0.32906200  1
  O  O97  1  0.72425200  0.67709200  0.67093800  1
  O  O98  1  0.80380100  0.43740600  0.51266000  1
  O  O99  1  0.30380100  0.06259400  0.48734000  1
  O  O100  1  0.19619900  0.56259400  0.48734000  1
  O  O101  1  0.69619900  0.93740600  0.51266000  1
  O  O102  1  0.78823200  0.32734800  0.34661700  1
  O  O103  1  0.28823200  0.17265200  0.65338300  1
  O  O104  1  0.21176800  0.67265200  0.65338300  1
  O  O105  1  0.71176800  0.82734800  0.34661700  1
  O  O106  1  0.82914400  0.58188100  0.26129600  1
  O  O107  1  0.32914400  0.91811900  0.73870400  1
  O  O108  1  0.17085600  0.41811900  0.73870400  1
  O  O109  1  0.67085600  0.08188100  0.26129600  1
  O  O110  1  0.60184300  0.48474300  0.23593500  1
  O  O111  1  0.10184300  0.01525700  0.76406500  1
  O  O112  1  0.39815700  0.51525700  0.76406500  1
  O  O113  1  0.89815700  0.98474300  0.23593500  1
  O  O114  1  0.60532700  0.74664200  0.08623500  1
  O  O115  1  0.10532700  0.75335800  0.91376500  1
  O  O116  1  0.39467300  0.25335800  0.91376500  1
  O  O117  1  0.89467300  0.24664200  0.08623500  1
  O  O118  1  0.40717000  0.60841600  0.09078000  1
  O  O119  1  0.90717000  0.89158400  0.90922000  1
  O  O120  1  0.59283000  0.39158400  0.90922000  1
  O  O121  1  0.09283000  0.10841600  0.09078000  1
  O  O122  1  0.76674100  0.56761500  0.00510300  1
  O  O123  1  0.26674100  0.93238500  0.99489700  1
  O  O124  1  0.23325900  0.43238500  0.99489700  1
  O  O125  1  0.73325900  0.06761500  0.00510300  1
  O  O126  1  0.54274500  0.15564900  0.49035500  1
  O  O127  1  0.04274500  0.34435100  0.50964500  1
  O  O128  1  0.45725500  0.84435100  0.50964500  1
  O  O129  1  0.95725500  0.65564900  0.49035500  1
  O  O130  1  0.98826500  0.50442900  0.85991400  1
  O  O131  1  0.48826500  0.99557100  0.14008600  1
  O  O132  1  0.01173500  0.49557100  0.14008600  1
  O  O133  1  0.51173500  0.00442900  0.85991400  1
