# generated using pymatgen
data_NaV2O5
_symmetry_space_group_name_H-M   'P 1'
_cell_length_a   10.63918125
_cell_length_b   10.63918125
_cell_length_c   12.07563295
_cell_angle_alpha   84.07790200
_cell_angle_beta   84.07790200
_cell_angle_gamma   139.92523967
_symmetry_Int_Tables_number   1
_chemical_formula_structural   NaV2O5
_chemical_formula_sum   'Na8 V16 O40'
_cell_volume   839.12604085
_cell_formula_units_Z   8
loop_
 _symmetry_equiv_pos_site_id
 _symmetry_equiv_pos_as_xyz
  1  'x, y, z'
loop_
 _atom_site_type_symbol
 _atom_site_label
 _atom_site_symmetry_multiplicity
 _atom_site_fract_x
 _atom_site_fract_y
 _atom_site_fract_z
 _atom_site_occupancy
  Na  Na0  1  0.09020700  0.90979300  0.75000000  1
  Na  Na1  1  0.41059200  0.58940800  0.25000000  1
  Na  Na2  1  0.58940800  0.41059200  0.75000000  1
  Na  Na3  1  0.90979300  0.09020700  0.25000000  1
  Na  Na4  1  0.34016500  0.65983500  0.75000000  1
  Na  Na5  1  0.65983500  0.34016500  0.25000000  1
  Na  Na6  1  0.83947000  0.16053000  0.75000000  1
  Na  Na7  1  0.16053000  0.83947000  0.25000000  1
  V  V8  1  0.29591900  0.35844200  0.59517500  1
  V  V9  1  0.64155800  0.70408100  0.90482500  1
  V  V10  1  0.70408100  0.64155800  0.40482500  1
  V  V11  1  0.35844200  0.29591900  0.09517500  1
  V  V12  1  0.04725300  0.60765200  0.59564100  1
  V  V13  1  0.39234800  0.95274700  0.90435900  1
  V  V14  1  0.95274700  0.39234800  0.40435900  1
  V  V15  1  0.60765200  0.04725300  0.09564100  1
  V  V16  1  0.80020000  0.84819500  0.60216500  1
  V  V17  1  0.15180500  0.19980000  0.89783500  1
  V  V18  1  0.19980000  0.15180500  0.39783500  1
  V  V19  1  0.84819500  0.80020000  0.10216500  1
  V  V20  1  0.45003200  0.90099200  0.39865700  1
  V  V21  1  0.09900800  0.54996800  0.10134300  1
  V  V22  1  0.54996800  0.09900800  0.60134300  1
  V  V23  1  0.90099200  0.45003200  0.89865700  1
  O  O24  1  0.75910300  0.74779600  0.74762100  1
  O  O25  1  0.25220400  0.24089700  0.75237900  1
  O  O26  1  0.24089700  0.25220400  0.25237900  1
  O  O27  1  0.74779600  0.75910300  0.24762100  1
  O  O28  1  0.00596500  0.49444800  0.75374000  1
  O  O29  1  0.50555200  0.99403500  0.74626000  1
  O  O30  1  0.49444800  0.00596500  0.25374000  1
  O  O31  1  0.99403500  0.50555200  0.24626000  1
  O  O32  1  0.08792200  0.08513900  0.57067900  1
  O  O33  1  0.91486100  0.91207800  0.92932100  1
  O  O34  1  0.91207800  0.91486100  0.42932100  1
  O  O35  1  0.08513900  0.08792200  0.07067900  1
  O  O36  1  0.59526300  0.58869300  0.57254100  1
  O  O37  1  0.41130700  0.40473700  0.92745900  1
  O  O38  1  0.40473700  0.41130700  0.42745900  1
  O  O39  1  0.58869300  0.59526300  0.07254100  1
  O  O40  1  0.34490700  0.84180500  0.57064700  1
  O  O41  1  0.15819500  0.65509300  0.92935300  1
  O  O42  1  0.16145500  0.66876400  0.42772800  1
  O  O43  1  0.33123600  0.83854500  0.07227200  1
  O  O44  1  0.83854500  0.33123600  0.57227200  1
  O  O45  1  0.66876400  0.16145500  0.92772800  1
  O  O46  1  0.65509300  0.15819500  0.42935300  1
  O  O47  1  0.84180500  0.34490700  0.07064700  1
  O  O48  1  0.70972400  0.92137700  0.61628400  1
  O  O49  1  0.07862300  0.29027600  0.88371600  1
  O  O50  1  0.29027600  0.07862300  0.38371600  1
  O  O51  1  0.92137700  0.70972400  0.11628400  1
  O  O52  1  0.20423800  0.43038700  0.61880700  1
  O  O53  1  0.56961300  0.79576200  0.88119300  1
  O  O54  1  0.79576200  0.56961300  0.38119300  1
  O  O55  1  0.43038700  0.20423800  0.11880700  1
  O  O56  1  0.95336000  0.67760200  0.61843000  1
  O  O57  1  0.32239800  0.04664000  0.88157000  1
  O  O58  1  0.53712400  0.82432100  0.38421200  1
  O  O59  1  0.17567900  0.46287600  0.11578800  1
  O  O60  1  0.46287600  0.17567900  0.61578800  1
  O  O61  1  0.82432100  0.53712400  0.88421200  1
  O  O62  1  0.04664000  0.32239800  0.38157000  1
  O  O63  1  0.67760200  0.95336000  0.11843000  1
