# generated using pymatgen
data_Sm2TeMo6(H5O9)4
_symmetry_space_group_name_H-M   'P 1'
_cell_length_a   8.97848800
_cell_length_b   9.40416301
_cell_length_c   10.86435532
_cell_angle_alpha   71.35494551
_cell_angle_beta   75.98096210
_cell_angle_gamma   73.42350234
_symmetry_Int_Tables_number   1
_chemical_formula_structural   Sm2TeMo6(H5O9)4
_chemical_formula_sum   'Sm2 Te1 Mo6 H20 O36'
_cell_volume   821.46376663
_cell_formula_units_Z   1
loop_
 _symmetry_equiv_pos_site_id
 _symmetry_equiv_pos_as_xyz
  1  'x, y, z'
loop_
 _atom_site_type_symbol
 _atom_site_label
 _atom_site_symmetry_multiplicity
 _atom_site_fract_x
 _atom_site_fract_y
 _atom_site_fract_z
 _atom_site_occupancy
  Sm  Sm0  1  0.28253900  0.82507500  0.27412600  1
  Sm  Sm1  1  0.71746100  0.17492500  0.72587400  1
  Te  Te2  1  0.00000000  0.50000000  0.00000000  1
  Mo  Mo3  1  0.72027200  0.80248300  0.05616400  1
  Mo  Mo4  1  0.27972800  0.19751700  0.94383600  1
  Mo  Mo5  1  0.94792300  0.59557100  0.27759900  1
  Mo  Mo6  1  0.05207700  0.40442900  0.72240100  1
  Mo  Mo7  1  0.23321200  0.29175100  0.22015100  1
  Mo  Mo8  1  0.76678800  0.70824900  0.77984900  1
  H  H9  1  0.43829400  0.69703000  0.03289700  1
  H  H10  1  0.56170600  0.30297000  0.96710300  1
  H  H11  1  0.27532800  0.63957700  0.08191200  1
  H  H12  1  0.72467200  0.36042300  0.91808800  1
  H  H13  1  0.34589400  0.51742700  0.47151700  1
  H  H14  1  0.65410600  0.48257300  0.52848300  1
  H  H15  1  0.38829700  0.48316100  0.33537000  1
  H  H16  1  0.61170300  0.51683900  0.66463000  1
  H  H17  1  0.01231100  0.09051000  0.17416800  1
  H  H18  1  0.98768900  0.90949000  0.82583200  1
  H  H19  1  0.95762800  0.93882800  0.18283000  1
  H  H20  1  0.04237200  0.06117200  0.81717000  1
  H  H21  1  0.53815700  0.75336300  0.44943500  1
  H  H22  1  0.46184300  0.24663700  0.55056500  1
  H  H23  1  0.37571400  0.78702800  0.54227800  1
  H  H24  1  0.62428600  0.21297200  0.45772200  1
  H  H25  1  0.00574300  0.90163000  0.45968400  1
  H  H26  1  0.99425700  0.09837000  0.54031600  1
  H  H27  1  0.07142400  0.74646600  0.55655000  1
  H  H28  1  0.92857600  0.25353400  0.44345000  1
  O  O29  1  0.39763200  0.55615800  0.38075100  1
  O  O30  1  0.60236800  0.44384200  0.61924900  1
  O  O31  1  0.88210500  0.79743900  0.14765100  1
  O  O32  1  0.11789500  0.20256100  0.85234900  1
  O  O33  1  0.86430400  0.46483600  0.90139500  1
  O  O34  1  0.13569600  0.53516400  0.09860500  1
  O  O35  1  0.03557700  0.37399700  0.32823700  1
  O  O36  1  0.96442300  0.62600300  0.67176300  1
  O  O37  1  0.82850700  0.54548500  0.14443600  1
  O  O38  1  0.17149300  0.45451500  0.85556400  1
  O  O39  1  0.93298500  0.71777500  0.90902800  1
  O  O40  1  0.06701500  0.28222500  0.09097200  1
  O  O41  1  0.36448500  0.28037500  0.05019600  1
  O  O42  1  0.63551500  0.71962500  0.94980400  1
  O  O43  1  0.55709100  0.80710300  0.18428300  1
  O  O44  1  0.44290900  0.19289700  0.81571700  1
  O  O45  1  0.08965500  0.66384800  0.31568100  1
  O  O46  1  0.91034500  0.33615200  0.68431900  1
  O  O47  1  0.24136200  0.09419200  0.29414700  1
  O  O48  1  0.75863800  0.90580800  0.70585300  1
  O  O49  1  0.78568000  0.60374600  0.40357000  1
  O  O50  1  0.21432000  0.39625400  0.59643000  1
  O  O51  1  0.34588800  0.68952800  0.10315700  1
  O  O52  1  0.65411200  0.31047200  0.89684300  1
  O  O53  1  0.36666000  0.34009700  0.28425300  1
  O  O54  1  0.63334000  0.65990300  0.71574700  1
  O  O55  1  0.01247600  0.98303900  0.22563800  1
  O  O56  1  0.98752400  0.01696100  0.77436200  1
  O  O57  1  0.42863100  0.81185000  0.45040400  1
  O  O58  1  0.57136900  0.18815000  0.54959600  1
  O  O59  1  0.10469300  0.83633300  0.48768800  1
  O  O60  1  0.89530700  0.16366700  0.51231200  1
  O  O61  1  0.70943800  0.29904900  0.25849600  1
  O  O62  1  0.29056200  0.70095100  0.74150400  1
  O  O63  1  0.70019100  0.98937400  0.95096200  1
  O  O64  1  0.29980900  0.01062600  0.04903800  1
