# generated using pymatgen
data_AgSb3PbS6
_symmetry_space_group_name_H-M   'P 1'
_cell_length_a   13.25733648
_cell_length_b   17.27935949
_cell_length_c   19.46149776
_cell_angle_alpha   90.00000000
_cell_angle_beta   90.23689516
_cell_angle_gamma   90.00000000
_symmetry_Int_Tables_number   1
_chemical_formula_structural   AgSb3PbS6
_chemical_formula_sum   'Ag16 Sb48 Pb16 S96'
_cell_volume   4458.16838102
_cell_formula_units_Z   16
loop_
 _symmetry_equiv_pos_site_id
 _symmetry_equiv_pos_as_xyz
  1  'x, y, z'
loop_
 _atom_site_type_symbol
 _atom_site_label
 _atom_site_symmetry_multiplicity
 _atom_site_fract_x
 _atom_site_fract_y
 _atom_site_fract_z
 _atom_site_occupancy
  Ag  Ag0  1  0.65067368  0.31367157  0.64394328  1
  Ag  Ag1  1  0.84932632  0.81367157  0.35605672  1
  Ag  Ag2  1  0.34932632  0.68632843  0.35605672  1
  Ag  Ag3  1  0.15067368  0.18632843  0.64394328  1
  Ag  Ag4  1  0.16579500  0.67803895  0.85686833  1
  Ag  Ag5  1  0.33420500  0.17803895  0.14313167  1
  Ag  Ag6  1  0.83420500  0.32196105  0.14313167  1
  Ag  Ag7  1  0.66579500  0.82196105  0.85686833  1
  Ag  Ag8  1  0.67459830  0.55234317  0.64439374  1
  Ag  Ag9  1  0.82540170  0.05234317  0.35560626  1
  Ag  Ag10  1  0.32540170  0.44765683  0.35560626  1
  Ag  Ag11  1  0.17459830  0.94765683  0.64439374  1
  Ag  Ag12  1  0.16559073  0.43281773  0.86692120  1
  Ag  Ag13  1  0.33440927  0.93281773  0.13307880  1
  Ag  Ag14  1  0.83440927  0.56718227  0.13307880  1
  Ag  Ag15  1  0.66559073  0.06718227  0.86692120  1
  Sb  Sb16  1  0.15356968  0.18982787  0.87696847  1
  Sb  Sb17  1  0.34643032  0.68982787  0.12303153  1
  Sb  Sb18  1  0.84643032  0.81017213  0.12303153  1
  Sb  Sb19  1  0.65356968  0.31017213  0.87696847  1
  Sb  Sb20  1  0.11412791  0.80042273  0.04421276  1
  Sb  Sb21  1  0.38587209  0.30042273  0.95578724  1
  Sb  Sb22  1  0.88587209  0.19957727  0.95578724  1
  Sb  Sb23  1  0.61412791  0.69957727  0.04421276  1
  Sb  Sb24  1  0.37596066  0.31659723  0.55392488  1
  Sb  Sb25  1  0.12403934  0.81659723  0.44607512  1
  Sb  Sb26  1  0.62403934  0.68340277  0.44607512  1
  Sb  Sb27  1  0.87596066  0.18340277  0.55392488  1
  Sb  Sb28  1  0.87467593  0.68542163  0.55235271  1
  Sb  Sb29  1  0.62532407  0.18542163  0.44764729  1
  Sb  Sb30  1  0.12532407  0.31457837  0.44764729  1
  Sb  Sb31  1  0.37467593  0.81457837  0.55235271  1
  Sb  Sb32  1  0.36556211  0.82815747  0.94163987  1
  Sb  Sb33  1  0.13443789  0.32815747  0.05836013  1
  Sb  Sb34  1  0.63443789  0.17184253  0.05836013  1
  Sb  Sb35  1  0.86556211  0.67184253  0.94163987  1
  Sb  Sb36  1  0.12590785  0.68994409  0.63650050  1
  Sb  Sb37  1  0.37409215  0.18994409  0.36349950  1
  Sb  Sb38  1  0.87409215  0.31005591  0.36349950  1
  Sb  Sb39  1  0.62590785  0.81005591  0.63650050  1
  Sb  Sb40  1  0.62258056  0.56711157  0.85155530  1
  Sb  Sb41  1  0.87741944  0.06711157  0.14844470  1
  Sb  Sb42  1  0.37741944  0.43288843  0.14844470  1
  Sb  Sb43  1  0.12258056  0.93288843  0.85155530  1
  Sb  Sb44  1  0.37638535  0.56443992  0.93933249  1
  Sb  Sb45  1  0.12361465  0.06443992  0.06066751  1
  Sb  Sb46  1  0.62361465  0.43556008  0.06066751  1
  Sb  Sb47  1  0.87638535  0.93556008  0.93933249  1
  Sb  Sb48  1  0.14734136  0.43384106  0.62715291  1
  Sb  Sb49  1  0.35265864  0.93384106  0.37284709  1
  Sb  Sb50  1  0.85265864  0.56615894  0.37284709  1
  Sb  Sb51  1  0.64734136  0.06615894  0.62715291  1
  Sb  Sb52  1  0.86809791  0.42080814  0.55963337  1
  Sb  Sb53  1  0.63190209  0.92080814  0.44036663  1
  Sb  Sb54  1  0.13190209  0.57919186  0.44036663  1
  Sb  Sb55  1  0.36809791  0.07919186  0.55963337  1
  Sb  Sb56  1  0.38124787  0.06326924  0.95476687  1
  Sb  Sb57  1  0.11875213  0.56326924  0.04523313  1
  Sb  Sb58  1  0.61875213  0.93673076  0.04523313  1
  Sb  Sb59  1  0.88124787  0.43673076  0.95476687  1
  Sb  Sb60  1  0.61984244  0.44713819  0.45462665  1
  Sb  Sb61  1  0.88015756  0.94713819  0.54537335  1
  Sb  Sb62  1  0.38015756  0.55286181  0.54537335  1
  Sb  Sb63  1  0.11984244  0.05286181  0.45462665  1
  Pb  Pb64  1  0.92751934  0.32512563  0.75657517  1
  Pb  Pb65  1  0.57248066  0.82512563  0.24342483  1
  Pb  Pb66  1  0.07248066  0.67487437  0.24342483  1
  Pb  Pb67  1  0.42751934  0.17487437  0.75657517  1
  Pb  Pb68  1  0.89745752  0.80766235  0.75024898  1
  Pb  Pb69  1  0.60254248  0.30766235  0.24975102  1
  Pb  Pb70  1  0.10254248  0.19233765  0.24975102  1
  Pb  Pb71  1  0.39745752  0.69233765  0.75024898  1
  Pb  Pb72  1  0.91262933  0.56796041  0.74384309  1
  Pb  Pb73  1  0.58737067  0.06796041  0.25615691  1
  Pb  Pb74  1  0.08737067  0.43203959  0.25615691  1
  Pb  Pb75  1  0.41262933  0.93203959  0.74384309  1
  Pb  Pb76  1  0.41264022  0.43742013  0.74985707  1
  Pb  Pb77  1  0.08735978  0.93742013  0.25014293  1
  Pb  Pb78  1  0.58735978  0.56257987  0.25014293  1
  Pb  Pb79  1  0.91264022  0.06257987  0.74985707  1
  S  S80  1  0.47434508  0.20027562  0.60026428  1
  S  S81  1  0.02565492  0.70027562  0.39973572  1
  S  S82  1  0.52565492  0.79972438  0.39973572  1
  S  S83  1  0.97434508  0.29972438  0.60026428  1
  S  S84  1  0.20812502  0.69910257  0.98378667  1
  S  S85  1  0.29187498  0.19910257  0.01621333  1
  S  S86  1  0.79187498  0.30089743  0.01621333  1
  S  S87  1  0.70812502  0.80089743  0.98378667  1
  S  S88  1  0.49268206  0.66959906  0.89364647  1
  S  S89  1  0.00731794  0.16959906  0.10635353  1
  S  S90  1  0.50731794  0.33040094  0.10635353  1
  S  S91  1  0.99268206  0.83040094  0.89364647  1
  S  S92  1  0.28157428  0.29314501  0.84577860  1
  S  S93  1  0.21842572  0.79314501  0.15422140  1
  S  S94  1  0.71842572  0.70685499  0.15422140  1
  S  S95  1  0.78157428  0.20685499  0.84577860  1
  S  S96  1  0.51006096  0.14875761  0.90593359  1
  S  S97  1  0.98993904  0.64875761  0.09406641  1
  S  S98  1  0.48993904  0.85124239  0.09406641  1
  S  S99  1  0.01006096  0.35124239  0.90593359  1
  S  S100  1  0.73436873  0.33544319  0.50407640  1
  S  S101  1  0.76563127  0.83544319  0.49592360  1
  S  S102  1  0.26563127  0.66455681  0.49592360  1
  S  S103  1  0.23436873  0.16455681  0.50407640  1
  S  S104  1  0.28039832  0.81323493  0.82888373  1
  S  S105  1  0.21960168  0.31323493  0.17111627  1
  S  S106  1  0.71960168  0.18676507  0.17111627  1
  S  S107  1  0.78039832  0.68676507  0.82888373  1
  S  S108  1  0.06552011  0.19004533  0.76587539  1
  S  S109  1  0.43447989  0.69004533  0.23412461  1
  S  S110  1  0.93447989  0.80995467  0.23412461  1
  S  S111  1  0.56552011  0.30995467  0.76587539  1
  S  S112  1  0.99619579  0.78844470  0.59196977  1
  S  S113  1  0.50380421  0.28844470  0.40803023  1
  S  S114  1  0.00380421  0.21155530  0.40803023  1
  S  S115  1  0.49619579  0.71155530  0.59196977  1
  S  S116  1  0.77262887  0.68750655  0.65843681  1
  S  S117  1  0.72737113  0.18750655  0.34156319  1
  S  S118  1  0.22737113  0.31249345  0.34156319  1
  S  S119  1  0.27262887  0.81249345  0.65843681  1
  S  S120  1  0.05093301  0.69464348  0.75547448  1
  S  S121  1  0.44906699  0.19464348  0.24452552  1
  S  S122  1  0.94906699  0.30535652  0.24452552  1
  S  S123  1  0.55093301  0.80535652  0.75547448  1
  S  S124  1  0.25969848  0.32102849  0.65878767  1
  S  S125  1  0.24030152  0.82102849  0.34121233  1
  S  S126  1  0.74030152  0.67897151  0.34121233  1
  S  S127  1  0.75969848  0.17897151  0.65878767  1
  S  S128  1  0.49869187  0.46231639  0.90199030  1
  S  S129  1  0.00130813  0.96231639  0.09800970  1
  S  S130  1  0.50130813  0.53768361  0.09800970  1
  S  S131  1  0.99869187  0.03768361  0.90199030  1
  S  S132  1  0.22700277  0.90953499  0.99724054  1
  S  S133  1  0.27299723  0.40953499  0.00275946  1
  S  S134  1  0.77299723  0.09046501  0.00275946  1
  S  S135  1  0.72700277  0.59046501  0.99724054  1
  S  S136  1  0.27323488  0.54093977  0.65583829  1
  S  S137  1  0.22676512  0.04093977  0.34416171  1
  S  S138  1  0.72676512  0.45906023  0.34416171  1
  S  S139  1  0.77323488  0.95906023  0.65583829  1
  S  S140  1  0.47110731  0.94225426  0.90241704  1
  S  S141  1  0.02889269  0.44225426  0.09758296  1
  S  S142  1  0.52889269  0.05774574  0.09758296  1
  S  S143  1  0.97110731  0.55774574  0.90241704  1
  S  S144  1  0.26649210  0.07631535  0.84781429  1
  S  S145  1  0.23350790  0.57631535  0.15218571  1
  S  S146  1  0.73350790  0.92368465  0.15218571  1
  S  S147  1  0.76649210  0.42368465  0.84781429  1
  S  S148  1  0.72144453  0.54301185  0.51661933  1
  S  S149  1  0.77855547  0.04301185  0.48338067  1
  S  S150  1  0.27855547  0.45698815  0.48338067  1
  S  S151  1  0.22144453  0.95698815  0.51661933  1
  S  S152  1  0.07277720  0.44479406  0.74255249  1
  S  S153  1  0.42722280  0.94479406  0.25744751  1
  S  S154  1  0.92722280  0.55520594  0.25744751  1
  S  S155  1  0.57277720  0.05520594  0.74255249  1
  S  S156  1  0.49728202  0.41178148  0.59891135  1
  S  S157  1  0.00271798  0.91178148  0.40108865  1
  S  S158  1  0.50271798  0.58821852  0.40108865  1
  S  S159  1  0.99728202  0.08821852  0.59891135  1
  S  S160  1  0.99267668  0.58200933  0.59712680  1
  S  S161  1  0.50732332  0.08200933  0.40287320  1
  S  S162  1  0.00732332  0.41799067  0.40287320  1
  S  S163  1  0.49267668  0.91799067  0.59712680  1
  S  S164  1  0.27188249  0.55215853  0.83671145  1
  S  S165  1  0.22811751  0.05215853  0.16328855  1
  S  S166  1  0.72811751  0.44784147  0.16328855  1
  S  S167  1  0.77188249  0.94784147  0.83671145  1
  S  S168  1  0.54190392  0.56393349  0.73341200  1
  S  S169  1  0.95809608  0.06393349  0.26658800  1
  S  S170  1  0.45809608  0.43606651  0.26658800  1
  S  S171  1  0.04190392  0.93606651  0.73341200  1
  S  S172  1  0.78626613  0.42844610  0.67148925  1
  S  S173  1  0.71373387  0.92844610  0.32851075  1
  S  S174  1  0.21373387  0.57155390  0.32851075  1
  S  S175  1  0.28626613  0.07155390  0.67148925  1
