# generated using pymatgen
data_CoH18C2(NO)16
_symmetry_space_group_name_H-M   'P 1'
_cell_length_a   12.29278300
_cell_length_b   7.07281600
_cell_length_c   13.45759717
_cell_angle_alpha   90.00000000
_cell_angle_beta   111.62342408
_cell_angle_gamma   90.00000000
_symmetry_Int_Tables_number   1
_chemical_formula_structural   CoH18C2(NO)16
_chemical_formula_sum   'Co2 H36 C4 N32 O32'
_cell_volume   1087.72301709
_cell_formula_units_Z   2
loop_
 _symmetry_equiv_pos_site_id
 _symmetry_equiv_pos_as_xyz
  1  'x, y, z'
loop_
 _atom_site_type_symbol
 _atom_site_label
 _atom_site_symmetry_multiplicity
 _atom_site_fract_x
 _atom_site_fract_y
 _atom_site_fract_z
 _atom_site_occupancy
  Co  Co0  1  0.50000000  0.50000000  0.50000000  1
  Co  Co1  1  0.50000000  0.00000000  0.00000000  1
  H  H2  1  0.34548400  0.48519300  0.59249700  1
  H  H3  1  0.65451600  0.98519300  0.90750300  1
  H  H4  1  0.65451600  0.51480700  0.40750300  1
  H  H5  1  0.34548400  0.01480700  0.09249700  1
  H  H6  1  0.15959800  0.67066500  0.20509000  1
  H  H7  1  0.84040200  0.17066500  0.29491000  1
  H  H8  1  0.84040200  0.32933500  0.79491000  1
  H  H9  1  0.15959800  0.82933500  0.70509000  1
  H  H10  1  0.34519800  0.27840000  0.53339200  1
  H  H11  1  0.65480200  0.77840000  0.96660800  1
  H  H12  1  0.65480200  0.72160000  0.46660800  1
  H  H13  1  0.34519800  0.22160000  0.03339200  1
  H  H14  1  0.58213700  0.15237600  0.47206600  1
  H  H15  1  0.41786300  0.65237600  0.02793400  1
  H  H16  1  0.41786300  0.84762400  0.52793400  1
  H  H17  1  0.58213700  0.34762400  0.97206600  1
  H  H18  1  0.48396000  0.21472200  0.36164000  1
  H  H19  1  0.51604000  0.71472200  0.13836000  1
  H  H20  1  0.51604000  0.78527800  0.63836000  1
  H  H21  1  0.48396000  0.28527800  0.86164000  1
  H  H22  1  0.16601100  0.43782700  0.43919400  1
  H  H23  1  0.83398900  0.93782700  0.06080600  1
  H  H24  1  0.83398900  0.56217300  0.56080600  1
  H  H25  1  0.16601100  0.06217300  0.93919400  1
  H  H26  1  0.07603600  0.60392000  0.28152500  1
  H  H27  1  0.92396400  0.10392000  0.21847500  1
  H  H28  1  0.92396400  0.39608000  0.71847500  1
  H  H29  1  0.07603600  0.89608000  0.78152500  1
  H  H30  1  0.22429200  0.94395500  0.47774700  1
  H  H31  1  0.77570800  0.44395500  0.02225300  1
  H  H32  1  0.77570800  0.05604500  0.52225300  1
  H  H33  1  0.22429200  0.55604500  0.97774700  1
  H  H34  1  0.27584100  0.03370800  0.39788200  1
  H  H35  1  0.72415900  0.53370800  0.10211800  1
  H  H36  1  0.72415900  0.96629200  0.60211800  1
  H  H37  1  0.27584100  0.46629200  0.89788200  1
  C  C38  1  0.25321900  0.56029200  0.35012200  1
  C  C39  1  0.74678100  0.06029200  0.14987800  1
  C  C40  1  0.74678100  0.43970800  0.64987800  1
  C  C41  1  0.25321900  0.93970800  0.85012200  1
  N  N42  1  0.34621100  0.42287000  0.52382700  1
  N  N43  1  0.65378900  0.92287000  0.97617300  1
  N  N44  1  0.65378900  0.57713000  0.47617300  1
  N  N45  1  0.34621100  0.07713000  0.02382700  1
  N  N46  1  0.24548600  0.47721600  0.43761400  1
  N  N47  1  0.75451400  0.97721600  0.06238600  1
  N  N48  1  0.75451400  0.52278400  0.56238600  1
  N  N49  1  0.24548600  0.02278400  0.93761400  1
  N  N50  1  0.15472700  0.60920500  0.27185900  1
  N  N51  1  0.84527300  0.10920500  0.22814100  1
  N  N52  1  0.84527300  0.39079500  0.72814100  1
  N  N53  1  0.15472700  0.89079500  0.77185900  1
  N  N54  1  0.36464900  0.58548900  0.35314000  1
  N  N55  1  0.63535100  0.08548900  0.14686000  1
  N  N56  1  0.63535100  0.41451100  0.64686000  1
  N  N57  1  0.36464900  0.91451100  0.85314000  1
  N  N58  1  0.38419300  0.67325200  0.27183300  1
  N  N59  1  0.61580700  0.17325200  0.22816700  1
  N  N60  1  0.61580700  0.32674800  0.72816700  1
  N  N61  1  0.38419300  0.82674800  0.77183300  1
  N  N62  1  0.13943300  0.18660700  0.09820400  1
  N  N63  1  0.86056700  0.68660700  0.40179600  1
  N  N64  1  0.86056700  0.81339300  0.90179600  1
  N  N65  1  0.13943300  0.31339300  0.59820400  1
  N  N66  1  0.16114200  0.14872200  0.20307600  1
  N  N67  1  0.83885800  0.64872200  0.29692400  1
  N  N68  1  0.83885800  0.85127800  0.79692400  1
  N  N69  1  0.16114200  0.35127800  0.70307600  1
  N  N70  1  0.02556900  0.23260500  0.03632700  1
  N  N71  1  0.97443100  0.73260500  0.46367300  1
  N  N72  1  0.97443100  0.76739500  0.96367300  1
  N  N73  1  0.02556900  0.26739500  0.53632700  1
  O  O74  1  0.48958200  0.70086200  0.28559100  1
  O  O75  1  0.51041800  0.20086200  0.21440900  1
  O  O76  1  0.51041800  0.29913800  0.71440900  1
  O  O77  1  0.48958200  0.79913800  0.78559100  1
  O  O78  1  0.30281500  0.72283600  0.18726900  1
  O  O79  1  0.69718500  0.22283600  0.31273100  1
  O  O80  1  0.69718500  0.27716400  0.81273100  1
  O  O81  1  0.30281500  0.77716400  0.68726900  1
  O  O82  1  0.50890600  0.22833500  0.43945200  1
  O  O83  1  0.49109400  0.72833500  0.06054800  1
  O  O84  1  0.49109400  0.77166500  0.56054800  1
  O  O85  1  0.50890600  0.27166500  0.93945200  1
  O  O86  1  0.00421800  0.20907600  0.93833300  1
  O  O87  1  0.99578200  0.70907600  0.56166700  1
  O  O88  1  0.99578200  0.79092400  0.06166700  1
  O  O89  1  0.00421800  0.29092400  0.43833300  1
  O  O90  1  0.95449700  0.30170200  0.07204100  1
  O  O91  1  0.04550300  0.80170200  0.42795900  1
  O  O92  1  0.04550300  0.69829800  0.92795900  1
  O  O93  1  0.95449700  0.19829800  0.57204100  1
  O  O94  1  0.08507300  0.11059800  0.24094500  1
  O  O95  1  0.91492700  0.61059800  0.25905500  1
  O  O96  1  0.91492700  0.88940200  0.75905500  1
  O  O97  1  0.08507300  0.38940200  0.74094500  1
  O  O98  1  0.26873900  0.14192700  0.26002700  1
  O  O99  1  0.73126100  0.64192700  0.23997300  1
  O  O100  1  0.73126100  0.85807300  0.73997300  1
  O  O101  1  0.26873900  0.35807300  0.76002700  1
  O  O102  1  0.29645700  0.99065500  0.47221200  1
  O  O103  1  0.70354300  0.49065500  0.02778800  1
  O  O104  1  0.70354300  0.00934500  0.52778800  1
  O  O105  1  0.29645700  0.50934500  0.97221200  1
