# generated using pymatgen
data_Ca2Al4Si8O33
_symmetry_space_group_name_H-M   'P 1'
_cell_length_a   10.04166192
_cell_length_b   10.04166192
_cell_length_c   7.53729391
_cell_angle_alpha   75.27774724
_cell_angle_beta   75.27774724
_cell_angle_gamma   82.89991064
_symmetry_Int_Tables_number   1
_chemical_formula_structural   Ca2Al4Si8O33
_chemical_formula_sum   'Ca2 Al4 Si8 O33'
_cell_volume   709.52112897
_cell_formula_units_Z   1
loop_
 _symmetry_equiv_pos_site_id
 _symmetry_equiv_pos_as_xyz
  1  'x, y, z'
loop_
 _atom_site_type_symbol
 _atom_site_label
 _atom_site_symmetry_multiplicity
 _atom_site_fract_x
 _atom_site_fract_y
 _atom_site_fract_z
 _atom_site_occupancy
  Ca  Ca0  1  0.73824000  0.73824000  0.28037500  1
  Ca  Ca1  1  0.26176000  0.26176000  0.71962500  1
  Al  Al2  1  0.82495800  0.43319600  0.27094800  1
  Al  Al3  1  0.43319600  0.82495800  0.27094800  1
  Al  Al4  1  0.17504200  0.56680400  0.72905200  1
  Al  Al5  1  0.56680400  0.17504200  0.72905200  1
  Si  Si6  1  0.85243800  0.61739700  0.85650700  1
  Si  Si7  1  0.61739700  0.85243800  0.85650700  1
  Si  Si8  1  0.14756200  0.38260300  0.14349300  1
  Si  Si9  1  0.38260300  0.14756200  0.14349300  1
  Si  Si10  1  0.69622400  0.45954800  0.68747200  1
  Si  Si11  1  0.45954800  0.69622400  0.68747200  1
  Si  Si12  1  0.30377600  0.54045200  0.31252800  1
  Si  Si13  1  0.54045200  0.30377600  0.31252800  1
  O  O14  1  0.75456600  0.75456600  0.78603400  1
  O  O15  1  0.24543400  0.24543400  0.21396600  1
  O  O16  1  0.83122100  0.59027400  0.08716200  1
  O  O17  1  0.59027400  0.83122100  0.08716200  1
  O  O18  1  0.16877900  0.40972600  0.91283800  1
  O  O19  1  0.40972600  0.16877900  0.91283800  1
  O  O20  1  0.76631800  0.52104900  0.46058000  1
  O  O21  1  0.52104900  0.76631800  0.46058000  1
  O  O22  1  0.23368200  0.47895100  0.53942000  1
  O  O23  1  0.47895100  0.23368200  0.53942000  1
  O  O24  1  0.80087500  0.48342600  0.81090300  1
  O  O25  1  0.48342600  0.80087500  0.81090300  1
  O  O26  1  0.19912500  0.51657400  0.18909700  1
  O  O27  1  0.51657400  0.19912500  0.18909700  1
  O  O28  1  0.01010400  0.64603400  0.74700300  1
  O  O29  1  0.64603400  0.01010400  0.74700300  1
  O  O30  1  0.98989600  0.35396600  0.25299700  1
  O  O31  1  0.35396600  0.98989600  0.25299700  1
  O  O32  1  0.54980500  0.54980500  0.74202800  1
  O  O33  1  0.45019500  0.45019500  0.25797200  1
  O  O34  1  0.70182300  0.32593900  0.27402200  1
  O  O35  1  0.32593900  0.70182300  0.27402200  1
  O  O36  1  0.29817700  0.67406100  0.72597800  1
  O  O37  1  0.67406100  0.29817700  0.72597800  1
  O  O38  1  0.92080000  0.07920000  0.00000000  1
  O  O39  1  0.07920000  0.92080000  0.00000000  1
  O  O40  1  0.93908000  0.93908000  0.96124000  1
  O  O41  1  0.06092000  0.06092000  0.03876000  1
  O  O42  1  0.00000000  0.00000000  0.50000000  1
  O  O43  1  0.07074200  0.16559400  0.61765800  1
  O  O44  1  0.16559400  0.07074200  0.61765800  1
  O  O45  1  0.92925800  0.83440600  0.38234200  1
  O  O46  1  0.83440600  0.92925800  0.38234200  1
