# generated using pymatgen
data_Al2Fe(SiO5)2
_symmetry_space_group_name_H-M   'P 1'
_cell_length_a   11.86375459
_cell_length_b   11.86375459
_cell_length_c   5.27469100
_cell_angle_alpha   90.00000000
_cell_angle_beta   90.00000000
_cell_angle_gamma   109.91063295
_symmetry_Int_Tables_number   1
_chemical_formula_structural   Al2Fe(SiO5)2
_chemical_formula_sum   'Al8 Fe4 Si8 O40'
_cell_volume   698.02841180
_cell_formula_units_Z   4
loop_
 _symmetry_equiv_pos_site_id
 _symmetry_equiv_pos_as_xyz
  1  'x, y, z'
loop_
 _atom_site_type_symbol
 _atom_site_label
 _atom_site_symmetry_multiplicity
 _atom_site_fract_x
 _atom_site_fract_y
 _atom_site_fract_z
 _atom_site_occupancy
  Al  Al0  1  0.19049600  0.19049600  0.00000000  1
  Al  Al1  1  0.30950400  0.30950400  0.50000000  1
  Al  Al2  1  0.69049600  0.69049600  0.50000000  1
  Al  Al3  1  0.80950400  0.80950400  0.00000000  1
  Al  Al4  1  0.78839200  0.21160800  0.50000000  1
  Al  Al5  1  0.28839200  0.71160800  0.00000000  1
  Al  Al6  1  0.71160800  0.28839200  0.00000000  1
  Al  Al7  1  0.21160800  0.78839200  0.50000000  1
  Fe  Fe8  1  0.86948600  0.13051400  0.00000000  1
  Fe  Fe9  1  0.36948600  0.63051400  0.50000000  1
  Fe  Fe10  1  0.63051400  0.36948600  0.50000000  1
  Fe  Fe11  1  0.13051400  0.86948600  0.00000000  1
  Si  Si12  1  0.06315800  0.33506600  0.33364600  1
  Si  Si13  1  0.16493400  0.43684200  0.83364600  1
  Si  Si14  1  0.83506600  0.56315800  0.83364600  1
  Si  Si15  1  0.93684200  0.66493400  0.33364600  1
  Si  Si16  1  0.43684200  0.16493400  0.16635400  1
  Si  Si17  1  0.33506600  0.06315800  0.66635400  1
  Si  Si18  1  0.66493400  0.93684200  0.66635400  1
  Si  Si19  1  0.56315800  0.83506600  0.16635400  1
  O  O20  1  0.02398600  0.14950900  0.89810200  1
  O  O21  1  0.35049100  0.47601400  0.39810200  1
  O  O22  1  0.64950900  0.52398600  0.39810200  1
  O  O23  1  0.97601400  0.85049100  0.89810200  1
  O  O24  1  0.47601400  0.35049100  0.60189800  1
  O  O25  1  0.14950900  0.02398600  0.10189800  1
  O  O26  1  0.85049100  0.97601400  0.10189800  1
  O  O27  1  0.52398600  0.64950900  0.60189800  1
  O  O28  1  0.16311700  0.26830700  0.31442200  1
  O  O29  1  0.23169300  0.33688300  0.81442200  1
  O  O30  1  0.76830700  0.66311700  0.81442200  1
  O  O31  1  0.83688300  0.73169300  0.31442200  1
  O  O32  1  0.33688300  0.23169300  0.18557800  1
  O  O33  1  0.26830700  0.16311700  0.68557800  1
  O  O34  1  0.73169300  0.83688300  0.68557800  1
  O  O35  1  0.66311700  0.76830700  0.18557800  1
  O  O36  1  0.08010000  0.41954800  0.08258500  1
  O  O37  1  0.08045200  0.41990000  0.58258500  1
  O  O38  1  0.91954800  0.58010000  0.58258500  1
  O  O39  1  0.91990000  0.58045200  0.08258500  1
  O  O40  1  0.41990000  0.08045200  0.41741500  1
  O  O41  1  0.41954800  0.08010000  0.91741500  1
  O  O42  1  0.58045200  0.91990000  0.91741500  1
  O  O43  1  0.58010000  0.91954800  0.41741500  1
  O  O44  1  0.93110100  0.23166500  0.33866800  1
  O  O45  1  0.26833500  0.56889900  0.83866800  1
  O  O46  1  0.73166500  0.43110100  0.83866800  1
  O  O47  1  0.06889900  0.76833500  0.33866800  1
  O  O48  1  0.56889900  0.26833500  0.16133200  1
  O  O49  1  0.23166500  0.93110100  0.66133200  1
  O  O50  1  0.76833500  0.06889900  0.66133200  1
  O  O51  1  0.43110100  0.73166500  0.16133200  1
  O  O52  1  0.85097600  0.27307600  0.83036800  1
  O  O53  1  0.22692400  0.64902400  0.33036800  1
  O  O54  1  0.77307600  0.35097600  0.33036800  1
  O  O55  1  0.14902400  0.72692400  0.83036800  1
  O  O56  1  0.64902400  0.22692400  0.66963200  1
  O  O57  1  0.27307600  0.85097600  0.16963200  1
  O  O58  1  0.72692400  0.14902400  0.16963200  1
  O  O59  1  0.35097600  0.77307600  0.66963200  1
