# generated using pymatgen
data_Mg5(SiO3)6
_symmetry_space_group_name_H-M   'P 1'
_cell_length_a   5.37259400
_cell_length_b   9.46325500
_cell_length_c   27.62127200
_cell_angle_alpha   90.00000000
_cell_angle_beta   90.00000000
_cell_angle_gamma   90.00000000
_symmetry_Int_Tables_number   1
_chemical_formula_structural   Mg5(SiO3)6
_chemical_formula_sum   'Mg20 Si24 O72'
_cell_volume   1404.32698198
_cell_formula_units_Z   4
loop_
 _symmetry_equiv_pos_site_id
 _symmetry_equiv_pos_as_xyz
  1  'x, y, z'
loop_
 _atom_site_type_symbol
 _atom_site_label
 _atom_site_symmetry_multiplicity
 _atom_site_fract_x
 _atom_site_fract_y
 _atom_site_fract_z
 _atom_site_occupancy
  Mg  Mg0  1  0.75000000  0.50000000  0.52552200  1
  Mg  Mg1  1  0.25000000  0.00000000  0.97447800  1
  Mg  Mg2  1  0.25000000  0.50000000  0.47447800  1
  Mg  Mg3  1  0.75000000  0.00000000  0.02552200  1
  Mg  Mg4  1  0.75000000  0.00000000  0.91436500  1
  Mg  Mg5  1  0.25000000  0.50000000  0.58563500  1
  Mg  Mg6  1  0.25000000  0.00000000  0.08563500  1
  Mg  Mg7  1  0.75000000  0.50000000  0.41436500  1
  Mg  Mg8  1  0.75000000  0.50000000  0.64660100  1
  Mg  Mg9  1  0.25000000  0.00000000  0.85339900  1
  Mg  Mg10  1  0.25000000  0.50000000  0.35339900  1
  Mg  Mg11  1  0.75000000  0.00000000  0.14660100  1
  Mg  Mg12  1  0.75000000  0.00000000  0.79717200  1
  Mg  Mg13  1  0.25000000  0.50000000  0.70282800  1
  Mg  Mg14  1  0.25000000  0.00000000  0.20282800  1
  Mg  Mg15  1  0.75000000  0.50000000  0.29717200  1
  Mg  Mg16  1  0.75000000  0.50000000  0.75557500  1
  Mg  Mg17  1  0.25000000  0.00000000  0.74442500  1
  Mg  Mg18  1  0.25000000  0.50000000  0.24442500  1
  Mg  Mg19  1  0.75000000  0.00000000  0.25557500  1
  Si  Si20  1  0.91257100  0.29023500  0.97211800  1
  Si  Si21  1  0.41257100  0.20976500  0.52788200  1
  Si  Si22  1  0.08742900  0.79023500  0.52788200  1
  Si  Si23  1  0.58742900  0.70976500  0.97211800  1
  Si  Si24  1  0.08742900  0.70976500  0.02788200  1
  Si  Si25  1  0.58742900  0.79023500  0.47211800  1
  Si  Si26  1  0.91257100  0.20976500  0.47211800  1
  Si  Si27  1  0.41257100  0.29023500  0.02788200  1
  Si  Si28  1  0.92348100  0.28720800  0.86034400  1
  Si  Si29  1  0.42348100  0.21279200  0.63965600  1
  Si  Si30  1  0.07651900  0.78720800  0.63965600  1
  Si  Si31  1  0.57651900  0.71279200  0.86034400  1
  Si  Si32  1  0.07651900  0.71279200  0.13965600  1
  Si  Si33  1  0.57651900  0.78720800  0.36034400  1
  Si  Si34  1  0.92348100  0.21279200  0.36034400  1
  Si  Si35  1  0.42348100  0.28720800  0.13965600  1
  Si  Si36  1  0.92070400  0.20439100  0.69718500  1
  Si  Si37  1  0.42070400  0.29560900  0.80281500  1
  Si  Si38  1  0.07929600  0.70439100  0.80281500  1
  Si  Si39  1  0.57929600  0.79560900  0.69718500  1
  Si  Si40  1  0.07929600  0.79560900  0.30281500  1
  Si  Si41  1  0.57929600  0.70439100  0.19718500  1
  Si  Si42  1  0.92070400  0.29560900  0.19718500  1
  Si  Si43  1  0.42070400  0.20439100  0.30281500  1
  O  O44  1  0.89824700  0.41060500  0.58582900  1
  O  O45  1  0.39824700  0.08939500  0.91417100  1
  O  O46  1  0.10175300  0.91060500  0.91417100  1
  O  O47  1  0.60175300  0.58939500  0.58582900  1
  O  O48  1  0.10175300  0.58939500  0.41417100  1
  O  O49  1  0.60175300  0.91060500  0.08582900  1
  O  O50  1  0.89824700  0.08939500  0.08582900  1
  O  O51  1  0.39824700  0.41060500  0.41417100  1
  O  O52  1  0.66302600  0.34702100  0.00018700  1
  O  O53  1  0.16302600  0.15297900  0.49981300  1
  O  O54  1  0.33697400  0.84702100  0.49981300  1
  O  O55  1  0.83697400  0.65297900  0.00018700  1
  O  O56  1  0.33697400  0.65297900  0.99981300  1
  O  O57  1  0.83697400  0.84702100  0.50018700  1
  O  O58  1  0.66302600  0.15297900  0.50018700  1
  O  O59  1  0.16302600  0.34702100  0.99981300  1
  O  O60  1  0.91207300  0.11698700  0.97189100  1
  O  O61  1  0.41207300  0.38301300  0.52810900  1
  O  O62  1  0.08792700  0.61698700  0.52810900  1
  O  O63  1  0.58792700  0.88301300  0.97189100  1
  O  O64  1  0.08792700  0.88301300  0.02810900  1
  O  O65  1  0.58792700  0.61698700  0.47189100  1
  O  O66  1  0.91207300  0.38301300  0.47189100  1
  O  O67  1  0.41207300  0.11698700  0.02810900  1
  O  O68  1  0.90882900  0.34643800  0.91592300  1
  O  O69  1  0.40882900  0.15356200  0.58407700  1
  O  O70  1  0.09117100  0.84643800  0.58407700  1
  O  O71  1  0.59117100  0.65356200  0.91592300  1
  O  O72  1  0.09117100  0.65356200  0.08407700  1
  O  O73  1  0.59117100  0.84643800  0.41592300  1
  O  O74  1  0.90882900  0.15356200  0.41592300  1
  O  O75  1  0.40882900  0.34643800  0.08407700  1
  O  O76  1  0.91247100  0.11471200  0.85780200  1
  O  O77  1  0.41247100  0.38528800  0.64219800  1
  O  O78  1  0.08752900  0.61471200  0.64219800  1
  O  O79  1  0.58752900  0.88528800  0.85780200  1
  O  O80  1  0.08752900  0.88528800  0.14219800  1
  O  O81  1  0.58752900  0.61471200  0.35780200  1
  O  O82  1  0.91247100  0.38528800  0.35780200  1
  O  O83  1  0.41247100  0.11471200  0.14219800  1
  O  O84  1  0.67953000  0.15478900  0.66458000  1
  O  O85  1  0.17953000  0.34521100  0.83542000  1
  O  O86  1  0.32047000  0.65478900  0.83542000  1
  O  O87  1  0.82047000  0.84521100  0.66458000  1
  O  O88  1  0.32047000  0.84521100  0.33542000  1
  O  O89  1  0.82047000  0.65478900  0.16458000  1
  O  O90  1  0.67953000  0.34521100  0.16458000  1
  O  O91  1  0.17953000  0.15478900  0.33542000  1
  O  O92  1  0.68670600  0.35032900  0.82884900  1
  O  O93  1  0.18670600  0.14967100  0.67115100  1
  O  O94  1  0.31329400  0.85032900  0.67115100  1
  O  O95  1  0.81329400  0.64967100  0.82884900  1
  O  O96  1  0.31329400  0.64967100  0.17115100  1
  O  O97  1  0.81329400  0.85032900  0.32884900  1
  O  O98  1  0.68670600  0.14967100  0.32884900  1
  O  O99  1  0.18670600  0.35032900  0.17115100  1
  O  O100  1  0.92000200  0.37816500  0.70093800  1
  O  O101  1  0.42000200  0.12183500  0.79906200  1
  O  O102  1  0.07999800  0.87816500  0.79906200  1
  O  O103  1  0.57999800  0.62183500  0.70093800  1
  O  O104  1  0.07999800  0.62183500  0.29906200  1
  O  O105  1  0.57999800  0.87816500  0.20093800  1
  O  O106  1  0.92000200  0.12183500  0.20093800  1
  O  O107  1  0.42000200  0.37816500  0.29906200  1
  O  O108  1  0.93589600  0.11875400  0.74750000  1
  O  O109  1  0.43589600  0.38124600  0.75250000  1
  O  O110  1  0.06410400  0.61875400  0.75250000  1
  O  O111  1  0.56410400  0.88124600  0.74750000  1
  O  O112  1  0.06410400  0.88124600  0.25250000  1
  O  O113  1  0.56410400  0.61875400  0.24750000  1
  O  O114  1  0.93589600  0.38124600  0.24750000  1
  O  O115  1  0.43589600  0.11875400  0.25250000  1
