# generated using pymatgen
data_NaNd(Si2O5)3
_symmetry_space_group_name_H-M   'P 1'
_cell_length_a   16.12807626
_cell_length_b   16.12807626
_cell_length_c   7.16269600
_cell_angle_alpha   90.00000000
_cell_angle_beta   90.00000000
_cell_angle_gamma   153.00157562
_symmetry_Int_Tables_number   1
_chemical_formula_structural   NaNd(Si2O5)3
_chemical_formula_sum   'Na2 Nd2 Si12 O30'
_cell_volume   845.79474134
_cell_formula_units_Z   2
loop_
 _symmetry_equiv_pos_site_id
 _symmetry_equiv_pos_as_xyz
  1  'x, y, z'
loop_
 _atom_site_type_symbol
 _atom_site_label
 _atom_site_symmetry_multiplicity
 _atom_site_fract_x
 _atom_site_fract_y
 _atom_site_fract_z
 _atom_site_occupancy
  Na  Na0  1  0.62334800  0.37665200  0.02821600  1
  Na  Na1  1  0.37665200  0.62334800  0.02821600  1
  Nd  Nd2  1  0.13017700  0.86982300  0.99756400  1
  Nd  Nd3  1  0.86982300  0.13017700  0.99756400  1
  Si  Si4  1  0.08332700  0.91667300  0.49752000  1
  Si  Si5  1  0.91667300  0.08332700  0.49752000  1
  Si  Si6  1  0.34054700  0.24140000  0.75527400  1
  Si  Si7  1  0.65945300  0.75860000  0.75527400  1
  Si  Si8  1  0.24140000  0.34054700  0.75527400  1
  Si  Si9  1  0.75860000  0.65945300  0.75527400  1
  Si  Si10  1  0.18165500  0.81834500  0.59343800  1
  Si  Si11  1  0.81834500  0.18165500  0.59343800  1
  Si  Si12  1  0.49589400  0.09057800  0.28922100  1
  Si  Si13  1  0.50410600  0.90942200  0.28922100  1
  Si  Si14  1  0.09057800  0.49589400  0.28922100  1
  Si  Si15  1  0.90942200  0.50410600  0.28922100  1
  O  O16  1  0.12899200  0.87100800  0.61592100  1
  O  O17  1  0.87100800  0.12899200  0.61592100  1
  O  O18  1  0.23437500  0.11944600  0.56262100  1
  O  O19  1  0.76562500  0.88055400  0.56262100  1
  O  O20  1  0.11944600  0.23437500  0.56262100  1
  O  O21  1  0.88055400  0.76562500  0.56262100  1
  O  O22  1  0.25914400  0.25914400  0.82114000  1
  O  O23  1  0.74085600  0.74085600  0.82114000  1
  O  O24  1  0.32380500  0.15574700  0.91385000  1
  O  O25  1  0.67619500  0.84425300  0.91385000  1
  O  O26  1  0.15574700  0.32380500  0.91385000  1
  O  O27  1  0.84425300  0.67619500  0.91385000  1
  O  O28  1  0.55541300  0.44458700  0.69586500  1
  O  O29  1  0.44458700  0.55541300  0.69586500  1
  O  O30  1  0.41406000  0.08243600  0.13819400  1
  O  O31  1  0.58594000  0.91756400  0.13819400  1
  O  O32  1  0.08243600  0.41406000  0.13819400  1
  O  O33  1  0.91756400  0.58594000  0.13819400  1
  O  O34  1  0.37335800  0.98109500  0.48145300  1
  O  O35  1  0.62664200  0.01890500  0.48145300  1
  O  O36  1  0.98109500  0.37335800  0.48145300  1
  O  O37  1  0.01890500  0.62664200  0.48145300  1
  O  O38  1  0.50000000  0.00000000  0.20601500  1
  O  O39  1  0.00000000  0.50000000  0.20601500  1
  O  O40  1  0.70058900  0.29941100  0.35631900  1
  O  O41  1  0.29941100  0.70058900  0.35631900  1
  O  O42  1  0.09287500  0.90712500  0.27652500  1
  O  O43  1  0.90712500  0.09287500  0.27652500  1
  O  O44  1  0.19648400  0.80351600  0.80975300  1
  O  O45  1  0.80351600  0.19648400  0.80975300  1
