# generated using pymatgen
data_SbS2O9
_symmetry_space_group_name_H-M   'P 1'
_cell_length_a   9.28682400
_cell_length_b   11.08085700
_cell_length_c   13.79618600
_cell_angle_alpha   90.00000000
_cell_angle_beta   90.00000000
_cell_angle_gamma   90.00000000
_symmetry_Int_Tables_number   1
_chemical_formula_structural   SbS2O9
_chemical_formula_sum   'Sb8 S16 O72'
_cell_volume   1419.70988508
_cell_formula_units_Z   8
loop_
 _symmetry_equiv_pos_site_id
 _symmetry_equiv_pos_as_xyz
  1  'x, y, z'
loop_
 _atom_site_type_symbol
 _atom_site_label
 _atom_site_symmetry_multiplicity
 _atom_site_fract_x
 _atom_site_fract_y
 _atom_site_fract_z
 _atom_site_occupancy
  Sb  Sb0  1  0.16508600  0.26199900  0.71804900  1
  Sb  Sb1  1  0.66508600  0.73800100  0.28195100  1
  Sb  Sb2  1  0.66508600  0.26199900  0.78195100  1
  Sb  Sb3  1  0.16508600  0.73800100  0.21804900  1
  Sb  Sb4  1  0.33833700  0.98388100  0.50820800  1
  Sb  Sb5  1  0.83833700  0.01611900  0.49179200  1
  Sb  Sb6  1  0.83833700  0.98388100  0.99179200  1
  Sb  Sb7  1  0.33833700  0.01611900  0.00820800  1
  S  S8  1  0.48886400  0.98977100  0.71932900  1
  S  S9  1  0.98886400  0.01022900  0.28067100  1
  S  S10  1  0.98886400  0.98977100  0.78067100  1
  S  S11  1  0.48886400  0.01022900  0.21932900  1
  S  S12  1  0.10412100  0.22546600  0.48811800  1
  S  S13  1  0.60412100  0.77453400  0.51188200  1
  S  S14  1  0.60412100  0.22546600  0.01188200  1
  S  S15  1  0.10412100  0.77453400  0.98811800  1
  S  S16  1  0.90833700  0.47060700  0.76937300  1
  S  S17  1  0.40833700  0.52939300  0.23062700  1
  S  S18  1  0.40833700  0.47060700  0.73062700  1
  S  S19  1  0.90833700  0.52939300  0.26937300  1
  S  S20  1  0.11268100  0.76062100  0.47018400  1
  S  S21  1  0.61268100  0.23937900  0.52981600  1
  S  S22  1  0.61268100  0.76062100  0.02981600  1
  S  S23  1  0.11268100  0.23937900  0.97018400  1
  O  O24  1  0.31601200  0.47724000  0.00381800  1
  O  O25  1  0.81601200  0.52276000  0.99618200  1
  O  O26  1  0.81601200  0.47724000  0.49618200  1
  O  O27  1  0.31601200  0.52276000  0.50381800  1
  O  O28  1  0.10777800  0.73295400  0.75379300  1
  O  O29  1  0.60777800  0.26704600  0.24620700  1
  O  O30  1  0.60777800  0.73295400  0.74620700  1
  O  O31  1  0.10777800  0.26704600  0.25379300  1
  O  O32  1  0.47844500  0.09771500  0.78292900  1
  O  O33  1  0.97844500  0.90228500  0.21707100  1
  O  O34  1  0.97844500  0.09771500  0.71707100  1
  O  O35  1  0.47844500  0.90228500  0.28292900  1
  O  O36  1  0.34765400  0.99228800  0.65734500  1
  O  O37  1  0.84765400  0.00771200  0.34265500  1
  O  O38  1  0.84765400  0.99228800  0.84265500  1
  O  O39  1  0.34765400  0.00771200  0.15734500  1
  O  O40  1  0.61388500  0.98984600  0.65637900  1
  O  O41  1  0.11388500  0.01015400  0.34362100  1
  O  O42  1  0.11388500  0.98984600  0.84362100  1
  O  O43  1  0.61388500  0.01015400  0.15637900  1
  O  O44  1  0.47720500  0.88067000  0.78330500  1
  O  O45  1  0.97720500  0.11933000  0.21669500  1
  O  O46  1  0.97720500  0.88067000  0.71669500  1
  O  O47  1  0.47720500  0.11933000  0.28330500  1
  O  O48  1  0.10332800  0.32053700  0.56653000  1
  O  O49  1  0.60332800  0.67946300  0.43347000  1
  O  O50  1  0.60332800  0.32053700  0.93347000  1
  O  O51  1  0.10332800  0.67946300  0.06653000  1
  O  O52  1  0.16596300  0.11316500  0.53742400  1
  O  O53  1  0.66596300  0.88683500  0.46257600  1
  O  O54  1  0.66596300  0.11316500  0.96257600  1
  O  O55  1  0.16596300  0.88683500  0.03742400  1
  O  O56  1  0.95300100  0.19702500  0.46057400  1
  O  O57  1  0.45300100  0.80297500  0.53942600  1
  O  O58  1  0.45300100  0.19702500  0.03942600  1
  O  O59  1  0.95300100  0.80297500  0.96057400  1
  O  O60  1  0.19033100  0.26611700  0.40524500  1
  O  O61  1  0.69033100  0.73388300  0.59475500  1
  O  O62  1  0.69033100  0.26611700  0.09475500  1
  O  O63  1  0.19033100  0.73388300  0.90524500  1
  O  O64  1  0.97229700  0.34069800  0.75623100  1
  O  O65  1  0.47229700  0.65930200  0.24376900  1
  O  O66  1  0.47229700  0.34069800  0.74376900  1
  O  O67  1  0.97229700  0.65930200  0.25623100  1
  O  O68  1  0.95430900  0.52004300  0.86390700  1
  O  O69  1  0.45430900  0.47995700  0.13609300  1
  O  O70  1  0.45430900  0.52004300  0.63609300  1
  O  O71  1  0.95430900  0.47995700  0.36390700  1
  O  O72  1  0.74775000  0.44145000  0.77254600  1
  O  O73  1  0.24775000  0.55855000  0.22745400  1
  O  O74  1  0.24775000  0.44145000  0.72745400  1
  O  O75  1  0.74775000  0.55855000  0.27254600  1
  O  O76  1  0.94397000  0.54700300  0.68832500  1
  O  O77  1  0.44397000  0.45299700  0.31167500  1
  O  O78  1  0.44397000  0.54700300  0.81167500  1
  O  O79  1  0.94397000  0.45299700  0.18832500  1
  O  O80  1  0.20427300  0.75681900  0.38061800  1
  O  O81  1  0.70427300  0.24318100  0.61938200  1
  O  O82  1  0.70427300  0.75681900  0.11938200  1
  O  O83  1  0.20427300  0.24318100  0.88061800  1
  O  O84  1  0.17000200  0.86634300  0.53276700  1
  O  O85  1  0.67000200  0.13365700  0.46723300  1
  O  O86  1  0.67000200  0.86634300  0.96723300  1
  O  O87  1  0.17000200  0.13365700  0.03276700  1
  O  O88  1  0.12772100  0.64695400  0.52560300  1
  O  O89  1  0.62772100  0.35304600  0.47439700  1
  O  O90  1  0.62772100  0.64695400  0.97439700  1
  O  O91  1  0.12772100  0.35304600  0.02560300  1
  O  O92  1  0.96124900  0.78804200  0.45058800  1
  O  O93  1  0.46124900  0.21195800  0.54941200  1
  O  O94  1  0.46124900  0.78804200  0.04941200  1
  O  O95  1  0.96124900  0.21195800  0.95058800  1
