# generated using pymatgen
data_La2Fe14B
_symmetry_space_group_name_H-M   'P 1'
_cell_length_a   8.78969900
_cell_length_b   8.78969900
_cell_length_c   12.26178400
_cell_angle_alpha   90.00000000
_cell_angle_beta   90.00000000
_cell_angle_gamma   90.00000000
_symmetry_Int_Tables_number   1
_chemical_formula_structural   La2Fe14B
_chemical_formula_sum   'La8 Fe56 B4'
_cell_volume   947.33082205
_cell_formula_units_Z   4
loop_
 _symmetry_equiv_pos_site_id
 _symmetry_equiv_pos_as_xyz
  1  'x, y, z'
loop_
 _atom_site_type_symbol
 _atom_site_label
 _atom_site_symmetry_multiplicity
 _atom_site_fract_x
 _atom_site_fract_y
 _atom_site_fract_z
 _atom_site_occupancy
  La  La0  1  0.23139900  0.76860100  0.50000000  1
  La  La1  1  0.76860100  0.23139900  0.50000000  1
  La  La2  1  0.26860100  0.26860100  0.00000000  1
  La  La3  1  0.73139900  0.73139900  0.00000000  1
  La  La4  1  0.64102500  0.64102500  0.50000000  1
  La  La5  1  0.35897500  0.35897500  0.50000000  1
  La  La6  1  0.85897500  0.14102500  0.00000000  1
  La  La7  1  0.14102500  0.85897500  0.00000000  1
  Fe  Fe8  1  0.00000000  0.50000000  0.50000000  1
  Fe  Fe9  1  0.50000000  0.00000000  0.00000000  1
  Fe  Fe10  1  0.50000000  0.00000000  0.50000000  1
  Fe  Fe11  1  0.00000000  0.50000000  0.00000000  1
  Fe  Fe12  1  0.50000000  0.50000000  0.11347400  1
  Fe  Fe13  1  0.00000000  0.00000000  0.61347400  1
  Fe  Fe14  1  0.50000000  0.50000000  0.88652600  1
  Fe  Fe15  1  0.00000000  0.00000000  0.38652600  1
  Fe  Fe16  1  0.18183700  0.81816300  0.25420700  1
  Fe  Fe17  1  0.81816300  0.18183700  0.25420700  1
  Fe  Fe18  1  0.31816300  0.31816300  0.75420700  1
  Fe  Fe19  1  0.68183700  0.68183700  0.75420700  1
  Fe  Fe20  1  0.81816300  0.18183700  0.74579300  1
  Fe  Fe21  1  0.18183700  0.81816300  0.74579300  1
  Fe  Fe22  1  0.68183700  0.68183700  0.24579300  1
  Fe  Fe23  1  0.31816300  0.31816300  0.24579300  1
  Fe  Fe24  1  0.40183300  0.59816700  0.29237900  1
  Fe  Fe25  1  0.59816700  0.40183300  0.29237900  1
  Fe  Fe26  1  0.09816700  0.09816700  0.79237900  1
  Fe  Fe27  1  0.90183300  0.90183300  0.79237900  1
  Fe  Fe28  1  0.59816700  0.40183300  0.70762100  1
  Fe  Fe29  1  0.40183300  0.59816700  0.70762100  1
  Fe  Fe30  1  0.90183300  0.90183300  0.20762100  1
  Fe  Fe31  1  0.09816700  0.09816700  0.20762100  1
  Fe  Fe32  1  0.13935900  0.53709000  0.32297000  1
  Fe  Fe33  1  0.86064100  0.46291000  0.32297000  1
  Fe  Fe34  1  0.36064100  0.03709000  0.82297000  1
  Fe  Fe35  1  0.63935900  0.96291000  0.82297000  1
  Fe  Fe36  1  0.86064100  0.46291000  0.67703000  1
  Fe  Fe37  1  0.13935900  0.53709000  0.67703000  1
  Fe  Fe38  1  0.63935900  0.96291000  0.17703000  1
  Fe  Fe39  1  0.36064100  0.03709000  0.17703000  1
  Fe  Fe40  1  0.53709000  0.13935900  0.32297000  1
  Fe  Fe41  1  0.46291000  0.86064100  0.32297000  1
  Fe  Fe42  1  0.03709000  0.36064100  0.82297000  1
  Fe  Fe43  1  0.96291000  0.63935900  0.82297000  1
  Fe  Fe44  1  0.46291000  0.86064100  0.67703000  1
  Fe  Fe45  1  0.53709000  0.13935900  0.67703000  1
  Fe  Fe46  1  0.96291000  0.63935900  0.17703000  1
  Fe  Fe47  1  0.03709000  0.36064100  0.17703000  1
  Fe  Fe48  1  0.93162000  0.72455700  0.37223800  1
  Fe  Fe49  1  0.06838000  0.27544300  0.37223800  1
  Fe  Fe50  1  0.56838000  0.22455700  0.87223800  1
  Fe  Fe51  1  0.43162000  0.77544300  0.87223800  1
  Fe  Fe52  1  0.06838000  0.27544300  0.62776200  1
  Fe  Fe53  1  0.93162000  0.72455700  0.62776200  1
  Fe  Fe54  1  0.43162000  0.77544300  0.12776200  1
  Fe  Fe55  1  0.56838000  0.22455700  0.12776200  1
  Fe  Fe56  1  0.72455700  0.93162000  0.37223800  1
  Fe  Fe57  1  0.27544300  0.06838000  0.37223800  1
  Fe  Fe58  1  0.22455700  0.56838000  0.87223800  1
  Fe  Fe59  1  0.77544300  0.43162000  0.87223800  1
  Fe  Fe60  1  0.27544300  0.06838000  0.62776200  1
  Fe  Fe61  1  0.72455700  0.93162000  0.62776200  1
  Fe  Fe62  1  0.77544300  0.43162000  0.12776200  1
  Fe  Fe63  1  0.22455700  0.56838000  0.12776200  1
  B  B64  1  0.87660300  0.87660300  0.50000000  1
  B  B65  1  0.12339700  0.12339700  0.50000000  1
  B  B66  1  0.62339700  0.37660300  0.00000000  1
  B  B67  1  0.37660300  0.62339700  0.00000000  1
