# generated using pymatgen
data_UClO5
_symmetry_space_group_name_H-M   'P 1'
_cell_length_a   5.91602100
_cell_length_b   11.02909539
_cell_length_c   19.22433123
_cell_angle_alpha   103.30643446
_cell_angle_beta   90.00000000
_cell_angle_gamma   90.00000000
_symmetry_Int_Tables_number   1
_chemical_formula_structural   UClO5
_chemical_formula_sum   'U8 Cl8 O40'
_cell_volume   1220.68042545
_cell_formula_units_Z   8
loop_
 _symmetry_equiv_pos_site_id
 _symmetry_equiv_pos_as_xyz
  1  'x, y, z'
loop_
 _atom_site_type_symbol
 _atom_site_label
 _atom_site_symmetry_multiplicity
 _atom_site_fract_x
 _atom_site_fract_y
 _atom_site_fract_z
 _atom_site_occupancy
  U  U0  1  0.80002100  0.02597700  0.16947400  1
  U  U1  1  0.69997900  0.52597700  0.66947400  1
  U  U2  1  0.19997900  0.97402300  0.83052600  1
  U  U3  1  0.30002100  0.47402300  0.33052600  1
  U  U4  1  0.09984100  0.99166000  0.31668800  1
  U  U5  1  0.40015900  0.49166000  0.81668800  1
  U  U6  1  0.90015900  0.00834000  0.68331200  1
  U  U7  1  0.59984100  0.50834000  0.18331200  1
  Cl  Cl8  1  0.39499900  0.16902400  0.06663500  1
  Cl  Cl9  1  0.10500100  0.66902400  0.56663500  1
  Cl  Cl10  1  0.60500100  0.83097600  0.93336500  1
  Cl  Cl11  1  0.89499900  0.33097600  0.43336500  1
  Cl  Cl12  1  0.90712800  0.74409500  0.42486500  1
  Cl  Cl13  1  0.59287200  0.24409500  0.92486500  1
  Cl  Cl14  1  0.09287200  0.25590500  0.57513500  1
  Cl  Cl15  1  0.40712800  0.75590500  0.07513500  1
  O  O16  1  0.10176000  0.07731900  0.22773400  1
  O  O17  1  0.39824000  0.57731900  0.72773400  1
  O  O18  1  0.89824000  0.92268100  0.77226600  1
  O  O19  1  0.60176000  0.42268100  0.27226600  1
  O  O20  1  0.81225900  0.93394000  0.25771500  1
  O  O21  1  0.68774100  0.43394000  0.75771500  1
  O  O22  1  0.18774100  0.06606000  0.74228500  1
  O  O23  1  0.31225900  0.56606000  0.24228500  1
  O  O24  1  0.62779100  0.14952000  0.22112400  1
  O  O25  1  0.87220900  0.64952000  0.72112400  1
  O  O26  1  0.37220900  0.85048000  0.77887600  1
  O  O27  1  0.12779100  0.35048000  0.27887600  1
  O  O28  1  0.94945700  0.91193400  0.10103700  1
  O  O29  1  0.55054300  0.41193400  0.60103700  1
  O  O30  1  0.05054300  0.08806600  0.89896300  1
  O  O31  1  0.44945700  0.58806600  0.39896300  1
  O  O32  1  0.91566500  0.10674400  0.37998300  1
  O  O33  1  0.58433500  0.60674400  0.87998300  1
  O  O34  1  0.08433500  0.89325600  0.62001700  1
  O  O35  1  0.41566500  0.39325600  0.12001700  1
  O  O36  1  0.22463700  0.83916700  0.27460700  1
  O  O37  1  0.27536300  0.33916700  0.77460700  1
  O  O38  1  0.77536300  0.16083300  0.72539300  1
  O  O39  1  0.72463700  0.66083300  0.22539300  1
  O  O40  1  0.46742000  0.87046400  0.13111100  1
  O  O41  1  0.03258000  0.37046400  0.63111100  1
  O  O42  1  0.53258000  0.12953600  0.86888900  1
  O  O43  1  0.96742000  0.62953600  0.36888900  1
  O  O44  1  0.62897900  0.09866800  0.06705900  1
  O  O45  1  0.87102100  0.59866800  0.56705900  1
  O  O46  1  0.37102100  0.90133200  0.93294100  1
  O  O47  1  0.12897900  0.40133200  0.43294100  1
  O  O48  1  0.34382700  0.08970800  0.35956100  1
  O  O49  1  0.15617300  0.58970800  0.85956100  1
  O  O50  1  0.65617300  0.91029200  0.64043900  1
  O  O51  1  0.84382700  0.41029200  0.14043900  1
  O  O52  1  0.02760200  0.86213400  0.42124300  1
  O  O53  1  0.47239800  0.36213400  0.92124300  1
  O  O54  1  0.97239800  0.13786600  0.57875700  1
  O  O55  1  0.52760200  0.63786600  0.07875700  1
