# generated using pymatgen
data_PH7(NO2)2
_symmetry_space_group_name_H-M   'P 1'
_cell_length_a   5.72887900
_cell_length_b   7.92196900
_cell_length_c   10.71530600
_cell_angle_alpha   90.00000000
_cell_angle_beta   90.00000000
_cell_angle_gamma   90.00000000
_symmetry_Int_Tables_number   1
_chemical_formula_structural   PH7(NO2)2
_chemical_formula_sum   'P4 H28 N8 O16'
_cell_volume   486.30346725
_cell_formula_units_Z   4
loop_
 _symmetry_equiv_pos_site_id
 _symmetry_equiv_pos_as_xyz
  1  'x, y, z'
loop_
 _atom_site_type_symbol
 _atom_site_label
 _atom_site_symmetry_multiplicity
 _atom_site_fract_x
 _atom_site_fract_y
 _atom_site_fract_z
 _atom_site_occupancy
  P  P0  1  0.90496100  0.68636600  0.34673500  1
  P  P1  1  0.59503900  0.31363400  0.84673500  1
  P  P2  1  0.40496100  0.81363400  0.65326500  1
  P  P3  1  0.09503900  0.18636600  0.15326500  1
  H  H4  1  0.33814800  0.69079000  0.18351100  1
  H  H5  1  0.16185200  0.30921000  0.68351100  1
  H  H6  1  0.83814800  0.80921000  0.81648900  1
  H  H7  1  0.66185200  0.19079000  0.31648900  1
  H  H8  1  0.52515700  0.59933100  0.08764800  1
  H  H9  1  0.97484300  0.40066900  0.58764800  1
  H  H10  1  0.02515700  0.90066900  0.91235200  1
  H  H11  1  0.47484300  0.09933100  0.41235200  1
  H  H12  1  0.64006000  0.86958100  0.17790300  1
  H  H13  1  0.85994000  0.13041900  0.67790300  1
  H  H14  1  0.14006000  0.63041900  0.82209700  1
  H  H15  1  0.35994000  0.36958100  0.32209700  1
  H  H16  1  0.43575400  0.95453000  0.07536300  1
  H  H17  1  0.06424600  0.04547000  0.57536300  1
  H  H18  1  0.93575400  0.54547000  0.92463700  1
  H  H19  1  0.56424600  0.45453000  0.42463700  1
  H  H20  1  0.67305700  0.84073500  0.02141200  1
  H  H21  1  0.82694300  0.15926500  0.52141200  1
  H  H22  1  0.17305700  0.65926500  0.97858800  1
  H  H23  1  0.32694300  0.34073500  0.47858800  1
  H  H24  1  0.23184700  0.76987700  0.43508700  1
  H  H25  1  0.26815300  0.23012300  0.93508700  1
  H  H26  1  0.73184700  0.73012300  0.56491300  1
  H  H27  1  0.76815300  0.26987700  0.06491300  1
  H  H28  1  0.99841600  0.48454400  0.21082800  1
  H  H29  1  0.50158400  0.51545600  0.71082800  1
  H  H30  1  0.49841600  0.01545600  0.78917200  1
  H  H31  1  0.00158400  0.98454400  0.28917200  1
  N  N32  1  0.41003900  0.69821400  0.09543600  1
  N  N33  1  0.08996100  0.30178600  0.59543600  1
  N  N34  1  0.91003900  0.80178600  0.90456400  1
  N  N35  1  0.58996100  0.19821400  0.40456400  1
  N  N36  1  0.54793500  0.85211400  0.09374300  1
  N  N37  1  0.95206500  0.14788600  0.59374300  1
  N  N38  1  0.04793500  0.64788600  0.90625700  1
  N  N39  1  0.45206500  0.35211400  0.40625700  1
  O  O40  1  0.18156200  0.68855400  0.36411300  1
  O  O41  1  0.31843800  0.31144600  0.86411300  1
  O  O42  1  0.68156200  0.81144600  0.63588700  1
  O  O43  1  0.81843800  0.18855400  0.13588700  1
  O  O44  1  0.81566000  0.86469900  0.31768300  1
  O  O45  1  0.68434000  0.13530100  0.81768300  1
  O  O46  1  0.31566000  0.63530100  0.68231700  1
  O  O47  1  0.18434000  0.36469900  0.18231700  1
  O  O48  1  0.86867400  0.57573100  0.22606100  1
  O  O49  1  0.63132600  0.42426900  0.72606100  1
  O  O50  1  0.36867400  0.92426900  0.77393900  1
  O  O51  1  0.13132600  0.07573100  0.27393900  1
  O  O52  1  0.78623000  0.60444700  0.45955800  1
  O  O53  1  0.71377000  0.39555300  0.95955800  1
  O  O54  1  0.28623000  0.89555300  0.54044200  1
  O  O55  1  0.21377000  0.10444700  0.04044200  1
