# generated using pymatgen
data_Na4Zr(SiO3)6
_symmetry_space_group_name_H-M   'P 1'
_cell_length_a   7.61275100
_cell_length_b   14.20715500
_cell_length_c   14.99371000
_cell_angle_alpha   90.00000000
_cell_angle_beta   90.00000000
_cell_angle_gamma   90.00000000
_symmetry_Int_Tables_number   1
_chemical_formula_structural   Na4Zr(SiO3)6
_chemical_formula_sum   'Na16 Zr4 Si24 O72'
_cell_volume   1621.65270320
_cell_formula_units_Z   4
loop_
 _symmetry_equiv_pos_site_id
 _symmetry_equiv_pos_as_xyz
  1  'x, y, z'
loop_
 _atom_site_type_symbol
 _atom_site_label
 _atom_site_symmetry_multiplicity
 _atom_site_fract_x
 _atom_site_fract_y
 _atom_site_fract_z
 _atom_site_occupancy
  Na  Na0  1  0.02308800  0.75488600  0.50252000  1
  Na  Na1  1  0.02308800  0.24511400  0.49748000  1
  Na  Na2  1  0.52308800  0.24511400  0.00252000  1
  Na  Na3  1  0.52308800  0.75488600  0.99748000  1
  Na  Na4  1  0.47233900  0.20527800  0.26560800  1
  Na  Na5  1  0.47233900  0.79472200  0.73439200  1
  Na  Na6  1  0.97233900  0.79472200  0.76560800  1
  Na  Na7  1  0.97233900  0.20527800  0.23439200  1
  Na  Na8  1  0.41208200  0.00000000  0.50000000  1
  Na  Na9  1  0.91208200  0.00000000  0.00000000  1
  Na  Na10  1  0.57838500  0.50000000  0.50000000  1
  Na  Na11  1  0.07838500  0.50000000  0.00000000  1
  Na  Na12  1  0.50786000  0.70510700  0.27208600  1
  Na  Na13  1  0.50786000  0.29489300  0.72791400  1
  Na  Na14  1  0.00786000  0.29489300  0.77208600  1
  Na  Na15  1  0.00786000  0.70510700  0.22791400  1
  Zr  Zr16  1  0.50292700  0.25065700  0.50028900  1
  Zr  Zr17  1  0.50292700  0.74934300  0.49971100  1
  Zr  Zr18  1  0.00292700  0.74934300  0.00028900  1
  Zr  Zr19  1  0.00292700  0.25065700  0.99971100  1
  Si  Si20  1  0.24996500  0.58191000  0.37120800  1
  Si  Si21  1  0.24996500  0.41809000  0.62879200  1
  Si  Si22  1  0.74996500  0.41809000  0.87120800  1
  Si  Si23  1  0.74996500  0.58191000  0.12879200  1
  Si  Si24  1  0.80502500  0.38995700  0.36151000  1
  Si  Si25  1  0.80502500  0.61004300  0.63849000  1
  Si  Si26  1  0.30502500  0.61004300  0.86151000  1
  Si  Si27  1  0.30502500  0.38995700  0.13849000  1
  Si  Si28  1  0.21899800  0.36549800  0.34610000  1
  Si  Si29  1  0.21899800  0.63450200  0.65390000  1
  Si  Si30  1  0.71899800  0.63450200  0.84610000  1
  Si  Si31  1  0.71899800  0.36549800  0.15390000  1
  Si  Si32  1  0.78416400  0.86531700  0.34562900  1
  Si  Si33  1  0.78416400  0.13468300  0.65437100  1
  Si  Si34  1  0.28416400  0.13468300  0.84562900  1
  Si  Si35  1  0.28416400  0.86531700  0.15437100  1
  Si  Si36  1  0.19887600  0.88897900  0.36020900  1
  Si  Si37  1  0.19887600  0.11102100  0.63979100  1
  Si  Si38  1  0.69887600  0.11102100  0.86020900  1
  Si  Si39  1  0.69887600  0.88897900  0.13979100  1
  Si  Si40  1  0.73895900  0.08265200  0.36629300  1
  Si  Si41  1  0.73895900  0.91734800  0.63370700  1
  Si  Si42  1  0.23895900  0.91734800  0.86629300  1
  Si  Si43  1  0.23895900  0.08265200  0.13370700  1
  O  O44  1  0.78826700  0.50420100  0.37263400  1
  O  O45  1  0.78826700  0.49579900  0.62736600  1
  O  O46  1  0.28826700  0.49579900  0.87263400  1
  O  O47  1  0.28826700  0.50420100  0.12736600  1
  O  O48  1  0.28840400  0.46810400  0.37907800  1
  O  O49  1  0.28840400  0.53189600  0.62092200  1
  O  O50  1  0.78840400  0.53189600  0.87907800  1
  O  O51  1  0.78840400  0.46810400  0.12092200  1
  O  O52  1  0.99342000  0.85088500  0.36911500  1
  O  O53  1  0.99342000  0.14911500  0.63088500  1
  O  O54  1  0.49342000  0.14911500  0.86911500  1
  O  O55  1  0.49342000  0.85088500  0.13088500  1
  O  O56  1  0.00962900  0.35086400  0.36927400  1
  O  O57  1  0.00962900  0.64913600  0.63072600  1
  O  O58  1  0.50962900  0.64913600  0.86927400  1
  O  O59  1  0.50962900  0.35086400  0.13072600  1
  O  O60  1  0.73673900  0.35209700  0.26243700  1
  O  O61  1  0.73673900  0.64790300  0.73756300  1
  O  O62  1  0.23673900  0.64790300  0.76243700  1
  O  O63  1  0.23673900  0.35209700  0.23756300  1
  O  O64  1  0.26913300  0.84931800  0.26285700  1
  O  O65  1  0.26913300  0.15068200  0.73714300  1
  O  O66  1  0.76913300  0.15068200  0.76285700  1
  O  O67  1  0.76913300  0.84931800  0.23714300  1
  O  O68  1  0.23402700  0.11561700  0.23781000  1
  O  O69  1  0.23402700  0.88438300  0.76219000  1
  O  O70  1  0.73402700  0.88438300  0.73781000  1
  O  O71  1  0.73402700  0.11561700  0.26219000  1
  O  O72  1  0.32662700  0.28334700  0.39565900  1
  O  O73  1  0.32662700  0.71665300  0.60434100  1
  O  O74  1  0.82662700  0.71665300  0.89565900  1
  O  O75  1  0.82662700  0.28334700  0.10434100  1
  O  O76  1  0.69109200  0.33664200  0.43785600  1
  O  O77  1  0.69109200  0.66335800  0.56214400  1
  O  O78  1  0.19109200  0.66335800  0.93785600  1
  O  O79  1  0.19109200  0.33664200  0.06214400  1
  O  O80  1  0.67161600  0.78460600  0.39488200  1
  O  O81  1  0.67161600  0.21539400  0.60511800  1
  O  O82  1  0.17161600  0.21539400  0.89488200  1
  O  O83  1  0.17161600  0.78460600  0.10511800  1
  O  O84  1  0.30666400  0.83634400  0.43947400  1
  O  O85  1  0.30666400  0.16365600  0.56052600  1
  O  O86  1  0.80666400  0.16365600  0.93947400  1
  O  O87  1  0.80666400  0.83634400  0.06052600  1
  O  O88  1  0.71417500  0.96844500  0.37590200  1
  O  O89  1  0.71417500  0.03155500  0.62409800  1
  O  O90  1  0.21417500  0.03155500  0.87590200  1
  O  O91  1  0.21417500  0.96844500  0.12409800  1
  O  O92  1  0.22008900  0.00294400  0.37071700  1
  O  O93  1  0.22008900  0.99705600  0.62928300  1
  O  O94  1  0.72008900  0.99705600  0.87071700  1
  O  O95  1  0.72008900  0.00294400  0.12928300  1
  O  O96  1  0.23854300  0.61673300  0.26817400  1
  O  O97  1  0.23854300  0.38326700  0.73182600  1
  O  O98  1  0.73854300  0.38326700  0.76817400  1
  O  O99  1  0.73854300  0.61673300  0.23182600  1
  O  O100  1  0.41000200  0.63328400  0.42560300  1
  O  O101  1  0.41000200  0.36671600  0.57439700  1
  O  O102  1  0.91000200  0.36671600  0.92560300  1
  O  O103  1  0.91000200  0.63328400  0.07439700  1
  O  O104  1  0.06231900  0.61729600  0.41303500  1
  O  O105  1  0.06231900  0.38270400  0.58696500  1
  O  O106  1  0.56231900  0.38270400  0.91303500  1
  O  O107  1  0.56231900  0.61729600  0.08696500  1
  O  O108  1  0.58344700  0.13127900  0.42589300  1
  O  O109  1  0.58344700  0.86872100  0.57410700  1
  O  O110  1  0.08344700  0.86872100  0.92589300  1
  O  O111  1  0.08344700  0.13127900  0.07410700  1
  O  O112  1  0.92097400  0.12491900  0.40851200  1
  O  O113  1  0.92097400  0.87508100  0.59148800  1
  O  O114  1  0.42097400  0.87508100  0.90851200  1
  O  O115  1  0.42097400  0.12491900  0.09148800  1
