# generated using pymatgen
data_Yb5B2(O2F3)3
_symmetry_space_group_name_H-M   'P 1'
_cell_length_a   10.90182161
_cell_length_b   10.90182161
_cell_length_c   8.30671646
_cell_angle_alpha   83.91274451
_cell_angle_beta   83.91274451
_cell_angle_gamma   33.35798115
_symmetry_Int_Tables_number   1
_chemical_formula_structural   Yb5B2(O2F3)3
_chemical_formula_sum   'Yb10 B4 O12 F18'
_cell_volume   539.52150838
_cell_formula_units_Z   2
loop_
 _symmetry_equiv_pos_site_id
 _symmetry_equiv_pos_as_xyz
  1  'x, y, z'
loop_
 _atom_site_type_symbol
 _atom_site_label
 _atom_site_symmetry_multiplicity
 _atom_site_fract_x
 _atom_site_fract_y
 _atom_site_fract_z
 _atom_site_occupancy
  Yb  Yb0  1  0.84271400  0.58621700  0.68576700  1
  Yb  Yb1  1  0.41378300  0.15728600  0.81423300  1
  Yb  Yb2  1  0.15728600  0.41378300  0.31423300  1
  Yb  Yb3  1  0.58621700  0.84271400  0.18576700  1
  Yb  Yb4  1  0.03006400  0.21642200  0.10640700  1
  Yb  Yb5  1  0.78357800  0.96993600  0.39359300  1
  Yb  Yb6  1  0.96993600  0.78357800  0.89359300  1
  Yb  Yb7  1  0.21642200  0.03006400  0.60640700  1
  Yb  Yb8  1  0.67341700  0.32658300  0.75000000  1
  Yb  Yb9  1  0.32658300  0.67341700  0.25000000  1
  B  B10  1  0.54998100  0.63275900  0.94582700  1
  B  B11  1  0.36724100  0.45001900  0.55417300  1
  B  B12  1  0.45001900  0.36724100  0.05417300  1
  B  B13  1  0.63275900  0.54998100  0.44582700  1
  O  O14  1  0.36267000  0.80762700  0.04956800  1
  O  O15  1  0.19237300  0.63733000  0.45043200  1
  O  O16  1  0.63733000  0.19237300  0.95043200  1
  O  O17  1  0.80762700  0.36267000  0.54956800  1
  O  O18  1  0.68147700  0.63114600  0.95419500  1
  O  O19  1  0.36885400  0.31852300  0.54580500  1
  O  O20  1  0.31852300  0.36885400  0.04580500  1
  O  O21  1  0.63114600  0.68147700  0.45419500  1
  O  O22  1  0.68150100  0.49194500  0.28158700  1
  O  O23  1  0.50805500  0.31849900  0.21841300  1
  O  O24  1  0.31849900  0.50805500  0.71841300  1
  O  O25  1  0.49194500  0.68150100  0.78158700  1
  F  F26  1  0.11821900  0.30302800  0.52682800  1
  F  F27  1  0.69697200  0.88178100  0.97317200  1
  F  F28  1  0.88178100  0.69697200  0.47317200  1
  F  F29  1  0.30302800  0.11821900  0.02682800  1
  F  F30  1  0.01567700  0.26297100  0.81969800  1
  F  F31  1  0.73702900  0.98432300  0.68030200  1
  F  F32  1  0.98432300  0.73702900  0.18030200  1
  F  F33  1  0.26297100  0.01567700  0.31969800  1
  F  F34  1  0.00937800  0.99062200  0.75000000  1
  F  F35  1  0.99062200  0.00937800  0.25000000  1
  F  F36  1  0.48293100  0.93661700  0.68786400  1
  F  F37  1  0.06338300  0.51706900  0.81213600  1
  F  F38  1  0.51706900  0.06338300  0.31213600  1
  F  F39  1  0.93661700  0.48293100  0.18786400  1
  F  F40  1  0.68370400  0.40846200  0.99503800  1
  F  F41  1  0.59153800  0.31629600  0.50496200  1
  F  F42  1  0.31629600  0.59153800  0.00496200  1
  F  F43  1  0.40846200  0.68370400  0.49503800  1
