# generated using pymatgen
data_SrI2O15
_symmetry_space_group_name_H-M   'P 1'
_cell_length_a   6.23015000
_cell_length_b   10.67413694
_cell_length_c   10.82220406
_cell_angle_alpha   85.34853505
_cell_angle_beta   80.55592287
_cell_angle_gamma   87.69842196
_symmetry_Int_Tables_number   1
_chemical_formula_structural   SrI2O15
_chemical_formula_sum   'Sr2 I4 O30'
_cell_volume   707.33578742
_cell_formula_units_Z   2
loop_
 _symmetry_equiv_pos_site_id
 _symmetry_equiv_pos_as_xyz
  1  'x, y, z'
loop_
 _atom_site_type_symbol
 _atom_site_label
 _atom_site_symmetry_multiplicity
 _atom_site_fract_x
 _atom_site_fract_y
 _atom_site_fract_z
 _atom_site_occupancy
  Sr  Sr0  1  0.15904300  0.90011200  0.23545000  1
  Sr  Sr1  1  0.84095700  0.09988800  0.76455000  1
  I  I2  1  0.26638600  0.85618300  0.54191200  1
  I  I3  1  0.73361400  0.14381700  0.45808800  1
  I  I4  1  0.29112300  0.25255000  0.96975200  1
  I  I5  1  0.70887700  0.74745000  0.03024800  1
  O  O6  1  0.03306400  0.52652300  0.68796000  1
  O  O7  1  0.96693600  0.47347700  0.31204000  1
  O  O8  1  0.09003300  0.76843900  0.46536400  1
  O  O9  1  0.90996700  0.23156100  0.53463600  1
  O  O10  1  0.10220200  0.95457400  0.64957300  1
  O  O11  1  0.89779800  0.04542600  0.35042700  1
  O  O12  1  0.55794100  0.62093300  0.35974300  1
  O  O13  1  0.44205900  0.37906700  0.64025700  1
  O  O14  1  0.43964600  0.75412000  0.62264200  1
  O  O15  1  0.56035400  0.24588000  0.37735800  1
  O  O16  1  0.39980300  0.94998800  0.40653800  1
  O  O17  1  0.60019700  0.05001200  0.59346200  1
  O  O18  1  0.48761700  0.17923600  0.84969800  1
  O  O19  1  0.51238300  0.82076400  0.15030200  1
  O  O20  1  0.26209600  0.11293400  0.08845000  1
  O  O21  1  0.73790400  0.88706600  0.91155000  1
  O  O22  1  0.51724800  0.31450000  0.04974600  1
  O  O23  1  0.48275200  0.68550000  0.95025400  1
  O  O24  1  0.14604600  0.36361600  0.09092100  1
  O  O25  1  0.85395400  0.63638400  0.90907900  1
  O  O26  1  0.34647600  0.42212200  0.89919000  1
  O  O27  1  0.65352400  0.57787800  0.10081000  1
  O  O28  1  0.05125600  0.23247700  0.89476100  1
  O  O29  1  0.94874400  0.76752300  0.10523900  1
  O  O30  1  0.15217600  0.48544200  0.32983500  1
  O  O31  1  0.84782400  0.51455800  0.67016500  1
  O  O32  1  0.73644800  0.61932100  0.39151700  1
  O  O33  1  0.26355200  0.38067900  0.60848300  1
  O  O34  1  0.90782100  0.01978300  0.99683700  1
  O  O35  1  0.09217900  0.98021700  0.00316300  1
