# generated using pymatgen
data_CsNa3P4(H2O5)3
_symmetry_space_group_name_H-M   'P 1'
_cell_length_a   11.01715000
_cell_length_b   11.68810600
_cell_length_c   11.88152409
_cell_angle_alpha   84.60228233
_cell_angle_beta   90.00000000
_cell_angle_gamma   90.00000000
_symmetry_Int_Tables_number   1
_chemical_formula_structural   CsNa3P4(H2O5)3
_chemical_formula_sum   'Cs4 Na12 P16 H24 O60'
_cell_volume   1523.19493903
_cell_formula_units_Z   4
loop_
 _symmetry_equiv_pos_site_id
 _symmetry_equiv_pos_as_xyz
  1  'x, y, z'
loop_
 _atom_site_type_symbol
 _atom_site_label
 _atom_site_symmetry_multiplicity
 _atom_site_fract_x
 _atom_site_fract_y
 _atom_site_fract_z
 _atom_site_occupancy
  Cs  Cs0  1  0.22585300  0.75094700  0.77241100  1
  Cs  Cs1  1  0.72585300  0.24905300  0.72758900  1
  Cs  Cs2  1  0.77414700  0.24905300  0.22758900  1
  Cs  Cs3  1  0.27414700  0.75094700  0.27241100  1
  Na  Na4  1  0.00000000  0.50000000  0.00000000  1
  Na  Na5  1  0.50000000  0.50000000  0.50000000  1
  Na  Na6  1  0.50000000  0.00000000  0.00000000  1
  Na  Na7  1  0.00000000  0.00000000  0.50000000  1
  Na  Na8  1  0.37580000  0.11496600  0.21187800  1
  Na  Na9  1  0.87580000  0.88503400  0.28812200  1
  Na  Na10  1  0.62420000  0.88503400  0.78812200  1
  Na  Na11  1  0.12420000  0.11496600  0.71187800  1
  Na  Na12  1  0.65808000  0.60920200  0.71290500  1
  Na  Na13  1  0.15808000  0.39079800  0.78709500  1
  Na  Na14  1  0.34192000  0.39079800  0.28709500  1
  Na  Na15  1  0.84192000  0.60920200  0.21290500  1
  P  P16  1  0.98777100  0.81100100  0.03150800  1
  P  P17  1  0.48777100  0.18899900  0.46849200  1
  P  P18  1  0.01222900  0.18899900  0.96849200  1
  P  P19  1  0.51222900  0.81100100  0.53150800  1
  P  P20  1  0.18761000  0.98837200  0.99778600  1
  P  P21  1  0.68761000  0.01162800  0.50221400  1
  P  P22  1  0.81239000  0.01162800  0.00221400  1
  P  P23  1  0.31239000  0.98837200  0.49778600  1
  P  P24  1  0.50889800  0.67733500  0.00310000  1
  P  P25  1  0.00889800  0.32266500  0.49690000  1
  P  P26  1  0.49110200  0.32266500  0.99690000  1
  P  P27  1  0.99110200  0.67733500  0.50310000  1
  P  P28  1  0.19789600  0.50582200  0.53079600  1
  P  P29  1  0.69789600  0.49417800  0.96920400  1
  P  P30  1  0.80210400  0.49417800  0.46920400  1
  P  P31  1  0.30210400  0.50582200  0.03079600  1
  H  H32  1  0.38789800  0.52552300  0.68525600  1
  H  H33  1  0.88789800  0.47447700  0.81474400  1
  H  H34  1  0.61210200  0.47447700  0.31474400  1
  H  H35  1  0.11210200  0.52552300  0.18525600  1
  H  H36  1  0.52530900  0.55208700  0.23525100  1
  H  H37  1  0.02530900  0.44791300  0.26474900  1
  H  H38  1  0.47469100  0.44791300  0.76474900  1
  H  H39  1  0.97469100  0.55208700  0.73525100  1
  H  H40  1  0.55735900  0.93011700  0.26545000  1
  H  H41  1  0.05735900  0.06988300  0.23455000  1
  H  H42  1  0.44264100  0.06988300  0.73455000  1
  H  H43  1  0.94264100  0.93011700  0.76545000  1
  H  H44  1  0.64174800  0.99478800  0.17692400  1
  H  H45  1  0.14174800  0.00521200  0.32307600  1
  H  H46  1  0.35825200  0.00521200  0.82307600  1
  H  H47  1  0.85825200  0.99478800  0.67692400  1
  H  H48  1  0.63781400  0.74257900  0.21669200  1
  H  H49  1  0.13781400  0.25742100  0.28330800  1
  H  H50  1  0.36218600  0.25742100  0.78330800  1
  H  H51  1  0.86218600  0.74257900  0.71669200  1
  H  H52  1  0.64386000  0.73467800  0.34644000  1
  H  H53  1  0.14386000  0.26532200  0.15356000  1
  H  H54  1  0.35614000  0.26532200  0.65356000  1
  H  H55  1  0.85614000  0.73467800  0.84644000  1
  O  O56  1  0.00008800  0.72324100  0.94765500  1
  O  O57  1  0.50008800  0.27675900  0.55234500  1
  O  O58  1  0.99991200  0.27675900  0.05234500  1
  O  O59  1  0.49991200  0.72324100  0.44765500  1
  O  O60  1  0.56029300  0.77733900  0.64711000  1
  O  O61  1  0.06029300  0.22266100  0.85289000  1
  O  O62  1  0.43970700  0.22266100  0.35289000  1
  O  O63  1  0.93970700  0.77733900  0.14711000  1
  O  O64  1  0.70118500  0.00162700  0.93114600  1
  O  O65  1  0.20118500  0.99837300  0.56885400  1
  O  O66  1  0.29881500  0.99837300  0.06885400  1
  O  O67  1  0.79881500  0.00162700  0.43114600  1
  O  O68  1  0.20011200  0.98989100  0.87161300  1
  O  O69  1  0.70011200  0.01010900  0.62838700  1
  O  O70  1  0.79988800  0.01010900  0.12838700  1
  O  O71  1  0.29988800  0.98989100  0.37161300  1
  O  O72  1  0.59059800  0.91604200  0.46702200  1
  O  O73  1  0.09059800  0.08395800  0.03297800  1
  O  O74  1  0.40940200  0.08395800  0.53297800  1
  O  O75  1  0.90940200  0.91604200  0.96702200  1
  O  O76  1  0.62001900  0.12897200  0.45124600  1
  O  O77  1  0.12001900  0.87102800  0.04875400  1
  O  O78  1  0.37998100  0.87102800  0.54875400  1
  O  O79  1  0.87998100  0.12897200  0.95124600  1
  O  O80  1  0.99926700  0.79261100  0.43759800  1
  O  O81  1  0.49926700  0.20738900  0.06240200  1
  O  O82  1  0.00073300  0.20738900  0.56240200  1
  O  O83  1  0.50073300  0.79261100  0.93759800  1
  O  O84  1  0.47225600  0.33283600  0.87127300  1
  O  O85  1  0.97225600  0.66716400  0.62872700  1
  O  O86  1  0.52774400  0.66716400  0.12872700  1
  O  O87  1  0.02774400  0.33283600  0.37127300  1
  O  O88  1  0.73679600  0.46262700  0.85475100  1
  O  O89  1  0.23679600  0.53737300  0.64524900  1
  O  O90  1  0.26320400  0.53737300  0.14524900  1
  O  O91  1  0.76320400  0.46262700  0.35475100  1
  O  O92  1  0.29138500  0.48321800  0.44447900  1
  O  O93  1  0.79138500  0.51678200  0.05552100  1
  O  O94  1  0.70861500  0.51678200  0.55552100  1
  O  O95  1  0.20861500  0.48321800  0.94447900  1
  O  O96  1  0.38884500  0.39472100  0.05950000  1
  O  O97  1  0.88884500  0.60527900  0.44050000  1
  O  O98  1  0.61115500  0.60527900  0.94050000  1
  O  O99  1  0.11115500  0.39472100  0.55950000  1
  O  O100  1  0.38860100  0.60556000  0.97007000  1
  O  O101  1  0.88860100  0.39444000  0.52993000  1
  O  O102  1  0.61139900  0.39444000  0.02993000  1
  O  O103  1  0.11139900  0.60556000  0.47007000  1
  O  O104  1  0.02516300  0.50940300  0.20143000  1
  O  O105  1  0.52516300  0.49059700  0.29857000  1
  O  O106  1  0.97483700  0.49059700  0.79857000  1
  O  O107  1  0.47483700  0.50940300  0.70143000  1
  O  O108  1  0.05497200  0.01610400  0.30221800  1
  O  O109  1  0.55497200  0.98389600  0.19778200  1
  O  O110  1  0.94502800  0.98389600  0.69778200  1
  O  O111  1  0.44502800  0.01610400  0.80221800  1
  O  O112  1  0.69517800  0.75210300  0.27909500  1
  O  O113  1  0.19517800  0.24789700  0.22090500  1
  O  O114  1  0.30482200  0.24789700  0.72090500  1
  O  O115  1  0.80482200  0.75210300  0.77909500  1
