# generated using pymatgen
data_In2B(PO4)3
_symmetry_space_group_name_H-M   'P 1'
_cell_length_a   8.30281636
_cell_length_b   8.30281636
_cell_length_c   7.89851500
_cell_angle_alpha   90.00000000
_cell_angle_beta   90.00000000
_cell_angle_gamma   120.00000291
_symmetry_Int_Tables_number   1
_chemical_formula_structural   In2B(PO4)3
_chemical_formula_sum   'In4 B2 P6 O24'
_cell_volume   471.54911217
_cell_formula_units_Z   2
loop_
 _symmetry_equiv_pos_site_id
 _symmetry_equiv_pos_as_xyz
  1  'x, y, z'
loop_
 _atom_site_type_symbol
 _atom_site_label
 _atom_site_symmetry_multiplicity
 _atom_site_fract_x
 _atom_site_fract_y
 _atom_site_fract_z
 _atom_site_occupancy
  In  In0  1  0.66666700  0.33333300  0.54398300  1
  In  In1  1  0.33333300  0.66666700  0.04398300  1
  In  In2  1  0.33333300  0.66666700  0.45601700  1
  In  In3  1  0.66666700  0.33333300  0.95601700  1
  B  B4  1  0.00000000  0.00000000  0.75000000  1
  B  B5  1  0.00000000  0.00000000  0.25000000  1
  P  P6  1  0.04191700  0.35062500  0.75000000  1
  P  P7  1  0.64937500  0.69129300  0.75000000  1
  P  P8  1  0.30870700  0.95808300  0.75000000  1
  P  P9  1  0.95808300  0.64937500  0.25000000  1
  P  P10  1  0.35062500  0.30870700  0.25000000  1
  P  P11  1  0.69129300  0.04191700  0.25000000  1
  O  O12  1  0.94070000  0.12737600  0.75000000  1
  O  O13  1  0.87262400  0.81332400  0.75000000  1
  O  O14  1  0.18667600  0.05930000  0.75000000  1
  O  O15  1  0.05930000  0.87262400  0.25000000  1
  O  O16  1  0.12737600  0.18667600  0.25000000  1
  O  O17  1  0.81332400  0.94070000  0.25000000  1
  O  O18  1  0.87519900  0.38782500  0.75000000  1
  O  O19  1  0.61217500  0.48737400  0.75000000  1
  O  O20  1  0.51262600  0.12480100  0.75000000  1
  O  O21  1  0.12480100  0.61217500  0.25000000  1
  O  O22  1  0.38782500  0.51262600  0.25000000  1
  O  O23  1  0.48737400  0.87519900  0.25000000  1
  O  O24  1  0.15314200  0.41958400  0.58718800  1
  O  O25  1  0.58041600  0.73355900  0.58718800  1
  O  O26  1  0.26644100  0.84685800  0.58718800  1
  O  O27  1  0.84685800  0.58041600  0.08718800  1
  O  O28  1  0.41958400  0.26644100  0.08718800  1
  O  O29  1  0.73355900  0.15314200  0.08718800  1
  O  O30  1  0.84685800  0.58041600  0.41281200  1
  O  O31  1  0.41958400  0.26644100  0.41281200  1
  O  O32  1  0.73355900  0.15314200  0.41281200  1
  O  O33  1  0.15314200  0.41958400  0.91281200  1
  O  O34  1  0.58041600  0.73355900  0.91281200  1
  O  O35  1  0.26644100  0.84685800  0.91281200  1
