# generated using pymatgen
data_NdH24C4I3(NO)8
_symmetry_space_group_name_H-M   'P 1'
_cell_length_a   10.79388300
_cell_length_b   7.92724400
_cell_length_c   15.53117532
_cell_angle_alpha   71.50638451
_cell_angle_beta   90.00000000
_cell_angle_gamma   90.00000000
_symmetry_Int_Tables_number   1
_chemical_formula_structural   NdH24C4I3(NO)8
_chemical_formula_sum   'Nd2 H48 C8 I6 N16 O16'
_cell_volume   1260.30897058
_cell_formula_units_Z   2
loop_
 _symmetry_equiv_pos_site_id
 _symmetry_equiv_pos_as_xyz
  1  'x, y, z'
loop_
 _atom_site_type_symbol
 _atom_site_label
 _atom_site_symmetry_multiplicity
 _atom_site_fract_x
 _atom_site_fract_y
 _atom_site_fract_z
 _atom_site_occupancy
  Nd  Nd0  1  0.15309400  0.50000000  0.25000000  1
  Nd  Nd1  1  0.84690600  0.50000000  0.75000000  1
  H  H2  1  0.36244800  0.87475200  0.00910800  1
  H  H3  1  0.36244800  0.12524800  0.49089200  1
  H  H4  1  0.63755200  0.12524800  0.99089200  1
  H  H5  1  0.63755200  0.87475200  0.50910800  1
  H  H6  1  0.50878100  0.80342300  0.98806600  1
  H  H7  1  0.50878100  0.19657700  0.51193400  1
  H  H8  1  0.49121900  0.19657700  0.01193400  1
  H  H9  1  0.49121900  0.80342300  0.48806600  1
  H  H10  1  0.50192900  0.40724900  0.17508800  1
  H  H11  1  0.50192900  0.59275100  0.32491200  1
  H  H12  1  0.49807100  0.59275100  0.82491200  1
  H  H13  1  0.49807100  0.40724900  0.67508800  1
  H  H14  1  0.59183300  0.54505600  0.08677500  1
  H  H15  1  0.59183300  0.45494400  0.41322500  1
  H  H16  1  0.40816700  0.45494400  0.91322500  1
  H  H17  1  0.40816700  0.54505600  0.58677500  1
  H  H18  1  0.82059500  0.66434900  0.21822500  1
  H  H19  1  0.82059500  0.33565100  0.28177500  1
  H  H20  1  0.17940500  0.33565100  0.78177500  1
  H  H21  1  0.17940500  0.66434900  0.71822500  1
  H  H22  1  0.73135400  0.78174700  0.27305400  1
  H  H23  1  0.73135400  0.21825300  0.22694600  1
  H  H24  1  0.26864600  0.21825300  0.72694600  1
  H  H25  1  0.26864600  0.78174700  0.77305400  1
  H  H26  1  0.93353900  0.70004300  0.46241600  1
  H  H27  1  0.93353900  0.29995700  0.03758400  1
  H  H28  1  0.06646100  0.29995700  0.53758400  1
  H  H29  1  0.06646100  0.70004300  0.96241600  1
  H  H30  1  0.79711700  0.80291300  0.41255300  1
  H  H31  1  0.79711700  0.19708700  0.08744700  1
  H  H32  1  0.20288300  0.19708700  0.58744700  1
  H  H33  1  0.20288300  0.80291300  0.91255300  1
  H  H34  1  0.31256300  0.82779600  0.26038100  1
  H  H35  1  0.31256300  0.17220400  0.23961900  1
  H  H36  1  0.68743700  0.17220400  0.73961900  1
  H  H37  1  0.68743700  0.82779600  0.76038100  1
  H  H38  1  0.22054700  0.79262200  0.34219600  1
  H  H39  1  0.22054700  0.20737800  0.15780400  1
  H  H40  1  0.77945300  0.20737800  0.65780400  1
  H  H41  1  0.77945300  0.79262200  0.84219600  1
  H  H42  1  0.11275600  0.88232200  0.10366700  1
  H  H43  1  0.11275600  0.11767800  0.39633300  1
  H  H44  1  0.88724400  0.11767800  0.89633300  1
  H  H45  1  0.88724400  0.88232200  0.60366700  1
  H  H46  1  0.98378600  0.78844400  0.10377400  1
  H  H47  1  0.98378600  0.21155600  0.39622600  1
  H  H48  1  0.01621400  0.21155600  0.89622600  1
  H  H49  1  0.01621400  0.78844400  0.60377400  1
  C  C50  1  0.41499800  0.63587100  0.09804200  1
  C  C51  1  0.41499800  0.36412900  0.40195800  1
  C  C52  1  0.58500200  0.36412900  0.90195800  1
  C  C53  1  0.58500200  0.63587100  0.59804200  1
  C  C54  1  0.89413800  0.66956100  0.33912500  1
  C  C55  1  0.89413800  0.33043900  0.16087500  1
  C  C56  1  0.10586200  0.33043900  0.66087500  1
  C  C57  1  0.10586200  0.66956100  0.83912500  1
  I  I58  1  0.53033000  0.00000000  0.25000000  1
  I  I59  1  0.46967000  0.00000000  0.75000000  1
  I  I60  1  0.78454900  0.17261700  0.49480200  1
  I  I61  1  0.78454900  0.82738300  0.00519800  1
  I  I62  1  0.21545100  0.82738300  0.50519800  1
  I  I63  1  0.21545100  0.17261700  0.99480200  1
  N  N64  1  0.42566900  0.77434700  0.02049000  1
  N  N65  1  0.42566900  0.22565300  0.47951000  1
  N  N66  1  0.57433100  0.22565300  0.97951000  1
  N  N67  1  0.57433100  0.77434700  0.52049000  1
  N  N68  1  0.51102900  0.52136700  0.12225400  1
  N  N69  1  0.51102900  0.47863300  0.37774600  1
  N  N70  1  0.48897100  0.47863300  0.87774600  1
  N  N71  1  0.48897100  0.52136700  0.62225400  1
  N  N72  1  0.80576300  0.70126800  0.27420300  1
  N  N73  1  0.80576300  0.29873200  0.22579700  1
  N  N74  1  0.19423700  0.29873200  0.72579700  1
  N  N75  1  0.19423700  0.70126800  0.77420300  1
  N  N76  1  0.87424900  0.73257400  0.40903700  1
  N  N77  1  0.87424900  0.26742600  0.09096300  1
  N  N78  1  0.12575100  0.26742600  0.59096300  1
  N  N79  1  0.12575100  0.73257400  0.90903700  1
  O  O80  1  0.31647500  0.61350600  0.14478000  1
  O  O81  1  0.31647500  0.38649400  0.35522000  1
  O  O82  1  0.68352500  0.38649400  0.85522000  1
  O  O83  1  0.68352500  0.61350600  0.64478000  1
  O  O84  1  0.99081000  0.58054900  0.33594800  1
  O  O85  1  0.99081000  0.41945100  0.16405200  1
  O  O86  1  0.00919000  0.41945100  0.66405200  1
  O  O87  1  0.00919000  0.58054900  0.83594800  1
  O  O88  1  0.23214000  0.77294000  0.28304700  1
  O  O89  1  0.23214000  0.22706000  0.21695300  1
  O  O90  1  0.76786000  0.22706000  0.71695300  1
  O  O91  1  0.76786000  0.77294000  0.78304700  1
  O  O92  1  0.06743700  0.76991100  0.13059200  1
  O  O93  1  0.06743700  0.23008900  0.36940800  1
  O  O94  1  0.93256300  0.23008900  0.86940800  1
  O  O95  1  0.93256300  0.76991100  0.63059200  1
