# generated using pymatgen
data_CuH12C6(S2N)2
_symmetry_space_group_name_H-M   'P 1'
_cell_length_a   10.98188789
_cell_length_b   10.98188789
_cell_length_c   15.82708851
_cell_angle_alpha   88.03594727
_cell_angle_beta   88.03594727
_cell_angle_gamma   131.22392924
_symmetry_Int_Tables_number   1
_chemical_formula_structural   CuH12C6(S2N)2
_chemical_formula_sum   'Cu4 H48 C24 S16 N8'
_cell_volume   1430.71267743
_cell_formula_units_Z   4
loop_
 _symmetry_equiv_pos_site_id
 _symmetry_equiv_pos_as_xyz
  1  'x, y, z'
loop_
 _atom_site_type_symbol
 _atom_site_label
 _atom_site_symmetry_multiplicity
 _atom_site_fract_x
 _atom_site_fract_y
 _atom_site_fract_z
 _atom_site_occupancy
  Cu  Cu0  1  0.77731100  0.02585800  0.36918900  1
  Cu  Cu1  1  0.97414200  0.22268900  0.13081100  1
  Cu  Cu2  1  0.22268900  0.97414200  0.63081100  1
  Cu  Cu3  1  0.02585800  0.77731100  0.86918900  1
  H  H4  1  0.63578700  0.72316200  0.12952300  1
  H  H5  1  0.27683800  0.36421300  0.37047700  1
  H  H6  1  0.36421300  0.27683800  0.87047700  1
  H  H7  1  0.72316200  0.63578700  0.62952300  1
  H  H8  1  0.61023300  0.54384700  0.13391500  1
  H  H9  1  0.45615300  0.38976700  0.36608500  1
  H  H10  1  0.38976700  0.45615300  0.86608500  1
  H  H11  1  0.54384700  0.61023300  0.63391500  1
  H  H12  1  0.79796100  0.73295500  0.09107600  1
  H  H13  1  0.26704500  0.20203900  0.40892400  1
  H  H14  1  0.20203900  0.26704500  0.90892400  1
  H  H15  1  0.73295500  0.79796100  0.59107600  1
  H  H16  1  0.87848700  0.67968800  0.30865700  1
  H  H17  1  0.32031200  0.12151300  0.19134300  1
  H  H18  1  0.12151300  0.32031200  0.69134300  1
  H  H19  1  0.67968800  0.87848700  0.80865700  1
  H  H20  1  0.94276400  0.70639900  0.19821600  1
  H  H21  1  0.29360100  0.05723600  0.30178400  1
  H  H22  1  0.05723600  0.29360100  0.80178400  1
  H  H23  1  0.70639900  0.94276400  0.69821600  1
  H  H24  1  0.75532100  0.51795900  0.23996300  1
  H  H25  1  0.48204100  0.24467900  0.26003700  1
  H  H26  1  0.24467900  0.48204100  0.76003700  1
  H  H27  1  0.51795900  0.75532100  0.73996300  1
  H  H28  1  0.63596100  0.33662500  0.44159800  1
  H  H29  1  0.66337500  0.36403900  0.05840200  1
  H  H30  1  0.36403900  0.66337500  0.55840200  1
  H  H31  1  0.33662500  0.63596100  0.94159800  1
  H  H32  1  0.75724400  0.49133200  0.51412700  1
  H  H33  1  0.50866800  0.24275600  0.98587300  1
  H  H34  1  0.24275600  0.50866800  0.48587300  1
  H  H35  1  0.49133200  0.75724400  0.01412700  1
  H  H36  1  0.56170700  0.30248500  0.55034200  1
  H  H37  1  0.69751500  0.43829300  0.94965800  1
  H  H38  1  0.43829300  0.69751500  0.44965800  1
  H  H39  1  0.30248500  0.56170700  0.05034200  1
  H  H40  1  0.85023700  0.26456800  0.62596700  1
  H  H41  1  0.73543200  0.14976300  0.87403300  1
  H  H42  1  0.14976300  0.73543200  0.37403300  1
  H  H43  1  0.26456800  0.85023700  0.12596700  1
  H  H44  1  0.68890800  0.25966600  0.65994400  1
  H  H45  1  0.74033400  0.31109200  0.84005600  1
  H  H46  1  0.31109200  0.74033400  0.34005600  1
  H  H47  1  0.25966600  0.68890800  0.15994400  1
  H  H48  1  0.88310900  0.44828600  0.62380200  1
  H  H49  1  0.55171400  0.11689100  0.87619800  1
  H  H50  1  0.11689100  0.55171400  0.37619800  1
  H  H51  1  0.44828600  0.88310900  0.12380200  1
  C  C52  1  0.75516500  0.80540700  0.27328400  1
  C  C53  1  0.19459300  0.24483500  0.22671600  1
  C  C54  1  0.24483500  0.19459300  0.72671600  1
  C  C55  1  0.80540700  0.75516500  0.77328400  1
  C  C56  1  0.69634300  0.67577300  0.13943800  1
  C  C57  1  0.32422700  0.30365700  0.36056200  1
  C  C58  1  0.30365700  0.32422700  0.86056200  1
  C  C59  1  0.67577300  0.69634300  0.63943800  1
  C  C60  1  0.83817700  0.65005600  0.24445600  1
  C  C61  1  0.34994400  0.16182300  0.25554400  1
  C  C62  1  0.16182300  0.34994400  0.75554400  1
  C  C63  1  0.65005600  0.83817700  0.74445600  1
  C  C64  1  0.76082700  0.21185700  0.47513300  1
  C  C65  1  0.78814300  0.23917300  0.02486700  1
  C  C66  1  0.23917300  0.78814300  0.52486700  1
  C  C67  1  0.21185700  0.76082700  0.97513300  1
  C  C68  1  0.67021000  0.35984700  0.50699300  1
  C  C69  1  0.64015300  0.32979000  0.99300700  1
  C  C70  1  0.32979000  0.64015300  0.49300700  1
  C  C71  1  0.35984700  0.67021000  0.00699300  1
  C  C72  1  0.79529300  0.31756500  0.61484600  1
  C  C73  1  0.68243500  0.20470700  0.88515400  1
  C  C74  1  0.20470700  0.68243500  0.38515400  1
  C  C75  1  0.31756500  0.79529300  0.11484600  1
  S  S76  1  0.67822000  0.89476700  0.24468600  1
  S  S77  1  0.10523300  0.32178000  0.25531400  1
  S  S78  1  0.32178000  0.10523300  0.75531400  1
  S  S79  1  0.89476700  0.67822000  0.74468600  1
  S  S80  1  0.83297300  0.85396500  0.37118200  1
  S  S81  1  0.14603500  0.16702700  0.12881800  1
  S  S82  1  0.16702700  0.14603500  0.62881800  1
  S  S83  1  0.85396500  0.83297300  0.87118200  1
  S  S84  1  0.84737400  0.13114600  0.50117500  1
  S  S85  1  0.86885300  0.15262600  0.99882500  1
  S  S86  1  0.15262600  0.86885400  0.49882500  1
  S  S87  1  0.13114700  0.84737400  0.00117500  1
  S  S88  1  0.69874000  0.17829000  0.37359600  1
  S  S89  1  0.82171000  0.30126000  0.12640400  1
  S  S90  1  0.30126000  0.82171000  0.62640400  1
  S  S91  1  0.17829000  0.69874000  0.87359600  1
  N  N92  1  0.75690300  0.71009400  0.22355000  1
  N  N93  1  0.28990600  0.24309700  0.27645000  1
  N  N94  1  0.24309700  0.28990600  0.77645000  1
  N  N95  1  0.71009400  0.75690300  0.72355000  1
  N  N96  1  0.74456500  0.29286000  0.52869900  1
  N  N97  1  0.70714000  0.25543500  0.97130100  1
  N  N98  1  0.25543500  0.70714000  0.47130100  1
  N  N99  1  0.29286000  0.74456500  0.02869900  1
