# generated using pymatgen
data_NaFe(SO7)2
_symmetry_space_group_name_H-M   'P 1'
_cell_length_a   6.78079336
_cell_length_b   6.78079336
_cell_length_c   12.37833386
_cell_angle_alpha   92.89974419
_cell_angle_beta   92.89974419
_cell_angle_gamma   105.65100470
_symmetry_Int_Tables_number   1
_chemical_formula_structural   NaFe(SO7)2
_chemical_formula_sum   'Na2 Fe2 S4 O28'
_cell_volume   546.11896320
_cell_formula_units_Z   2
loop_
 _symmetry_equiv_pos_site_id
 _symmetry_equiv_pos_as_xyz
  1  'x, y, z'
loop_
 _atom_site_type_symbol
 _atom_site_label
 _atom_site_symmetry_multiplicity
 _atom_site_fract_x
 _atom_site_fract_y
 _atom_site_fract_z
 _atom_site_occupancy
  Na  Na0  1  0.91512100  0.08487900  0.25000000  1
  Na  Na1  1  0.08487900  0.91512100  0.75000000  1
  Fe  Fe2  1  0.50000000  0.50000000  0.00000000  1
  Fe  Fe3  1  0.50000000  0.50000000  0.50000000  1
  S  S4  1  0.88960200  0.57917300  0.16875600  1
  S  S5  1  0.42082700  0.11039800  0.33124400  1
  S  S6  1  0.11039800  0.42082700  0.83124400  1
  S  S7  1  0.57917300  0.88960200  0.66875600  1
  O  O8  1  0.72541600  0.45028700  0.08059900  1
  O  O9  1  0.54971300  0.27458400  0.41940100  1
  O  O10  1  0.27458400  0.54971300  0.91940100  1
  O  O11  1  0.45028700  0.72541600  0.58059900  1
  O  O12  1  0.58792100  0.39581200  0.88254800  1
  O  O13  1  0.60418800  0.41207900  0.61745200  1
  O  O14  1  0.41207900  0.60418800  0.11745200  1
  O  O15  1  0.39581200  0.58792100  0.38254800  1
  O  O16  1  0.26993500  0.14105200  0.03223900  1
  O  O17  1  0.85894800  0.73006500  0.46776100  1
  O  O18  1  0.73006500  0.85894800  0.96776100  1
  O  O19  1  0.14105200  0.26993500  0.53223900  1
  O  O20  1  0.79912100  0.72532100  0.22702200  1
  O  O21  1  0.27467900  0.20087900  0.27297800  1
  O  O22  1  0.20087900  0.27467900  0.77297800  1
  O  O23  1  0.72532100  0.79912100  0.72702200  1
  O  O24  1  0.93925400  0.42724900  0.23595700  1
  O  O25  1  0.57275100  0.06074600  0.26404300  1
  O  O26  1  0.06074600  0.57275100  0.76404300  1
  O  O27  1  0.42724900  0.93925400  0.73595700  1
  O  O28  1  0.06569900  0.69777400  0.11249900  1
  O  O29  1  0.30222600  0.93430100  0.38750100  1
  O  O30  1  0.93430100  0.30222600  0.88750100  1
  O  O31  1  0.69777400  0.06569900  0.61249900  1
  O  O32  1  0.00358200  0.72905400  0.53164600  1
  O  O33  1  0.27094600  0.99641800  0.96835400  1
  O  O34  1  0.99641800  0.27094600  0.46835400  1
  O  O35  1  0.72905400  0.00358200  0.03164600  1
