# generated using pymatgen
data_Rb4HfS4O17
_symmetry_space_group_name_H-M   'P 1'
_cell_length_a   9.82579000
_cell_length_b   12.72574500
_cell_length_c   15.25439100
_cell_angle_alpha   90.00000000
_cell_angle_beta   90.00000000
_cell_angle_gamma   90.00000000
_symmetry_Int_Tables_number   1
_chemical_formula_structural   Rb4HfS4O17
_chemical_formula_sum   'Rb16 Hf4 S16 O68'
_cell_volume   1907.41664677
_cell_formula_units_Z   4
loop_
 _symmetry_equiv_pos_site_id
 _symmetry_equiv_pos_as_xyz
  1  'x, y, z'
loop_
 _atom_site_type_symbol
 _atom_site_label
 _atom_site_symmetry_multiplicity
 _atom_site_fract_x
 _atom_site_fract_y
 _atom_site_fract_z
 _atom_site_occupancy
  Rb  Rb0  1  0.89945600  0.23867100  0.29306800  1
  Rb  Rb1  1  0.60054400  0.76132900  0.79306800  1
  Rb  Rb2  1  0.39945600  0.26132900  0.70693200  1
  Rb  Rb3  1  0.10054400  0.73867100  0.20693200  1
  Rb  Rb4  1  0.49707100  0.97008400  0.23534400  1
  Rb  Rb5  1  0.00292900  0.02991600  0.73534400  1
  Rb  Rb6  1  0.99707100  0.52991600  0.76465600  1
  Rb  Rb7  1  0.50292900  0.47008400  0.26465600  1
  Rb  Rb8  1  0.81113500  0.48364200  0.07432600  1
  Rb  Rb9  1  0.68886500  0.51635800  0.57432600  1
  Rb  Rb10  1  0.31113500  0.01635800  0.92567400  1
  Rb  Rb11  1  0.18886500  0.98364200  0.42567400  1
  Rb  Rb12  1  0.80839000  0.95213100  0.04356900  1
  Rb  Rb13  1  0.69161000  0.04786900  0.54356900  1
  Rb  Rb14  1  0.30839000  0.54786900  0.95643100  1
  Rb  Rb15  1  0.19161000  0.45213100  0.45643100  1
  Hf  Hf16  1  0.74902700  0.74315100  0.37633300  1
  Hf  Hf17  1  0.75097300  0.25684900  0.87633300  1
  Hf  Hf18  1  0.24902700  0.75684900  0.62366700  1
  Hf  Hf19  1  0.25097300  0.24315100  0.12366700  1
  S  S20  1  0.40181000  0.72781100  0.41276500  1
  S  S21  1  0.09819000  0.27218900  0.91276500  1
  S  S22  1  0.90181000  0.77218900  0.58723500  1
  S  S23  1  0.59819000  0.22781100  0.08723500  1
  S  S24  1  0.83627400  0.95219000  0.33537600  1
  S  S25  1  0.66372600  0.04781000  0.83537600  1
  S  S26  1  0.33627400  0.54781000  0.66462400  1
  S  S27  1  0.16372600  0.45219000  0.16462400  1
  S  S28  1  0.84103500  0.53208900  0.35057700  1
  S  S29  1  0.65896500  0.46791100  0.85057700  1
  S  S30  1  0.34103500  0.96791100  0.64942300  1
  S  S31  1  0.15896500  0.03208900  0.14942300  1
  S  S32  1  0.66616300  0.72117900  0.15137600  1
  S  S33  1  0.83383700  0.27882100  0.65137600  1
  S  S34  1  0.16616300  0.77882100  0.84862400  1
  S  S35  1  0.33383700  0.22117900  0.34862400  1
  O  O36  1  0.55152500  0.74700400  0.43194200  1
  O  O37  1  0.94847500  0.25299600  0.93194200  1
  O  O38  1  0.05152500  0.75299600  0.56805800  1
  O  O39  1  0.44847500  0.24700400  0.06805800  1
  O  O40  1  0.32934200  0.75644100  0.49831600  1
  O  O41  1  0.17065800  0.24355900  0.99831600  1
  O  O42  1  0.82934200  0.74355900  0.50168400  1
  O  O43  1  0.67065800  0.25644100  0.00168400  1
  O  O44  1  0.37801500  0.61743900  0.39364100  1
  O  O45  1  0.12198500  0.38256100  0.89364100  1
  O  O46  1  0.87801500  0.88256100  0.60635900  1
  O  O47  1  0.62198500  0.11743900  0.10635900  1
  O  O48  1  0.35376100  0.80045100  0.34506600  1
  O  O49  1  0.14623900  0.19954900  0.84506600  1
  O  O50  1  0.85376100  0.69954900  0.65493400  1
  O  O51  1  0.64623900  0.30045100  0.15493400  1
  O  O52  1  0.91393900  0.84740500  0.33144300  1
  O  O53  1  0.58606100  0.15259500  0.83144300  1
  O  O54  1  0.41393900  0.65259500  0.66855700  1
  O  O55  1  0.08606100  0.34740500  0.16855700  1
  O  O56  1  0.70371300  0.91241100  0.37823600  1
  O  O57  1  0.79628700  0.08758900  0.87823600  1
  O  O58  1  0.20371300  0.58758900  0.62176400  1
  O  O59  1  0.29628700  0.41241100  0.12176400  1
  O  O60  1  0.80933900  0.99444800  0.24813500  1
  O  O61  1  0.69066100  0.00555200  0.74813500  1
  O  O62  1  0.30933900  0.50555200  0.75186500  1
  O  O63  1  0.19066100  0.49444800  0.25186500  1
  O  O64  1  0.90450800  0.02723300  0.39297400  1
  O  O65  1  0.59549200  0.97276700  0.89297400  1
  O  O66  1  0.40450800  0.47276700  0.60702600  1
  O  O67  1  0.09549200  0.52723300  0.10702600  1
  O  O68  1  0.91285000  0.63774700  0.33499600  1
  O  O69  1  0.58715000  0.36225300  0.83499600  1
  O  O70  1  0.41285000  0.86225300  0.66500400  1
  O  O71  1  0.08715000  0.13774700  0.16500400  1
  O  O72  1  0.70605700  0.57466800  0.38869900  1
  O  O73  1  0.79394300  0.42533200  0.88869900  1
  O  O74  1  0.20605700  0.92533200  0.61130100  1
  O  O75  1  0.29394300  0.07466800  0.11130100  1
  O  O76  1  0.81544600  0.47672000  0.26842200  1
  O  O77  1  0.68455400  0.52328000  0.76842200  1
  O  O78  1  0.31544600  0.02328000  0.73157800  1
  O  O79  1  0.18455400  0.97672000  0.23157800  1
  O  O80  1  0.91186900  0.46816200  0.41510900  1
  O  O81  1  0.58813100  0.53183800  0.91510900  1
  O  O82  1  0.41186900  0.03183800  0.58489100  1
  O  O83  1  0.08813100  0.96816200  0.08489100  1
  O  O84  1  0.67319000  0.73931500  0.25240400  1
  O  O85  1  0.82681000  0.26068500  0.75240400  1
  O  O86  1  0.17319000  0.76068500  0.74759600  1
  O  O87  1  0.32681000  0.23931500  0.24759600  1
  O  O88  1  0.59409600  0.62218100  0.13745100  1
  O  O89  1  0.90590400  0.37781900  0.63745100  1
  O  O90  1  0.09409600  0.87781900  0.86254900  1
  O  O91  1  0.40590400  0.12218100  0.36254900  1
  O  O92  1  0.59421200  0.81249900  0.11451200  1
  O  O93  1  0.90578800  0.18750100  0.61451200  1
  O  O94  1  0.09421200  0.68750100  0.88548800  1
  O  O95  1  0.40578800  0.31249900  0.38548800  1
  O  O96  1  0.81035300  0.71691000  0.12076100  1
  O  O97  1  0.68964700  0.28309000  0.62076100  1
  O  O98  1  0.31035300  0.78309000  0.87923900  1
  O  O99  1  0.18964700  0.21691000  0.37923900  1
  O  O100  1  0.68475600  0.26678900  0.44382500  1
  O  O101  1  0.81524400  0.73321100  0.94382500  1
  O  O102  1  0.18475600  0.23321100  0.55617500  1
  O  O103  1  0.31524400  0.76678900  0.05617500  1
