# generated using pymatgen
data_In2P6O19
_symmetry_space_group_name_H-M   'P 1'
_cell_length_a   5.11179900
_cell_length_b   11.63319300
_cell_length_c   13.25085700
_cell_angle_alpha   90.00000000
_cell_angle_beta   90.00000000
_cell_angle_gamma   90.00000000
_symmetry_Int_Tables_number   1
_chemical_formula_structural   In2P6O19
_chemical_formula_sum   'In4 P12 O38'
_cell_volume   787.98267539
_cell_formula_units_Z   2
loop_
 _symmetry_equiv_pos_site_id
 _symmetry_equiv_pos_as_xyz
  1  'x, y, z'
loop_
 _atom_site_type_symbol
 _atom_site_label
 _atom_site_symmetry_multiplicity
 _atom_site_fract_x
 _atom_site_fract_y
 _atom_site_fract_z
 _atom_site_occupancy
  In  In0  1  0.00000000  0.25000000  0.75000000  1
  In  In1  1  0.00000000  0.25000000  0.25000000  1
  In  In2  1  0.00000000  0.75000000  0.75000000  1
  In  In3  1  0.00000000  0.75000000  0.25000000  1
  P  P4  1  0.05896400  0.00000000  0.88727900  1
  P  P5  1  0.05896400  0.00000000  0.11272100  1
  P  P6  1  0.94103600  0.50000000  0.61272100  1
  P  P7  1  0.94103600  0.50000000  0.38727900  1
  P  P8  1  0.50383200  0.37183100  0.88679800  1
  P  P9  1  0.50383200  0.37183100  0.11320200  1
  P  P10  1  0.50383200  0.62816900  0.88679800  1
  P  P11  1  0.50383200  0.62816900  0.11320200  1
  P  P12  1  0.49616800  0.12816900  0.61320200  1
  P  P13  1  0.49616800  0.12816900  0.38679800  1
  P  P14  1  0.49616800  0.87183100  0.61320200  1
  P  P15  1  0.49616800  0.87183100  0.38679800  1
  O  O16  1  0.62632000  0.50000000  0.88543400  1
  O  O17  1  0.62632000  0.50000000  0.11456600  1
  O  O18  1  0.37368000  0.00000000  0.61456600  1
  O  O19  1  0.37368000  0.00000000  0.38543400  1
  O  O20  1  0.27164400  0.36768100  0.81809400  1
  O  O21  1  0.27164400  0.36768100  0.18190600  1
  O  O22  1  0.27164400  0.63231900  0.81809400  1
  O  O23  1  0.27164400  0.63231900  0.18190600  1
  O  O24  1  0.72835600  0.13231900  0.68190600  1
  O  O25  1  0.72835600  0.13231900  0.31809400  1
  O  O26  1  0.72835600  0.86768100  0.68190600  1
  O  O27  1  0.72835600  0.86768100  0.31809400  1
  O  O28  1  0.39200700  0.35904300  0.00000000  1
  O  O29  1  0.39200700  0.64095700  0.00000000  1
  O  O30  1  0.60799300  0.14095700  0.50000000  1
  O  O31  1  0.60799300  0.85904300  0.50000000  1
  O  O32  1  0.72751300  0.28969900  0.87169600  1
  O  O33  1  0.72751300  0.28969900  0.12830400  1
  O  O34  1  0.72751300  0.71030100  0.87169600  1
  O  O35  1  0.72751300  0.71030100  0.12830400  1
  O  O36  1  0.27248700  0.21030100  0.62830400  1
  O  O37  1  0.27248700  0.21030100  0.37169600  1
  O  O38  1  0.27248700  0.78969900  0.62830400  1
  O  O39  1  0.27248700  0.78969900  0.37169600  1
  O  O40  1  0.75737300  0.00000000  0.88527800  1
  O  O41  1  0.75737300  0.00000000  0.11472200  1
  O  O42  1  0.24262700  0.50000000  0.61472200  1
  O  O43  1  0.24262700  0.50000000  0.38527800  1
  O  O44  1  0.15646000  0.11112200  0.83999700  1
  O  O45  1  0.15646000  0.11112200  0.16000300  1
  O  O46  1  0.15646000  0.88887800  0.83999700  1
  O  O47  1  0.15646000  0.88887800  0.16000300  1
  O  O48  1  0.84354000  0.38887800  0.66000300  1
  O  O49  1  0.84354000  0.38887800  0.33999700  1
  O  O50  1  0.84354000  0.61112200  0.66000300  1
  O  O51  1  0.84354000  0.61112200  0.33999700  1
  O  O52  1  0.17247500  0.00000000  0.00000000  1
  O  O53  1  0.82752500  0.50000000  0.50000000  1
