# generated using pymatgen
data_NaCuPH8C2SO8
_symmetry_space_group_name_H-M   'P 1'
_cell_length_a   14.96292600
_cell_length_b   7.87291200
_cell_length_c   7.70433129
_cell_angle_alpha   90.00000000
_cell_angle_beta   91.55035116
_cell_angle_gamma   90.00000000
_symmetry_Int_Tables_number   1
_chemical_formula_structural   NaCuPH8C2SO8
_chemical_formula_sum   'Na4 Cu4 P4 H32 C8 S4 O32'
_cell_volume   907.25185591
_cell_formula_units_Z   4
loop_
 _symmetry_equiv_pos_site_id
 _symmetry_equiv_pos_as_xyz
  1  'x, y, z'
loop_
 _atom_site_type_symbol
 _atom_site_label
 _atom_site_symmetry_multiplicity
 _atom_site_fract_x
 _atom_site_fract_y
 _atom_site_fract_z
 _atom_site_occupancy
  Na  Na0  1  0.96623300  0.30978500  0.06414500  1
  Na  Na1  1  0.03376700  0.80978500  0.43585500  1
  Na  Na2  1  0.03376700  0.69021500  0.93585500  1
  Na  Na3  1  0.96623300  0.19021500  0.56414500  1
  Cu  Cu4  1  0.47687000  0.19853700  0.07151100  1
  Cu  Cu5  1  0.52313000  0.69853700  0.42848900  1
  Cu  Cu6  1  0.52313000  0.80146300  0.92848900  1
  Cu  Cu7  1  0.47687000  0.30146300  0.57151100  1
  P  P8  1  0.60430700  0.44585900  0.84961100  1
  P  P9  1  0.39569300  0.94585900  0.65038900  1
  P  P10  1  0.39569300  0.55414100  0.15038900  1
  P  P11  1  0.60430700  0.05414100  0.34961100  1
  H  H12  1  0.37789000  0.07250700  0.29753300  1
  H  H13  1  0.62211000  0.57250700  0.20246700  1
  H  H14  1  0.62211000  0.92749300  0.70246700  1
  H  H15  1  0.37789000  0.42749300  0.79753300  1
  H  H16  1  0.38360800  0.95053100  0.13493100  1
  H  H17  1  0.61639200  0.45053100  0.36506900  1
  H  H18  1  0.61639200  0.04946900  0.86506900  1
  H  H19  1  0.38360800  0.54946900  0.63493100  1
  H  H20  1  0.72323800  0.31880200  0.69983700  1
  H  H21  1  0.27676200  0.81880200  0.80016300  1
  H  H22  1  0.27676200  0.68119800  0.30016300  1
  H  H23  1  0.72323800  0.18119800  0.19983700  1
  H  H24  1  0.75575200  0.37182500  0.91736500  1
  H  H25  1  0.24424800  0.87182500  0.58263500  1
  H  H26  1  0.24424800  0.62817500  0.08263500  1
  H  H27  1  0.75575200  0.12817500  0.41736500  1
  H  H28  1  0.72963100  0.63659800  0.62395400  1
  H  H29  1  0.27036900  0.13659800  0.87604600  1
  H  H30  1  0.27036900  0.36340200  0.37604600  1
  H  H31  1  0.72963100  0.86340200  0.12395400  1
  H  H32  1  0.77091300  0.67656400  0.83896500  1
  H  H33  1  0.22908700  0.17656400  0.66103500  1
  H  H34  1  0.22908700  0.32343600  0.16103500  1
  H  H35  1  0.77091300  0.82343600  0.33896500  1
  H  H36  1  0.86207900  0.58229400  0.15318100  1
  H  H37  1  0.13792100  0.08229400  0.34681900  1
  H  H38  1  0.13792100  0.41770600  0.84681900  1
  H  H39  1  0.86207900  0.91770600  0.65318100  1
  H  H40  1  0.84390800  0.45289400  0.29977900  1
  H  H41  1  0.15609200  0.95289400  0.20022100  1
  H  H42  1  0.15609200  0.54710600  0.70022100  1
  H  H43  1  0.84390800  0.04710600  0.79977900  1
  C  C44  1  0.72129900  0.41848400  0.79940200  1
  C  C45  1  0.27870100  0.91848400  0.70059800  1
  C  C46  1  0.27870100  0.58151600  0.20059800  1
  C  C47  1  0.72129900  0.08151600  0.29940200  1
  C  C48  1  0.76535800  0.58060100  0.73629100  1
  C  C49  1  0.23464200  0.08060100  0.76370900  1
  C  C50  1  0.23464200  0.41939900  0.26370900  1
  C  C51  1  0.76535800  0.91939900  0.23629100  1
  S  S52  1  0.87715700  0.54404600  0.66475900  1
  S  S53  1  0.12284300  0.04404600  0.83524100  1
  S  S54  1  0.12284300  0.45595400  0.33524100  1
  S  S55  1  0.87715700  0.95595400  0.16475900  1
  O  O56  1  0.37166100  0.06991100  0.16826700  1
  O  O57  1  0.62833900  0.56991100  0.33173300  1
  O  O58  1  0.62833900  0.93008900  0.83173300  1
  O  O59  1  0.37166100  0.43008900  0.66826700  1
  O  O60  1  0.59617700  0.59858700  0.97628600  1
  O  O61  1  0.40382300  0.09858700  0.52371400  1
  O  O62  1  0.40382300  0.40141300  0.02371400  1
  O  O63  1  0.59617700  0.90141300  0.47628600  1
  O  O64  1  0.57844900  0.27523500  0.93528900  1
  O  O65  1  0.42155100  0.77523500  0.56471100  1
  O  O66  1  0.42155100  0.72476500  0.06471100  1
  O  O67  1  0.57844900  0.22476500  0.43528900  1
  O  O68  1  0.55154900  0.48202600  0.67782900  1
  O  O69  1  0.44845100  0.98202600  0.82217100  1
  O  O70  1  0.44845100  0.51797400  0.32217100  1
  O  O71  1  0.55154900  0.01797400  0.17782900  1
  O  O72  1  0.93143700  0.47746600  0.81144500  1
  O  O73  1  0.06856300  0.97746600  0.68855500  1
  O  O74  1  0.06856300  0.52253400  0.18855500  1
  O  O75  1  0.93143700  0.02253400  0.31144500  1
  O  O76  1  0.86979100  0.41936100  0.52273700  1
  O  O77  1  0.13020900  0.91936100  0.97726300  1
  O  O78  1  0.13020900  0.58063900  0.47726300  1
  O  O79  1  0.86979100  0.08063900  0.02273700  1
  O  O80  1  0.91036500  0.71070500  0.60606000  1
  O  O81  1  0.08963500  0.21070500  0.89394000  1
  O  O82  1  0.08963500  0.28929500  0.39394000  1
  O  O83  1  0.91036500  0.78929500  0.10606000  1
  O  O84  1  0.84460400  0.46368600  0.17271800  1
  O  O85  1  0.15539600  0.96368600  0.32728200  1
  O  O86  1  0.15539600  0.53631400  0.82728200  1
  O  O87  1  0.84460400  0.03631400  0.67271800  1
