data_image0
_chemical_formula_structural       F6LiPt
_chemical_formula_sum              "F6 Li1 Pt1"
_cell_length_a       4.74229
_cell_length_b       4.74223
_cell_length_c       5.16125
_cell_angle_alpha    117.352
_cell_angle_beta     117.35
_cell_angle_gamma    60.0005

_space_group_name_H-M_alt    "P 1"
_space_group_IT_number       1

loop_
  _space_group_symop_operation_xyz
  'x, y, z'

loop_
  _atom_site_type_symbol
  _atom_site_label
  _atom_site_symmetry_multiplicity
  _atom_site_fract_x
  _atom_site_fract_y
  _atom_site_fract_z
  _atom_site_occupancy
  F   F1        1.0  0.07870  0.41700  0.25000  1.0000
  F   F2        1.0  0.75400  0.07860  0.25000  1.0000
  F   F3        1.0  0.41700  0.75400  0.25000  1.0000
  F   F4        1.0  0.58300  0.24600  0.75000  1.0000
  F   F5        1.0  0.24600  0.92100  0.75000  1.0000
  F   F6        1.0  0.92100  0.58300  0.75000  1.0000
  Li  Li1       1.0  0.50000  0.50000  0.50000  1.0000
  Pt  Pt1       1.0  0.00000  0.00000  0.00000  1.0000
