# generated using pymatgen
data_MgH8C3(NO3)2
_symmetry_space_group_name_H-M   'P 1'
_cell_length_a   7.43368300
_cell_length_b   8.04996600
_cell_length_c   14.04881100
_cell_angle_alpha   90.00000000
_cell_angle_beta   90.00000000
_cell_angle_gamma   90.00000000
_symmetry_Int_Tables_number   1
_chemical_formula_structural   MgH8C3(NO3)2
_chemical_formula_sum   'Mg4 H32 C12 N8 O24'
_cell_volume   840.69342961
_cell_formula_units_Z   4
loop_
 _symmetry_equiv_pos_site_id
 _symmetry_equiv_pos_as_xyz
  1  'x, y, z'
loop_
 _atom_site_type_symbol
 _atom_site_label
 _atom_site_symmetry_multiplicity
 _atom_site_fract_x
 _atom_site_fract_y
 _atom_site_fract_z
 _atom_site_occupancy
  Mg  Mg0  1  0.24191100  0.77909000  0.66513300  1
  Mg  Mg1  1  0.74191100  0.72091000  0.33486700  1
  Mg  Mg2  1  0.75808900  0.27909000  0.83486700  1
  Mg  Mg3  1  0.25808900  0.22091000  0.16513300  1
  H  H4  1  0.52879000  0.06672800  0.69292000  1
  H  H5  1  0.02879000  0.43327200  0.30708000  1
  H  H6  1  0.47121000  0.56672800  0.80708000  1
  H  H7  1  0.97121000  0.93327200  0.19292000  1
  H  H8  1  0.00909600  0.48800100  0.71633100  1
  H  H9  1  0.50909600  0.01199900  0.28366900  1
  H  H10  1  0.99090400  0.98800100  0.78366900  1
  H  H11  1  0.49090400  0.51199900  0.21633100  1
  H  H12  1  0.51792700  0.67386500  0.51732400  1
  H  H13  1  0.01792700  0.82613500  0.48267600  1
  H  H14  1  0.48207300  0.17386500  0.98267600  1
  H  H15  1  0.98207300  0.32613500  0.01732400  1
  H  H16  1  0.21806800  0.94030600  0.97907600  1
  H  H17  1  0.71806800  0.55969400  0.02092400  1
  H  H18  1  0.78193200  0.44030600  0.52092400  1
  H  H19  1  0.28193200  0.05969400  0.47907600  1
  H  H20  1  0.21079900  0.78182300  0.89685700  1
  H  H21  1  0.71079900  0.71817700  0.10314300  1
  H  H22  1  0.78920100  0.28182300  0.60314300  1
  H  H23  1  0.28920100  0.21817700  0.39685700  1
  H  H24  1  0.40008000  0.81059500  0.96478000  1
  H  H25  1  0.90008000  0.68940500  0.03522000  1
  H  H26  1  0.59992000  0.31059500  0.53522000  1
  H  H27  1  0.09992000  0.18940500  0.46478000  1
  H  H28  1  0.22528300  0.59799500  0.03042900  1
  H  H29  1  0.72528300  0.90200500  0.96957100  1
  H  H30  1  0.77471700  0.09799500  0.46957100  1
  H  H31  1  0.27471700  0.40200500  0.53042900  1
  H  H32  1  0.22118800  0.76203400  0.09957600  1
  H  H33  1  0.72118800  0.73796600  0.90042400  1
  H  H34  1  0.77881200  0.26203400  0.40042400  1
  H  H35  1  0.27881200  0.23796600  0.59957600  1
  C  C36  1  0.50401500  0.01300900  0.76459600  1
  C  C37  1  0.00401500  0.48699100  0.23540400  1
  C  C38  1  0.49598500  0.51300900  0.73540400  1
  C  C39  1  0.99598500  0.98699100  0.26459600  1
  C  C40  1  0.00823200  0.55611000  0.78480300  1
  C  C41  1  0.50823200  0.94389000  0.21519700  1
  C  C42  1  0.99176800  0.05611000  0.71519700  1
  C  C43  1  0.49176800  0.44389000  0.28480300  1
  C  C44  1  0.49322400  0.80436100  0.49623400  1
  C  C45  1  0.99322400  0.69563900  0.50376600  1
  C  C46  1  0.50677600  0.30436100  0.00376600  1
  C  C47  1  0.00677600  0.19563900  0.99623400  1
  N  N48  1  0.25920000  0.81800100  0.96382200  1
  N  N49  1  0.75920000  0.68199900  0.03617800  1
  N  N50  1  0.74080000  0.31800100  0.53617800  1
  N  N51  1  0.24080000  0.18199900  0.46382200  1
  N  N52  1  0.17419100  0.71614200  0.03611100  1
  N  N53  1  0.67419100  0.78385800  0.96388900  1
  N  N54  1  0.82580900  0.21614200  0.46388900  1
  N  N55  1  0.32580900  0.28385800  0.53611100  1
  O  O56  1  0.39188200  0.89483600  0.77019200  1
  O  O57  1  0.89188200  0.60516400  0.22980800  1
  O  O58  1  0.60811800  0.39483600  0.72980800  1
  O  O59  1  0.10811800  0.10516400  0.27019200  1
  O  O60  1  0.58948000  0.07358200  0.83421400  1
  O  O61  1  0.08948000  0.42641800  0.16578600  1
  O  O62  1  0.41052000  0.57358200  0.66578600  1
  O  O63  1  0.91052000  0.92641800  0.33421400  1
  O  O64  1  0.10045400  0.68964300  0.78828900  1
  O  O65  1  0.60045400  0.81035700  0.21171100  1
  O  O66  1  0.89954600  0.18964300  0.71171100  1
  O  O67  1  0.39954600  0.31035700  0.28828900  1
  O  O68  1  0.91647500  0.49654700  0.85248700  1
  O  O69  1  0.41647500  0.00345300  0.14751300  1
  O  O70  1  0.08352500  0.99654700  0.64751300  1
  O  O71  1  0.58352500  0.50345300  0.35248700  1
  O  O72  1  0.37788800  0.88472900  0.54514600  1
  O  O73  1  0.87788800  0.61527100  0.45485400  1
  O  O74  1  0.62211200  0.38472900  0.95485400  1
  O  O75  1  0.12211200  0.11527100  0.04514600  1
  O  O76  1  0.57962100  0.86342400  0.42646700  1
  O  O77  1  0.07962100  0.63657600  0.57353300  1
  O  O78  1  0.42037900  0.36342400  0.07353300  1
  O  O79  1  0.92037900  0.13657600  0.92646700  1
