# generated using pymatgen
data_Nb16Bi47
_symmetry_space_group_name_H-M   'P 1'
_cell_length_a   11.28460400
_cell_length_b   11.28460400
_cell_length_c   16.79111404
_cell_angle_alpha   109.63512574
_cell_angle_beta   109.63512574
_cell_angle_gamma   90.00000000
_symmetry_Int_Tables_number   1
_chemical_formula_structural   Nb16Bi47
_chemical_formula_sum   'Nb16 Bi47'
_cell_volume   1881.35189838
_cell_formula_units_Z   1
loop_
 _symmetry_equiv_pos_site_id
 _symmetry_equiv_pos_as_xyz
  1  'x, y, z'
loop_
 _atom_site_type_symbol
 _atom_site_label
 _atom_site_symmetry_multiplicity
 _atom_site_fract_x
 _atom_site_fract_y
 _atom_site_fract_z
 _atom_site_occupancy
  Nb  Nb0  1  0.21050500  0.86839200  0.73678500  1
  Nb  Nb1  1  0.52628000  0.86839200  0.73678500  1
  Nb  Nb2  1  0.13160800  0.78949500  0.26321500  1
  Nb  Nb3  1  0.13160800  0.47372000  0.26321500  1
  Nb  Nb4  1  0.40699800  0.05519200  0.81399500  1
  Nb  Nb5  1  0.40699800  0.75880300  0.81399500  1
  Nb  Nb6  1  0.24119700  0.59300200  0.18600500  1
  Nb  Nb7  1  0.94480800  0.59300200  0.18600500  1
  Nb  Nb8  1  0.84757000  0.84757000  0.69513900  1
  Nb  Nb9  1  0.15243000  0.15243000  0.30486100  1
  Nb  Nb10  1  0.61756100  0.26792400  0.53584800  1
  Nb  Nb11  1  0.91828700  0.26792400  0.53584800  1
  Nb  Nb12  1  0.73207600  0.38243900  0.46415200  1
  Nb  Nb13  1  0.73207600  0.08171300  0.46415200  1
  Nb  Nb14  1  0.42454900  0.42454900  0.84909700  1
  Nb  Nb15  1  0.57545100  0.57545100  0.15090300  1
  Bi  Bi16  1  0.95732100  0.93568700  0.58206200  1
  Bi  Bi17  1  0.62474100  0.64637500  0.58206200  1
  Bi  Bi18  1  0.62474100  0.93568700  0.58206200  1
  Bi  Bi19  1  0.95732100  0.64637500  0.58206200  1
  Bi  Bi20  1  0.35362500  0.04267900  0.41793800  1
  Bi  Bi21  1  0.06431300  0.37525900  0.41793800  1
  Bi  Bi22  1  0.35362500  0.37525900  0.41793800  1
  Bi  Bi23  1  0.06431300  0.04267900  0.41793800  1
  Bi  Bi24  1  0.05624700  0.69745000  0.39490100  1
  Bi  Bi25  1  0.33865400  0.69745000  0.39490100  1
  Bi  Bi26  1  0.30255000  0.94375300  0.60509900  1
  Bi  Bi27  1  0.30255000  0.66134600  0.60509900  1
  Bi  Bi28  1  0.30779900  0.50746700  0.01493400  1
  Bi  Bi29  1  0.70713600  0.50746700  0.01493400  1
  Bi  Bi30  1  0.49253300  0.69220100  0.98506600  1
  Bi  Bi31  1  0.49253300  0.29286400  0.98506600  1
  Bi  Bi32  1  0.51957300  0.16603500  0.33207100  1
  Bi  Bi33  1  0.81249800  0.16603500  0.33207100  1
  Bi  Bi34  1  0.83396500  0.48042700  0.66792900  1
  Bi  Bi35  1  0.83396500  0.18750200  0.66792900  1
  Bi  Bi36  1  0.75612800  0.41558500  0.83117000  1
  Bi  Bi37  1  0.07504100  0.41558500  0.83117000  1
  Bi  Bi38  1  0.58441500  0.24387200  0.16883000  1
  Bi  Bi39  1  0.58441500  0.92495900  0.16883000  1
  Bi  Bi40  1  0.70570200  0.70570200  0.41140400  1
  Bi  Bi41  1  0.29429800  0.29429800  0.58859600  1
  Bi  Bi42  1  0.62179200  0.97642900  0.95285900  1
  Bi  Bi43  1  0.33106600  0.97642900  0.95285900  1
  Bi  Bi44  1  0.02357100  0.37820800  0.04714100  1
  Bi  Bi45  1  0.02357100  0.66893400  0.04714100  1
  Bi  Bi46  1  0.00000000  0.00000000  0.00000000  1
  Bi  Bi47  1  0.76594800  0.06682900  0.83596000  1
  Bi  Bi48  1  0.07001100  0.76913100  0.83596000  1
  Bi  Bi49  1  0.07001100  0.06682900  0.83596000  1
  Bi  Bi50  1  0.76594800  0.76913100  0.83596000  1
  Bi  Bi51  1  0.23086900  0.23405200  0.16404000  1
  Bi  Bi52  1  0.93317100  0.92998900  0.16404000  1
  Bi  Bi53  1  0.23086900  0.92998900  0.16404000  1
  Bi  Bi54  1  0.93317100  0.23405200  0.16404000  1
  Bi  Bi55  1  0.46988800  0.79308400  0.27096500  1
  Bi  Bi56  1  0.80107700  0.47788100  0.27096500  1
  Bi  Bi57  1  0.80107700  0.79308400  0.27096500  1
  Bi  Bi58  1  0.46988800  0.47788100  0.27096500  1
  Bi  Bi59  1  0.52211900  0.53011200  0.72903500  1
  Bi  Bi60  1  0.20691600  0.19892300  0.72903500  1
  Bi  Bi61  1  0.52211900  0.19892300  0.72903500  1
  Bi  Bi62  1  0.20691600  0.53011200  0.72903500  1
