# generated using pymatgen
data_La3Mo4O16F
_symmetry_space_group_name_H-M   'P 1'
_cell_length_a   7.33763272
_cell_length_b   7.52797483
_cell_length_c   14.86876820
_cell_angle_alpha   102.49656117
_cell_angle_beta   101.18792017
_cell_angle_gamma   100.25312077
_symmetry_Int_Tables_number   1
_chemical_formula_structural   La3Mo4O16F
_chemical_formula_sum   'La6 Mo8 O32 F2'
_cell_volume   765.58763311
_cell_formula_units_Z   2
loop_
 _symmetry_equiv_pos_site_id
 _symmetry_equiv_pos_as_xyz
  1  'x, y, z'
loop_
 _atom_site_type_symbol
 _atom_site_label
 _atom_site_symmetry_multiplicity
 _atom_site_fract_x
 _atom_site_fract_y
 _atom_site_fract_z
 _atom_site_occupancy
  La  La0  1  0.11026700  0.16154800  0.73901200  1
  La  La1  1  0.88973300  0.83845200  0.26098800  1
  La  La2  1  0.21929600  0.72293300  0.87806300  1
  La  La3  1  0.78070400  0.27706700  0.12193700  1
  La  La4  1  0.28043100  0.65398300  0.60544100  1
  La  La5  1  0.71956900  0.34601700  0.39455900  1
  Mo  Mo6  1  0.22762500  0.26241100  0.98895100  1
  Mo  Mo7  1  0.77237500  0.73758900  0.01104900  1
  Mo  Mo8  1  0.83864200  0.57328100  0.66944600  1
  Mo  Mo9  1  0.16135800  0.42671900  0.33055400  1
  Mo  Mo10  1  0.60155700  0.07584300  0.82792900  1
  Mo  Mo11  1  0.39844300  0.92415700  0.17207100  1
  Mo  Mo12  1  0.69140400  0.91196700  0.48585100  1
  Mo  Mo13  1  0.30859600  0.08803300  0.51414900  1
  O  O14  1  0.46294300  0.33867700  0.06131800  1
  O  O15  1  0.53705700  0.66132300  0.93868200  1
  O  O16  1  0.06627400  0.22841800  0.06205400  1
  O  O17  1  0.93372600  0.77158200  0.93794600  1
  O  O18  1  0.16530300  0.42180800  0.91912500  1
  O  O19  1  0.83469700  0.57819200  0.08087500  1
  O  O20  1  0.20852800  0.05838800  0.89160500  1
  O  O21  1  0.79147200  0.94161200  0.10839500  1
  O  O22  1  0.87464400  0.45381500  0.75910900  1
  O  O23  1  0.12535600  0.54618500  0.24089100  1
  O  O24  1  0.39812400  0.39014700  0.36055900  1
  O  O25  1  0.60187600  0.60985300  0.63944100  1
  O  O26  1  0.90865800  0.45471100  0.56694000  1
  O  O27  1  0.09134200  0.54528900  0.43306000  1
  O  O28  1  0.02963500  0.78592300  0.71545000  1
  O  O29  1  0.97036500  0.21407700  0.28455000  1
  O  O30  1  0.47812400  0.24623700  0.79866800  1
  O  O31  1  0.52187600  0.75376300  0.20133200  1
  O  O32  1  0.81290300  0.08126500  0.78473600  1
  O  O33  1  0.18709700  0.91873500  0.21526400  1
  O  O34  1  0.66445600  0.10938600  0.95410400  1
  O  O35  1  0.33554400  0.89061400  0.04589600  1
  O  O36  1  0.43202800  0.85009400  0.77558600  1
  O  O37  1  0.56797200  0.14990600  0.22441400  1
  O  O38  1  0.75794500  0.69528500  0.45645900  1
  O  O39  1  0.24205500  0.30471500  0.54354100  1
  O  O40  1  0.85790300  0.04071100  0.59396900  1
  O  O41  1  0.14209700  0.95928900  0.40603100  1
  O  O42  1  0.44939400  0.82846500  0.50258700  1
  O  O43  1  0.55060600  0.17153500  0.49741300  1
  O  O44  1  0.25707300  0.99243100  0.61408500  1
  O  O45  1  0.74292700  0.00756900  0.38591500  1
  F  F46  1  0.76820400  0.51526100  0.26805100  1
  F  F47  1  0.23179600  0.48473900  0.73194900  1
