# generated using pymatgen
data_NaMo3H29C8(BrO2)4
_symmetry_space_group_name_H-M   'P 1'
_cell_length_a   11.72496000
_cell_length_b   11.75032251
_cell_length_c   13.10913826
_cell_angle_alpha   76.68537671
_cell_angle_beta   85.16482913
_cell_angle_gamma   60.54918096
_symmetry_Int_Tables_number   1
_chemical_formula_structural   NaMo3H29C8(BrO2)4
_chemical_formula_sum   'Na2 Mo6 H58 C16 Br8 O16'
_cell_volume   1529.52210176
_cell_formula_units_Z   2
loop_
 _symmetry_equiv_pos_site_id
 _symmetry_equiv_pos_as_xyz
  1  'x, y, z'
loop_
 _atom_site_type_symbol
 _atom_site_label
 _atom_site_symmetry_multiplicity
 _atom_site_fract_x
 _atom_site_fract_y
 _atom_site_fract_z
 _atom_site_occupancy
  Na  Na0  1  0.84821400  0.23982600  0.35443600  1
  Na  Na1  1  0.15178600  0.76017400  0.64556400  1
  Mo  Mo2  1  0.31607400  0.13257600  0.10293600  1
  Mo  Mo3  1  0.68392600  0.86742400  0.89706400  1
  Mo  Mo4  1  0.51924400  0.79982600  0.11220900  1
  Mo  Mo5  1  0.48075600  0.20017400  0.88779100  1
  Mo  Mo6  1  0.64846800  0.99685400  0.11407400  1
  Mo  Mo7  1  0.35153200  0.00314600  0.88592600  1
  H  H8  1  0.13223900  0.14303100  0.31803900  1
  H  H9  1  0.86776100  0.85696900  0.68196100  1
  H  H10  1  0.71221100  0.11750400  0.28543900  1
  H  H11  1  0.28778900  0.88249600  0.71456100  1
  H  H12  1  0.86684200  0.06812100  0.56544400  1
  H  H13  1  0.13315800  0.93187900  0.43455600  1
  H  H14  1  0.00994300  0.23081300  0.17276400  1
  H  H15  1  0.99005700  0.76918700  0.82723600  1
  H  H16  1  0.67075600  0.53029500  0.29608000  1
  H  H17  1  0.32924400  0.46970500  0.70392000  1
  H  H18  1  0.08591700  0.43502700  0.10654300  1
  H  H19  1  0.91408300  0.56497300  0.89345700  1
  H  H20  1  0.03115900  0.41324000  0.23696100  1
  H  H21  1  0.96884100  0.58676000  0.76303900  1
  H  H22  1  0.19514400  0.38461900  0.21511800  1
  H  H23  1  0.80485600  0.61538100  0.78488200  1
  H  H24  1  0.51684200  0.52069500  0.11499900  1
  H  H25  1  0.48315800  0.47930500  0.88500100  1
  H  H26  1  0.49418000  0.47468900  0.25135900  1
  H  H27  1  0.50582000  0.52531100  0.74864100  1
  H  H28  1  0.37198800  0.62816300  0.17418100  1
  H  H29  1  0.62801200  0.37183700  0.82581900  1
  H  H30  1  0.94730200  0.96001000  0.14430600  1
  H  H31  1  0.05269800  0.03999000  0.85569400  1
  H  H32  1  0.95614100  0.91458500  0.28397400  1
  H  H33  1  0.04385900  0.08541500  0.71602600  1
  H  H34  1  0.93672000  0.81459100  0.21049700  1
  H  H35  1  0.06328000  0.18540900  0.78950300  1
  H  H36  1  0.18252100  0.08528200  0.53614900  1
  H  H37  1  0.81747900  0.91471800  0.46385100  1
  H  H38  1  0.23939000  0.16808400  0.42979100  1
  H  H39  1  0.76061000  0.83191600  0.57020900  1
  H  H40  1  0.07621000  0.25596600  0.47444800  1
  H  H41  1  0.92379000  0.74403400  0.52555200  1
  H  H42  1  0.48341000  0.26138100  0.33318300  1
  H  H43  1  0.51659000  0.73861900  0.66681700  1
  H  H44  1  0.57826100  0.10784700  0.42509100  1
  H  H45  1  0.42173900  0.89215300  0.57490900  1
  H  H46  1  0.56173500  0.26041600  0.44491400  1
  H  H47  1  0.43826500  0.73958400  0.55508600  1
  H  H48  1  0.68231300  0.33147500  0.56368600  1
  H  H49  1  0.31768700  0.66852500  0.43631400  1
  H  H50  1  0.72041400  0.18498700  0.66367500  1
  H  H51  1  0.27958600  0.81501300  0.33632500  1
  H  H52  1  0.81335700  0.26958900  0.65717800  1
  H  H53  1  0.18664300  0.73041100  0.34282200  1
  H  H54  1  0.83168300  0.39058500  0.05158700  1
  H  H55  1  0.16831700  0.60941500  0.94841300  1
  H  H56  1  0.91635800  0.22717700  0.02227800  1
  H  H57  1  0.08364200  0.77282300  0.97772200  1
  H  H58  1  0.76671300  0.27820000  0.09073300  1
  H  H59  1  0.23328700  0.72180000  0.90926700  1
  H  H60  1  0.77625000  0.63353500  0.34701900  1
  H  H61  1  0.22375000  0.36646500  0.65298100  1
  H  H62  1  0.69197200  0.59197500  0.45698700  1
  H  H63  1  0.30802800  0.40802500  0.54301300  1
  H  H64  1  0.86352100  0.48610100  0.44611100  1
  H  H65  1  0.13647900  0.51389900  0.55388900  1
  C  C66  1  0.11600700  0.37336600  0.18688300  1
  C  C67  1  0.88399300  0.62663400  0.81311700  1
  C  C68  1  0.47888900  0.56016400  0.18672400  1
  C  C69  1  0.52111100  0.43983600  0.81327600  1
  C  C70  1  0.90789300  0.91855700  0.21352100  1
  C  C71  1  0.09210700  0.08144300  0.78647900  1
  C  C72  1  0.15386100  0.15824700  0.46093100  1
  C  C73  1  0.84613900  0.84175300  0.53906900  1
  C  C74  1  0.57237800  0.20412000  0.38502600  1
  C  C75  1  0.42762200  0.79588000  0.61497400  1
  C  C76  1  0.76271000  0.24016000  0.61007000  1
  C  C77  1  0.23729000  0.75984000  0.38993000  1
  C  C78  1  0.85748900  0.28465100  0.08096800  1
  C  C79  1  0.14251100  0.71534900  0.91903200  1
  C  C80  1  0.76972800  0.54999100  0.40125900  1
  C  C81  1  0.23027200  0.45000900  0.59874100  1
  Br  Br82  1  0.23209800  0.96184500  0.08680900  1
  Br  Br83  1  0.76790200  0.03815500  0.91319100  1
  Br  Br84  1  0.46579600  0.96049100  0.27148500  1
  Br  Br85  1  0.53420400  0.03950900  0.72851500  1
  Br  Br86  1  0.44098100  0.27427500  0.09454800  1
  Br  Br87  1  0.55901900  0.72572500  0.90545200  1
  Br  Br88  1  0.20241800  0.28197000  0.91537500  1
  Br  Br89  1  0.79758200  0.71803000  0.08462500  1
  O  O90  1  0.15677800  0.23584400  0.18993800  1
  O  O91  1  0.84322200  0.76415600  0.81006200  1
  O  O92  1  0.54362600  0.62577700  0.21240300  1
  O  O93  1  0.45637400  0.37422300  0.78759700  1
  O  O94  1  0.76969500  0.99756500  0.21809000  1
  O  O95  1  0.23030500  0.00243500  0.78191000  1
  O  O96  1  0.10733700  0.11234300  0.38893800  1
  O  O97  1  0.89266300  0.88765700  0.61106200  1
  O  O98  1  0.68754700  0.18619400  0.32878000  1
  O  O99  1  0.31245300  0.81380600  0.67122000  1
  O  O100  1  0.85234800  0.15999500  0.54099700  1
  O  O101  1  0.14765200  0.84000500  0.45900300  1
  O  O102  1  0.92514700  0.23050700  0.18109600  1
  O  O103  1  0.07485300  0.76949300  0.81890400  1
  O  O104  1  0.74811800  0.47002200  0.34667600  1
  O  O105  1  0.25188200  0.52997800  0.65332400  1
