# generated using pymatgen
data_SnH8(ClO)4
_symmetry_space_group_name_H-M   'P 1'
_cell_length_a   6.92226800
_cell_length_b   12.08036266
_cell_length_c   12.89695690
_cell_angle_alpha   93.17549833
_cell_angle_beta   105.56719240
_cell_angle_gamma   90.00000000
_symmetry_Int_Tables_number   1
_chemical_formula_structural   SnH8(ClO)4
_chemical_formula_sum   'Sn4 H32 Cl16 O16'
_cell_volume   1037.20678311
_cell_formula_units_Z   4
loop_
 _symmetry_equiv_pos_site_id
 _symmetry_equiv_pos_as_xyz
  1  'x, y, z'
loop_
 _atom_site_type_symbol
 _atom_site_label
 _atom_site_symmetry_multiplicity
 _atom_site_fract_x
 _atom_site_fract_y
 _atom_site_fract_z
 _atom_site_occupancy
  Sn  Sn0  1  0.73589300  0.93962500  0.14706000  1
  Sn  Sn1  1  0.41116600  0.43962500  0.14706000  1
  Sn  Sn2  1  0.69034100  0.68893600  0.63991000  1
  Sn  Sn3  1  0.94956900  0.18893600  0.63991000  1
  H  H4  1  0.68062300  0.15871600  0.19823900  1
  H  H5  1  0.51761600  0.65871600  0.19823900  1
  H  H6  1  0.54187300  0.09136800  0.25608300  1
  H  H7  1  0.71421000  0.59136800  0.25608300  1
  H  H8  1  0.02114900  0.03476200  0.06734100  1
  H  H9  1  0.04619200  0.53476200  0.06734100  1
  H  H10  1  0.10632600  0.05916600  0.19873800  1
  H  H11  1  0.09241300  0.55916600  0.19873800  1
  H  H12  1  0.88058000  0.52361800  0.53618300  1
  H  H13  1  0.65560300  0.02361800  0.53618300  1
  H  H14  1  0.68455700  0.46932700  0.56652200  1
  H  H15  1  0.88196500  0.96932700  0.56652200  1
  H  H16  1  0.89576800  0.59162000  0.83081400  1
  H  H17  1  0.93504600  0.09162000  0.83081400  1
  H  H18  1  0.03799400  0.69105100  0.80784400  1
  H  H19  1  0.76985000  0.19105100  0.80784400  1
  H  H20  1  0.18748600  0.54140300  0.54371700  1
  H  H21  1  0.35623100  0.04140300  0.54371700  1
  H  H22  1  0.98795300  0.68810900  0.30629100  1
  H  H23  1  0.31833800  0.18810900  0.30629100  1
  H  H24  1  0.01707100  0.57400300  0.36288400  1
  H  H25  1  0.34581300  0.07400300  0.36288400  1
  H  H26  1  0.01868900  0.93289900  0.91436700  1
  H  H27  1  0.89567800  0.43289900  0.91436700  1
  H  H28  1  0.20356100  0.01279900  0.94493100  1
  H  H29  1  0.74137000  0.51279900  0.94493100  1
  H  H30  1  0.30304700  0.79894900  0.81973200  1
  H  H31  1  0.51668400  0.29894900  0.81973200  1
  H  H32  1  0.30352100  0.76431300  0.93415800  1
  H  H33  1  0.63063800  0.26431300  0.93415800  1
  H  H34  1  0.09559500  0.42694600  0.48680800  1
  H  H35  1  0.39121200  0.92694600  0.48680800  1
  Cl  Cl36  1  0.94274300  0.88899900  0.31992100  1
  Cl  Cl37  1  0.37717800  0.38899900  0.31992100  1
  Cl  Cl38  1  0.84173000  0.78807400  0.04821000  1
  Cl  Cl39  1  0.20648000  0.28807400  0.04821000  1
  Cl  Cl40  1  0.55785000  0.03052700  0.98484000  1
  Cl  Cl41  1  0.42699000  0.53052700  0.98484000  1
  Cl  Cl42  1  0.43218700  0.85223800  0.16663100  1
  Cl  Cl43  1  0.73444400  0.35223800  0.16663100  1
  Cl  Cl44  1  0.43553200  0.73031600  0.47681000  1
  Cl  Cl45  1  0.04127800  0.23031600  0.47681000  1
  Cl  Cl46  1  0.63181000  0.84988100  0.74495500  1
  Cl  Cl47  1  0.11314500  0.34988100  0.74495500  1
  Cl  Cl48  1  0.47080800  0.56581000  0.70119900  1
  Cl  Cl49  1  0.23039100  0.06581000  0.70119900  1
  Cl  Cl50  1  0.96626600  0.76848200  0.58421100  1
  Cl  Cl51  1  0.61794500  0.26848200  0.58421100  1
  O  O52  1  0.67364000  0.09074100  0.23590900  1
  O  O53  1  0.56226900  0.59074100  0.23590900  1
  O  O54  1  0.98295200  0.04732400  0.13678200  1
  O  O55  1  0.15383100  0.54732400  0.13678200  1
  O  O56  1  0.74773800  0.53813800  0.55430000  1
  O  O57  1  0.80656200  0.03813800  0.55430000  1
  O  O58  1  0.92933500  0.63394400  0.77334200  1
  O  O59  1  0.84400700  0.13394400  0.77334200  1
  O  O60  1  0.06961300  0.50702700  0.49099900  1
  O  O61  1  0.42138600  0.00702700  0.49099900  1
  O  O62  1  0.96523600  0.60762300  0.29212200  1
  O  O63  1  0.32688600  0.10762300  0.29212200  1
  O  O64  1  0.05829200  0.01006300  0.93831300  1
  O  O65  1  0.88002200  0.51006300  0.93831300  1
  O  O66  1  0.21436000  0.78263000  0.86505800  1
  O  O67  1  0.65069800  0.28263000  0.86505800  1
