# generated using pymatgen
data_KSiO3
_symmetry_space_group_name_H-M   'P 1'
_cell_length_a   7.76175628
_cell_length_b   7.76175628
_cell_length_c   11.26160900
_cell_angle_alpha   90.00000000
_cell_angle_beta   90.00000000
_cell_angle_gamma   98.93432999
_symmetry_Int_Tables_number   1
_chemical_formula_structural   KSiO3
_chemical_formula_sum   'K8 Si8 O24'
_cell_volume   670.22237394
_cell_formula_units_Z   8
loop_
 _symmetry_equiv_pos_site_id
 _symmetry_equiv_pos_as_xyz
  1  'x, y, z'
loop_
 _atom_site_type_symbol
 _atom_site_label
 _atom_site_symmetry_multiplicity
 _atom_site_fract_x
 _atom_site_fract_y
 _atom_site_fract_z
 _atom_site_occupancy
  K  K0  1  0.98601800  0.48601800  0.25000000  1
  K  K1  1  0.51398200  0.01398200  0.75000000  1
  K  K2  1  0.01398200  0.51398200  0.75000000  1
  K  K3  1  0.48601800  0.98601800  0.25000000  1
  K  K4  1  0.32161200  0.32161200  0.46845700  1
  K  K5  1  0.67838800  0.67838800  0.53154300  1
  K  K6  1  0.17838800  0.17838800  0.96845700  1
  K  K7  1  0.82161200  0.82161200  0.03154300  1
  Si  Si8  1  0.99124200  0.99124200  0.31597100  1
  Si  Si9  1  0.00875800  0.00875800  0.68402900  1
  Si  Si10  1  0.50875800  0.50875800  0.81597100  1
  Si  Si11  1  0.49124200  0.49124200  0.18402900  1
  Si  Si12  1  0.19594600  0.80405400  0.50000000  1
  Si  Si13  1  0.69594600  0.30405400  0.00000000  1
  Si  Si14  1  0.80405400  0.19594600  0.50000000  1
  Si  Si15  1  0.30405400  0.69594600  0.00000000  1
  O  O16  1  0.04456100  0.04456100  0.18035500  1
  O  O17  1  0.95543900  0.95543900  0.81964500  1
  O  O18  1  0.45543900  0.45543900  0.68035500  1
  O  O19  1  0.54456100  0.54456100  0.31964500  1
  O  O20  1  0.15859100  0.93710700  0.39067800  1
  O  O21  1  0.06289300  0.84140900  0.60932200  1
  O  O22  1  0.56289300  0.34140900  0.89067800  1
  O  O23  1  0.65859100  0.43710700  0.10932200  1
  O  O24  1  0.84140900  0.06289300  0.60932200  1
  O  O25  1  0.93710700  0.15859100  0.39067800  1
  O  O26  1  0.43710700  0.65859100  0.10932200  1
  O  O27  1  0.34140900  0.56289300  0.89067800  1
  O  O28  1  0.83322700  0.83322700  0.29041800  1
  O  O29  1  0.16677300  0.16677300  0.70958200  1
  O  O30  1  0.66677300  0.66677300  0.79041800  1
  O  O31  1  0.33322700  0.33322700  0.20958200  1
  O  O32  1  0.16027100  0.59964900  0.46561800  1
  O  O33  1  0.40035100  0.83972900  0.53438200  1
  O  O34  1  0.90035100  0.33972900  0.96561800  1
  O  O35  1  0.66027100  0.09964900  0.03438200  1
  O  O36  1  0.83972900  0.40035100  0.53438200  1
  O  O37  1  0.59964900  0.16027100  0.46561800  1
  O  O38  1  0.09964900  0.66027100  0.03438200  1
  O  O39  1  0.33972900  0.90035100  0.96561800  1
