# generated using pymatgen
data_SnH4(Cl2O)2
_symmetry_space_group_name_H-M   'P 1'
_cell_length_a   9.71556700
_cell_length_b   7.81917300
_cell_length_c   11.57053000
_cell_angle_alpha   90.00000000
_cell_angle_beta   90.00000000
_cell_angle_gamma   90.00000000
_symmetry_Int_Tables_number   1
_chemical_formula_structural   SnH4(Cl2O)2
_chemical_formula_sum   'Sn4 H16 Cl16 O8'
_cell_volume   878.98654223
_cell_formula_units_Z   4
loop_
 _symmetry_equiv_pos_site_id
 _symmetry_equiv_pos_as_xyz
  1  'x, y, z'
loop_
 _atom_site_type_symbol
 _atom_site_label
 _atom_site_symmetry_multiplicity
 _atom_site_fract_x
 _atom_site_fract_y
 _atom_site_fract_z
 _atom_site_occupancy
  Sn  Sn0  1  0.00000000  0.92589300  0.75000000  1
  Sn  Sn1  1  0.50000000  0.57410700  0.25000000  1
  Sn  Sn2  1  0.00000000  0.07410700  0.25000000  1
  Sn  Sn3  1  0.50000000  0.42589300  0.75000000  1
  H  H4  1  0.97897600  0.18295200  0.57156600  1
  H  H5  1  0.52102400  0.31704800  0.07156600  1
  H  H6  1  0.47897600  0.31704800  0.42843400  1
  H  H7  1  0.02102400  0.18295200  0.92843400  1
  H  H8  1  0.02102400  0.81704800  0.42843400  1
  H  H9  1  0.47897600  0.68295200  0.92843400  1
  H  H10  1  0.52102400  0.68295200  0.57156600  1
  H  H11  1  0.97897600  0.81704800  0.07156600  1
  H  H12  1  0.83094900  0.17196300  0.63465700  1
  H  H13  1  0.66905100  0.32803700  0.13465700  1
  H  H14  1  0.33094900  0.32803700  0.36534300  1
  H  H15  1  0.16905100  0.17196300  0.86534300  1
  H  H16  1  0.16905100  0.82803700  0.36534300  1
  H  H17  1  0.33094900  0.67196300  0.86534300  1
  H  H18  1  0.66905100  0.67196300  0.63465700  1
  H  H19  1  0.83094900  0.82803700  0.13465700  1
  Cl  Cl20  1  0.08500800  0.72364100  0.89478400  1
  Cl  Cl21  1  0.41499200  0.77635900  0.39478400  1
  Cl  Cl22  1  0.58500800  0.77635900  0.10521600  1
  Cl  Cl23  1  0.91499200  0.72364100  0.60521600  1
  Cl  Cl24  1  0.91499200  0.27635900  0.10521600  1
  Cl  Cl25  1  0.58500800  0.22364100  0.60521600  1
  Cl  Cl26  1  0.41499200  0.22364100  0.89478400  1
  Cl  Cl27  1  0.08500800  0.27635900  0.39478400  1
  Cl  Cl28  1  0.21479800  0.96720600  0.65758800  1
  Cl  Cl29  1  0.28520200  0.53279400  0.15758800  1
  Cl  Cl30  1  0.71479800  0.53279400  0.34241200  1
  Cl  Cl31  1  0.78520200  0.96720600  0.84241200  1
  Cl  Cl32  1  0.78520200  0.03279400  0.34241200  1
  Cl  Cl33  1  0.71479800  0.46720600  0.84241200  1
  Cl  Cl34  1  0.28520200  0.46720600  0.65758800  1
  Cl  Cl35  1  0.21479800  0.03279400  0.15758800  1
  O  O36  1  0.93028400  0.14923300  0.64238400  1
  O  O37  1  0.56971600  0.35076700  0.14238400  1
  O  O38  1  0.43028400  0.35076700  0.35761600  1
  O  O39  1  0.06971600  0.14923300  0.85761600  1
  O  O40  1  0.06971600  0.85076700  0.35761600  1
  O  O41  1  0.43028400  0.64923300  0.85761600  1
  O  O42  1  0.56971600  0.64923300  0.64238400  1
  O  O43  1  0.93028400  0.85076700  0.14238400  1
