# generated using pymatgen
data_SiC4(NO)4
_symmetry_space_group_name_H-M   'P 1'
_cell_length_a   11.46851100
_cell_length_b   7.66894300
_cell_length_c   11.11723893
_cell_angle_alpha   90.00000000
_cell_angle_beta   100.31477756
_cell_angle_gamma   90.00000000
_symmetry_Int_Tables_number   1
_chemical_formula_structural   SiC4(NO)4
_chemical_formula_sum   'Si4 C16 N16 O16'
_cell_volume   961.97430137
_cell_formula_units_Z   4
loop_
 _symmetry_equiv_pos_site_id
 _symmetry_equiv_pos_as_xyz
  1  'x, y, z'
loop_
 _atom_site_type_symbol
 _atom_site_label
 _atom_site_symmetry_multiplicity
 _atom_site_fract_x
 _atom_site_fract_y
 _atom_site_fract_z
 _atom_site_occupancy
  Si  Si0  1  0.24086500  0.36173000  0.39441100  1
  Si  Si1  1  0.75913500  0.86173000  0.10558900  1
  Si  Si2  1  0.75913500  0.63827000  0.60558900  1
  Si  Si3  1  0.24086500  0.13827000  0.89441100  1
  C  C4  1  0.05336200  0.34989000  0.18314900  1
  C  C5  1  0.94663800  0.84989000  0.31685100  1
  C  C6  1  0.94663800  0.65011000  0.81685100  1
  C  C7  1  0.05336200  0.15011000  0.68314900  1
  C  C8  1  0.19132500  0.57721400  0.58755900  1
  C  C9  1  0.80867500  0.07721400  0.91244100  1
  C  C10  1  0.80867500  0.42278600  0.41244100  1
  C  C11  1  0.19132500  0.92278600  0.08755900  1
  C  C12  1  0.44687400  0.52433000  0.32647700  1
  C  C13  1  0.55312600  0.02433000  0.17352300  1
  C  C14  1  0.55312600  0.47567000  0.67352300  1
  C  C15  1  0.44687400  0.97567000  0.82647700  1
  C  C16  1  0.32369300  0.01800900  0.46538100  1
  C  C17  1  0.67630700  0.51800900  0.03461900  1
  C  C18  1  0.67630700  0.98199100  0.53461900  1
  C  C19  1  0.32369300  0.48199100  0.96538100  1
  N  N20  1  0.27597200  0.15758200  0.44571400  1
  N  N21  1  0.72402800  0.65758200  0.05428600  1
  N  N22  1  0.72402800  0.84241800  0.55428600  1
  N  N23  1  0.27597200  0.34241800  0.94571400  1
  N  N24  1  0.36087900  0.45626700  0.35384000  1
  N  N25  1  0.63912100  0.95626700  0.14616000  1
  N  N26  1  0.63912100  0.54373300  0.64616000  1
  N  N27  1  0.36087900  0.04373300  0.85384000  1
  N  N28  1  0.19147800  0.47229700  0.50672100  1
  N  N29  1  0.80852200  0.97229700  0.99327900  1
  N  N30  1  0.80852200  0.52770300  0.49327900  1
  N  N31  1  0.19147800  0.02770300  0.00672100  1
  N  N32  1  0.13117600  0.35723800  0.27137400  1
  N  N33  1  0.86882400  0.85723800  0.22862600  1
  N  N34  1  0.86882400  0.64276200  0.72862600  1
  N  N35  1  0.13117600  0.14276200  0.77137400  1
  O  O36  1  0.97684200  0.34223600  0.09665500  1
  O  O37  1  0.02315800  0.84223600  0.40334500  1
  O  O38  1  0.02315800  0.65776400  0.90334500  1
  O  O39  1  0.97684200  0.15776400  0.59665500  1
  O  O40  1  0.53187000  0.59105100  0.29987900  1
  O  O41  1  0.46813000  0.09105100  0.20012100  1
  O  O42  1  0.46813000  0.40894900  0.70012100  1
  O  O43  1  0.53187000  0.90894900  0.79987900  1
  O  O44  1  0.36819900  0.87995800  0.48752000  1
  O  O45  1  0.63180100  0.37995800  0.01248000  1
  O  O46  1  0.63180100  0.12004200  0.51248000  1
  O  O47  1  0.36819900  0.62004200  0.98752000  1
  O  O48  1  0.18704500  0.67629800  0.66799500  1
  O  O49  1  0.81295500  0.17629800  0.83200500  1
  O  O50  1  0.81295500  0.32370200  0.33200500  1
  O  O51  1  0.18704500  0.82370200  0.16799500  1
