# generated using pymatgen
data_V2P2NO11
_symmetry_space_group_name_H-M   'P 1'
_cell_length_a   9.95162500
_cell_length_b   9.78077700
_cell_length_c   11.99934767
_cell_angle_alpha   52.64129866
_cell_angle_beta   90.00000000
_cell_angle_gamma   90.00000000
_symmetry_Int_Tables_number   1
_chemical_formula_structural   V2P2NO11
_chemical_formula_sum   'V8 P8 N4 O44'
_cell_volume   928.34923071
_cell_formula_units_Z   4
loop_
 _symmetry_equiv_pos_site_id
 _symmetry_equiv_pos_as_xyz
  1  'x, y, z'
loop_
 _atom_site_type_symbol
 _atom_site_label
 _atom_site_symmetry_multiplicity
 _atom_site_fract_x
 _atom_site_fract_y
 _atom_site_fract_z
 _atom_site_occupancy
  V  V0  1  0.69096300  0.20342600  0.10049800  1
  V  V1  1  0.80903700  0.20342600  0.60049800  1
  V  V2  1  0.30903700  0.79657400  0.89950200  1
  V  V3  1  0.19096300  0.79657400  0.39950200  1
  V  V4  1  0.44862000  0.48241600  0.39784900  1
  V  V5  1  0.05138000  0.48241600  0.89784900  1
  V  V6  1  0.55138000  0.51758400  0.60215100  1
  V  V7  1  0.94862000  0.51758400  0.10215100  1
  P  P8  1  0.51246600  0.84469000  0.30186900  1
  P  P9  1  0.98753400  0.84469000  0.80186900  1
  P  P10  1  0.48753400  0.15531000  0.69813100  1
  P  P11  1  0.01246600  0.15531000  0.19813100  1
  P  P12  1  0.68621000  0.33879500  0.29773600  1
  P  P13  1  0.81379000  0.33879500  0.79773600  1
  P  P14  1  0.31379000  0.66120500  0.70226400  1
  P  P15  1  0.18621000  0.66120500  0.20226400  1
  N  N16  1  0.67658600  0.87834200  0.00940300  1
  N  N17  1  0.82341400  0.87834200  0.50940300  1
  N  N18  1  0.32341400  0.12165800  0.99059700  1
  N  N19  1  0.17658600  0.12165800  0.49059700  1
  O  O20  1  0.88352700  0.45390200  0.00229600  1
  O  O21  1  0.61647300  0.45390200  0.50229600  1
  O  O22  1  0.11647300  0.54609800  0.99770400  1
  O  O23  1  0.38352700  0.54609800  0.49770400  1
  O  O24  1  0.87324700  0.09454100  0.19505000  1
  O  O25  1  0.62675300  0.09454100  0.69505000  1
  O  O26  1  0.12675300  0.90545900  0.80495000  1
  O  O27  1  0.37324700  0.90545900  0.30495000  1
  O  O28  1  0.60074600  0.99939500  0.18853700  1
  O  O29  1  0.89925400  0.99939500  0.68853700  1
  O  O30  1  0.39925400  0.00060500  0.81146300  1
  O  O31  1  0.10074600  0.00060500  0.31146300  1
  O  O32  1  0.76880800  0.21344500  0.95238800  1
  O  O33  1  0.73119200  0.21344500  0.45238800  1
  O  O34  1  0.23119200  0.78655500  0.04761200  1
  O  O35  1  0.26880800  0.78655500  0.54761200  1
  O  O36  1  0.67556900  0.22994800  0.24553600  1
  O  O37  1  0.82443100  0.22994800  0.74553600  1
  O  O38  1  0.32443100  0.77005200  0.75446400  1
  O  O39  1  0.17556900  0.77005200  0.25446400  1
  O  O40  1  0.58818900  0.35961700  0.99985400  1
  O  O41  1  0.91181100  0.35961700  0.49985400  1
  O  O42  1  0.41181100  0.64038300  0.00014600  1
  O  O43  1  0.08818900  0.64038300  0.50014600  1
  O  O44  1  0.08235100  0.24703500  0.05125600  1
  O  O45  1  0.41764900  0.24703500  0.55125600  1
  O  O46  1  0.91764900  0.75296500  0.94874400  1
  O  O47  1  0.58235100  0.75296500  0.44874400  1
  O  O48  1  0.01092000  0.28157400  0.23711500  1
  O  O49  1  0.48908000  0.28157400  0.73711500  1
  O  O50  1  0.98908000  0.71842600  0.76288500  1
  O  O51  1  0.51092000  0.71842600  0.26288500  1
  O  O52  1  0.29445700  0.51751800  0.29643500  1
  O  O53  1  0.20554300  0.51751800  0.79643500  1
  O  O54  1  0.70554300  0.48248200  0.70356500  1
  O  O55  1  0.79445700  0.48248200  0.20356500  1
  O  O56  1  0.05593400  0.57395600  0.20773300  1
  O  O57  1  0.44406600  0.57395600  0.70773300  1
  O  O58  1  0.94406600  0.42604400  0.79226700  1
  O  O59  1  0.55593400  0.42604400  0.29226700  1
  O  O60  1  0.64514700  0.72229500  0.81370200  1
  O  O61  1  0.85485300  0.72229500  0.31370200  1
  O  O62  1  0.35485300  0.27770500  0.18629800  1
  O  O63  1  0.14514700  0.27770500  0.68629800  1
