# generated using pymatgen
data_PrIn2Ni
_symmetry_space_group_name_H-M   'P 1'
_cell_length_a   9.54406665
_cell_length_b   9.54406665
_cell_length_c   22.00893100
_cell_angle_alpha   90.00000000
_cell_angle_beta   90.00000000
_cell_angle_gamma   153.21426086
_symmetry_Int_Tables_number   1
_chemical_formula_structural   PrIn2Ni
_chemical_formula_sum   'Pr10 In20 Ni10'
_cell_volume   903.46309954
_cell_formula_units_Z   10
loop_
 _symmetry_equiv_pos_site_id
 _symmetry_equiv_pos_as_xyz
  1  'x, y, z'
loop_
 _atom_site_type_symbol
 _atom_site_label
 _atom_site_symmetry_multiplicity
 _atom_site_fract_x
 _atom_site_fract_y
 _atom_site_fract_z
 _atom_site_occupancy
  Pr  Pr0  1  0.56252800  0.43747200  0.08015100  1
  Pr  Pr1  1  0.43747200  0.56252800  0.91984900  1
  Pr  Pr2  1  0.56252800  0.43747200  0.41984900  1
  Pr  Pr3  1  0.43747200  0.56252800  0.58015100  1
  Pr  Pr4  1  0.77204500  0.22795500  0.12902600  1
  Pr  Pr5  1  0.22795500  0.77204500  0.87097400  1
  Pr  Pr6  1  0.77204500  0.22795500  0.37097400  1
  Pr  Pr7  1  0.22795500  0.77204500  0.62902600  1
  Pr  Pr8  1  0.53041900  0.46958100  0.25000000  1
  Pr  Pr9  1  0.46958100  0.53041900  0.75000000  1
  In  In10  1  0.27509500  0.72490500  0.25000000  1
  In  In11  1  0.72490500  0.27509500  0.75000000  1
  In  In12  1  0.20032900  0.79967100  0.03316300  1
  In  In13  1  0.79967100  0.20032900  0.96683700  1
  In  In14  1  0.20032900  0.79967100  0.46683700  1
  In  In15  1  0.79967100  0.20032900  0.53316300  1
  In  In16  1  0.40113300  0.59886700  0.14339600  1
  In  In17  1  0.59886700  0.40113300  0.85660400  1
  In  In18  1  0.40113300  0.59886700  0.35660400  1
  In  In19  1  0.59886700  0.40113300  0.64339600  1
  In  In20  1  0.13654800  0.86345200  0.17524800  1
  In  In21  1  0.86345200  0.13654800  0.82475200  1
  In  In22  1  0.13654800  0.86345200  0.32475200  1
  In  In23  1  0.86345200  0.13654800  0.67524800  1
  In  In24  1  0.89176800  0.10823200  0.25000000  1
  In  In25  1  0.10823200  0.89176800  0.75000000  1
  In  In26  1  0.93265800  0.06734200  0.04322900  1
  In  In27  1  0.06734200  0.93265800  0.95677100  1
  In  In28  1  0.93265800  0.06734200  0.45677100  1
  In  In29  1  0.06734200  0.93265800  0.54322900  1
  Ni  Ni30  1  0.65539000  0.34461000  0.96779100  1
  Ni  Ni31  1  0.34461000  0.65539000  0.03220900  1
  Ni  Ni32  1  0.65539000  0.34461000  0.53220900  1
  Ni  Ni33  1  0.34461000  0.65539000  0.46779100  1
  Ni  Ni34  1  0.98524300  0.01475700  0.15775500  1
  Ni  Ni35  1  0.01475700  0.98524300  0.84224500  1
  Ni  Ni36  1  0.98524300  0.01475700  0.34224500  1
  Ni  Ni37  1  0.01475700  0.98524300  0.65775500  1
  Ni  Ni38  1  0.68255900  0.31744100  0.25000000  1
  Ni  Ni39  1  0.31744100  0.68255900  0.75000000  1
