# generated using pymatgen
data_H10PtC2(NCl)2
_symmetry_space_group_name_H-M   'P 1'
_cell_length_a   6.48477900
_cell_length_b   16.67513900
_cell_length_c   9.20793081
_cell_angle_alpha   90.00000000
_cell_angle_beta   123.84835236
_cell_angle_gamma   90.00000000
_symmetry_Int_Tables_number   1
_chemical_formula_structural   H10PtC2(NCl)2
_chemical_formula_sum   'H40 Pt4 C8 N8 Cl8'
_cell_volume   826.94003832
_cell_formula_units_Z   4
loop_
 _symmetry_equiv_pos_site_id
 _symmetry_equiv_pos_as_xyz
  1  'x, y, z'
loop_
 _atom_site_type_symbol
 _atom_site_label
 _atom_site_symmetry_multiplicity
 _atom_site_fract_x
 _atom_site_fract_y
 _atom_site_fract_z
 _atom_site_occupancy
  H  H0  1  0.23599900  0.02569100  0.39319300  1
  H  H1  1  0.23599900  0.47430900  0.89319300  1
  H  H2  1  0.76400100  0.97430900  0.60680700  1
  H  H3  1  0.76400100  0.52569100  0.10680700  1
  H  H4  1  0.94327500  0.04974500  0.29948800  1
  H  H5  1  0.94327500  0.45025500  0.79948800  1
  H  H6  1  0.05672500  0.95025500  0.70051200  1
  H  H7  1  0.05672500  0.54974500  0.20051200  1
  H  H8  1  0.64607100  0.10347300  0.03367800  1
  H  H9  1  0.64607100  0.39652700  0.53367800  1
  H  H10  1  0.35392900  0.89652700  0.96632200  1
  H  H11  1  0.35392900  0.60347300  0.46632200  1
  H  H12  1  0.65387000  0.10655200  0.85941800  1
  H  H13  1  0.65387000  0.39344800  0.35941800  1
  H  H14  1  0.34613000  0.89344800  0.14058200  1
  H  H15  1  0.34613000  0.60655200  0.64058200  1
  H  H16  1  0.47504200  0.22703300  0.89438500  1
  H  H17  1  0.47504200  0.27296700  0.39438500  1
  H  H18  1  0.52495800  0.77296700  0.10561500  1
  H  H19  1  0.52495800  0.72703300  0.60561500  1
  H  H20  1  0.76886300  0.24548100  0.09618800  1
  H  H21  1  0.76886300  0.25451900  0.59618800  1
  H  H22  1  0.23113700  0.75451900  0.90381200  1
  H  H23  1  0.23113700  0.74548100  0.40381200  1
  H  H24  1  0.74660600  0.24752400  0.89504600  1
  H  H25  1  0.74660600  0.25247600  0.39504600  1
  H  H26  1  0.25339400  0.75247600  0.10495400  1
  H  H27  1  0.25339400  0.74752400  0.60495400  1
  H  H28  1  0.18319700  0.11570900  0.57642500  1
  H  H29  1  0.18319700  0.38429100  0.07642500  1
  H  H30  1  0.81680300  0.88429100  0.42357500  1
  H  H31  1  0.81680300  0.61570900  0.92357500  1
  H  H32  1  0.37419700  0.15766900  0.51091200  1
  H  H33  1  0.37419700  0.34233100  0.01091200  1
  H  H34  1  0.62580300  0.84233100  0.48908800  1
  H  H35  1  0.62580300  0.65766900  0.98908800  1
  H  H36  1  0.06005900  0.18858400  0.40467800  1
  H  H37  1  0.06005900  0.31141600  0.90467800  1
  H  H38  1  0.93994100  0.81141600  0.59532200  1
  H  H39  1  0.93994100  0.68858400  0.09532200  1
  Pt  Pt40  1  0.10150400  0.09870800  0.11145400  1
  Pt  Pt41  1  0.10150400  0.40129200  0.61145400  1
  Pt  Pt42  1  0.89849600  0.90129200  0.88854600  1
  Pt  Pt43  1  0.89849600  0.59870800  0.38854600  1
  C  C44  1  0.67675000  0.21838700  0.96582600  1
  C  C45  1  0.67675000  0.28161300  0.46582600  1
  C  C46  1  0.32325000  0.78161300  0.03417400  1
  C  C47  1  0.32325000  0.71838700  0.53417400  1
  C  C48  1  0.18657200  0.13757000  0.46514000  1
  C  C49  1  0.18657200  0.36243000  0.96514000  1
  C  C50  1  0.81342800  0.86243000  0.53486000  1
  C  C51  1  0.81342800  0.63757000  0.03486000  1
  N  N52  1  0.11324500  0.07235800  0.33533200  1
  N  N53  1  0.11324500  0.42764200  0.83533200  1
  N  N54  1  0.88675500  0.92764200  0.66466800  1
  N  N55  1  0.88675500  0.57235800  0.16466800  1
  N  N56  1  0.73270300  0.13119100  0.98152500  1
  N  N57  1  0.73270300  0.36880900  0.48152500  1
  N  N58  1  0.26729700  0.86880900  0.01847500  1
  N  N59  1  0.26729700  0.63119100  0.51847500  1
  Cl  Cl60  1  0.07183700  0.12524100  0.85249900  1
  Cl  Cl61  1  0.07183700  0.37475900  0.35249900  1
  Cl  Cl62  1  0.92816300  0.87475900  0.14750100  1
  Cl  Cl63  1  0.92816300  0.62524100  0.64750100  1
  Cl  Cl64  1  0.51729100  0.05857800  0.26339000  1
  Cl  Cl65  1  0.51729100  0.44142200  0.76339000  1
  Cl  Cl66  1  0.48270900  0.94142200  0.73661000  1
  Cl  Cl67  1  0.48270900  0.55857800  0.23661000  1
