# generated using pymatgen
data_KYF4
_symmetry_space_group_name_H-M   'P 1'
_cell_length_a   14.29334399
_cell_length_b   14.29334399
_cell_length_c   10.31579100
_cell_angle_alpha   90.00000000
_cell_angle_beta   90.00000000
_cell_angle_gamma   119.99999996
_symmetry_Int_Tables_number   1
_chemical_formula_structural   KYF4
_chemical_formula_sum   'K18 Y18 F72'
_cell_volume   1825.15964663
_cell_formula_units_Z   18
loop_
 _symmetry_equiv_pos_site_id
 _symmetry_equiv_pos_as_xyz
  1  'x, y, z'
loop_
 _atom_site_type_symbol
 _atom_site_label
 _atom_site_symmetry_multiplicity
 _atom_site_fract_x
 _atom_site_fract_y
 _atom_site_fract_z
 _atom_site_occupancy
  K  K0  1  0.95256600  0.73325700  0.31389600  1
  K  K1  1  0.78069100  0.04743400  0.64722900  1
  K  K2  1  0.26674300  0.21930900  0.98056300  1
  K  K3  1  0.93854800  0.21932100  0.34228100  1
  K  K4  1  0.28077300  0.06145200  0.67561400  1
  K  K5  1  0.78067900  0.71922700  0.00894800  1
  K  K6  1  0.26729400  0.38924000  0.31747700  1
  K  K7  1  0.12194600  0.73270600  0.65081000  1
  K  K8  1  0.61076000  0.87805400  0.98414400  1
  K  K9  1  0.29049200  0.89537000  0.34616400  1
  K  K10  1  0.60487800  0.70950800  0.67949700  1
  K  K11  1  0.10463000  0.39512200  0.01283000  1
  K  K12  1  0.60812700  0.54384400  0.34714300  1
  K  K13  1  0.93571700  0.39187300  0.68047600  1
  K  K14  1  0.45615600  0.06428300  0.01380900  1
  K  K15  1  0.61512800  0.05254500  0.31762900  1
  K  K16  1  0.43741700  0.38487200  0.65096200  1
  K  K17  1  0.94745500  0.56258300  0.98429600  1
  Y  Y18  1  0.75993000  0.86987900  0.33322000  1
  Y  Y19  1  0.10994900  0.24007000  0.66655300  1
  Y  Y20  1  0.13012100  0.89005100  0.99988700  1
  Y  Y21  1  0.44955800  0.71854400  0.34148300  1
  Y  Y22  1  0.26898600  0.55044200  0.67481700  1
  Y  Y23  1  0.28145600  0.73101400  0.00815000  1
  Y  Y24  1  0.42664000  0.21951400  0.32355300  1
  Y  Y25  1  0.79287400  0.57336000  0.65688600  1
  Y  Y26  1  0.78048600  0.20712600  0.99021900  1
  Y  Y27  1  0.11640900  0.05784200  0.33740200  1
  Y  Y28  1  0.94143300  0.88359100  0.67073600  1
  Y  Y29  1  0.94215800  0.05856700  0.00406900  1
  Y  Y30  1  0.09225600  0.54776800  0.33834900  1
  Y  Y31  1  0.45551100  0.90774400  0.67168200  1
  Y  Y32  1  0.45223200  0.54448900  0.00501500  1
  Y  Y33  1  0.78221900  0.39619300  0.31843600  1
  Y  Y34  1  0.61397400  0.21778100  0.65176900  1
  Y  Y35  1  0.60380700  0.38602600  0.98510200  1
  F  F36  1  0.80452500  0.86848900  0.54936400  1
  F  F37  1  0.06396300  0.19547500  0.88269800  1
  F  F38  1  0.13151100  0.93603700  0.21603100  1
  F  F39  1  0.80945100  0.93081400  0.12382100  1
  F  F40  1  0.12136400  0.19054900  0.45715500  1
  F  F41  1  0.06918600  0.87863600  0.79048800  1
  F  F42  1  0.38661600  0.79053600  0.19108900  1
  F  F43  1  0.40392000  0.61338400  0.52442200  1
  F  F44  1  0.20946400  0.59608000  0.85775600  1
  F  F45  1  0.38894100  0.66017700  0.00707400  1
  F  F46  1  0.27123600  0.61105900  0.34040800  1
  F  F47  1  0.33982300  0.72876400  0.67374100  1
  F  F48  1  0.46703800  0.26277900  0.10714900  1
  F  F49  1  0.79574100  0.53296200  0.44048200  1
  F  F50  1  0.73722100  0.20425900  0.77381500  1
  F  F51  1  0.48048900  0.21023700  0.53206700  1
  F  F52  1  0.72974700  0.51951100  0.86540100  1
  F  F53  1  0.78976300  0.27025300  0.19873400  1
  F  F54  1  0.06034800  0.00008700  0.00053600  1
  F  F55  1  0.93973900  0.93965200  0.33387000  1
  F  F56  1  0.99991300  0.06026100  0.66720300  1
  F  F57  1  0.87790000  0.92400800  0.85372800  1
  F  F58  1  0.04610800  0.12210000  0.18706100  1
  F  F59  1  0.07599200  0.95389200  0.52039400  1
  F  F60  1  0.14630900  0.60865600  0.12913400  1
  F  F61  1  0.46234600  0.85369100  0.46246700  1
  F  F62  1  0.39134400  0.53765400  0.79580100  1
  F  F63  1  0.13445700  0.54245300  0.55392200  1
  F  F64  1  0.40799600  0.86554300  0.88725500  1
  F  F65  1  0.45754700  0.59200400  0.22058800  1
  F  F66  1  0.74251300  0.45234600  0.12975700  1
  F  F67  1  0.70983300  0.25748700  0.46309000  1
  F  F68  1  0.54765400  0.29016700  0.79642400  1
  F  F69  1  0.66083000  0.26613300  0.98665000  1
  F  F70  1  0.60530300  0.33917000  0.31998300  1
  F  F71  1  0.73386700  0.39469700  0.65331600  1
  F  F72  1  0.96219200  0.23336700  0.59757200  1
  F  F73  1  0.27117500  0.03780800  0.93090500  1
  F  F74  1  0.76663300  0.72882500  0.26423800  1
  F  F75  1  0.91467500  0.19111700  0.08925000  1
  F  F76  1  0.27644100  0.08532500  0.42258400  1
  F  F77  1  0.80888300  0.72355900  0.75591700  1
  F  F78  1  0.97512500  0.75233100  0.05666600  1
  F  F79  1  0.77720600  0.02487500  0.39000000  1
  F  F80  1  0.24766900  0.22279400  0.72333300  1
  F  F81  1  0.26636700  0.19084300  0.23254600  1
  F  F82  1  0.92447600  0.73363300  0.56587900  1
  F  F83  1  0.80915700  0.07552400  0.89921300  1
  F  F84  1  0.26179900  0.86821400  0.09553900  1
  F  F85  1  0.60641500  0.73820100  0.42887200  1
  F  F86  1  0.13178600  0.39358500  0.76220500  1
  F  F87  1  0.31032400  0.90622700  0.60132400  1
  F  F88  1  0.59590200  0.68967600  0.93465700  1
  F  F89  1  0.09377300  0.40409800  0.26799000  1
  F  F90  1  0.60318800  0.84794100  0.23911300  1
  F  F91  1  0.24475300  0.39681200  0.57244600  1
  F  F92  1  0.15205900  0.75524700  0.90577900  1
  F  F93  1  0.29468500  0.41059500  0.06037900  1
  F  F94  1  0.11591000  0.70531500  0.39371300  1
  F  F95  1  0.58940500  0.88409000  0.72704600  1
  F  F96  1  0.63805400  0.06292800  0.06331800  1
  F  F97  1  0.42487400  0.36194600  0.39665100  1
  F  F98  1  0.93707200  0.57512600  0.72998400  1
  F  F99  1  0.46726600  0.40988600  0.90394200  1
  F  F100  1  0.94261900  0.53273400  0.23727600  1
  F  F101  1  0.59011400  0.05738100  0.57060900  1
  F  F102  1  0.58372800  0.51529800  0.09386900  1
  F  F103  1  0.93157000  0.41627200  0.42720300  1
  F  F104  1  0.48470200  0.06843000  0.76053600  1
  F  F105  1  0.63365000  0.54802700  0.60440600  1
  F  F106  1  0.91437700  0.36635000  0.93773900  1
  F  F107  1  0.45197300  0.08562300  0.27107300  1
