# generated using pymatgen
data_Si(H3C)2
_symmetry_space_group_name_H-M   'P 1'
_cell_length_a   10.38318553
_cell_length_b   16.54523539
_cell_length_c   17.94018952
_cell_angle_alpha   76.40557558
_cell_angle_beta   78.91842998
_cell_angle_gamma   72.50666494
_symmetry_Int_Tables_number   1
_chemical_formula_structural   Si(H3C)2
_chemical_formula_sum   'Si26 H156 C52'
_cell_volume   2832.43093686
_cell_formula_units_Z   26
loop_
 _symmetry_equiv_pos_site_id
 _symmetry_equiv_pos_as_xyz
  1  'x, y, z'
loop_
 _atom_site_type_symbol
 _atom_site_label
 _atom_site_symmetry_multiplicity
 _atom_site_fract_x
 _atom_site_fract_y
 _atom_site_fract_z
 _atom_site_occupancy
  Si  Si0  1  0.75191122  0.61274437  0.72936873  1
  Si  Si1  1  0.24808878  0.38725563  0.27063127  1
  Si  Si2  1  0.78666157  0.70739271  0.80250886  1
  Si  Si3  1  0.21333843  0.29260729  0.19749114  1
  Si  Si4  1  0.72016784  0.85235172  0.73172808  1
  Si  Si5  1  0.27983216  0.14764828  0.26827192  1
  Si  Si6  1  0.61032536  0.83900619  0.63189382  1
  Si  Si7  1  0.38967464  0.16099381  0.36810618  1
  Si  Si8  1  0.55664575  0.70378873  0.66988053  1
  Si  Si9  1  0.44335425  0.29621127  0.33011947  1
  Si  Si10  1  0.71565077  0.47440830  0.79751849  1
  Si  Si11  1  0.28434923  0.52559170  0.20248151  1
  Si  Si12  1  0.89455149  0.34068441  0.81240183  1
  Si  Si13  1  0.10544851  0.65931559  0.18759817  1
  Si  Si14  1  0.09619972  0.35113280  0.84788408  1
  Si  Si15  1  0.90380028  0.64886720  0.15211592  1
  Si  Si16  1  0.81433356  0.23711784  0.91451581  1
  Si  Si17  1  0.18566644  0.76288216  0.08548419  1
  Si  Si18  1  0.95274396  0.27955161  0.69881631  1
  Si  Si19  1  0.04725604  0.72044839  0.30118369  1
  Si  Si20  1  0.91111451  0.90868742  0.67505507  1
  Si  Si21  1  0.08888549  0.09131258  0.32494493  1
  Si  Si22  1  0.57327587  0.95088017  0.81057885  1
  Si  Si23  1  0.42672413  0.04911983  0.18942115  1
  Si  Si24  1  0.49708143  0.66637342  0.56234844  1
  Si  Si25  1  0.50291857  0.33362658  0.43765156  1
  H  H26  1  0.93086809  0.66053264  0.62721868  1
  H  H27  1  0.06913191  0.33946736  0.37278132  1
  H  H28  1  0.99403143  0.55250343  0.67442989  1
  H  H29  1  0.00596857  0.44749657  0.32557011  1
  H  H30  1  0.88465541  0.57570460  0.60264828  1
  H  H31  1  0.11534459  0.42429540  0.39735172  1
  H  H32  1  0.69407892  0.74594370  0.93325499  1
  H  H33  1  0.30592108  0.25405630  0.06674501  1
  H  H34  1  0.57441787  0.70902664  0.90042593  1
  H  H35  1  0.42558213  0.29097336  0.09957407  1
  H  H36  1  0.72193084  0.63406891  0.93615171  1
  H  H37  1  0.27806916  0.36593109  0.06384829  1
  H  H38  1  0.99958202  0.61557804  0.85734817  1
  H  H39  1  0.00041798  0.38442196  0.14265183  1
  H  H40  1  0.04408462  0.67746205  0.76600877  1
  H  H41  1  0.95591538  0.32253795  0.23399123  1
  H  H42  1  0.98562572  0.72674110  0.84863000  1
  H  H43  1  0.01437428  0.27325890  0.15137000  1
  H  H44  1  0.76718740  0.89693840  0.51994974  1
  H  H45  1  0.23281260  0.10306160  0.48005026  1
  H  H46  1  0.81662581  0.78211882  0.53907830  1
  H  H47  1  0.18337419  0.21788118  0.46092170  1
  H  H48  1  0.67255673  0.83941651  0.49066355  1
  H  H49  1  0.32744327  0.16058349  0.50933645  1
  H  H50  1  0.40946894  0.92590203  0.56384301  1
  H  H51  1  0.59053106  0.07409797  0.43615699  1
  H  H52  1  0.37343029  0.93710921  0.66257919  1
  H  H53  1  0.62656971  0.06289079  0.33742081  1
  H  H54  1  0.48197564  0.99372638  0.59641714  1
  H  H55  1  0.51802436  0.00627362  0.40358286  1
  H  H56  1  0.56417965  0.44055596  0.92087118  1
  H  H57  1  0.43582035  0.55944404  0.07912882  1
  H  H58  1  0.68939549  0.48463911  0.93884646  1
  H  H59  1  0.31060451  0.51536089  0.06115354  1
  H  H60  1  0.54668432  0.55307791  0.89339411  1
  H  H61  1  0.45331568  0.44692209  0.10660589  1
  H  H62  1  0.49317816  0.50503332  0.74805574  1
  H  H63  1  0.50682184  0.49496668  0.25194426  1
  H  H64  1  0.62631946  0.44996063  0.68452035  1
  H  H65  1  0.37368054  0.55003937  0.31547965  1
  H  H66  1  0.56540525  0.39217568  0.77469198  1
  H  H67  1  0.43459475  0.60782432  0.22530802  1
  H  H68  1  0.97234289  0.48267076  0.90480075  1
  H  H69  1  0.02765711  0.51732924  0.09519925  1
  H  H70  1  0.01243100  0.39079710  0.97918301  1
  H  H71  1  0.98756900  0.60920290  0.02081699  1
  H  H72  1  0.14213541  0.44033517  0.92773310  1
  H  H73  1  0.85786459  0.55966483  0.07226690  1
  H  H74  1  0.29652845  0.40355240  0.78382390  1
  H  H75  1  0.70347155  0.59644760  0.21617610  1
  H  H76  1  0.24624098  0.35572927  0.71918175  1
  H  H77  1  0.75375902  0.64427073  0.28081825  1
  H  H78  1  0.15504306  0.46168072  0.73339801  1
  H  H79  1  0.84495694  0.53831928  0.26660199  1
  H  H80  1  0.30534240  0.25222388  0.89815842  1
  H  H81  1  0.69465760  0.74777612  0.10184158  1
  H  H82  1  0.16100589  0.21805974  0.94994092  1
  H  H83  1  0.83899411  0.78194026  0.05005908  1
  H  H84  1  0.22774876  0.19506518  0.85568798  1
  H  H85  1  0.77225124  0.80493482  0.14431202  1
  H  H86  1  0.91661110  0.25485489  0.02369817  1
  H  H87  1  0.08338890  0.74514511  0.97630183  1
  H  H88  1  0.74687797  0.32191233  0.02202451  1
  H  H89  1  0.25312203  0.67808767  0.97797549  1
  H  H90  1  0.77705958  0.20916592  0.05840189  1
  H  H91  1  0.22294042  0.79083408  0.94159811  1
  H  H92  1  0.88455256  0.07977871  0.96211162  1
  H  H93  1  0.11544744  0.92022129  0.03788838  1
  H  H94  1  0.92560575  0.10092353  0.85993598  1
  H  H95  1  0.07439425  0.89907647  0.14006402  1
  H  H96  1  0.03181491  0.11531139  0.91983692  1
  H  H97  1  0.96818509  0.88468861  0.08016308  1
  H  H98  1  0.55990708  0.29606186  0.91666655  1
  H  H99  1  0.44009292  0.70393814  0.08333345  1
  H  H100  1  0.62743002  0.22097665  0.85303766  1
  H  H101  1  0.37256998  0.77902335  0.14696234  1
  H  H102  1  0.60737238  0.18396830  0.95496626  1
  H  H103  1  0.39262762  0.81603170  0.04503374  1
  H  H104  1  0.20765233  0.21684715  0.69120517  1
  H  H105  1  0.79234767  0.78315285  0.30879483  1
  H  H106  1  0.12151227  0.14385833  0.75455249  1
  H  H107  1  0.87848773  0.85614167  0.24544751  1
  H  H108  1  0.12985351  0.15669014  0.65267633  1
  H  H109  1  0.87014649  0.84330986  0.34732367  1
  H  H110  1  0.84122334  0.21027128  0.63147323  1
  H  H111  1  0.15877666  0.78972872  0.36852677  1
  H  H112  1  0.81325679  0.17224364  0.73290764  1
  H  H113  1  0.18674321  0.82775636  0.26709236  1
  H  H114  1  0.71492309  0.27517869  0.69093280  1
  H  H115  1  0.28507691  0.72482131  0.30906720  1
  H  H116  1  0.87534185  0.41246062  0.60012575  1
  H  H117  1  0.12465815  0.58753938  0.39987425  1
  H  H118  1  0.05137485  0.39271659  0.60649918  1
  H  H119  1  0.94862515  0.60728341  0.39350082  1
  H  H120  1  0.99693086  0.32956515  0.55727074  1
  H  H121  1  0.00306914  0.67043485  0.44272926  1
  H  H122  1  0.07829705  0.95997722  0.71932901  1
  H  H123  1  0.92170295  0.04002278  0.28067099  1
  H  H124  1  0.92026948  0.98534416  0.77943440  1
  H  H125  1  0.07973052  0.01465584  0.22056560  1
  H  H126  1  0.02881876  0.87851712  0.79342344  1
  H  H127  1  0.97118124  0.12148288  0.20657656  1
  H  H128  1  0.95024911  0.03695674  0.57988632  1
  H  H129  1  0.04975089  0.96304326  0.42011368  1
  H  H130  1  0.82696317  0.99979231  0.55156270  1
  H  H131  1  0.17303683  0.00020769  0.44843730  1
  H  H132  1  0.77932233  0.06154506  0.62591294  1
  H  H133  1  0.22067767  0.93845494  0.37408706  1
  H  H134  1  0.08484728  0.76840134  0.65912675  1
  H  H135  1  0.91515272  0.23159866  0.34087325  1
  H  H136  1  0.02303458  0.82334208  0.56970753  1
  H  H137  1  0.97696542  0.17665792  0.43029247  1
  H  H138  1  0.14176064  0.85847277  0.60482951  1
  H  H139  1  0.85823936  0.14152723  0.39517049  1
  H  H140  1  0.47076527  0.10792797  0.79382111  1
  H  H141  1  0.52923473  0.89207203  0.20617889  1
  H  H142  1  0.63072330  0.08749706  0.73485477  1
  H  H143  1  0.36927670  0.91250294  0.26514523  1
  H  H144  1  0.48565150  0.07488429  0.70441296  1
  H  H145  1  0.51434850  0.92511571  0.29558704  1
  H  H146  1  0.58839894  0.00400284  0.92554264  1
  H  H147  1  0.41160106  0.99599716  0.07445736  1
  H  H148  1  0.65237440  0.89010461  0.94170035  1
  H  H149  1  0.34762560  0.10989539  0.05829965  1
  H  H150  1  0.75556143  0.95601428  0.88355152  1
  H  H151  1  0.24443857  0.04398572  0.11644848  1
  H  H152  1  0.34434774  0.93320215  0.80143780  1
  H  H153  1  0.65565226  0.06679785  0.19856220  1
  H  H154  1  0.41173770  0.86510802  0.88567250  1
  H  H155  1  0.58826230  0.13489198  0.11432750  1
  H  H156  1  0.34038272  0.97743943  0.88329559  1
  H  H157  1  0.65961728  0.02256057  0.11670441  1
  H  H158  1  0.31390998  0.76734175  0.72595364  1
  H  H159  1  0.68609002  0.23265825  0.27404636  1
  H  H160  1  0.37259577  0.65663473  0.76830929  1
  H  H161  1  0.62740423  0.34336527  0.23169071  1
  H  H162  1  0.42557483  0.73600429  0.79750243  1
  H  H163  1  0.57442517  0.26399571  0.20249757  1
  H  H164  1  0.31338124  0.61362319  0.53851878  1
  H  H165  1  0.68661876  0.38637681  0.46148122  1
  H  H166  1  0.39404325  0.54092849  0.61648353  1
  H  H167  1  0.60595675  0.45907151  0.38351647  1
  H  H168  1  0.27260121  0.63911007  0.63224857  1
  H  H169  1  0.72739879  0.36088993  0.36775143  1
  H  H170  1  0.41245964  0.74274998  0.43795373  1
  H  H171  1  0.58754036  0.25725002  0.56204627  1
  H  H172  1  0.33301029  0.80591807  0.50979777  1
  H  H173  1  0.66698971  0.19408193  0.49020223  1
  H  H174  1  0.50291203  0.80395656  0.46574896  1
  H  H175  1  0.49708797  0.19604344  0.53425104  1
  H  H176  1  0.73242806  0.62741855  0.48971640  1
  H  H177  1  0.26757194  0.37258145  0.51028360  1
  H  H178  1  0.68975947  0.53390648  0.54765918  1
  H  H179  1  0.31024053  0.46609352  0.45234082  1
  H  H180  1  0.62016287  0.58247305  0.45958701  1
  H  H181  1  0.37983713  0.41752695  0.54041299  1
  C  C182  1  0.90495211  0.59904531  0.65058633  1
  C  C183  1  0.09504789  0.40095469  0.34941367  1
  C  C184  1  0.68344870  0.69875057  0.90231231  1
  C  C185  1  0.31655130  0.30124943  0.09768769  1
  C  C186  1  0.97189527  0.67896060  0.81952565  1
  C  C187  1  0.02810473  0.32103940  0.18047435  1
  C  C188  1  0.72889335  0.83922962  0.53670164  1
  C  C189  1  0.27110665  0.16077038  0.46329836  1
  C  C190  1  0.45312461  0.93262610  0.61253758  1
  C  C191  1  0.54687539  0.06737390  0.38746242  1
  C  C192  1  0.62087807  0.48939797  0.89736181  1
  C  C193  1  0.37912193  0.51060203  0.10263819  1
  C  C194  1  0.58863435  0.45335540  0.74561971  1
  C  C195  1  0.41136565  0.54664460  0.25438029  1
  C  C196  1  0.05075173  0.42294969  0.92199945  1
  C  C197  1  0.94924827  0.57705031  0.07800055  1
  C  C198  1  0.20788016  0.39744936  0.76261564  1
  C  C199  1  0.79211984  0.60255064  0.23738436  1
  C  C200  1  0.20705164  0.24350024  0.89216666  1
  C  C201  1  0.79294836  0.75649976  0.10783334  1
  C  C202  1  0.81375284  0.25835753  0.01376864  1
  C  C203  1  0.18624716  0.74164247  0.98623136  1
  C  C204  1  0.92563505  0.12307495  0.91307874  1
  C  C205  1  0.07436495  0.87692505  0.08692126  1
  C  C206  1  0.63525745  0.23499080  0.90870929  1
  C  C207  1  0.36474255  0.76500920  0.09129071  1
  C  C208  1  0.11864198  0.19113696  0.70015633  1
  C  C209  1  0.88135802  0.80886304  0.29984367  1
  C  C210  1  0.81697211  0.22985071  0.68818609  1
  C  C211  1  0.18302789  0.77014929  0.31181391  1
  C  C212  1  0.97097557  0.36179658  0.60741781  1
  C  C213  1  0.02902443  0.63820342  0.39258219  1
  C  C214  1  0.99107269  0.93528014  0.74953651  1
  C  C215  1  0.00892731  0.06471986  0.25046349  1
  C  C216  1  0.86086818  0.01138595  0.60152075  1
  C  C217  1  0.13913182  0.98861405  0.39847925  1
  C  C218  1  0.05277193  0.83194908  0.62237836  1
  C  C219  1  0.94722807  0.16805092  0.37762164  1
  C  C220  1  0.53778793  0.06578946  0.75475261  1
  C  C221  1  0.46221207  0.93421054  0.24524739  1
  C  C222  1  0.65107776  0.94934118  0.89834940  1
  C  C223  1  0.34892224  0.05065882  0.10165060  1
  C  C224  1  0.40147218  0.92897813  0.84844190  1
  C  C225  1  0.59852782  0.07102187  0.15155810  1
  C  C226  1  0.40199979  0.71733121  0.74785032  1
  C  C227  1  0.59800021  0.28266879  0.25214968  1
  C  C228  1  0.35638716  0.60939996  0.59124143  1
  C  C229  1  0.64361284  0.39060004  0.40875857  1
  C  C230  1  0.43037986  0.76467336  0.48753166  1
  C  C231  1  0.56962014  0.23532664  0.51246834  1
  C  C232  1  0.64935374  0.59596458  0.51026919  1
  C  C233  1  0.35064626  0.40403542  0.48973081  1
