data_image0
_chemical_formula_structural       Cl6Eu2
_chemical_formula_sum              "Cl6 Eu2"
_cell_length_a       7.54854
_cell_length_b       7.54858
_cell_length_c       4.24048
_cell_angle_alpha    90
_cell_angle_beta     90
_cell_angle_gamma    119.995

_space_group_name_H-M_alt    "P 1"
_space_group_IT_number       1

loop_
  _space_group_symop_operation_xyz
  'x, y, z'

loop_
  _atom_site_type_symbol
  _atom_site_label
  _atom_site_symmetry_multiplicity
  _atom_site_fract_x
  _atom_site_fract_y
  _atom_site_fract_z
  _atom_site_occupancy
  Cl  Cl1       1.0  0.69200  0.07990  0.25000  1.0000
  Cl  Cl2       1.0  0.38700  0.30800  0.25000  1.0000
  Cl  Cl3       1.0  0.92000  0.61200  0.25000  1.0000
  Cl  Cl4       1.0  0.07990  0.38800  0.75000  1.0000
  Cl  Cl5       1.0  0.61300  0.69200  0.75000  1.0000
  Cl  Cl6       1.0  0.30800  0.92000  0.75000  1.0000
  Eu  Eu1       1.0  0.33300  0.66700  0.25000  1.0000
  Eu  Eu2       1.0  0.66700  0.33300  0.75000  1.0000
