# generated using pymatgen
data_Te7WBr5O
_symmetry_space_group_name_H-M   'P 1'
_cell_length_a   7.77282200
_cell_length_b   8.70958500
_cell_length_c   27.61062500
_cell_angle_alpha   90.00000000
_cell_angle_beta   90.00000000
_cell_angle_gamma   90.00000000
_symmetry_Int_Tables_number   1
_chemical_formula_structural   Te7WBr5O
_chemical_formula_sum   'Te28 W4 Br20 O4'
_cell_volume   1869.18557943
_cell_formula_units_Z   4
loop_
 _symmetry_equiv_pos_site_id
 _symmetry_equiv_pos_as_xyz
  1  'x, y, z'
loop_
 _atom_site_type_symbol
 _atom_site_label
 _atom_site_symmetry_multiplicity
 _atom_site_fract_x
 _atom_site_fract_y
 _atom_site_fract_z
 _atom_site_occupancy
  Te  Te0  1  0.00000000  0.00000000  0.50000000  1
  Te  Te1  1  0.00000000  0.00000000  0.00000000  1
  Te  Te2  1  0.50000000  0.00000000  0.00000000  1
  Te  Te3  1  0.50000000  0.00000000  0.50000000  1
  Te  Te4  1  0.08489200  0.21226100  0.41752600  1
  Te  Te5  1  0.08489200  0.78773900  0.08247400  1
  Te  Te6  1  0.41510800  0.78773900  0.91752600  1
  Te  Te7  1  0.41510800  0.21226100  0.58247400  1
  Te  Te8  1  0.91510800  0.78773900  0.58247400  1
  Te  Te9  1  0.91510800  0.21226100  0.91752600  1
  Te  Te10  1  0.58489200  0.21226100  0.08247400  1
  Te  Te11  1  0.58489200  0.78773900  0.41752600  1
  Te  Te12  1  0.95537900  0.73770500  0.43234900  1
  Te  Te13  1  0.95537900  0.26229500  0.06765100  1
  Te  Te14  1  0.54462100  0.26229500  0.93234900  1
  Te  Te15  1  0.54462100  0.73770500  0.56765100  1
  Te  Te16  1  0.04462100  0.26229500  0.56765100  1
  Te  Te17  1  0.04462100  0.73770500  0.93234900  1
  Te  Te18  1  0.45537900  0.73770500  0.06765100  1
  Te  Te19  1  0.45537900  0.26229500  0.43234900  1
  Te  Te20  1  0.08447200  0.94474700  0.36345200  1
  Te  Te21  1  0.08447200  0.05525300  0.13654800  1
  Te  Te22  1  0.41552800  0.05525300  0.86345200  1
  Te  Te23  1  0.41552800  0.94474700  0.63654800  1
  Te  Te24  1  0.91552800  0.05525300  0.63654800  1
  Te  Te25  1  0.91552800  0.94474700  0.86345200  1
  Te  Te26  1  0.58447200  0.94474700  0.13654800  1
  Te  Te27  1  0.58447200  0.05525300  0.36345200  1
  W  W28  1  0.26121000  0.50000000  0.75000000  1
  W  W29  1  0.23879000  0.50000000  0.25000000  1
  W  W30  1  0.73879000  0.50000000  0.25000000  1
  W  W31  1  0.76121000  0.50000000  0.75000000  1
  Br  Br32  1  0.25179800  0.55766100  0.65871600  1
  Br  Br33  1  0.25179800  0.44233900  0.84128400  1
  Br  Br34  1  0.24820200  0.44233900  0.15871600  1
  Br  Br35  1  0.24820200  0.55766100  0.34128400  1
  Br  Br36  1  0.74820200  0.44233900  0.34128400  1
  Br  Br37  1  0.74820200  0.55766100  0.15871600  1
  Br  Br38  1  0.75179800  0.55766100  0.84128400  1
  Br  Br39  1  0.75179800  0.44233900  0.65871600  1
  Br  Br40  1  0.25519400  0.78782000  0.76817600  1
  Br  Br41  1  0.25519400  0.21218000  0.73182400  1
  Br  Br42  1  0.24480600  0.21218000  0.26817600  1
  Br  Br43  1  0.24480600  0.78782000  0.23182400  1
  Br  Br44  1  0.74480600  0.21218000  0.23182400  1
  Br  Br45  1  0.74480600  0.78782000  0.26817600  1
  Br  Br46  1  0.75519400  0.78782000  0.73182400  1
  Br  Br47  1  0.75519400  0.21218000  0.76817600  1
  Br  Br48  1  0.25000000  0.51490400  0.50000000  1
  Br  Br49  1  0.25000000  0.48509600  0.00000000  1
  Br  Br50  1  0.75000000  0.48509600  0.50000000  1
  Br  Br51  1  0.75000000  0.51490400  0.00000000  1
  O  O52  1  0.50670600  0.50000000  0.75000000  1
  O  O53  1  0.99329400  0.50000000  0.25000000  1
  O  O54  1  0.49329400  0.50000000  0.25000000  1
  O  O55  1  0.00670600  0.50000000  0.75000000  1
