# generated using pymatgen
data_MgHg6(N3O13)2
_symmetry_space_group_name_H-M   'P 1'
_cell_length_a   11.91057876
_cell_length_b   11.91057876
_cell_length_c   5.54996500
_cell_angle_alpha   90.00000000
_cell_angle_beta   90.00000000
_cell_angle_gamma   120.00000422
_symmetry_Int_Tables_number   1
_chemical_formula_structural   MgHg6(N3O13)2
_chemical_formula_sum   'Mg1 Hg6 N6 O26'
_cell_volume   681.84645692
_cell_formula_units_Z   1
loop_
 _symmetry_equiv_pos_site_id
 _symmetry_equiv_pos_as_xyz
  1  'x, y, z'
loop_
 _atom_site_type_symbol
 _atom_site_label
 _atom_site_symmetry_multiplicity
 _atom_site_fract_x
 _atom_site_fract_y
 _atom_site_fract_z
 _atom_site_occupancy
  Mg  Mg0  1  0.00000000  0.00000000  0.00000000  1
  Hg  Hg1  1  0.43759000  0.87511400  0.96626300  1
  Hg  Hg2  1  0.12488600  0.56247600  0.96626300  1
  Hg  Hg3  1  0.43752400  0.56241000  0.96626300  1
  Hg  Hg4  1  0.56241000  0.12488600  0.03373700  1
  Hg  Hg5  1  0.87511400  0.43752400  0.03373700  1
  Hg  Hg6  1  0.56247600  0.43759000  0.03373700  1
  N  N7  1  0.56743300  0.80747000  0.45265500  1
  N  N8  1  0.19253000  0.75996300  0.45265500  1
  N  N9  1  0.24003700  0.43256700  0.45265500  1
  N  N10  1  0.43256700  0.19253000  0.54734500  1
  N  N11  1  0.80747000  0.24003700  0.54734500  1
  N  N12  1  0.75996300  0.56743300  0.54734500  1
  O  O13  1  0.33333300  0.66666700  0.93531600  1
  O  O14  1  0.66666700  0.33333300  0.06468400  1
  O  O15  1  0.86113300  0.86717900  0.21773000  1
  O  O16  1  0.13282100  0.99395500  0.21773000  1
  O  O17  1  0.00604500  0.13886700  0.21773000  1
  O  O18  1  0.13886700  0.13282100  0.78227000  1
  O  O19  1  0.86717900  0.00604500  0.78227000  1
  O  O20  1  0.99395500  0.86113300  0.78227000  1
  O  O21  1  0.61746600  0.78981500  0.63509900  1
  O  O22  1  0.21018500  0.82765100  0.63509900  1
  O  O23  1  0.17234900  0.38253400  0.63509900  1
  O  O24  1  0.38253400  0.21018500  0.36490100  1
  O  O25  1  0.78981500  0.17234900  0.36490100  1
  O  O26  1  0.82765100  0.61746600  0.36490100  1
  O  O27  1  0.60620100  0.80318300  0.24207200  1
  O  O28  1  0.19681700  0.80301800  0.24207200  1
  O  O29  1  0.19698200  0.39379900  0.24207200  1
  O  O30  1  0.39379900  0.19681700  0.75792800  1
  O  O31  1  0.80318300  0.19698200  0.75792800  1
  O  O32  1  0.80301800  0.60620100  0.75792800  1
  O  O33  1  0.47435600  0.83048600  0.47212800  1
  O  O34  1  0.16951400  0.64387000  0.47212800  1
  O  O35  1  0.35613000  0.52564400  0.47212800  1
  O  O36  1  0.52564400  0.16951400  0.52787200  1
  O  O37  1  0.83048600  0.35613000  0.52787200  1
  O  O38  1  0.64387000  0.47435600  0.52787200  1
