# generated using pymatgen
data_BaU(SeO4)2
_symmetry_space_group_name_H-M   'P 1'
_cell_length_a   9.50962500
_cell_length_b   7.87683900
_cell_length_c   13.62872973
_cell_angle_alpha   68.06798330
_cell_angle_beta   90.00000000
_cell_angle_gamma   90.00000000
_symmetry_Int_Tables_number   1
_chemical_formula_structural   BaU(SeO4)2
_chemical_formula_sum   'Ba4 U4 Se8 O32'
_cell_volume   946.98792346
_cell_formula_units_Z   4
loop_
 _symmetry_equiv_pos_site_id
 _symmetry_equiv_pos_as_xyz
  1  'x, y, z'
loop_
 _atom_site_type_symbol
 _atom_site_label
 _atom_site_symmetry_multiplicity
 _atom_site_fract_x
 _atom_site_fract_y
 _atom_site_fract_z
 _atom_site_occupancy
  Ba  Ba0  1  0.60187600  0.33474300  0.69290500  1
  Ba  Ba1  1  0.10187600  0.66525700  0.80709500  1
  Ba  Ba2  1  0.39812400  0.66525700  0.30709500  1
  Ba  Ba3  1  0.89812400  0.33474300  0.19290500  1
  U  U4  1  0.59640400  0.76506400  0.78802300  1
  U  U5  1  0.09640400  0.23493600  0.71197700  1
  U  U6  1  0.40359600  0.23493600  0.21197700  1
  U  U7  1  0.90359600  0.76506400  0.28802300  1
  Se  Se8  1  0.55079100  0.72256900  0.03718400  1
  Se  Se9  1  0.05079100  0.27743100  0.46281600  1
  Se  Se10  1  0.44920900  0.27743100  0.96281600  1
  Se  Se11  1  0.94920900  0.72256900  0.53718400  1
  Se  Se12  1  0.33821500  0.02073400  0.61661900  1
  Se  Se13  1  0.83821500  0.97926600  0.88338100  1
  Se  Se14  1  0.66178500  0.97926600  0.38338100  1
  Se  Se15  1  0.16178500  0.02073400  0.11661900  1
  O  O16  1  0.45003800  0.74795900  0.92498100  1
  O  O17  1  0.95003800  0.25204100  0.57501900  1
  O  O18  1  0.54996200  0.25204100  0.07501900  1
  O  O19  1  0.04996200  0.74795900  0.42498100  1
  O  O20  1  0.04343400  0.55232600  0.01663100  1
  O  O21  1  0.54343400  0.44767400  0.48336900  1
  O  O22  1  0.95656600  0.44767400  0.98336900  1
  O  O23  1  0.45656600  0.55232600  0.51663100  1
  O  O24  1  0.46518700  0.53588700  0.13651200  1
  O  O25  1  0.96518700  0.46411300  0.36348800  1
  O  O26  1  0.53481300  0.46411300  0.86348800  1
  O  O27  1  0.03481300  0.53588700  0.63651200  1
  O  O28  1  0.60397000  0.00607100  0.68216900  1
  O  O29  1  0.10397000  0.99392900  0.81783100  1
  O  O30  1  0.39603000  0.99392900  0.31783100  1
  O  O31  1  0.89603000  0.00607100  0.18216900  1
  O  O32  1  0.15711200  0.00369600  0.61280500  1
  O  O33  1  0.65711200  0.99630400  0.88719500  1
  O  O34  1  0.84288800  0.99630400  0.38719500  1
  O  O35  1  0.34288800  0.00369600  0.11280500  1
  O  O36  1  0.68047100  0.66582500  0.69400100  1
  O  O37  1  0.18047100  0.33417500  0.80599900  1
  O  O38  1  0.31952900  0.33417500  0.30599900  1
  O  O39  1  0.81952900  0.66582500  0.19400100  1
  O  O40  1  0.37062200  0.80571700  0.71812200  1
  O  O41  1  0.87062200  0.19428300  0.78187800  1
  O  O42  1  0.62937800  0.19428300  0.28187800  1
  O  O43  1  0.12937800  0.80571700  0.21812200  1
  O  O44  1  0.83811900  0.81503400  0.82533300  1
  O  O45  1  0.33811900  0.18496600  0.67466700  1
  O  O46  1  0.16188100  0.18496600  0.17466700  1
  O  O47  1  0.66188100  0.81503400  0.32533300  1
