# generated using pymatgen
data_B8P2H18IrC8Cl
_symmetry_space_group_name_H-M   'P 1'
_cell_length_a   10.14286564
_cell_length_b   16.95863976
_cell_length_c   25.49151963
_cell_angle_alpha   90.00000000
_cell_angle_beta   90.81714944
_cell_angle_gamma   90.00000000
_symmetry_Int_Tables_number   1
_chemical_formula_structural   B8P2H18IrC8Cl
_chemical_formula_sum   'B64 P16 H144 Ir8 C64 Cl8'
_cell_volume   4384.33008217
_cell_formula_units_Z   8
loop_
 _symmetry_equiv_pos_site_id
 _symmetry_equiv_pos_as_xyz
  1  'x, y, z'
loop_
 _atom_site_type_symbol
 _atom_site_label
 _atom_site_symmetry_multiplicity
 _atom_site_fract_x
 _atom_site_fract_y
 _atom_site_fract_z
 _atom_site_occupancy
  B  B0  1  0.53515783  0.19869466  0.57564905  1
  B  B1  1  0.46484217  0.69869466  0.92435095  1
  B  B2  1  0.46484217  0.80130534  0.42435095  1
  B  B3  1  0.53515783  0.30130534  0.07564905  1
  B  B4  1  0.48962535  0.08488249  0.65286683  1
  B  B5  1  0.51037465  0.58488249  0.84713317  1
  B  B6  1  0.51037465  0.91511751  0.34713317  1
  B  B7  1  0.48962535  0.41511751  0.15286683  1
  B  B8  1  0.44012520  0.11369274  0.58646185  1
  B  B9  1  0.55987480  0.61369274  0.91353815  1
  B  B10  1  0.55987480  0.88630726  0.41353815  1
  B  B11  1  0.44012520  0.38630726  0.08646185  1
  B  B12  1  0.68027160  0.17988361  0.60185024  1
  B  B13  1  0.31972840  0.67988361  0.89814976  1
  B  B14  1  0.31972840  0.82011639  0.39814976  1
  B  B15  1  0.68027160  0.32011639  0.10185024  1
  B  B16  1  0.63944382  0.04454798  0.65630533  1
  B  B17  1  0.36055618  0.54454798  0.84369467  1
  B  B18  1  0.36055618  0.95545202  0.34369467  1
  B  B19  1  0.63944382  0.45545202  0.15630533  1
  B  B20  1  0.60279606  0.11274140  0.55928293  1
  B  B21  1  0.39720394  0.61274140  0.94071707  1
  B  B22  1  0.39720394  0.88725860  0.44071707  1
  B  B23  1  0.60279606  0.38725860  0.05928293  1
  B  B24  1  0.71230457  0.07769168  0.59976843  1
  B  B25  1  0.28769543  0.57769168  0.90023157  1
  B  B26  1  0.28769543  0.92230832  0.40023157  1
  B  B27  1  0.71230457  0.42230832  0.09976843  1
  B  B28  1  0.55520367  0.04000333  0.60132576  1
  B  B29  1  0.44479633  0.54000333  0.89867424  1
  B  B30  1  0.44479633  0.95999667  0.39867424  1
  B  B31  1  0.55520367  0.45999667  0.10132576  1
  B  B32  1  0.13494881  0.85438671  0.16423509  1
  B  B33  1  0.86505119  0.35438671  0.33576491  1
  B  B34  1  0.86505119  0.14561329  0.83576491  1
  B  B35  1  0.13494881  0.64561329  0.66423509  1
  B  B36  1  0.14680379  0.90417900  0.06046779  1
  B  B37  1  0.85319621  0.40417900  0.43953221  1
  B  B38  1  0.85319621  0.09582100  0.93953221  1
  B  B39  1  0.14680379  0.59582100  0.56046779  1
  B  B40  1  0.09672334  0.93723904  0.12533453  1
  B  B41  1  0.90327666  0.43723904  0.37466547  1
  B  B42  1  0.90327666  0.06276096  0.87466547  1
  B  B43  1  0.09672334  0.56276096  0.62533453  1
  B  B44  1  0.27670188  0.82238344  0.14330386  1
  B  B45  1  0.72329812  0.32238344  0.35669614  1
  B  B46  1  0.72329812  0.17761656  0.85669614  1
  B  B47  1  0.27670188  0.67761656  0.64330386  1
  B  B48  1  0.30957620  0.90387525  0.05234180  1
  B  B49  1  0.69042380  0.40387525  0.44765820  1
  B  B50  1  0.69042380  0.09612475  0.94765820  1
  B  B51  1  0.30957620  0.59612475  0.55234180  1
  B  B52  1  0.25345453  0.92240852  0.15688621  1
  B  B53  1  0.74654547  0.42240852  0.34311379  1
  B  B54  1  0.74654547  0.07759148  0.84311379  1
  B  B55  1  0.25345453  0.57759148  0.65688621  1
  B  B56  1  0.36872324  0.90023058  0.11621871  1
  B  B57  1  0.63127676  0.40023058  0.38378129  1
  B  B58  1  0.63127676  0.09976942  0.88378129  1
  B  B59  1  0.36872324  0.59976942  0.61621871  1
  B  B60  1  0.24477268  0.96307823  0.09535324  1
  B  B61  1  0.75522732  0.46307823  0.40464676  1
  B  B62  1  0.75522732  0.03692177  0.90464676  1
  B  B63  1  0.24477268  0.53692177  0.59535324  1
  P  P64  1  0.29497824  0.21860083  0.70063559  1
  P  P65  1  0.70502176  0.71860083  0.79936441  1
  P  P66  1  0.70502176  0.78139917  0.29936441  1
  P  P67  1  0.29497824  0.28139917  0.20063559  1
  P  P68  1  0.59438529  0.32735955  0.68093014  1
  P  P69  1  0.40561471  0.82735955  0.81906986  1
  P  P70  1  0.40561471  0.67264045  0.31906986  1
  P  P71  1  0.59438529  0.17264045  0.18093014  1
  P  P72  1  0.87113464  0.80297568  0.05033259  1
  P  P73  1  0.12886536  0.30297568  0.44966741  1
  P  P74  1  0.12886536  0.19702432  0.94966741  1
  P  P75  1  0.87113464  0.69702432  0.55033259  1
  P  P76  1  0.08519378  0.66459225  0.10097219  1
  P  P77  1  0.91480622  0.16459225  0.39902781  1
  P  P78  1  0.91480622  0.33540775  0.89902781  1
  P  P79  1  0.08519378  0.83540775  0.60097219  1
  H  H80  1  0.36740396  0.13099800  0.77033701  1
  H  H81  1  0.63259604  0.63099800  0.72966299  1
  H  H82  1  0.63259604  0.86900200  0.22966299  1
  H  H83  1  0.36740396  0.36900200  0.27033701  1
  H  H84  1  0.37232680  0.23084823  0.79107944  1
  H  H85  1  0.62767320  0.73084823  0.70892056  1
  H  H86  1  0.62767320  0.76915177  0.20892056  1
  H  H87  1  0.37232680  0.26915177  0.29107944  1
  H  H88  1  0.21721834  0.18024131  0.78757873  1
  H  H89  1  0.78278166  0.68024131  0.71242127  1
  H  H90  1  0.78278166  0.81975869  0.21242127  1
  H  H91  1  0.21721834  0.31975869  0.28757873  1
  H  H92  1  0.19023333  0.09512590  0.67167580  1
  H  H93  1  0.80976667  0.59512590  0.82832420  1
  H  H94  1  0.80976667  0.90487410  0.32832420  1
  H  H95  1  0.19023333  0.40487410  0.17167580  1
  H  H96  1  0.08015206  0.15903365  0.70616813  1
  H  H97  1  0.91984794  0.65903365  0.79383187  1
  H  H98  1  0.91984794  0.84096635  0.29383187  1
  H  H99  1  0.08015206  0.34096635  0.20616813  1
  H  H100  1  0.12038589  0.17873723  0.63964793  1
  H  H101  1  0.87961411  0.67873723  0.86035207  1
  H  H102  1  0.87961411  0.82126277  0.36035207  1
  H  H103  1  0.12038589  0.32126277  0.13964793  1
  H  H104  1  0.26796588  0.36013325  0.72012446  1
  H  H105  1  0.73203412  0.86013325  0.77987554  1
  H  H106  1  0.73203412  0.63986675  0.27987554  1
  H  H107  1  0.26796588  0.13986675  0.22012446  1
  H  H108  1  0.16452330  0.32826930  0.66737483  1
  H  H109  1  0.83547670  0.82826930  0.83262517  1
  H  H110  1  0.83547670  0.67173070  0.33262517  1
  H  H111  1  0.16452330  0.17173070  0.16737483  1
  H  H112  1  0.12386765  0.30342690  0.73322327  1
  H  H113  1  0.87613235  0.80342690  0.76677673  1
  H  H114  1  0.87613235  0.69657310  0.26677673  1
  H  H115  1  0.12386765  0.19657310  0.23322327  1
  H  H116  1  0.65891008  0.37828867  0.59565886  1
  H  H117  1  0.34108992  0.87828867  0.90434114  1
  H  H118  1  0.34108992  0.62171133  0.40434114  1
  H  H119  1  0.65891008  0.12171133  0.09565886  1
  H  H120  1  0.52481130  0.43283482  0.62199936  1
  H  H121  1  0.47518870  0.93283482  0.87800064  1
  H  H122  1  0.47518870  0.56716518  0.37800064  1
  H  H123  1  0.52481130  0.06716518  0.12199936  1
  H  H124  1  0.68887732  0.44824784  0.64702152  1
  H  H125  1  0.31112268  0.94824784  0.85297848  1
  H  H126  1  0.31112268  0.55175216  0.35297848  1
  H  H127  1  0.68887732  0.05175216  0.14702152  1
  H  H128  1  0.51446048  0.34849931  0.77031875  1
  H  H129  1  0.48553952  0.84849931  0.72968125  1
  H  H130  1  0.48553952  0.65150069  0.22968125  1
  H  H131  1  0.51446048  0.15150069  0.27031875  1
  H  H132  1  0.60595225  0.43035289  0.74653264  1
  H  H133  1  0.39404775  0.93035289  0.75346736  1
  H  H134  1  0.39404775  0.56964711  0.25346736  1
  H  H135  1  0.60595225  0.06964711  0.24653264  1
  H  H136  1  0.44075067  0.41653658  0.72501986  1
  H  H137  1  0.55924933  0.91653658  0.77498014  1
  H  H138  1  0.55924933  0.58346342  0.27498014  1
  H  H139  1  0.44075067  0.08346342  0.22501986  1
  H  H140  1  0.76816962  0.26660420  0.73567763  1
  H  H141  1  0.23183038  0.76660420  0.76432237  1
  H  H142  1  0.23183038  0.73339580  0.26432237  1
  H  H143  1  0.76816962  0.23339580  0.23567763  1
  H  H144  1  0.82654669  0.29013886  0.67219621  1
  H  H145  1  0.17345331  0.79013886  0.82780379  1
  H  H146  1  0.17345331  0.70986114  0.32780379  1
  H  H147  1  0.82654669  0.20986114  0.17219621  1
  H  H148  1  0.80257578  0.36753031  0.71866951  1
  H  H149  1  0.19742422  0.86753031  0.78133049  1
  H  H150  1  0.19742422  0.63246969  0.28133049  1
  H  H151  1  0.80257578  0.13246969  0.21866951  1
  H  H152  1  0.77983011  0.67065287  0.06682243  1
  H  H153  1  0.22016989  0.17065287  0.43317757  1
  H  H154  1  0.22016989  0.32934713  0.93317757  1
  H  H155  1  0.77983011  0.82934713  0.56682243  1
  H  H156  1  0.70495045  0.74545747  0.10567395  1
  H  H157  1  0.29504955  0.24545747  0.39432605  1
  H  H158  1  0.29504955  0.25454253  0.89432605  1
  H  H159  1  0.70495045  0.75454253  0.60567395  1
  H  H160  1  0.66233312  0.73619807  0.03795229  1
  H  H161  1  0.33766688  0.23619807  0.46204771  1
  H  H162  1  0.33766688  0.26380193  0.96204771  1
  H  H163  1  0.66233312  0.76380193  0.53795229  1
  H  H164  1  0.83771492  0.94548917  0.04374890  1
  H  H165  1  0.16228508  0.44548917  0.45625110  1
  H  H166  1  0.16228508  0.05451083  0.95625110  1
  H  H167  1  0.83771492  0.55451083  0.54374890  1
  H  H168  1  0.69472627  0.88959843  0.02480789  1
  H  H169  1  0.30527373  0.38959843  0.47519211  1
  H  H170  1  0.30527373  0.11040157  0.97519211  1
  H  H171  1  0.69472627  0.61040157  0.52480789  1
  H  H172  1  0.73640246  0.90238413  0.09253134  1
  H  H173  1  0.26359754  0.40238413  0.40746866  1
  H  H174  1  0.26359754  0.09761587  0.90746866  1
  H  H175  1  0.73640246  0.59761587  0.59253134  1
  H  H176  1  0.94999573  0.73654334  0.97197340  1
  H  H177  1  0.05000427  0.23654334  0.52802660  1
  H  H178  1  0.05000427  0.26345666  0.02802660  1
  H  H179  1  0.94999573  0.76345666  0.47197340  1
  H  H180  1  0.79703014  0.78602600  0.95928104  1
  H  H181  1  0.20296986  0.28602600  0.54071896  1
  H  H182  1  0.20296986  0.21397400  0.04071896  1
  H  H183  1  0.79703014  0.71397400  0.45928104  1
  H  H184  1  0.94857550  0.84081414  0.96494224  1
  H  H185  1  0.05142450  0.34081414  0.53505776  1
  H  H186  1  0.05142450  0.15918586  0.03505776  1
  H  H187  1  0.94857550  0.65918586  0.46494224  1
  H  H188  1  0.28953040  0.65426549  0.15242570  1
  H  H189  1  0.71046960  0.15426549  0.34757430  1
  H  H190  1  0.71046960  0.34573451  0.84757430  1
  H  H191  1  0.28953040  0.84573451  0.65242570  1
  H  H192  1  0.24922295  0.56460663  0.11798303  1
  H  H193  1  0.75077705  0.06460663  0.38201697  1
  H  H194  1  0.75077705  0.43539337  0.88201697  1
  H  H195  1  0.24922295  0.93539337  0.61798303  1
  H  H196  1  0.31873320  0.64688366  0.08412867  1
  H  H197  1  0.68126680  0.14688366  0.41587133  1
  H  H198  1  0.68126680  0.35311634  0.91587133  1
  H  H199  1  0.31873320  0.85311634  0.58412867  1
  H  H200  1  0.95095501  0.62437718  0.02435030  1
  H  H201  1  0.04904499  0.12437718  0.47564970  1
  H  H202  1  0.04904499  0.37562282  0.97564970  1
  H  H203  1  0.95095501  0.87562282  0.52435030  1
  H  H204  1  0.12221975  0.63021202  0.01001666  1
  H  H205  1  0.87778025  0.13021202  0.48998334  1
  H  H206  1  0.87778025  0.36978798  0.98998334  1
  H  H207  1  0.12221975  0.86978798  0.51001666  1
  H  H208  1  0.06029811  0.54842992  0.04628923  1
  H  H209  1  0.93970189  0.04842992  0.45371077  1
  H  H210  1  0.93970189  0.45157008  0.95371077  1
  H  H211  1  0.06029811  0.95157008  0.54628923  1
  H  H212  1  0.88336128  0.62030468  0.14481034  1
  H  H213  1  0.11663872  0.12030468  0.35518966  1
  H  H214  1  0.11663872  0.37969532  0.85518966  1
  H  H215  1  0.88336128  0.87969532  0.64481034  1
  H  H216  1  0.00503428  0.54445228  0.14096545  1
  H  H217  1  0.99496572  0.04445228  0.35903455  1
  H  H218  1  0.99496572  0.45554772  0.85903455  1
  H  H219  1  0.00503428  0.95554772  0.64096545  1
  H  H220  1  0.02207027  0.62163989  0.18838830  1
  H  H221  1  0.97792973  0.12163989  0.31161170  1
  H  H222  1  0.97792973  0.37836011  0.81161170  1
  H  H223  1  0.02207027  0.87836011  0.68838830  1
  Ir  Ir224  1  0.48885700  0.21057382  0.65373370  1
  Ir  Ir225  1  0.51114300  0.71057382  0.84626630  1
  Ir  Ir226  1  0.51114300  0.78942618  0.34626630  1
  Ir  Ir227  1  0.48885700  0.28942618  0.15373370  1
  Ir  Ir228  1  0.06932305  0.80220304  0.09575017  1
  Ir  Ir229  1  0.93067695  0.30220304  0.40424983  1
  Ir  Ir230  1  0.93067695  0.19779696  0.90424983  1
  Ir  Ir231  1  0.06932305  0.69779696  0.59575017  1
  C  C232  1  0.63018457  0.12678550  0.68378260  1
  C  C233  1  0.36981543  0.62678550  0.81621740  1
  C  C234  1  0.36981543  0.87321450  0.31621740  1
  C  C235  1  0.63018457  0.37321450  0.18378260  1
  C  C236  1  0.74613359  0.13361803  0.65059917  1
  C  C237  1  0.25386641  0.63361803  0.84940083  1
  C  C238  1  0.25386641  0.86638197  0.34940083  1
  C  C239  1  0.74613359  0.36638197  0.15059917  1
  C  C240  1  0.24843380  0.81994622  0.05074440  1
  C  C241  1  0.75156620  0.31994622  0.44925560  1
  C  C242  1  0.75156620  0.18005378  0.94925560  1
  C  C243  1  0.24843380  0.68005378  0.55074440  1
  C  C244  1  0.35542049  0.81267409  0.08984178  1
  C  C245  1  0.64457951  0.31267409  0.41015822  1
  C  C246  1  0.64457951  0.18732591  0.91015822  1
  C  C247  1  0.35542049  0.68732591  0.58984178  1
  C  C248  1  0.31404573  0.18717543  0.76909175  1
  C  C249  1  0.68595427  0.68717543  0.73090825  1
  C  C250  1  0.68595427  0.81282457  0.23090825  1
  C  C251  1  0.31404573  0.31282457  0.26909175  1
  C  C252  1  0.15913888  0.15643503  0.67714265  1
  C  C253  1  0.84086112  0.65643503  0.82285735  1
  C  C254  1  0.84086112  0.84356497  0.32285735  1
  C  C255  1  0.15913888  0.34356497  0.17714265  1
  C  C256  1  0.20541205  0.31183967  0.70586309  1
  C  C257  1  0.79458795  0.81183967  0.79413691  1
  C  C258  1  0.79458795  0.68816033  0.29413691  1
  C  C259  1  0.20541205  0.18816033  0.20586309  1
  C  C260  1  0.61908415  0.40410897  0.63157226  1
  C  C261  1  0.38091585  0.90410897  0.86842774  1
  C  C262  1  0.38091585  0.59589103  0.36842774  1
  C  C263  1  0.61908415  0.09589103  0.13157226  1
  C  C264  1  0.53204123  0.38558703  0.73589691  1
  C  C265  1  0.46795877  0.88558703  0.76410309  1
  C  C266  1  0.46795877  0.61441297  0.26410309  1
  C  C267  1  0.53204123  0.11441297  0.23589691  1
  C  C268  1  0.76429501  0.31085050  0.70427538  1
  C  C269  1  0.23570499  0.81085050  0.79572462  1
  C  C270  1  0.23570499  0.68914950  0.29572462  1
  C  C271  1  0.76429501  0.18914950  0.20427538  1
  C  C272  1  0.74341120  0.73151277  0.06683621  1
  C  C273  1  0.25658880  0.23151277  0.43316379  1
  C  C274  1  0.25658880  0.26848723  0.93316379  1
  C  C275  1  0.74341120  0.76848723  0.56683621  1
  C  C276  1  0.77672347  0.89422513  0.05328378  1
  C  C277  1  0.22327653  0.39422513  0.44671622  1
  C  C278  1  0.22327653  0.10577487  0.94671622  1
  C  C279  1  0.77672347  0.60577487  0.55328378  1
  C  C280  1  0.89325605  0.79008920  0.97970292  1
  C  C281  1  0.10674395  0.29008920  0.52029708  1
  C  C282  1  0.10674395  0.20991080  0.02029708  1
  C  C283  1  0.89325605  0.70991080  0.47970292  1
  C  C284  1  0.25181597  0.62915877  0.11546504  1
  C  C285  1  0.74818403  0.12915877  0.38453496  1
  C  C286  1  0.74818403  0.37084123  0.88453496  1
  C  C287  1  0.25181597  0.87084123  0.61546504  1
  C  C288  1  0.05060969  0.61205848  0.03954745  1
  C  C289  1  0.94939031  0.11205848  0.46045255  1
  C  C290  1  0.94939031  0.38794152  0.96045255  1
  C  C291  1  0.05060969  0.88794152  0.53954745  1
  C  C292  1  0.98920138  0.60758167  0.14827489  1
  C  C293  1  0.01079862  0.10758167  0.35172511  1
  C  C294  1  0.01079862  0.39241833  0.85172511  1
  C  C295  1  0.98920138  0.89241833  0.64827489  1
  Cl  Cl296  1  0.28385170  0.08919673  0.55437679  1
  Cl  Cl297  1  0.71614830  0.58919673  0.94562321  1
  Cl  Cl298  1  0.71614830  0.91080327  0.44562321  1
  Cl  Cl299  1  0.28385170  0.41080327  0.05437679  1
  Cl  Cl300  1  0.97382794  0.01233753  0.13925730  1
  Cl  Cl301  1  0.02617206  0.51233753  0.36074270  1
  Cl  Cl302  1  0.02617206  0.98766247  0.86074270  1
  Cl  Cl303  1  0.97382794  0.48766247  0.63925730  1
