# generated using pymatgen
data_K3Ag2(PO4)5
_symmetry_space_group_name_H-M   'P 1'
_cell_length_a   7.33575900
_cell_length_b   10.46399387
_cell_length_c   14.25313771
_cell_angle_alpha   100.96390245
_cell_angle_beta   88.84305869
_cell_angle_gamma   103.55482029
_symmetry_Int_Tables_number   1
_chemical_formula_structural   K3Ag2(PO4)5
_chemical_formula_sum   'K6 Ag4 P10 O40'
_cell_volume   1043.86041840
_cell_formula_units_Z   2
loop_
 _symmetry_equiv_pos_site_id
 _symmetry_equiv_pos_as_xyz
  1  'x, y, z'
loop_
 _atom_site_type_symbol
 _atom_site_label
 _atom_site_symmetry_multiplicity
 _atom_site_fract_x
 _atom_site_fract_y
 _atom_site_fract_z
 _atom_site_occupancy
  K  K0  1  0.59648800  0.95762200  0.11183700  1
  K  K1  1  0.40351200  0.04237800  0.88816300  1
  K  K2  1  0.34146800  0.36945300  0.74189300  1
  K  K3  1  0.65853200  0.63054700  0.25810700  1
  K  K4  1  0.23991200  0.78490900  0.47895100  1
  K  K5  1  0.76008800  0.21509100  0.52104900  1
  Ag  Ag6  1  0.69761800  0.53050800  0.94678400  1
  Ag  Ag7  1  0.30238200  0.46949200  0.05321600  1
  Ag  Ag8  1  0.20663400  0.15780600  0.13828500  1
  Ag  Ag9  1  0.79336600  0.84219400  0.86171500  1
  P  P10  1  0.68298600  0.32797200  0.09519700  1
  P  P11  1  0.31701400  0.67202800  0.90480300  1
  P  P12  1  0.06711600  0.80780200  0.03969000  1
  P  P13  1  0.93288400  0.19219800  0.96031000  1
  P  P14  1  0.81153700  0.26030900  0.78199700  1
  P  P15  1  0.18846300  0.73969100  0.21800300  1
  P  P16  1  0.80856000  0.50655000  0.72270400  1
  P  P17  1  0.19144000  0.49345000  0.27729600  1
  P  P18  1  0.15388400  0.72257200  0.72963900  1
  P  P19  1  0.84611600  0.27742800  0.27036100  1
  O  O20  1  0.35146200  0.53857900  0.91706300  1
  O  O21  1  0.64853800  0.46142100  0.08293700  1
  O  O22  1  0.13389000  0.68910400  0.96644100  1
  O  O23  1  0.86611000  0.31089600  0.03355900  1
  O  O24  1  0.75790000  0.36085200  0.20438800  1
  O  O25  1  0.24210000  0.63914800  0.79561200  1
  O  O26  1  0.47065500  0.79697100  0.92514400  1
  O  O27  1  0.52934500  0.20302900  0.07485600  1
  O  O28  1  0.87098600  0.80465100  0.00633300  1
  O  O29  1  0.12901400  0.19534900  0.99366700  1
  O  O30  1  0.78262200  0.06495400  0.94853200  1
  O  O31  1  0.21737800  0.93504600  0.05146800  1
  O  O32  1  0.96350000  0.25117300  0.86305300  1
  O  O33  1  0.03650000  0.74882700  0.13694700  1
  O  O34  1  0.62444600  0.26419300  0.82634700  1
  O  O35  1  0.37555400  0.73580700  0.17365300  1
  O  O36  1  0.16946900  0.83496500  0.30751600  1
  O  O37  1  0.83053100  0.16503500  0.69248400  1
  O  O38  1  0.07987600  0.58698600  0.23234200  1
  O  O39  1  0.92012400  0.41301400  0.76765800  1
  O  O40  1  0.72621600  0.58921700  0.80482000  1
  O  O41  1  0.27378400  0.41078300  0.19518000  1
  O  O42  1  0.67924200  0.42173900  0.64337000  1
  O  O43  1  0.32075800  0.57826100  0.35663000  1
  O  O44  1  0.09061300  0.83496500  0.79437900  1
  O  O45  1  0.90938700  0.16503500  0.20562100  1
  O  O46  1  0.71358000  0.24603300  0.34825200  1
  O  O47  1  0.28642000  0.75396700  0.65174800  1
  O  O48  1  0.97882100  0.60402400  0.67930000  1
  O  O49  1  0.02117900  0.39597600  0.32070000  1
  O  O50  1  0.31046500  0.11545300  0.25505400  1
  O  O51  1  0.68953500  0.88454700  0.74494600  1
  O  O52  1  0.74120200  0.87600100  0.44978700  1
  O  O53  1  0.25879800  0.12399900  0.55021300  1
  O  O54  1  0.83560000  0.91852400  0.37789200  1
  O  O55  1  0.16440000  0.08147600  0.62210800  1
  O  O56  1  0.60669500  0.47036000  0.41665500  1
  O  O57  1  0.39330500  0.52964000  0.58334500  1
  O  O58  1  0.83676500  0.85346900  0.51840200  1
  O  O59  1  0.16323500  0.14653100  0.48159800  1
