# generated using pymatgen
data_NaTb(SiO3)2
_symmetry_space_group_name_H-M   'P 1'
_cell_length_a   13.90388600
_cell_length_b   5.48358400
_cell_length_c   7.69871747
_cell_angle_alpha   69.97042797
_cell_angle_beta   90.00000000
_cell_angle_gamma   90.00000000
_symmetry_Int_Tables_number   1
_chemical_formula_structural   NaTb(SiO3)2
_chemical_formula_sum   'Na4 Tb4 Si8 O24'
_cell_volume   551.47172073
_cell_formula_units_Z   4
loop_
 _symmetry_equiv_pos_site_id
 _symmetry_equiv_pos_as_xyz
  1  'x, y, z'
loop_
 _atom_site_type_symbol
 _atom_site_label
 _atom_site_symmetry_multiplicity
 _atom_site_fract_x
 _atom_site_fract_y
 _atom_site_fract_z
 _atom_site_occupancy
  Na  Na0  1  0.26834900  0.86116000  0.04332600  1
  Na  Na1  1  0.76834900  0.13884000  0.45667400  1
  Na  Na2  1  0.73165100  0.13884000  0.95667400  1
  Na  Na3  1  0.23165100  0.86116000  0.54332600  1
  Tb  Tb4  1  0.00554500  0.01765600  0.24787400  1
  Tb  Tb5  1  0.50554500  0.98234400  0.25212600  1
  Tb  Tb6  1  0.99445500  0.98234400  0.75212600  1
  Tb  Tb7  1  0.49445500  0.01765600  0.74787400  1
  Si  Si8  1  0.13985000  0.42764600  0.35567800  1
  Si  Si9  1  0.63985000  0.57235400  0.14432200  1
  Si  Si10  1  0.86015000  0.57235400  0.64432200  1
  Si  Si11  1  0.36015000  0.42764600  0.85567800  1
  Si  Si12  1  0.36156800  0.41843100  0.43240700  1
  Si  Si13  1  0.86156800  0.58156900  0.06759300  1
  Si  Si14  1  0.63843200  0.58156900  0.56759300  1
  Si  Si15  1  0.13843200  0.41843100  0.93240700  1
  O  O16  1  0.25034400  0.31498700  0.42011100  1
  O  O17  1  0.75034400  0.68501300  0.07988900  1
  O  O18  1  0.74965600  0.68501300  0.57988900  1
  O  O19  1  0.24965600  0.31498700  0.92011100  1
  O  O20  1  0.12252800  0.38380300  0.15425700  1
  O  O21  1  0.62252800  0.61619700  0.34574300  1
  O  O22  1  0.87747200  0.61619700  0.84574300  1
  O  O23  1  0.37747200  0.38380300  0.65425700  1
  O  O24  1  0.06583600  0.21040000  0.48190100  1
  O  O25  1  0.56583600  0.78960000  0.01809900  1
  O  O26  1  0.93416400  0.78960000  0.51809900  1
  O  O27  1  0.43416400  0.21040000  0.98190100  1
  O  O28  1  0.13347900  0.73066700  0.33110900  1
  O  O29  1  0.63347900  0.26933300  0.16889100  1
  O  O30  1  0.86652100  0.26933300  0.66889100  1
  O  O31  1  0.36652100  0.73066700  0.83110900  1
  O  O32  1  0.43669400  0.20063100  0.41847300  1
  O  O33  1  0.93669400  0.79936900  0.08152700  1
  O  O34  1  0.56330600  0.79936900  0.58152700  1
  O  O35  1  0.06330600  0.20063100  0.91847300  1
  O  O36  1  0.37413600  0.71582000  0.30258200  1
  O  O37  1  0.87413600  0.28418000  0.19741800  1
  O  O38  1  0.62586400  0.28418000  0.69741800  1
  O  O39  1  0.12586400  0.71582000  0.80258200  1
