# generated using pymatgen
data_CoH24C2S2(N3O7)2
_symmetry_space_group_name_H-M   'P 1'
_cell_length_a   7.71714300
_cell_length_b   10.06627300
_cell_length_c   12.05075242
_cell_angle_alpha   82.64834408
_cell_angle_beta   90.00000000
_cell_angle_gamma   90.00000000
_symmetry_Int_Tables_number   1
_chemical_formula_structural   CoH24C2S2(N3O7)2
_chemical_formula_sum   'Co2 H48 C4 S4 N12 O28'
_cell_volume   928.44148157
_cell_formula_units_Z   2
loop_
 _symmetry_equiv_pos_site_id
 _symmetry_equiv_pos_as_xyz
  1  'x, y, z'
loop_
 _atom_site_type_symbol
 _atom_site_label
 _atom_site_symmetry_multiplicity
 _atom_site_fract_x
 _atom_site_fract_y
 _atom_site_fract_z
 _atom_site_occupancy
  Co  Co0  1  0.00000000  0.50000000  0.00000000  1
  Co  Co1  1  0.50000000  0.50000000  0.50000000  1
  H  H2  1  0.33528800  0.51389000  0.03574200  1
  H  H3  1  0.83528800  0.48611000  0.46425800  1
  H  H4  1  0.66471200  0.48611000  0.96425800  1
  H  H5  1  0.16471200  0.51389000  0.53574200  1
  H  H6  1  0.31204500  0.39006200  0.96436400  1
  H  H7  1  0.81204500  0.60993800  0.53563600  1
  H  H8  1  0.68795500  0.60993800  0.03563600  1
  H  H9  1  0.18795500  0.39006200  0.46436400  1
  H  H10  1  0.99014700  0.48407600  0.23159000  1
  H  H11  1  0.49014700  0.51592400  0.26841000  1
  H  H12  1  0.00985300  0.51592400  0.76841000  1
  H  H13  1  0.50985300  0.48407600  0.73159000  1
  H  H14  1  0.15938600  0.56284800  0.18191900  1
  H  H15  1  0.65938600  0.43715200  0.31808100  1
  H  H16  1  0.84061400  0.43715200  0.81808100  1
  H  H17  1  0.34061400  0.56284800  0.68191900  1
  H  H18  1  0.04486900  0.72829300  0.86985900  1
  H  H19  1  0.54486900  0.27170700  0.63014100  1
  H  H20  1  0.95513100  0.27170700  0.13014100  1
  H  H21  1  0.45513100  0.72829300  0.36985900  1
  H  H22  1  0.13045100  0.73783800  0.98873800  1
  H  H23  1  0.63045100  0.26216200  0.51126200  1
  H  H24  1  0.86954900  0.26216200  0.01126200  1
  H  H25  1  0.36954900  0.73783800  0.48873800  1
  H  H26  1  0.21203600  0.87793400  0.28003500  1
  H  H27  1  0.71203600  0.12206600  0.21996500  1
  H  H28  1  0.78796400  0.12206600  0.71996500  1
  H  H29  1  0.28796400  0.87793400  0.78003500  1
  H  H30  1  0.10711900  0.86911700  0.40885700  1
  H  H31  1  0.60711900  0.13088300  0.09114300  1
  H  H32  1  0.89288100  0.13088300  0.59114300  1
  H  H33  1  0.39288100  0.86911700  0.90885700  1
  H  H34  1  0.82787300  0.85374100  0.12358500  1
  H  H35  1  0.32787300  0.14625900  0.37641500  1
  H  H36  1  0.17212700  0.14625900  0.87641500  1
  H  H37  1  0.67212700  0.85374100  0.62358500  1
  H  H38  1  0.05098300  0.87776300  0.11736300  1
  H  H39  1  0.55098300  0.12223700  0.38263700  1
  H  H40  1  0.94901700  0.12223700  0.88263700  1
  H  H41  1  0.44901700  0.87776300  0.61736300  1
  H  H42  1  0.80882700  0.83194800  0.41719500  1
  H  H43  1  0.30882700  0.16805200  0.08280500  1
  H  H44  1  0.19117300  0.16805200  0.58280500  1
  H  H45  1  0.69117300  0.83194800  0.91719500  1
  H  H46  1  0.68394400  0.84527500  0.29402500  1
  H  H47  1  0.18394400  0.15472500  0.20597500  1
  H  H48  1  0.31605600  0.15472500  0.70597500  1
  H  H49  1  0.81605600  0.84527500  0.79402500  1
  C  C50  1  0.94596200  0.87068100  0.27220900  1
  C  C51  1  0.44596200  0.12931900  0.22779100  1
  C  C52  1  0.05403800  0.12931900  0.72779100  1
  C  C53  1  0.55403800  0.87068100  0.77220900  1
  S  S54  1  0.56255000  0.24549900  0.87101200  1
  S  S55  1  0.06255000  0.75450100  0.62898800  1
  S  S56  1  0.43745000  0.75450100  0.12898800  1
  S  S57  1  0.93745000  0.24549900  0.37101200  1
  N  N58  1  0.09846000  0.87648400  0.32362900  1
  N  N59  1  0.59846000  0.12351600  0.17637100  1
  N  N60  1  0.90154000  0.12351600  0.67637100  1
  N  N61  1  0.40154000  0.87648400  0.82362900  1
  N  N62  1  0.93762600  0.88589100  0.15944200  1
  N  N63  1  0.43762600  0.11410900  0.34055800  1
  N  N64  1  0.06237400  0.11410900  0.84055800  1
  N  N65  1  0.56237400  0.88589100  0.65944200  1
  N  N66  1  0.80042200  0.85562900  0.33231200  1
  N  N67  1  0.30042200  0.14437100  0.16768800  1
  N  N68  1  0.19957800  0.14437100  0.66768800  1
  N  N69  1  0.69957800  0.85562900  0.83231200  1
  O  O70  1  0.26601000  0.47874200  0.97717200  1
  O  O71  1  0.76601000  0.52125800  0.52282800  1
  O  O72  1  0.73399000  0.52125800  0.02282800  1
  O  O73  1  0.23399000  0.47874200  0.47717200  1
  O  O74  1  0.03802100  0.54215300  0.16578500  1
  O  O75  1  0.53802100  0.45784700  0.33421500  1
  O  O76  1  0.96197900  0.45784700  0.83421500  1
  O  O77  1  0.46197900  0.54215300  0.66578500  1
  O  O78  1  0.03080900  0.69984100  0.95172100  1
  O  O79  1  0.53080900  0.30015900  0.54827900  1
  O  O80  1  0.96919100  0.30015900  0.04827900  1
  O  O81  1  0.46919100  0.69984100  0.45172100  1
  O  O82  1  0.39332200  0.23233700  0.93158900  1
  O  O83  1  0.89332200  0.76766300  0.56841100  1
  O  O84  1  0.60667800  0.76766300  0.06841100  1
  O  O85  1  0.10667800  0.23233700  0.43158900  1
  O  O86  1  0.54769000  0.18714900  0.76362000  1
  O  O87  1  0.04769000  0.81285100  0.73638000  1
  O  O88  1  0.45231000  0.81285100  0.23638000  1
  O  O89  1  0.95231000  0.18714900  0.26362000  1
  O  O90  1  0.70161300  0.17481800  0.94196000  1
  O  O91  1  0.20161300  0.82518200  0.55804000  1
  O  O92  1  0.29838700  0.82518200  0.05804000  1
  O  O93  1  0.79838700  0.17481800  0.44196000  1
  O  O94  1  0.60907200  0.39162400  0.84576200  1
  O  O95  1  0.10907200  0.60837600  0.65423800  1
  O  O96  1  0.39092800  0.60837600  0.15423800  1
  O  O97  1  0.89092800  0.39162400  0.34576200  1
