# generated using pymatgen
data_CuH20N6OF2
_symmetry_space_group_name_H-M   'P 1'
_cell_length_a   6.72926797
_cell_length_b   6.72926797
_cell_length_c   18.62116500
_cell_angle_alpha   90.00000000
_cell_angle_beta   90.00000000
_cell_angle_gamma   119.99999969
_symmetry_Int_Tables_number   1
_chemical_formula_structural   CuH20N6OF2
_chemical_formula_sum   'Cu3 H60 N18 O3 F6'
_cell_volume   730.25262544
_cell_formula_units_Z   3
loop_
 _symmetry_equiv_pos_site_id
 _symmetry_equiv_pos_as_xyz
  1  'x, y, z'
loop_
 _atom_site_type_symbol
 _atom_site_label
 _atom_site_symmetry_multiplicity
 _atom_site_fract_x
 _atom_site_fract_y
 _atom_site_fract_z
 _atom_site_occupancy
  Cu  Cu0  1  0.46538100  0.00000000  0.66666700  1
  Cu  Cu1  1  0.00000000  0.46538100  0.33333300  1
  Cu  Cu2  1  0.53461900  0.53461900  0.00000000  1
  H  H3  1  0.44054900  0.64273300  0.60270100  1
  H  H4  1  0.35726700  0.79781600  0.26936700  1
  H  H5  1  0.20218400  0.55945100  0.93603400  1
  H  H6  1  0.64273300  0.44054900  0.39729900  1
  H  H7  1  0.79781600  0.35726700  0.73063300  1
  H  H8  1  0.55945100  0.20218400  0.06396600  1
  H  H9  1  0.64928400  0.73455500  0.66421800  1
  H  H10  1  0.26544500  0.91472900  0.33088500  1
  H  H11  1  0.08527100  0.35071600  0.99755200  1
  H  H12  1  0.73455500  0.64928400  0.33578200  1
  H  H13  1  0.91472900  0.26544500  0.66911500  1
  H  H14  1  0.35071600  0.08527100  0.00244800  1
  H  H15  1  0.69852300  0.86616300  0.58467100  1
  H  H16  1  0.13383700  0.83236000  0.25133700  1
  H  H17  1  0.16764000  0.30147700  0.91800400  1
  H  H18  1  0.86616300  0.69852300  0.41532900  1
  H  H19  1  0.83236000  0.13383700  0.74866300  1
  H  H20  1  0.30147700  0.16764000  0.08199600  1
  H  H21  1  0.01917800  0.74543100  0.66749500  1
  H  H22  1  0.25456900  0.27374800  0.33416200  1
  H  H23  1  0.72625200  0.98082200  0.00082900  1
  H  H24  1  0.74543100  0.01917800  0.33250500  1
  H  H25  1  0.27374800  0.25456900  0.66583800  1
  H  H26  1  0.98082200  0.72625200  0.99917100  1
  H  H27  1  0.12301800  0.63557300  0.60838100  1
  H  H28  1  0.36442700  0.48744600  0.27504800  1
  H  H29  1  0.51255400  0.87698200  0.94171400  1
  H  H30  1  0.63557300  0.12301800  0.39161900  1
  H  H31  1  0.48744600  0.36442700  0.72495200  1
  H  H32  1  0.87698200  0.51255400  0.05828600  1
  H  H33  1  0.10034300  0.86463100  0.58618200  1
  H  H34  1  0.13536900  0.23571200  0.25284800  1
  H  H35  1  0.76428800  0.89965700  0.91951500  1
  H  H36  1  0.86463100  0.10034300  0.41381800  1
  H  H37  1  0.23571200  0.13536900  0.74715200  1
  H  H38  1  0.89965700  0.76428800  0.08048500  1
  H  H39  1  0.52067100  0.17504300  0.50999600  1
  H  H40  1  0.82495700  0.34562800  0.17666300  1
  H  H41  1  0.65437200  0.47932900  0.84332900  1
  H  H42  1  0.17504300  0.52067100  0.49000400  1
  H  H43  1  0.34562800  0.82495700  0.82333700  1
  H  H44  1  0.47932900  0.65437200  0.15667100  1
  H  H45  1  0.77111200  0.28160000  0.55284600  1
  H  H46  1  0.71840000  0.48951200  0.21951300  1
  H  H47  1  0.51048800  0.22888800  0.88618000  1
  H  H48  1  0.28160000  0.77111200  0.44715400  1
  H  H49  1  0.48951200  0.71840000  0.78048700  1
  H  H50  1  0.22888800  0.51048800  0.11382000  1
  H  H51  1  0.59885500  0.38432100  0.56813700  1
  H  H52  1  0.61567900  0.21453400  0.23480400  1
  H  H53  1  0.78546600  0.40114500  0.90147100  1
  H  H54  1  0.38432100  0.59885500  0.43186300  1
  H  H55  1  0.21453400  0.61567900  0.76519600  1
  H  H56  1  0.40114500  0.78546600  0.09852900  1
  H  H57  1  0.06933700  0.15959400  0.53245400  1
  H  H58  1  0.84040600  0.90974300  0.19912100  1
  H  H59  1  0.09025700  0.93066300  0.86578800  1
  H  H60  1  0.15959400  0.06933700  0.46754600  1
  H  H61  1  0.90974300  0.84040600  0.80087900  1
  H  H62  1  0.93066300  0.09025700  0.13421200  1
  N  N63  1  0.57875100  0.78675000  0.62407800  1
  N  N64  1  0.21325000  0.79200100  0.29074400  1
  N  N65  1  0.20799900  0.42124900  0.95741100  1
  N  N66  1  0.78675000  0.57875100  0.37592200  1
  N  N67  1  0.79200100  0.21325000  0.70925600  1
  N  N68  1  0.42124900  0.20799900  0.04258900  1
  N  N69  1  0.13900800  0.78738300  0.62735900  1
  N  N70  1  0.21261700  0.35162500  0.29402600  1
  N  N71  1  0.64837500  0.86099200  0.96069300  1
  N  N72  1  0.78738300  0.13900800  0.37264100  1
  N  N73  1  0.35162500  0.21261700  0.70597400  1
  N  N74  1  0.86099200  0.64837500  0.03930700  1
  N  N75  1  0.60224500  0.23687800  0.55825100  1
  N  N76  1  0.76312200  0.36536800  0.22491700  1
  N  N77  1  0.63463200  0.39775500  0.89158400  1
  N  N78  1  0.23687800  0.60224500  0.44174900  1
  N  N79  1  0.36536800  0.76312200  0.77508300  1
  N  N80  1  0.39775500  0.63463200  0.10841600  1
  O  O81  1  0.02469200  0.02469200  0.50000000  1
  O  O82  1  0.97530800  0.00000000  0.16666700  1
  O  O83  1  0.00000000  0.97530800  0.83333300  1
  F  F84  1  0.12088200  0.36523900  0.58978900  1
  F  F85  1  0.63476100  0.75564300  0.25645600  1
  F  F86  1  0.24435700  0.87911800  0.92312200  1
  F  F87  1  0.36523900  0.12088200  0.41021100  1
  F  F88  1  0.75564300  0.63476100  0.74354400  1
  F  F89  1  0.87911800  0.24435700  0.07687800  1
