# generated using pymatgen
data_Nb4Ag2O11
_symmetry_space_group_name_H-M   'P 1'
_cell_length_a   13.18874355
_cell_length_b   13.18874355
_cell_length_c   13.18874404
_cell_angle_alpha   27.57437886
_cell_angle_beta   27.57437886
_cell_angle_gamma   27.57438051
_symmetry_Int_Tables_number   1
_chemical_formula_structural   Nb4Ag2O11
_chemical_formula_sum   'Nb8 Ag4 O22'
_cell_volume   433.91913936
_cell_formula_units_Z   2
loop_
 _symmetry_equiv_pos_site_id
 _symmetry_equiv_pos_as_xyz
  1  'x, y, z'
loop_
 _atom_site_type_symbol
 _atom_site_label
 _atom_site_symmetry_multiplicity
 _atom_site_fract_x
 _atom_site_fract_y
 _atom_site_fract_z
 _atom_site_occupancy
  Nb  Nb0  1  0.12176100  0.74790800  0.38940000  1
  Nb  Nb1  1  0.74790800  0.38940000  0.12176100  1
  Nb  Nb2  1  0.38940000  0.12176100  0.74790800  1
  Nb  Nb3  1  0.62010700  0.89110600  0.24915800  1
  Nb  Nb4  1  0.89110600  0.24915800  0.62010700  1
  Nb  Nb5  1  0.24915800  0.62010700  0.89110600  1
  Nb  Nb6  1  0.00583000  0.00583000  0.00583000  1
  Nb  Nb7  1  0.50601900  0.50601900  0.50601900  1
  Ag  Ag8  1  0.67465800  0.67465800  0.67465800  1
  Ag  Ag9  1  0.17228200  0.17228200  0.17228200  1
  Ag  Ag10  1  0.83254100  0.83254100  0.83254100  1
  Ag  Ag11  1  0.33100600  0.33100600  0.33100600  1
  O  O12  1  0.43197400  0.22788400  0.74598500  1
  O  O13  1  0.22788400  0.74598500  0.43197400  1
  O  O14  1  0.74598500  0.43197400  0.22788400  1
  O  O15  1  0.93742700  0.24487800  0.72457200  1
  O  O16  1  0.24487800  0.72457200  0.93742700  1
  O  O17  1  0.72457200  0.93742700  0.24487800  1
  O  O18  1  0.05183600  0.75334600  0.28539200  1
  O  O19  1  0.75334600  0.28539200  0.05183600  1
  O  O20  1  0.28539200  0.05183600  0.75334600  1
  O  O21  1  0.56163900  0.77930600  0.25093600  1
  O  O22  1  0.77930600  0.25093600  0.56163900  1
  O  O23  1  0.25093600  0.56163900  0.77930600  1
  O  O24  1  0.49918400  0.75167500  0.00143000  1
  O  O25  1  0.75167500  0.00143000  0.49918400  1
  O  O26  1  0.00143000  0.49918400  0.75167500  1
  O  O27  1  0.00069600  0.49896300  0.25303500  1
  O  O28  1  0.49896300  0.25303500  0.00069600  1
  O  O29  1  0.25303500  0.00069600  0.49896300  1
  O  O30  1  0.59164800  0.59164800  0.59164800  1
  O  O31  1  0.09128500  0.09128500  0.09128500  1
  O  O32  1  0.90666400  0.90666400  0.90666400  1
  O  O33  1  0.40497100  0.40497100  0.40497100  1
