# generated using pymatgen
data_TlCo(BrN)6
_symmetry_space_group_name_H-M   'P 1'
_cell_length_a   10.83150000
_cell_length_b   10.83150000
_cell_length_c   10.83150000
_cell_angle_alpha   90.00000000
_cell_angle_beta   90.00000000
_cell_angle_gamma   90.00000000
_symmetry_Int_Tables_number   1
_chemical_formula_structural   TlCo(BrN)6
_chemical_formula_sum   'Tl4 Co4 Br24 N24'
_cell_volume   1270.76666016
_cell_formula_units_Z   4
loop_
 _symmetry_equiv_pos_site_id
 _symmetry_equiv_pos_as_xyz
  1  'x, y, z'
loop_
 _atom_site_type_symbol
 _atom_site_label
 _atom_site_symmetry_multiplicity
 _atom_site_fract_x
 _atom_site_fract_y
 _atom_site_fract_z
 _atom_site_occupancy
  Tl  Tl0  1  0.50000000  0.50000000  0.00000000  1
  Tl  Tl1  1  0.50000000  0.00000000  0.50000000  1
  Tl  Tl2  1  0.00000000  0.50000000  0.50000000  1
  Tl  Tl3  1  0.00000000  0.00000000  0.00000000  1
  Co  Co4  1  0.00000000  0.00000000  0.50000000  1
  Co  Co5  1  0.00000000  0.50000000  0.00000000  1
  Co  Co6  1  0.50000000  0.00000000  0.00000000  1
  Co  Co7  1  0.50000000  0.50000000  0.50000000  1
  Br  Br8  1  0.55545300  0.73383100  0.31306100  1
  Br  Br9  1  0.44454700  0.23383100  0.18693900  1
  Br  Br10  1  0.94454700  0.26616900  0.81306100  1
  Br  Br11  1  0.05545300  0.76616900  0.68693900  1
  Br  Br12  1  0.31306100  0.55545300  0.73383100  1
  Br  Br13  1  0.18693900  0.44454700  0.23383100  1
  Br  Br14  1  0.81306100  0.94454700  0.26616900  1
  Br  Br15  1  0.68693900  0.05545300  0.76616900  1
  Br  Br16  1  0.73383100  0.31306100  0.55545300  1
  Br  Br17  1  0.23383100  0.18693900  0.44454700  1
  Br  Br18  1  0.26616900  0.81306100  0.94454700  1
  Br  Br19  1  0.76616900  0.68693900  0.05545300  1
  Br  Br20  1  0.44454700  0.26616900  0.68693900  1
  Br  Br21  1  0.55545300  0.76616900  0.81306100  1
  Br  Br22  1  0.05545300  0.73383100  0.18693900  1
  Br  Br23  1  0.94454700  0.23383100  0.31306100  1
  Br  Br24  1  0.68693900  0.44454700  0.26616900  1
  Br  Br25  1  0.81306100  0.55545300  0.76616900  1
  Br  Br26  1  0.18693900  0.05545300  0.73383100  1
  Br  Br27  1  0.31306100  0.94454700  0.23383100  1
  Br  Br28  1  0.26616900  0.68693900  0.44454700  1
  Br  Br29  1  0.76616900  0.81306100  0.55545300  1
  Br  Br30  1  0.73383100  0.18693900  0.05545300  1
  Br  Br31  1  0.23383100  0.31306100  0.94454700  1
  N  N32  1  0.45128200  0.59391200  0.64109400  1
  N  N33  1  0.54871800  0.09391100  0.85890600  1
  N  N34  1  0.04871800  0.40608800  0.14109400  1
  N  N35  1  0.95128200  0.90608800  0.35890600  1
  N  N36  1  0.64109400  0.45128200  0.59391200  1
  N  N37  1  0.85890600  0.54871800  0.09391100  1
  N  N38  1  0.14109400  0.04871800  0.40608800  1
  N  N39  1  0.35890600  0.95128200  0.90608800  1
  N  N40  1  0.59391200  0.64109400  0.45128200  1
  N  N41  1  0.09391100  0.85890600  0.54871800  1
  N  N42  1  0.40608800  0.14109400  0.04871800  1
  N  N43  1  0.90608800  0.35890600  0.95128200  1
  N  N44  1  0.54871800  0.40608800  0.35890600  1
  N  N45  1  0.45128200  0.90608800  0.14109400  1
  N  N46  1  0.95128200  0.59391200  0.85890600  1
  N  N47  1  0.04871800  0.09391100  0.64109400  1
  N  N48  1  0.35890600  0.54871800  0.40608800  1
  N  N49  1  0.14109400  0.45128200  0.90608800  1
  N  N50  1  0.85890600  0.95128200  0.59391200  1
  N  N51  1  0.64109400  0.04871800  0.09391100  1
  N  N52  1  0.40608800  0.35890600  0.54871800  1
  N  N53  1  0.90608800  0.14109400  0.45128200  1
  N  N54  1  0.59391200  0.85890600  0.95128200  1
  N  N55  1  0.09391100  0.64109400  0.04871800  1
