# generated using pymatgen
data_Hg4PNO8
_symmetry_space_group_name_H-M   'P 1'
_cell_length_a   6.08592100
_cell_length_b   8.60070000
_cell_length_c   19.61365005
_cell_angle_alpha   90.00000000
_cell_angle_beta   105.18726894
_cell_angle_gamma   90.00000000
_symmetry_Int_Tables_number   1
_chemical_formula_structural   Hg4PNO8
_chemical_formula_sum   'Hg16 P4 N4 O32'
_cell_volume   990.78512008
_cell_formula_units_Z   4
loop_
 _symmetry_equiv_pos_site_id
 _symmetry_equiv_pos_as_xyz
  1  'x, y, z'
loop_
 _atom_site_type_symbol
 _atom_site_label
 _atom_site_symmetry_multiplicity
 _atom_site_fract_x
 _atom_site_fract_y
 _atom_site_fract_z
 _atom_site_occupancy
  Hg  Hg0  1  0.26200300  0.03913200  0.73587100  1
  Hg  Hg1  1  0.26200300  0.46086800  0.23587100  1
  Hg  Hg2  1  0.73799700  0.96086800  0.26412900  1
  Hg  Hg3  1  0.73799700  0.53913200  0.76412900  1
  Hg  Hg4  1  0.37538100  0.41983900  0.06811100  1
  Hg  Hg5  1  0.37538100  0.08016100  0.56811100  1
  Hg  Hg6  1  0.62461900  0.58016100  0.93188900  1
  Hg  Hg7  1  0.62461900  0.91983900  0.43188900  1
  Hg  Hg8  1  0.75771900  0.28530900  0.96102000  1
  Hg  Hg9  1  0.75771900  0.21469100  0.46102000  1
  Hg  Hg10  1  0.24228100  0.71469100  0.03898000  1
  Hg  Hg11  1  0.24228100  0.78530900  0.53898000  1
  Hg  Hg12  1  0.30091900  0.49104100  0.71491900  1
  Hg  Hg13  1  0.30091900  0.00895900  0.21491900  1
  Hg  Hg14  1  0.69908100  0.50895900  0.28508100  1
  Hg  Hg15  1  0.69908100  0.99104100  0.78508100  1
  P  P16  1  0.86812800  0.24143600  0.13673200  1
  P  P17  1  0.86812800  0.25856400  0.63673200  1
  P  P18  1  0.13187200  0.75856400  0.86326800  1
  P  P19  1  0.13187200  0.74143600  0.36326800  1
  N  N20  1  0.85871400  0.74120600  0.12509100  1
  N  N21  1  0.85871400  0.75879400  0.62509100  1
  N  N22  1  0.14128600  0.25879400  0.87490900  1
  N  N23  1  0.14128600  0.24120600  0.37490900  1
  O  O24  1  0.39327800  0.72332200  0.39493400  1
  O  O25  1  0.39327800  0.77667800  0.89493400  1
  O  O26  1  0.60672200  0.27667800  0.60506600  1
  O  O27  1  0.60672200  0.22332200  0.10506600  1
  O  O28  1  0.99882900  0.26065700  0.07854900  1
  O  O29  1  0.99882900  0.23934300  0.57854900  1
  O  O30  1  0.00117100  0.73934300  0.92145100  1
  O  O31  1  0.00117100  0.76065700  0.42145100  1
  O  O32  1  0.05250300  0.58766900  0.32069500  1
  O  O33  1  0.05250300  0.91233100  0.82069500  1
  O  O34  1  0.94749700  0.41233100  0.67930500  1
  O  O35  1  0.94749700  0.08766900  0.17930500  1
  O  O36  1  0.08651700  0.88767500  0.31361100  1
  O  O37  1  0.08651700  0.61232500  0.81361100  1
  O  O38  1  0.91348300  0.11232500  0.68638900  1
  O  O39  1  0.91348300  0.38767500  0.18638900  1
  O  O40  1  0.70299900  0.73625900  0.15663800  1
  O  O41  1  0.70299900  0.76374100  0.65663800  1
  O  O42  1  0.29700100  0.26374100  0.84336200  1
  O  O43  1  0.29700100  0.23625900  0.34336200  1
  O  O44  1  0.06654100  0.73323400  0.16004300  1
  O  O45  1  0.06654100  0.76676600  0.66004300  1
  O  O46  1  0.93345900  0.26676600  0.83995700  1
  O  O47  1  0.93345900  0.23323400  0.33995700  1
  O  O48  1  0.80986900  0.75458600  0.05855700  1
  O  O49  1  0.80986900  0.74541400  0.55855700  1
  O  O50  1  0.19013100  0.24541400  0.94144300  1
  O  O51  1  0.19013100  0.25458600  0.44144300  1
  O  O52  1  0.27872800  0.94675200  0.08398400  1
  O  O53  1  0.27872800  0.55324800  0.58398400  1
  O  O54  1  0.72127200  0.05324800  0.91601600  1
  O  O55  1  0.72127200  0.44675200  0.41601600  1
