# generated using pymatgen
data_SiH9C3N2Cl3
_symmetry_space_group_name_H-M   'P 1'
_cell_length_a   11.73998000
_cell_length_b   7.61699400
_cell_length_c   10.92385841
_cell_angle_alpha   74.66835451
_cell_angle_beta   90.00000000
_cell_angle_gamma   90.00000000
_symmetry_Int_Tables_number   1
_chemical_formula_structural   SiH9C3N2Cl3
_chemical_formula_sum   'Si4 H36 C12 N8 Cl12'
_cell_volume   942.08356353
_cell_formula_units_Z   4
loop_
 _symmetry_equiv_pos_site_id
 _symmetry_equiv_pos_as_xyz
  1  'x, y, z'
loop_
 _atom_site_type_symbol
 _atom_site_label
 _atom_site_symmetry_multiplicity
 _atom_site_fract_x
 _atom_site_fract_y
 _atom_site_fract_z
 _atom_site_occupancy
  Si  Si0  1  0.30486300  0.72237800  0.25467200  1
  Si  Si1  1  0.80486300  0.27762200  0.24532800  1
  Si  Si2  1  0.69513700  0.27762200  0.74532800  1
  Si  Si3  1  0.19513700  0.72237800  0.75467200  1
  H  H4  1  0.41999700  0.84771500  0.45807600  1
  H  H5  1  0.91999700  0.15228500  0.04192400  1
  H  H6  1  0.58000300  0.15228500  0.54192400  1
  H  H7  1  0.08000300  0.84771500  0.95807600  1
  H  H8  1  0.31978300  0.02240100  0.45683100  1
  H  H9  1  0.81978300  0.97759900  0.04316900  1
  H  H10  1  0.68021700  0.97759900  0.54316900  1
  H  H11  1  0.18021700  0.02240100  0.95683100  1
  H  H12  1  0.44734300  0.07265600  0.36364300  1
  H  H13  1  0.94734300  0.92734400  0.13635700  1
  H  H14  1  0.55265700  0.92734400  0.63635700  1
  H  H15  1  0.05265700  0.07265600  0.86364300  1
  H  H16  1  0.10948100  0.03389300  0.29585800  1
  H  H17  1  0.60948100  0.96610700  0.20414200  1
  H  H18  1  0.89051900  0.96610700  0.70414200  1
  H  H19  1  0.39051900  0.03389300  0.79585800  1
  H  H20  1  0.19613600  0.22162900  0.30929800  1
  H  H21  1  0.69613600  0.77837100  0.19070200  1
  H  H22  1  0.80386400  0.77837100  0.69070200  1
  H  H23  1  0.30386400  0.22162900  0.80929800  1
  H  H24  1  0.12526200  0.22977400  0.16379300  1
  H  H25  1  0.62526200  0.77022600  0.33620700  1
  H  H26  1  0.87473800  0.77022600  0.83620700  1
  H  H27  1  0.37473800  0.22977400  0.66379300  1
  H  H28  1  0.38331500  0.27727500  0.17837800  1
  H  H29  1  0.88331500  0.72272500  0.32162200  1
  H  H30  1  0.61668500  0.72272500  0.82162200  1
  H  H31  1  0.11668500  0.27727500  0.67837800  1
  H  H32  1  0.41272500  0.12460700  0.08197400  1
  H  H33  1  0.91272500  0.87539300  0.41802600  1
  H  H34  1  0.58727500  0.87539300  0.91802600  1
  H  H35  1  0.08727500  0.12460700  0.58197400  1
  H  H36  1  0.29828600  0.28363600  0.04257200  1
  H  H37  1  0.79828600  0.71636400  0.45742800  1
  H  H38  1  0.70171400  0.71636400  0.95742800  1
  H  H39  1  0.20171400  0.28363600  0.54257200  1
  C  C40  1  0.37998700  0.97078000  0.39757000  1
  C  C41  1  0.87998700  0.02922000  0.10243000  1
  C  C42  1  0.62001300  0.02922000  0.60243000  1
  C  C43  1  0.12001300  0.97078000  0.89757000  1
  C  C44  1  0.16934100  0.13931600  0.24490500  1
  C  C45  1  0.66934100  0.86068400  0.25509500  1
  C  C46  1  0.83065900  0.86068400  0.75509500  1
  C  C47  1  0.33065900  0.13931600  0.74490500  1
  C  C48  1  0.34479900  0.19254500  0.12136900  1
  C  C49  1  0.84479900  0.80745500  0.37863100  1
  C  C50  1  0.65520100  0.80745500  0.87863100  1
  C  C51  1  0.15520100  0.19254500  0.62136900  1
  N  N52  1  0.32316500  0.92147400  0.29251900  1
  N  N53  1  0.82316500  0.07852600  0.20748100  1
  N  N54  1  0.67683500  0.07852600  0.70748100  1
  N  N55  1  0.17683500  0.92147400  0.79251900  1
  N  N56  1  0.26567800  0.05590100  0.19567100  1
  N  N57  1  0.76567800  0.94409900  0.30432900  1
  N  N58  1  0.73432200  0.94409900  0.80432900  1
  N  N59  1  0.23432200  0.05590100  0.69567100  1
  Cl  Cl60  1  0.37495300  0.72006500  0.08221000  1
  Cl  Cl61  1  0.87495300  0.27993500  0.41779000  1
  Cl  Cl62  1  0.62504700  0.27993500  0.91779000  1
  Cl  Cl63  1  0.12504700  0.72006500  0.58221000  1
  Cl  Cl64  1  0.13739600  0.64590400  0.24748800  1
  Cl  Cl65  1  0.63739600  0.35409600  0.25251200  1
  Cl  Cl66  1  0.86260400  0.35409600  0.75251200  1
  Cl  Cl67  1  0.36260400  0.64590400  0.74748800  1
  Cl  Cl68  1  0.38418600  0.51774900  0.38958800  1
  Cl  Cl69  1  0.88418600  0.48225100  0.11041200  1
  Cl  Cl70  1  0.61581400  0.48225100  0.61041200  1
  Cl  Cl71  1  0.11581400  0.51774900  0.88958800  1
