# generated using pymatgen
data_Tb5Pt4
_symmetry_space_group_name_H-M   'P 1'
_cell_length_a   7.49070700
_cell_length_b   7.60537400
_cell_length_c   14.89234400
_cell_angle_alpha   90.00000000
_cell_angle_beta   90.00000000
_cell_angle_gamma   90.00000000
_symmetry_Int_Tables_number   1
_chemical_formula_structural   Tb5Pt4
_chemical_formula_sum   'Tb20 Pt16'
_cell_volume   848.41130159
_cell_formula_units_Z   4
loop_
 _symmetry_equiv_pos_site_id
 _symmetry_equiv_pos_as_xyz
  1  'x, y, z'
loop_
 _atom_site_type_symbol
 _atom_site_label
 _atom_site_symmetry_multiplicity
 _atom_site_fract_x
 _atom_site_fract_y
 _atom_site_fract_z
 _atom_site_occupancy
  Tb  Tb0  1  0.62685600  0.16490000  0.61828200  1
  Tb  Tb1  1  0.12685600  0.33510000  0.88171800  1
  Tb  Tb2  1  0.37314400  0.83510000  0.11828200  1
  Tb  Tb3  1  0.87314400  0.66490000  0.38171800  1
  Tb  Tb4  1  0.37314400  0.83510000  0.38171800  1
  Tb  Tb5  1  0.87314400  0.66490000  0.11828200  1
  Tb  Tb6  1  0.62685600  0.16490000  0.88171800  1
  Tb  Tb7  1  0.12685600  0.33510000  0.61828200  1
  Tb  Tb8  1  0.47133000  0.67262400  0.59976500  1
  Tb  Tb9  1  0.97133000  0.82737600  0.90023500  1
  Tb  Tb10  1  0.52867000  0.32737600  0.09976500  1
  Tb  Tb11  1  0.02867000  0.17262400  0.40023500  1
  Tb  Tb12  1  0.52867000  0.32737600  0.40023500  1
  Tb  Tb13  1  0.02867000  0.17262400  0.09976500  1
  Tb  Tb14  1  0.47133000  0.67262400  0.90023500  1
  Tb  Tb15  1  0.97133000  0.82737600  0.59976500  1
  Tb  Tb16  1  0.79093600  0.50675700  0.75000000  1
  Tb  Tb17  1  0.29093600  0.99324300  0.75000000  1
  Tb  Tb18  1  0.20906400  0.49324300  0.25000000  1
  Tb  Tb19  1  0.70906400  0.00675700  0.25000000  1
  Pt  Pt20  1  0.70975500  0.97672100  0.45509200  1
  Pt  Pt21  1  0.20975500  0.52327900  0.04490800  1
  Pt  Pt22  1  0.29024500  0.02327900  0.95509200  1
  Pt  Pt23  1  0.79024500  0.47672100  0.54490800  1
  Pt  Pt24  1  0.29024500  0.02327900  0.54490800  1
  Pt  Pt25  1  0.79024500  0.47672100  0.95509200  1
  Pt  Pt26  1  0.70975500  0.97672100  0.04490800  1
  Pt  Pt27  1  0.20975500  0.52327900  0.45509200  1
  Pt  Pt28  1  0.42251700  0.37880900  0.75000000  1
  Pt  Pt29  1  0.92251700  0.12119100  0.75000000  1
  Pt  Pt30  1  0.57748300  0.62119100  0.25000000  1
  Pt  Pt31  1  0.07748300  0.87880900  0.25000000  1
  Pt  Pt32  1  0.65923300  0.86032900  0.75000000  1
  Pt  Pt33  1  0.15923300  0.63967100  0.75000000  1
  Pt  Pt34  1  0.34076700  0.13967100  0.25000000  1
  Pt  Pt35  1  0.84076700  0.36032900  0.25000000  1
