# generated using pymatgen
data_Na2Al2Si3H6O13
_symmetry_space_group_name_H-M   'P 1'
_cell_length_a   10.21727956
_cell_length_b   10.21727956
_cell_length_c   9.96313367
_cell_angle_alpha   84.19415621
_cell_angle_beta   84.19415621
_cell_angle_gamma   142.30090086
_symmetry_Int_Tables_number   1
_chemical_formula_structural   Na2Al2Si3H6O13
_chemical_formula_sum   'Na4 Al4 Si6 H12 O26'
_cell_volume   604.04452972
_cell_formula_units_Z   2
loop_
 _symmetry_equiv_pos_site_id
 _symmetry_equiv_pos_as_xyz
  1  'x, y, z'
loop_
 _atom_site_type_symbol
 _atom_site_label
 _atom_site_symmetry_multiplicity
 _atom_site_fract_x
 _atom_site_fract_y
 _atom_site_fract_z
 _atom_site_occupancy
  Na  Na0  1  0.57444200  0.85753800  0.04860600  1
  Na  Na1  1  0.85753800  0.57444200  0.54860600  1
  Na  Na2  1  0.01542400  0.35366700  0.11132300  1
  Na  Na3  1  0.35366700  0.01542400  0.61132300  1
  Al  Al4  1  0.30296000  0.73336400  0.42860400  1
  Al  Al5  1  0.73336400  0.30296000  0.92860400  1
  Al  Al6  1  0.40170800  0.47768700  0.60122300  1
  Al  Al7  1  0.47768700  0.40170800  0.10122300  1
  Si  Si8  1  0.74550400  0.00314400  0.50219400  1
  Si  Si9  1  0.00314400  0.74550400  0.00219400  1
  Si  Si10  1  0.99158300  0.32996300  0.69770900  1
  Si  Si11  1  0.32996300  0.99158300  0.19770900  1
  Si  Si12  1  0.24663100  0.40814500  0.33313600  1
  Si  Si13  1  0.40814500  0.24663100  0.83313600  1
  H  H14  1  0.66260000  0.20525200  0.41358700  1
  H  H15  1  0.20525200  0.66260000  0.91358700  1
  H  H16  1  0.61567700  0.30919400  0.34743400  1
  H  H17  1  0.30919400  0.61567700  0.84743400  1
  H  H18  1  0.05402600  0.92598500  0.70887500  1
  H  H19  1  0.92598500  0.05402600  0.20887500  1
  H  H20  1  0.02551200  0.10283300  0.05158600  1
  H  H21  1  0.10283300  0.02551200  0.55158600  1
  H  H22  1  0.76220200  0.88422000  0.77904300  1
  H  H23  1  0.88422000  0.76220200  0.27904300  1
  H  H24  1  0.78406900  0.80012300  0.90745000  1
  H  H25  1  0.80012300  0.78406900  0.40745000  1
  O  O26  1  0.56323100  0.96125800  0.46627500  1
  O  O27  1  0.96125800  0.56323100  0.96627500  1
  O  O28  1  0.64832400  0.77531500  0.53635600  1
  O  O29  1  0.77531500  0.64832400  0.03635600  1
  O  O30  1  0.25263300  0.84740600  0.35323900  1
  O  O31  1  0.84740600  0.25263300  0.85323900  1
  O  O32  1  0.35667200  0.44519500  0.17968900  1
  O  O33  1  0.44519500  0.35667200  0.67968900  1
  O  O34  1  0.32427100  0.62496800  0.31779400  1
  O  O35  1  0.62496800  0.32427100  0.81779400  1
  O  O36  1  0.20427900  0.41408600  0.71524200  1
  O  O37  1  0.41408600  0.20427900  0.21524200  1
  O  O38  1  0.07971100  0.53373300  0.58774700  1
  O  O39  1  0.53373300  0.07971100  0.08774700  1
  O  O40  1  0.29399900  0.35584900  0.46358800  1
  O  O41  1  0.35584900  0.29399900  0.96358800  1
  O  O42  1  0.82579800  0.11201200  0.63307900  1
  O  O43  1  0.11201200  0.82579800  0.13307900  1
  O  O44  1  0.96680200  0.18527800  0.35737300  1
  O  O45  1  0.18527800  0.96680200  0.85737300  1
  O  O46  1  0.67375500  0.31018600  0.42091600  1
  O  O47  1  0.31018600  0.67375500  0.92091600  1
  O  O48  1  0.04434900  0.89924100  0.61606500  1
  O  O49  1  0.89924100  0.04434900  0.11606500  1
  O  O50  1  0.73770400  0.85149000  0.88026500  1
  O  O51  1  0.85149000  0.73770400  0.38026500  1
