# generated using pymatgen
data_BaV(AsO5)2
_symmetry_space_group_name_H-M   'P 1'
_cell_length_a   6.45763100
_cell_length_b   11.44718700
_cell_length_c   14.26634750
_cell_angle_alpha   51.88373434
_cell_angle_beta   90.00000000
_cell_angle_gamma   90.00000000
_symmetry_Int_Tables_number   1
_chemical_formula_structural   BaV(AsO5)2
_chemical_formula_sum   'Ba4 V4 As8 O40'
_cell_volume   829.71124014
_cell_formula_units_Z   4
loop_
 _symmetry_equiv_pos_site_id
 _symmetry_equiv_pos_as_xyz
  1  'x, y, z'
loop_
 _atom_site_type_symbol
 _atom_site_label
 _atom_site_symmetry_multiplicity
 _atom_site_fract_x
 _atom_site_fract_y
 _atom_site_fract_z
 _atom_site_occupancy
  Ba  Ba0  1  0.35141900  0.72213200  0.32948100  1
  Ba  Ba1  1  0.14858100  0.72213200  0.82948100  1
  Ba  Ba2  1  0.64858100  0.27786800  0.67051900  1
  Ba  Ba3  1  0.85141900  0.27786800  0.17051900  1
  V  V4  1  0.01165500  0.68764500  0.12790900  1
  V  V5  1  0.48834500  0.68764500  0.62790900  1
  V  V6  1  0.98834500  0.31235500  0.87209100  1
  V  V7  1  0.51165500  0.31235500  0.37209100  1
  As  As8  1  0.14523700  0.02575200  0.85704600  1
  As  As9  1  0.35476300  0.02575200  0.35704600  1
  As  As10  1  0.85476300  0.97424800  0.14295400  1
  As  As11  1  0.64523700  0.97424800  0.64295400  1
  As  As12  1  0.51170800  0.63893400  0.10344300  1
  As  As13  1  0.98829200  0.63893400  0.60344300  1
  As  As14  1  0.48829200  0.36106600  0.89655700  1
  As  As15  1  0.01170800  0.36106600  0.39655700  1
  O  O16  1  0.02205900  0.55373200  0.30389400  1
  O  O17  1  0.47794100  0.55373200  0.80389400  1
  O  O18  1  0.97794100  0.44626800  0.69610600  1
  O  O19  1  0.52205900  0.44626800  0.19610600  1
  O  O20  1  0.31349600  0.69671700  0.14750800  1
  O  O21  1  0.18650400  0.69671700  0.64750800  1
  O  O22  1  0.68650400  0.30328300  0.85249200  1
  O  O23  1  0.81349600  0.30328300  0.35249200  1
  O  O24  1  0.03946400  0.84969800  0.96604200  1
  O  O25  1  0.46053600  0.84969800  0.46604200  1
  O  O26  1  0.96053600  0.15030200  0.03395800  1
  O  O27  1  0.53946400  0.15030200  0.53395800  1
  O  O28  1  0.01203300  0.55851400  0.10970600  1
  O  O29  1  0.48796700  0.55851400  0.60970600  1
  O  O30  1  0.98796700  0.44148600  0.89029400  1
  O  O31  1  0.51203300  0.44148600  0.39029400  1
  O  O32  1  0.02727800  0.84708700  0.16587200  1
  O  O33  1  0.47272200  0.84708700  0.66587200  1
  O  O34  1  0.97272200  0.15291300  0.83412800  1
  O  O35  1  0.52727800  0.15291300  0.33412800  1
  O  O36  1  0.40088500  0.04675000  0.87643400  1
  O  O37  1  0.09911500  0.04675000  0.37643400  1
  O  O38  1  0.59911500  0.95325000  0.12356600  1
  O  O39  1  0.90088500  0.95325000  0.62356600  1
  O  O40  1  0.19545700  0.01851000  0.74209000  1
  O  O41  1  0.30454300  0.01851000  0.24209000  1
  O  O42  1  0.80454300  0.98149000  0.25791000  1
  O  O43  1  0.69545700  0.98149000  0.75791000  1
  O  O44  1  0.72246600  0.70727000  0.13224700  1
  O  O45  1  0.77753400  0.70727000  0.63224700  1
  O  O46  1  0.27753400  0.29273000  0.86775300  1
  O  O47  1  0.22246600  0.29273000  0.36775300  1
  O  O48  1  0.48677900  0.70552800  0.96006400  1
  O  O49  1  0.01322100  0.70552800  0.46006400  1
  O  O50  1  0.51322100  0.29447200  0.03993600  1
  O  O51  1  0.98677900  0.29447200  0.53993600  1
  O  O52  1  0.25509500  0.41194700  0.54440600  1
  O  O53  1  0.24490500  0.41194700  0.04440600  1
  O  O54  1  0.74490500  0.58805300  0.45559400  1
  O  O55  1  0.75509500  0.58805300  0.95559400  1
