# generated using pymatgen
data_Yb5(Ge5Ir2)2
_symmetry_space_group_name_H-M   'P 1'
_cell_length_a   13.02838900
_cell_length_b   13.02838900
_cell_length_c   4.37913600
_cell_angle_alpha   90.00000000
_cell_angle_beta   90.00000000
_cell_angle_gamma   90.00000000
_symmetry_Int_Tables_number   1
_chemical_formula_structural   Yb5(Ge5Ir2)2
_chemical_formula_sum   'Yb10 Ge20 Ir8'
_cell_volume   743.30981489
_cell_formula_units_Z   2
loop_
 _symmetry_equiv_pos_site_id
 _symmetry_equiv_pos_as_xyz
  1  'x, y, z'
loop_
 _atom_site_type_symbol
 _atom_site_label
 _atom_site_symmetry_multiplicity
 _atom_site_fract_x
 _atom_site_fract_y
 _atom_site_fract_z
 _atom_site_occupancy
  Yb  Yb0  1  0.50000000  0.50000000  0.00000000  1
  Yb  Yb1  1  0.00000000  0.00000000  0.00000000  1
  Yb  Yb2  1  0.67174700  0.17174700  0.50000000  1
  Yb  Yb3  1  0.32825300  0.82825300  0.50000000  1
  Yb  Yb4  1  0.17174700  0.32825300  0.50000000  1
  Yb  Yb5  1  0.82825300  0.67174700  0.50000000  1
  Yb  Yb6  1  0.88660700  0.38660700  0.50000000  1
  Yb  Yb7  1  0.11339300  0.61339300  0.50000000  1
  Yb  Yb8  1  0.38660700  0.11339300  0.50000000  1
  Yb  Yb9  1  0.61339300  0.88660700  0.50000000  1
  Ge  Ge10  1  0.56729700  0.06729700  0.00000000  1
  Ge  Ge11  1  0.43270300  0.93270300  0.00000000  1
  Ge  Ge12  1  0.06729700  0.43270300  0.00000000  1
  Ge  Ge13  1  0.93270300  0.56729700  0.00000000  1
  Ge  Ge14  1  0.66207900  0.69592300  0.00000000  1
  Ge  Ge15  1  0.33792100  0.30407700  0.00000000  1
  Ge  Ge16  1  0.16207900  0.80407700  0.00000000  1
  Ge  Ge17  1  0.83792100  0.19592300  0.00000000  1
  Ge  Ge18  1  0.30407700  0.66207900  0.00000000  1
  Ge  Ge19  1  0.69592300  0.33792100  0.00000000  1
  Ge  Ge20  1  0.19592300  0.16207900  0.00000000  1
  Ge  Ge21  1  0.80407700  0.83792100  0.00000000  1
  Ge  Ge22  1  0.65453100  0.50811500  0.50000000  1
  Ge  Ge23  1  0.34546900  0.49188500  0.50000000  1
  Ge  Ge24  1  0.15453100  0.99188500  0.50000000  1
  Ge  Ge25  1  0.84546900  0.00811500  0.50000000  1
  Ge  Ge26  1  0.49188500  0.65453100  0.50000000  1
  Ge  Ge27  1  0.50811500  0.34546900  0.50000000  1
  Ge  Ge28  1  0.00811500  0.15453100  0.50000000  1
  Ge  Ge29  1  0.99188500  0.84546900  0.50000000  1
  Ir  Ir30  1  0.74684800  0.51886600  0.00000000  1
  Ir  Ir31  1  0.25315200  0.48113400  0.00000000  1
  Ir  Ir32  1  0.24684800  0.98113400  0.00000000  1
  Ir  Ir33  1  0.75315200  0.01886600  0.00000000  1
  Ir  Ir34  1  0.48113400  0.74684800  0.00000000  1
  Ir  Ir35  1  0.51886600  0.25315200  0.00000000  1
  Ir  Ir36  1  0.01886600  0.24684800  0.00000000  1
  Ir  Ir37  1  0.98113400  0.75315200  0.00000000  1
