# generated using pymatgen
data_CaUCu(PO7)2
_symmetry_space_group_name_H-M   'P 1'
_cell_length_a   7.07603500
_cell_length_b   12.70770300
_cell_length_c   13.09587925
_cell_angle_alpha   85.84408071
_cell_angle_beta   90.00000000
_cell_angle_gamma   90.00000000
_symmetry_Int_Tables_number   1
_chemical_formula_structural   CaUCu(PO7)2
_chemical_formula_sum   'Ca4 U4 Cu4 P8 O56'
_cell_volume   1174.48701934
_cell_formula_units_Z   4
loop_
 _symmetry_equiv_pos_site_id
 _symmetry_equiv_pos_as_xyz
  1  'x, y, z'
loop_
 _atom_site_type_symbol
 _atom_site_label
 _atom_site_symmetry_multiplicity
 _atom_site_fract_x
 _atom_site_fract_y
 _atom_site_fract_z
 _atom_site_occupancy
  Ca  Ca0  1  0.48344500  0.73863700  0.16876200  1
  Ca  Ca1  1  0.98344500  0.76136300  0.83123800  1
  Ca  Ca2  1  0.51655500  0.26136300  0.83123800  1
  Ca  Ca3  1  0.01655500  0.23863700  0.16876200  1
  U  U4  1  0.98178900  0.76266400  0.31470600  1
  U  U5  1  0.48178900  0.73733600  0.68529400  1
  U  U6  1  0.01821100  0.23733600  0.68529400  1
  U  U7  1  0.51821100  0.26266400  0.31470600  1
  Cu  Cu8  1  0.00000000  0.00000000  0.00000000  1
  Cu  Cu9  1  0.50000000  0.50000000  0.00000000  1
  Cu  Cu10  1  0.00000000  0.50000000  0.50000000  1
  Cu  Cu11  1  0.50000000  0.00000000  0.50000000  1
  P  P12  1  0.98323800  0.75178200  0.07572200  1
  P  P13  1  0.48323800  0.74821800  0.92427800  1
  P  P14  1  0.01676200  0.24821800  0.92427800  1
  P  P15  1  0.51676200  0.25178200  0.07572200  1
  P  P16  1  0.99031000  0.71884700  0.59672700  1
  P  P17  1  0.49031000  0.78115300  0.40327300  1
  P  P18  1  0.00969000  0.28115300  0.40327300  1
  P  P19  1  0.50969000  0.21884700  0.59672700  1
  O  O20  1  0.15401900  0.75286600  0.14963800  1
  O  O21  1  0.65401900  0.74713400  0.85036200  1
  O  O22  1  0.84598100  0.24713400  0.85036200  1
  O  O23  1  0.34598100  0.25286600  0.14963800  1
  O  O24  1  0.31216600  0.74716900  0.85099900  1
  O  O25  1  0.81216600  0.75283100  0.14900100  1
  O  O26  1  0.68783400  0.25283100  0.14900100  1
  O  O27  1  0.18783400  0.24716900  0.85099900  1
  O  O28  1  0.98616500  0.85150100  0.99412700  1
  O  O29  1  0.48616500  0.64849900  0.00587300  1
  O  O30  1  0.01383500  0.14849900  0.00587300  1
  O  O31  1  0.51383500  0.35150100  0.99412700  1
  O  O32  1  0.98200200  0.66568700  0.99981800  1
  O  O33  1  0.48200200  0.83431300  0.00018200  1
  O  O34  1  0.01799800  0.33431300  0.00018200  1
  O  O35  1  0.51799800  0.16568700  0.99981800  1
  O  O36  1  0.80693800  0.73180200  0.65929500  1
  O  O37  1  0.30693800  0.76819800  0.34070500  1
  O  O38  1  0.19306200  0.26819800  0.34070500  1
  O  O39  1  0.69306200  0.23180200  0.65929500  1
  O  O40  1  0.97445300  0.77098400  0.48803700  1
  O  O41  1  0.47445300  0.72901600  0.51196300  1
  O  O42  1  0.02554700  0.22901600  0.51196300  1
  O  O43  1  0.52554700  0.27098400  0.48803700  1
  O  O44  1  0.14965400  0.76471100  0.66154500  1
  O  O45  1  0.64965400  0.73528900  0.33845500  1
  O  O46  1  0.85034600  0.23528900  0.33845500  1
  O  O47  1  0.35034600  0.26471100  0.66154500  1
  O  O48  1  0.04066700  0.59766200  0.59794800  1
  O  O49  1  0.54066700  0.90233800  0.40205200  1
  O  O50  1  0.95933300  0.40233800  0.40205200  1
  O  O51  1  0.45933300  0.09766200  0.59794800  1
  O  O52  1  0.76168100  0.00432500  0.04283100  1
  O  O53  1  0.26168100  0.49567500  0.95716900  1
  O  O54  1  0.23831900  0.99567500  0.95716900  1
  O  O55  1  0.73831900  0.50432500  0.04283100  1
  O  O56  1  0.40592000  0.53402200  0.17192200  1
  O  O57  1  0.90592000  0.96597800  0.82807800  1
  O  O58  1  0.59408000  0.46597800  0.82807800  1
  O  O59  1  0.09408000  0.03402200  0.17192200  1
  O  O60  1  0.75176000  0.51134000  0.50039600  1
  O  O61  1  0.25176000  0.98866000  0.49960400  1
  O  O62  1  0.24824000  0.48866000  0.49960400  1
  O  O63  1  0.74824000  0.01134000  0.50039600  1
  O  O64  1  0.99951000  0.62039700  0.33511500  1
  O  O65  1  0.49951000  0.87960300  0.66488500  1
  O  O66  1  0.00049000  0.37960300  0.66488500  1
  O  O67  1  0.50049000  0.12039700  0.33511500  1
  O  O68  1  0.47863200  0.93409700  0.20256100  1
  O  O69  1  0.97863200  0.56590300  0.79743900  1
  O  O70  1  0.52136800  0.06590300  0.79743900  1
  O  O71  1  0.02136800  0.43409700  0.20256100  1
  O  O72  1  0.96523300  0.90593900  0.29286300  1
  O  O73  1  0.46523300  0.59406100  0.70713700  1
  O  O74  1  0.03476700  0.09406100  0.70713700  1
  O  O75  1  0.53476700  0.40593900  0.29286300  1
