# generated using pymatgen
data_Na2PrGeO5
_symmetry_space_group_name_H-M   'P 1'
_cell_length_a   6.86328900
_cell_length_b   7.65804600
_cell_length_c   9.62373500
_cell_angle_alpha   90.00000000
_cell_angle_beta   90.00000000
_cell_angle_gamma   90.00000000
_symmetry_Int_Tables_number   1
_chemical_formula_structural   Na2PrGeO5
_chemical_formula_sum   'Na8 Pr4 Ge4 O20'
_cell_volume   505.81757254
_cell_formula_units_Z   4
loop_
 _symmetry_equiv_pos_site_id
 _symmetry_equiv_pos_as_xyz
  1  'x, y, z'
loop_
 _atom_site_type_symbol
 _atom_site_label
 _atom_site_symmetry_multiplicity
 _atom_site_fract_x
 _atom_site_fract_y
 _atom_site_fract_z
 _atom_site_occupancy
  Na  Na0  1  0.86511800  0.03389200  0.32416700  1
  Na  Na1  1  0.63488200  0.46610800  0.82416700  1
  Na  Na2  1  0.13488200  0.53389200  0.67583300  1
  Na  Na3  1  0.36511800  0.96610800  0.17583300  1
  Na  Na4  1  0.13488200  0.96610800  0.67583300  1
  Na  Na5  1  0.36511800  0.53389200  0.17583300  1
  Na  Na6  1  0.86511800  0.46610800  0.32416700  1
  Na  Na7  1  0.63488200  0.03389200  0.82416700  1
  Pr  Pr8  1  0.87741800  0.75000000  0.04250900  1
  Pr  Pr9  1  0.62258200  0.75000000  0.54250900  1
  Pr  Pr10  1  0.12258200  0.25000000  0.95749100  1
  Pr  Pr11  1  0.37741800  0.25000000  0.45749100  1
  Ge  Ge12  1  0.67798100  0.25000000  0.09143600  1
  Ge  Ge13  1  0.82201900  0.25000000  0.59143600  1
  Ge  Ge14  1  0.32201900  0.75000000  0.90856400  1
  Ge  Ge15  1  0.17798100  0.75000000  0.40856400  1
  O  O16  1  0.83272300  0.06767200  0.06051500  1
  O  O17  1  0.66727700  0.43232800  0.56051500  1
  O  O18  1  0.16727700  0.56767200  0.93948500  1
  O  O19  1  0.33272300  0.93232800  0.43948500  1
  O  O20  1  0.16727700  0.93232800  0.93948500  1
  O  O21  1  0.33272300  0.56767200  0.43948500  1
  O  O22  1  0.83272300  0.43232800  0.06051500  1
  O  O23  1  0.66727700  0.06767200  0.56051500  1
  O  O24  1  0.60771300  0.25000000  0.26786800  1
  O  O25  1  0.89228700  0.25000000  0.76786800  1
  O  O26  1  0.39228700  0.75000000  0.73213200  1
  O  O27  1  0.10771300  0.75000000  0.23213200  1
  O  O28  1  0.72145600  0.75000000  0.28683100  1
  O  O29  1  0.77854400  0.75000000  0.78683100  1
  O  O30  1  0.27854400  0.25000000  0.71316900  1
  O  O31  1  0.22145600  0.25000000  0.21316900  1
  O  O32  1  0.02211200  0.25000000  0.47689200  1
  O  O33  1  0.47788800  0.25000000  0.97689200  1
  O  O34  1  0.97788800  0.75000000  0.52310800  1
  O  O35  1  0.52211200  0.75000000  0.02310800  1
