# generated using pymatgen
data_SiC
_symmetry_space_group_name_H-M   'P 1'
_cell_length_a   3.09791827
_cell_length_b   3.09791800
_cell_length_c   70.75363045
_cell_angle_alpha   88.74556396
_cell_angle_beta   88.74556392
_cell_angle_gamma   60.00000290
_symmetry_Int_Tables_number   1
_chemical_formula_structural   SiC
_chemical_formula_sum   'Si28 C28'
_cell_volume   587.86883800
_cell_formula_units_Z   28
loop_
 _symmetry_equiv_pos_site_id
 _symmetry_equiv_pos_as_xyz
  1  'x, y, z'
loop_
 _atom_site_type_symbol
 _atom_site_label
 _atom_site_symmetry_multiplicity
 _atom_site_fract_x
 _atom_site_fract_y
 _atom_site_fract_z
 _atom_site_occupancy
  Si  Si0  1  0.99988100  0.99988100  0.00035700  1
  Si  Si1  1  0.03560800  0.03560800  0.89317700  1
  Si  Si2  1  0.07142300  0.07142300  0.78573200  1
  Si  Si3  1  0.10721400  0.10721400  0.67835700  1
  Si  Si4  1  0.14284400  0.14284400  0.57146800  1
  Si  Si5  1  0.17861300  0.17861300  0.46416200  1
  Si  Si6  1  0.21434100  0.21434100  0.35697700  1
  Si  Si7  1  0.25010900  0.25010900  0.24967300  1
  Si  Si8  1  0.29762300  0.29762300  0.10713000  1
  Si  Si9  1  0.32137800  0.32137800  0.03586600  1
  Si  Si10  1  0.34508200  0.34508200  0.96475500  1
  Si  Si11  1  0.39280500  0.39280500  0.82158500  1
  Si  Si12  1  0.41669800  0.41669800  0.74990700  1
  Si  Si13  1  0.46429400  0.46429400  0.60711800  1
  Si  Si14  1  0.48808000  0.48808000  0.53576000  1
  Si  Si15  1  0.53577500  0.53577500  0.39267600  1
  Si  Si16  1  0.55957800  0.55957800  0.32126500  1
  Si  Si17  1  0.60721400  0.60721400  0.17835800  1
  Si  Si18  1  0.64285000  0.64285000  0.07145100  1
  Si  Si19  1  0.69032500  0.69032500  0.92902600  1
  Si  Si20  1  0.71422000  0.71422000  0.85734000  1
  Si  Si21  1  0.76195900  0.76195900  0.71412400  1
  Si  Si22  1  0.78576400  0.78576400  0.64270800  1
  Si  Si23  1  0.83332900  0.83332900  0.50001300  1
  Si  Si24  1  0.85722200  0.85722200  0.42833500  1
  Si  Si25  1  0.90483600  0.90483600  0.28549200  1
  Si  Si26  1  0.92866500  0.92866500  0.21400600  1
  Si  Si27  1  0.95242600  0.95242600  0.14272100  1
  C  C28  1  0.00883000  0.00883000  0.97351100  1
  C  C29  1  0.04460100  0.04460100  0.86619600  1
  C  C30  1  0.08040700  0.08040700  0.75877800  1
  C  C31  1  0.11618200  0.11618200  0.65145500  1
  C  C32  1  0.15180700  0.15180700  0.54457800  1
  C  C33  1  0.18759300  0.18759300  0.43722100  1
  C  C34  1  0.22329300  0.22329300  0.33012000  1
  C  C35  1  0.25906800  0.25906800  0.22279500  1
  C  C36  1  0.30656800  0.30656800  0.08029700  1
  C  C37  1  0.33029300  0.33029300  0.00912200  1
  C  C38  1  0.35403900  0.35403900  0.93788400  1
  C  C39  1  0.40176600  0.40176600  0.79470300  1
  C  C40  1  0.42566100  0.42566100  0.72301800  1
  C  C41  1  0.47322600  0.47322600  0.58032100  1
  C  C42  1  0.49702900  0.49702900  0.50891300  1
  C  C43  1  0.54470600  0.54470600  0.36588200  1
  C  C44  1  0.56852800  0.56852800  0.29441700  1
  C  C45  1  0.61616500  0.61616500  0.15150600  1
  C  C46  1  0.65181000  0.65181000  0.04457000  1
  C  C47  1  0.69929700  0.69929700  0.90211000  1
  C  C48  1  0.72318100  0.72318100  0.83045800  1
  C  C49  1  0.77091200  0.77091200  0.68726400  1
  C  C50  1  0.79469700  0.79469700  0.61590800  1
  C  C51  1  0.84229000  0.84229000  0.47313000  1
  C  C52  1  0.86616400  0.86616400  0.40150800  1
  C  C53  1  0.91378700  0.91378700  0.25864000  1
  C  C54  1  0.93758000  0.93758000  0.18726000  1
  C  C55  1  0.96136800  0.96136800  0.11589700  1
