# generated using pymatgen
data_Sm4GaSbS9
_symmetry_space_group_name_H-M   'P 1'
_cell_length_a   10.04908990
_cell_length_b   10.04908990
_cell_length_c   13.72453400
_cell_angle_alpha   90.00000000
_cell_angle_beta   90.00000000
_cell_angle_gamma   90.85568963
_symmetry_Int_Tables_number   1
_chemical_formula_structural   Sm4GaSbS9
_chemical_formula_sum   'Sm16 Ga4 Sb4 S36'
_cell_volume   1385.80663146
_cell_formula_units_Z   4
loop_
 _symmetry_equiv_pos_site_id
 _symmetry_equiv_pos_as_xyz
  1  'x, y, z'
loop_
 _atom_site_type_symbol
 _atom_site_label
 _atom_site_symmetry_multiplicity
 _atom_site_fract_x
 _atom_site_fract_y
 _atom_site_fract_z
 _atom_site_occupancy
  Sm  Sm0  1  0.09149800  0.12651100  0.18553200  1
  Sm  Sm1  1  0.87348900  0.90850200  0.81446800  1
  Sm  Sm2  1  0.59149800  0.62651100  0.31446800  1
  Sm  Sm3  1  0.37348900  0.40850200  0.68553200  1
  Sm  Sm4  1  0.32225400  0.33411100  0.39886500  1
  Sm  Sm5  1  0.66588900  0.67774600  0.60113500  1
  Sm  Sm6  1  0.82225400  0.83411100  0.10113500  1
  Sm  Sm7  1  0.16588900  0.17774600  0.89886500  1
  Sm  Sm8  1  0.04429400  0.62435600  0.31902700  1
  Sm  Sm9  1  0.37564400  0.95570600  0.68097300  1
  Sm  Sm10  1  0.54429400  0.12435600  0.18097300  1
  Sm  Sm11  1  0.87564400  0.45570600  0.81902700  1
  Sm  Sm12  1  0.32657300  0.44972700  0.10383300  1
  Sm  Sm13  1  0.55027300  0.67342700  0.89616700  1
  Sm  Sm14  1  0.82657300  0.94972700  0.39616700  1
  Sm  Sm15  1  0.05027300  0.17342700  0.60383300  1
  Ga  Ga16  1  0.82543000  0.38406200  0.09233200  1
  Ga  Ga17  1  0.61593800  0.17457000  0.90766800  1
  Ga  Ga18  1  0.32543000  0.88406200  0.40766800  1
  Ga  Ga19  1  0.11593800  0.67457000  0.59233200  1
  Sb  Sb20  1  0.83176400  0.32631400  0.38704600  1
  Sb  Sb21  1  0.67368600  0.16823600  0.61295400  1
  Sb  Sb22  1  0.33176400  0.82631400  0.11295400  1
  Sb  Sb23  1  0.17368600  0.66823600  0.88704600  1
  S  S24  1  0.01432000  0.16396500  0.40021100  1
  S  S25  1  0.83603500  0.98568000  0.59978900  1
  S  S26  1  0.51432000  0.66396500  0.09978900  1
  S  S27  1  0.33603500  0.48568000  0.90021100  1
  S  S28  1  0.14717700  0.66619200  0.08078400  1
  S  S29  1  0.33380800  0.85282300  0.91921600  1
  S  S30  1  0.64717700  0.16619200  0.41921600  1
  S  S31  1  0.83380800  0.35282300  0.58078400  1
  S  S32  1  0.81909400  0.20562100  0.19899200  1
  S  S33  1  0.79437900  0.18090600  0.80100800  1
  S  S34  1  0.31909400  0.70562100  0.30100800  1
  S  S35  1  0.29437900  0.68090600  0.69899200  1
  S  S36  1  0.82223200  0.57194200  0.19047700  1
  S  S37  1  0.42805800  0.17776800  0.80952300  1
  S  S38  1  0.32223200  0.07194200  0.30952300  1
  S  S39  1  0.92805800  0.67776800  0.69047700  1
  S  S40  1  0.13069200  0.86930800  0.50000000  1
  S  S41  1  0.63069200  0.36930800  0.00000000  1
  S  S42  1  0.11973500  0.48980200  0.49382500  1
  S  S43  1  0.51019800  0.88026500  0.50617500  1
  S  S44  1  0.61973500  0.98980200  0.00617500  1
  S  S45  1  0.01019800  0.38026500  0.99382500  1
  S  S46  1  0.81496300  0.67963600  0.43181500  1
  S  S47  1  0.32036400  0.18503700  0.56818500  1
  S  S48  1  0.31496300  0.17963600  0.06818500  1
  S  S49  1  0.82036400  0.68503700  0.93181500  1
  S  S50  1  0.00453900  0.88050600  0.24968400  1
  S  S51  1  0.11949400  0.99546100  0.75031600  1
  S  S52  1  0.50453900  0.38050600  0.25031600  1
  S  S53  1  0.61949400  0.49546100  0.74968400  1
  S  S54  1  0.49975200  0.50024800  0.50000000  1
  S  S55  1  0.99975200  0.00024800  0.00000000  1
  S  S56  1  0.14236600  0.38891700  0.24670800  1
  S  S57  1  0.61108300  0.85763400  0.75329200  1
  S  S58  1  0.64236600  0.88891700  0.25329200  1
  S  S59  1  0.11108300  0.35763400  0.74670800  1
