# generated using pymatgen
data_K2TeO6
_symmetry_space_group_name_H-M   'P 1'
_cell_length_a   6.98015500
_cell_length_b   7.49916900
_cell_length_c   13.11843400
_cell_angle_alpha   90.00000000
_cell_angle_beta   90.00000000
_cell_angle_gamma   90.00000000
_symmetry_Int_Tables_number   1
_chemical_formula_structural   K2TeO6
_chemical_formula_sum   'K8 Te4 O24'
_cell_volume   686.68917649
_cell_formula_units_Z   4
loop_
 _symmetry_equiv_pos_site_id
 _symmetry_equiv_pos_as_xyz
  1  'x, y, z'
loop_
 _atom_site_type_symbol
 _atom_site_label
 _atom_site_symmetry_multiplicity
 _atom_site_fract_x
 _atom_site_fract_y
 _atom_site_fract_z
 _atom_site_occupancy
  K  K0  1  0.75000000  0.98009100  0.40009300  1
  K  K1  1  0.75000000  0.48009100  0.09990700  1
  K  K2  1  0.25000000  0.01990900  0.59990700  1
  K  K3  1  0.25000000  0.51990900  0.90009300  1
  K  K4  1  0.75000000  0.48437600  0.42780200  1
  K  K5  1  0.75000000  0.98437600  0.07219800  1
  K  K6  1  0.25000000  0.51562400  0.57219800  1
  K  K7  1  0.25000000  0.01562400  0.92780200  1
  Te  Te8  1  0.75000000  0.50968600  0.71380200  1
  Te  Te9  1  0.75000000  0.00968600  0.78619800  1
  Te  Te10  1  0.25000000  0.49031400  0.28619800  1
  Te  Te11  1  0.25000000  0.99031400  0.21380200  1
  O  O12  1  0.75000000  0.17958000  0.89364000  1
  O  O13  1  0.75000000  0.67958000  0.60636000  1
  O  O14  1  0.25000000  0.82042000  0.10636000  1
  O  O15  1  0.25000000  0.32042000  0.39364000  1
  O  O16  1  0.95802700  0.36144900  0.67231000  1
  O  O17  1  0.54197300  0.86144900  0.82769000  1
  O  O18  1  0.45802700  0.63855100  0.32769000  1
  O  O19  1  0.04197300  0.13855100  0.17231000  1
  O  O20  1  0.04197300  0.63855100  0.32769000  1
  O  O21  1  0.45802700  0.13855100  0.17231000  1
  O  O22  1  0.54197300  0.36144900  0.67231000  1
  O  O23  1  0.95802700  0.86144900  0.82769000  1
  O  O24  1  0.98641400  0.22836800  0.50673100  1
  O  O25  1  0.51358600  0.72836800  0.99326900  1
  O  O26  1  0.48641400  0.77163200  0.49326900  1
  O  O27  1  0.01358600  0.27163200  0.00673100  1
  O  O28  1  0.01358600  0.77163200  0.49326900  1
  O  O29  1  0.48641400  0.27163200  0.00673100  1
  O  O30  1  0.51358600  0.22836800  0.50673100  1
  O  O31  1  0.98641400  0.72836800  0.99326900  1
  O  O32  1  0.25000000  0.26270100  0.75392300  1
  O  O33  1  0.25000000  0.76270100  0.74607700  1
  O  O34  1  0.75000000  0.73729900  0.24607700  1
  O  O35  1  0.75000000  0.23729900  0.25392300  1
