# generated using pymatgen
data_CdH4CS2(NO3)2
_symmetry_space_group_name_H-M   'P 1'
_cell_length_a   7.80212700
_cell_length_b   13.04714800
_cell_length_c   16.51096700
_cell_angle_alpha   90.00000000
_cell_angle_beta   90.00000000
_cell_angle_gamma   90.00000000
_symmetry_Int_Tables_number   1
_chemical_formula_structural   CdH4CS2(NO3)2
_chemical_formula_sum   'Cd8 H32 C8 S16 N16 O48'
_cell_volume   1680.74223509
_cell_formula_units_Z   8
loop_
 _symmetry_equiv_pos_site_id
 _symmetry_equiv_pos_as_xyz
  1  'x, y, z'
loop_
 _atom_site_type_symbol
 _atom_site_label
 _atom_site_symmetry_multiplicity
 _atom_site_fract_x
 _atom_site_fract_y
 _atom_site_fract_z
 _atom_site_occupancy
  Cd  Cd0  1  0.81936300  0.31758200  0.33215900  1
  Cd  Cd1  1  0.68063700  0.81758200  0.66784100  1
  Cd  Cd2  1  0.31936300  0.68241800  0.16784100  1
  Cd  Cd3  1  0.18063700  0.18241800  0.83215900  1
  Cd  Cd4  1  0.18063700  0.68241800  0.66784100  1
  Cd  Cd5  1  0.31936300  0.18241800  0.33215900  1
  Cd  Cd6  1  0.68063700  0.31758200  0.83215900  1
  Cd  Cd7  1  0.81936300  0.81758200  0.16784100  1
  H  H8  1  0.70736300  0.27706800  0.03936600  1
  H  H9  1  0.79263700  0.77706800  0.96063400  1
  H  H10  1  0.20736300  0.72293200  0.46063400  1
  H  H11  1  0.29263700  0.22293200  0.53936600  1
  H  H12  1  0.29263700  0.72293200  0.96063400  1
  H  H13  1  0.20736300  0.22293200  0.03936600  1
  H  H14  1  0.79263700  0.27706800  0.53936600  1
  H  H15  1  0.70736300  0.77706800  0.46063400  1
  H  H16  1  0.66848600  0.38167500  0.10374300  1
  H  H17  1  0.83151400  0.88167500  0.89625700  1
  H  H18  1  0.16848600  0.61832500  0.39625700  1
  H  H19  1  0.33151400  0.11832500  0.60374300  1
  H  H20  1  0.33151400  0.61832500  0.89625700  1
  H  H21  1  0.16848600  0.11832500  0.10374300  1
  H  H22  1  0.83151400  0.38167500  0.60374300  1
  H  H23  1  0.66848600  0.88167500  0.39625700  1
  H  H24  1  0.65715700  0.10640700  0.09017000  1
  H  H25  1  0.84284300  0.60640700  0.90983000  1
  H  H26  1  0.15715700  0.89359300  0.40983000  1
  H  H27  1  0.34284300  0.39359300  0.59017000  1
  H  H28  1  0.34284300  0.89359300  0.90983000  1
  H  H29  1  0.15715700  0.39359300  0.09017000  1
  H  H30  1  0.84284300  0.10640700  0.59017000  1
  H  H31  1  0.65715700  0.60640700  0.40983000  1
  H  H32  1  0.55231300  0.09503600  0.18670200  1
  H  H33  1  0.94768700  0.59503600  0.81329800  1
  H  H34  1  0.05231300  0.90496400  0.31329800  1
  H  H35  1  0.44768700  0.40496400  0.68670200  1
  H  H36  1  0.44768700  0.90496400  0.81329800  1
  H  H37  1  0.05231300  0.40496400  0.18670200  1
  H  H38  1  0.94768700  0.09503600  0.68670200  1
  H  H39  1  0.55231300  0.59503600  0.31329800  1
  C  C40  1  0.61005000  0.24012900  0.15072200  1
  C  C41  1  0.88995000  0.74012900  0.84927800  1
  C  C42  1  0.11005000  0.75987100  0.34927800  1
  C  C43  1  0.38995000  0.25987100  0.65072200  1
  C  C44  1  0.38995000  0.75987100  0.84927800  1
  C  C45  1  0.11005000  0.25987100  0.15072200  1
  C  C46  1  0.88995000  0.24012900  0.65072200  1
  C  C47  1  0.61005000  0.74012900  0.34927800  1
  S  S48  1  0.53441500  0.29813000  0.24077200  1
  S  S49  1  0.96558500  0.79813000  0.75922800  1
  S  S50  1  0.03441500  0.70187000  0.25922800  1
  S  S51  1  0.46558500  0.20187000  0.74077200  1
  S  S52  1  0.46558500  0.70187000  0.75922800  1
  S  S53  1  0.03441500  0.20187000  0.24077200  1
  S  S54  1  0.96558500  0.29813000  0.74077200  1
  S  S55  1  0.53441500  0.79813000  0.25922800  1
  S  S56  1  0.69099600  0.09144500  0.42660900  1
  S  S57  1  0.80900400  0.59144500  0.57339100  1
  S  S58  1  0.19099600  0.90855500  0.07339100  1
  S  S59  1  0.30900400  0.40855500  0.92660900  1
  S  S60  1  0.30900400  0.90855500  0.57339100  1
  S  S61  1  0.19099600  0.40855500  0.42660900  1
  S  S62  1  0.80900400  0.09144500  0.92660900  1
  S  S63  1  0.69099600  0.59144500  0.07339100  1
  N  N64  1  0.66892500  0.30335000  0.09460100  1
  N  N65  1  0.83107500  0.80335000  0.90539900  1
  N  N66  1  0.16892500  0.69665000  0.40539900  1
  N  N67  1  0.33107500  0.19665000  0.59460100  1
  N  N68  1  0.33107500  0.69665000  0.90539900  1
  N  N69  1  0.16892500  0.19665000  0.09460100  1
  N  N70  1  0.83107500  0.30335000  0.59460100  1
  N  N71  1  0.66892500  0.80335000  0.40539900  1
  N  N72  1  0.60733600  0.13977500  0.14177300  1
  N  N73  1  0.89266400  0.63977500  0.85822700  1
  N  N74  1  0.10733600  0.86022500  0.35822700  1
  N  N75  1  0.39266400  0.36022500  0.64177300  1
  N  N76  1  0.39266400  0.86022500  0.85822700  1
  N  N77  1  0.10733600  0.36022500  0.14177300  1
  N  N78  1  0.89266400  0.13977500  0.64177300  1
  N  N79  1  0.60733600  0.63977500  0.35822700  1
  O  O80  1  0.92424700  0.45020700  0.26544400  1
  O  O81  1  0.57575300  0.95020700  0.73455600  1
  O  O82  1  0.42424700  0.54979300  0.23455600  1
  O  O83  1  0.07575300  0.04979300  0.76544400  1
  O  O84  1  0.07575300  0.54979300  0.73455600  1
  O  O85  1  0.42424700  0.04979300  0.26544400  1
  O  O86  1  0.57575300  0.45020700  0.76544400  1
  O  O87  1  0.92424700  0.95020700  0.23455600  1
  O  O88  1  0.65353000  0.37091000  0.43962100  1
  O  O89  1  0.84647000  0.87091000  0.56037900  1
  O  O90  1  0.15353000  0.62909000  0.06037900  1
  O  O91  1  0.34647000  0.12909000  0.93962100  1
  O  O92  1  0.34647000  0.62909000  0.56037900  1
  O  O93  1  0.15353000  0.12909000  0.43962100  1
  O  O94  1  0.84647000  0.37091000  0.93962100  1
  O  O95  1  0.65353000  0.87091000  0.06037900  1
  O  O96  1  0.83253700  0.16701300  0.40537300  1
  O  O97  1  0.66746300  0.66701300  0.59462700  1
  O  O98  1  0.33253700  0.83298700  0.09462700  1
  O  O99  1  0.16746300  0.33298700  0.90537300  1
  O  O100  1  0.16746300  0.83298700  0.59462700  1
  O  O101  1  0.33253700  0.33298700  0.40537300  1
  O  O102  1  0.66746300  0.16701300  0.90537300  1
  O  O103  1  0.83253700  0.66701300  0.09462700  1
  O  O104  1  0.72907200  0.04825100  0.50738400  1
  O  O105  1  0.77092800  0.54825100  0.49261600  1
  O  O106  1  0.22907200  0.95174900  0.99261600  1
  O  O107  1  0.27092800  0.45174900  0.00738400  1
  O  O108  1  0.27092800  0.95174900  0.49261600  1
  O  O109  1  0.22907200  0.45174900  0.50738400  1
  O  O110  1  0.77092800  0.04825100  0.00738400  1
  O  O111  1  0.72907200  0.54825100  0.99261600  1
  O  O112  1  0.68065800  0.01064400  0.36368000  1
  O  O113  1  0.81934200  0.51064400  0.63632000  1
  O  O114  1  0.18065800  0.98935600  0.13632000  1
  O  O115  1  0.31934200  0.48935600  0.86368000  1
  O  O116  1  0.31934200  0.98935600  0.63632000  1
  O  O117  1  0.18065800  0.48935600  0.36368000  1
  O  O118  1  0.81934200  0.01064400  0.86368000  1
  O  O119  1  0.68065800  0.51064400  0.13632000  1
  O  O120  1  0.52871400  0.15181800  0.43022700  1
  O  O121  1  0.97128600  0.65181800  0.56977300  1
  O  O122  1  0.02871400  0.84818200  0.06977300  1
  O  O123  1  0.47128600  0.34818200  0.93022700  1
  O  O124  1  0.47128600  0.84818200  0.56977300  1
  O  O125  1  0.02871400  0.34818200  0.43022700  1
  O  O126  1  0.97128600  0.15181800  0.93022700  1
  O  O127  1  0.52871400  0.65181800  0.06977300  1
