# generated using pymatgen
data_CeP5N2O15
_symmetry_space_group_name_H-M   'P 1'
_cell_length_a   7.22362621
_cell_length_b   7.22362621
_cell_length_c   13.16131538
_cell_angle_alpha   88.17148878
_cell_angle_beta   88.17148878
_cell_angle_gamma   107.84201438
_symmetry_Int_Tables_number   1
_chemical_formula_structural   CeP5N2O15
_chemical_formula_sum   'Ce2 P10 N4 O30'
_cell_volume   652.77722593
_cell_formula_units_Z   2
loop_
 _symmetry_equiv_pos_site_id
 _symmetry_equiv_pos_as_xyz
  1  'x, y, z'
loop_
 _atom_site_type_symbol
 _atom_site_label
 _atom_site_symmetry_multiplicity
 _atom_site_fract_x
 _atom_site_fract_y
 _atom_site_fract_z
 _atom_site_occupancy
  Ce  Ce0  1  0.10823900  0.91582900  0.25131400  1
  Ce  Ce1  1  0.91582900  0.10823900  0.75131400  1
  P  P2  1  0.39730600  0.00016800  0.01196500  1
  P  P3  1  0.00016800  0.39730600  0.51196500  1
  P  P4  1  0.55200100  0.79720800  0.33646700  1
  P  P5  1  0.79720800  0.55200100  0.83646700  1
  P  P6  1  0.81289900  0.02077100  0.03209300  1
  P  P7  1  0.02077100  0.81289900  0.53209300  1
  P  P8  1  0.79814500  0.62018200  0.06034600  1
  P  P9  1  0.62018200  0.79814500  0.56034600  1
  P  P10  1  0.22533200  0.44287800  0.32518200  1
  P  P11  1  0.44287800  0.22533200  0.82518200  1
  N  N12  1  0.66750400  0.37017200  0.20827800  1
  N  N13  1  0.37017200  0.66750400  0.70827800  1
  N  N14  1  0.25423900  0.47355900  0.05642900  1
  N  N15  1  0.47355900  0.25423900  0.55642900  1
  O  O16  1  0.70654100  0.78192800  0.02895200  1
  O  O17  1  0.78192800  0.70654100  0.52895200  1
  O  O18  1  0.09188800  0.91220800  0.42938300  1
  O  O19  1  0.91220800  0.09188800  0.92938300  1
  O  O20  1  0.45562700  0.56681200  0.32429300  1
  O  O21  1  0.56681200  0.45562700  0.82429300  1
  O  O22  1  0.11617500  0.57925200  0.29169000  1
  O  O23  1  0.57925200  0.11617500  0.79169000  1
  O  O24  1  0.20803300  0.25677200  0.27266900  1
  O  O25  1  0.25677200  0.20803300  0.77266900  1
  O  O26  1  0.62174300  0.45957500  0.12632900  1
  O  O27  1  0.45957500  0.62174300  0.62632900  1
  O  O28  1  0.62386600  0.08479400  0.04342700  1
  O  O29  1  0.08479400  0.62386600  0.54342700  1
  O  O30  1  0.51571400  0.81834300  0.46052300  1
  O  O31  1  0.81834300  0.51571400  0.96052300  1
  O  O32  1  0.92761200  0.06255000  0.12497600  1
  O  O33  1  0.06255000  0.92761200  0.62497600  1
  O  O34  1  0.97232000  0.68295500  0.12145500  1
  O  O35  1  0.68295500  0.97232000  0.62145500  1
  O  O36  1  0.82057800  0.34797700  0.45548200  1
  O  O37  1  0.34797700  0.82057800  0.95548200  1
  O  O38  1  0.18615300  0.38440600  0.44482100  1
  O  O39  1  0.38440600  0.18615300  0.94482100  1
  O  O40  1  0.43510500  0.91211400  0.28846500  1
  O  O41  1  0.91211400  0.43510500  0.78846500  1
  O  O42  1  0.76407300  0.84103000  0.31021600  1
  O  O43  1  0.84103000  0.76407300  0.81021600  1
  O  O44  1  0.29045000  0.01017600  0.11184400  1
  O  O45  1  0.01017600  0.29045000  0.61184400  1
