# generated using pymatgen
data_Yb3C4
_symmetry_space_group_name_H-M   'P 1'
_cell_length_a   8.21493100
_cell_length_b   8.21493100
_cell_length_c   16.28081600
_cell_angle_alpha   90.00000000
_cell_angle_beta   90.00000000
_cell_angle_gamma   90.00000000
_symmetry_Int_Tables_number   1
_chemical_formula_structural   Yb3C4
_chemical_formula_sum   'Yb30 C40'
_cell_volume   1098.71235476
_cell_formula_units_Z   10
loop_
 _symmetry_equiv_pos_site_id
 _symmetry_equiv_pos_as_xyz
  1  'x, y, z'
loop_
 _atom_site_type_symbol
 _atom_site_label
 _atom_site_symmetry_multiplicity
 _atom_site_fract_x
 _atom_site_fract_y
 _atom_site_fract_z
 _atom_site_occupancy
  Yb  Yb0  1  0.50000000  0.50000000  0.50000000  1
  Yb  Yb1  1  0.00000000  0.00000000  0.00000000  1
  Yb  Yb2  1  0.50000000  0.50000000  0.18802000  1
  Yb  Yb3  1  0.00000000  0.00000000  0.68802000  1
  Yb  Yb4  1  0.50000000  0.50000000  0.81198000  1
  Yb  Yb5  1  0.00000000  0.00000000  0.31198000  1
  Yb  Yb6  1  0.69484600  0.90255500  0.50000000  1
  Yb  Yb7  1  0.30515400  0.09744500  0.50000000  1
  Yb  Yb8  1  0.80515400  0.40255500  0.00000000  1
  Yb  Yb9  1  0.19484600  0.59744500  0.00000000  1
  Yb  Yb10  1  0.90255500  0.30515400  0.50000000  1
  Yb  Yb11  1  0.09744500  0.69484600  0.50000000  1
  Yb  Yb12  1  0.40255500  0.19484600  0.00000000  1
  Yb  Yb13  1  0.59744500  0.80515400  0.00000000  1
  Yb  Yb14  1  0.79529200  0.60414800  0.34649900  1
  Yb  Yb15  1  0.20470800  0.39585200  0.34649900  1
  Yb  Yb16  1  0.70470800  0.10414800  0.84649900  1
  Yb  Yb17  1  0.29529200  0.89585200  0.84649900  1
  Yb  Yb18  1  0.60414800  0.20470800  0.34649900  1
  Yb  Yb19  1  0.39585200  0.79529200  0.34649900  1
  Yb  Yb20  1  0.10414800  0.29529200  0.84649900  1
  Yb  Yb21  1  0.89585200  0.70470800  0.84649900  1
  Yb  Yb22  1  0.20470800  0.39585200  0.65350100  1
  Yb  Yb23  1  0.79529200  0.60414800  0.65350100  1
  Yb  Yb24  1  0.29529200  0.89585200  0.15350100  1
  Yb  Yb25  1  0.70470800  0.10414800  0.15350100  1
  Yb  Yb26  1  0.39585200  0.79529200  0.65350100  1
  Yb  Yb27  1  0.60414800  0.20470800  0.65350100  1
  Yb  Yb28  1  0.89585200  0.70470800  0.15350100  1
  Yb  Yb29  1  0.10414800  0.29529200  0.15350100  1
  C  C30  1  0.50000000  0.50000000  0.96145900  1
  C  C31  1  0.00000000  0.00000000  0.46145900  1
  C  C32  1  0.50000000  0.50000000  0.03854100  1
  C  C33  1  0.00000000  0.00000000  0.53854100  1
  C  C34  1  0.50000000  0.50000000  0.34693500  1
  C  C35  1  0.00000000  0.00000000  0.84693500  1
  C  C36  1  0.50000000  0.50000000  0.65306500  1
  C  C37  1  0.00000000  0.00000000  0.15306500  1
  C  C38  1  0.60292400  0.20093700  0.50000000  1
  C  C39  1  0.39707600  0.79906300  0.50000000  1
  C  C40  1  0.89707600  0.70093700  0.00000000  1
  C  C41  1  0.10292400  0.29906300  0.00000000  1
  C  C42  1  0.20093700  0.39707600  0.50000000  1
  C  C43  1  0.79906300  0.60292400  0.50000000  1
  C  C44  1  0.70093700  0.10292400  0.00000000  1
  C  C45  1  0.29906300  0.89707600  0.00000000  1
  C  C46  1  0.69733300  0.90536000  0.32349700  1
  C  C47  1  0.30266700  0.09464000  0.32349700  1
  C  C48  1  0.80266700  0.40536000  0.82349700  1
  C  C49  1  0.19733300  0.59464000  0.82349700  1
  C  C50  1  0.90536000  0.30266700  0.32349700  1
  C  C51  1  0.09464000  0.69733300  0.32349700  1
  C  C52  1  0.40536000  0.19733300  0.82349700  1
  C  C53  1  0.59464000  0.80266700  0.82349700  1
  C  C54  1  0.30266700  0.09464000  0.67650300  1
  C  C55  1  0.69733300  0.90536000  0.67650300  1
  C  C56  1  0.19733300  0.59464000  0.17650300  1
  C  C57  1  0.80266700  0.40536000  0.17650300  1
  C  C58  1  0.09464000  0.69733300  0.67650300  1
  C  C59  1  0.90536000  0.30266700  0.67650300  1
  C  C60  1  0.59464000  0.80266700  0.17650300  1
  C  C61  1  0.40536000  0.19733300  0.17650300  1
  C  C62  1  0.64852600  0.85147400  0.25000000  1
  C  C63  1  0.35147400  0.14852600  0.25000000  1
  C  C64  1  0.85147400  0.35147400  0.75000000  1
  C  C65  1  0.14852600  0.64852600  0.75000000  1
  C  C66  1  0.85147400  0.35147400  0.25000000  1
  C  C67  1  0.14852600  0.64852600  0.25000000  1
  C  C68  1  0.35147400  0.14852600  0.75000000  1
  C  C69  1  0.64852600  0.85147400  0.75000000  1
