# generated using pymatgen
data_Eu2Sb3
_symmetry_space_group_name_H-M   'P 1'
_cell_length_a   12.63661300
_cell_length_b   6.61351400
_cell_length_c   14.84996833
_cell_angle_alpha   89.98785790
_cell_angle_beta   90.00000000
_cell_angle_gamma   90.00000000
_symmetry_Int_Tables_number   1
_chemical_formula_structural   Eu2Sb3
_chemical_formula_sum   'Eu16 Sb24'
_cell_volume   1241.04771796
_cell_formula_units_Z   8
loop_
 _symmetry_equiv_pos_site_id
 _symmetry_equiv_pos_as_xyz
  1  'x, y, z'
loop_
 _atom_site_type_symbol
 _atom_site_label
 _atom_site_symmetry_multiplicity
 _atom_site_fract_x
 _atom_site_fract_y
 _atom_site_fract_z
 _atom_site_occupancy
  Eu  Eu0  1  0.77909000  0.00057600  0.74622400  1
  Eu  Eu1  1  0.27909000  0.99942400  0.75377600  1
  Eu  Eu2  1  0.22091000  0.99942400  0.25377600  1
  Eu  Eu3  1  0.72091000  0.00057600  0.24622400  1
  Eu  Eu4  1  0.97162800  0.49819300  0.75207600  1
  Eu  Eu5  1  0.47162800  0.50180700  0.74792400  1
  Eu  Eu6  1  0.02837200  0.50180700  0.24792400  1
  Eu  Eu7  1  0.52837200  0.49819300  0.25207600  1
  Eu  Eu8  1  0.87589900  0.25245800  0.99827500  1
  Eu  Eu9  1  0.37589900  0.74754200  0.50172500  1
  Eu  Eu10  1  0.12410100  0.74754200  0.00172500  1
  Eu  Eu11  1  0.62410100  0.25245800  0.49827500  1
  Eu  Eu12  1  0.87325400  0.75085700  0.49606600  1
  Eu  Eu13  1  0.37325400  0.24914300  0.00393400  1
  Eu  Eu14  1  0.12674600  0.24914300  0.50393400  1
  Eu  Eu15  1  0.62674600  0.75085700  0.99606600  1
  Sb  Sb16  1  0.87826100  0.75603800  0.93041500  1
  Sb  Sb17  1  0.37826100  0.24396200  0.56958500  1
  Sb  Sb18  1  0.12173900  0.24396200  0.06958500  1
  Sb  Sb19  1  0.62173900  0.75603800  0.43041500  1
  Sb  Sb20  1  0.53674400  0.94919300  0.65756400  1
  Sb  Sb21  1  0.03674400  0.05080700  0.84243600  1
  Sb  Sb22  1  0.46325600  0.05080700  0.34243600  1
  Sb  Sb23  1  0.96325600  0.94919300  0.15756400  1
  Sb  Sb24  1  0.04201400  0.92261500  0.65147200  1
  Sb  Sb25  1  0.54201400  0.07738500  0.84852800  1
  Sb  Sb26  1  0.95798600  0.07738500  0.34852800  1
  Sb  Sb27  1  0.45798600  0.92261500  0.15147200  1
  Sb  Sb28  1  0.70699600  0.42681400  0.84537400  1
  Sb  Sb29  1  0.20699600  0.57318600  0.65462600  1
  Sb  Sb30  1  0.29300400  0.57318600  0.15462600  1
  Sb  Sb31  1  0.79300400  0.42681400  0.34537400  1
  Sb  Sb32  1  0.71398100  0.55715700  0.65495500  1
  Sb  Sb33  1  0.21398100  0.44284300  0.84504500  1
  Sb  Sb34  1  0.28601900  0.44284300  0.34504500  1
  Sb  Sb35  1  0.78601900  0.55715700  0.15495500  1
  Sb  Sb36  1  0.87277200  0.25450800  0.56872500  1
  Sb  Sb37  1  0.37277200  0.74549200  0.93127500  1
  Sb  Sb38  1  0.12722800  0.74549200  0.43127500  1
  Sb  Sb39  1  0.62722800  0.25450800  0.06872500  1
