# generated using pymatgen
data_Na7U5(SiO6)4
_symmetry_space_group_name_H-M   'P 1'
_cell_length_a   6.87474581
_cell_length_b   7.01120755
_cell_length_c   12.02572737
_cell_angle_alpha   95.59931951
_cell_angle_beta   98.35183384
_cell_angle_gamma   90.84196671
_symmetry_Int_Tables_number   1
_chemical_formula_structural   Na7U5(SiO6)4
_chemical_formula_sum   'Na7 U5 Si4 O24'
_cell_volume   570.51434165
_cell_formula_units_Z   1
loop_
 _symmetry_equiv_pos_site_id
 _symmetry_equiv_pos_as_xyz
  1  'x, y, z'
loop_
 _atom_site_type_symbol
 _atom_site_label
 _atom_site_symmetry_multiplicity
 _atom_site_fract_x
 _atom_site_fract_y
 _atom_site_fract_z
 _atom_site_occupancy
  Na  Na0  1  0.50000000  0.00000000  0.00000000  1
  Na  Na1  1  0.25019400  0.51032100  0.99058900  1
  Na  Na2  1  0.74980600  0.48967900  0.00941100  1
  Na  Na3  1  0.23548700  0.98676200  0.44663500  1
  Na  Na4  1  0.76451300  0.01323800  0.55336500  1
  Na  Na5  1  0.24079300  0.48991900  0.44211600  1
  Na  Na6  1  0.75920700  0.51008100  0.55788400  1
  U  U7  1  0.00000000  0.00000000  0.00000000  1
  U  U8  1  0.82868800  0.21378800  0.28020000  1
  U  U9  1  0.17131200  0.78621200  0.71980000  1
  U  U10  1  0.55785900  0.70922400  0.27259200  1
  U  U11  1  0.44214100  0.29077600  0.72740800  1
  Si  Si12  1  0.35072000  0.19542000  0.23598200  1
  Si  Si13  1  0.64928000  0.80458000  0.76401800  1
  Si  Si14  1  0.01120700  0.71726300  0.23033800  1
  Si  Si15  1  0.98879300  0.28273700  0.76966200  1
  O  O16  1  0.16611000  0.21585300  0.30686600  1
  O  O17  1  0.83389000  0.78414700  0.69313400  1
  O  O18  1  0.50870900  0.03394400  0.27910900  1
  O  O19  1  0.49129100  0.96605600  0.72089100  1
  O  O20  1  0.50114300  0.38380700  0.25920700  1
  O  O21  1  0.49885700  0.61619300  0.74079300  1
  O  O22  1  0.73662000  0.85559900  0.89932200  1
  O  O23  1  0.26338000  0.14440100  0.10067800  1
  O  O24  1  0.98492700  0.26346000  0.90560500  1
  O  O25  1  0.01507300  0.73654000  0.09439500  1
  O  O26  1  0.87351600  0.52940600  0.24646100  1
  O  O27  1  0.12648400  0.47059400  0.75353900  1
  O  O28  1  0.23212500  0.71217000  0.29888500  1
  O  O29  1  0.76787500  0.28783000  0.70111500  1
  O  O30  1  0.88332500  0.89295700  0.28384100  1
  O  O31  1  0.11667500  0.10704300  0.71615900  1
  O  O32  1  0.80722100  0.15203800  0.10528800  1
  O  O33  1  0.19277900  0.84796200  0.89471200  1
  O  O34  1  0.85805600  0.25710400  0.44158400  1
  O  O35  1  0.14194400  0.74289600  0.55841600  1
  O  O36  1  0.51093700  0.69266400  0.11107200  1
  O  O37  1  0.48906300  0.30733600  0.88892800  1
  O  O38  1  0.60930100  0.72600200  0.43348600  1
  O  O39  1  0.39069900  0.27399800  0.56651400  1
