# generated using pymatgen
data_BP2Pb2O9
_symmetry_space_group_name_H-M   'P 1'
_cell_length_a   17.47730800
_cell_length_b   5.59728200
_cell_length_c   10.09371041
_cell_angle_alpha   56.70915672
_cell_angle_beta   90.00000000
_cell_angle_gamma   90.00000000
_symmetry_Int_Tables_number   1
_chemical_formula_structural   BP2Pb2O9
_chemical_formula_sum   'B4 P8 Pb8 O36'
_cell_volume   825.38076559
_cell_formula_units_Z   4
loop_
 _symmetry_equiv_pos_site_id
 _symmetry_equiv_pos_as_xyz
  1  'x, y, z'
loop_
 _atom_site_type_symbol
 _atom_site_label
 _atom_site_symmetry_multiplicity
 _atom_site_fract_x
 _atom_site_fract_y
 _atom_site_fract_z
 _atom_site_occupancy
  B  B0  1  0.68921600  0.09720800  0.76140700  1
  B  B1  1  0.81078400  0.09720800  0.26140700  1
  B  B2  1  0.31078400  0.90279200  0.23859300  1
  B  B3  1  0.18921600  0.90279200  0.73859300  1
  P  P4  1  0.57777100  0.13851300  0.56584000  1
  P  P5  1  0.92222900  0.13851300  0.06584000  1
  P  P6  1  0.42222900  0.86148700  0.43416000  1
  P  P7  1  0.07777100  0.86148700  0.93416000  1
  P  P8  1  0.63833900  0.67920500  0.05203000  1
  P  P9  1  0.86166100  0.67920500  0.55203000  1
  P  P10  1  0.36166100  0.32079500  0.94797000  1
  P  P11  1  0.13833900  0.32079500  0.44797000  1
  Pb  Pb12  1  0.62510400  0.88595200  0.31211800  1
  Pb  Pb13  1  0.87489600  0.88595200  0.81211800  1
  Pb  Pb14  1  0.37489600  0.11404800  0.68788200  1
  Pb  Pb15  1  0.12510400  0.11404800  0.18788200  1
  Pb  Pb16  1  0.46471000  0.52232600  0.18954800  1
  Pb  Pb17  1  0.03529000  0.52232600  0.68954800  1
  Pb  Pb18  1  0.53529000  0.47767400  0.81045200  1
  Pb  Pb19  1  0.96471000  0.47767400  0.31045200  1
  O  O20  1  0.55519600  0.40496200  0.40561500  1
  O  O21  1  0.94480400  0.40496200  0.90561500  1
  O  O22  1  0.44480400  0.59503800  0.59438500  1
  O  O23  1  0.05519600  0.59503800  0.09438500  1
  O  O24  1  0.70806600  0.63947700  0.15523600  1
  O  O25  1  0.79193400  0.63947700  0.65523600  1
  O  O26  1  0.29193400  0.36052300  0.84476400  1
  O  O27  1  0.20806600  0.36052300  0.34476400  1
  O  O28  1  0.64904100  0.25848100  0.61878200  1
  O  O29  1  0.85095900  0.25848100  0.11878200  1
  O  O30  1  0.35095900  0.74151900  0.38121800  1
  O  O31  1  0.14904100  0.74151900  0.88121800  1
  O  O32  1  0.58195700  0.88949800  0.05424500  1
  O  O33  1  0.91804300  0.88949800  0.55424500  1
  O  O34  1  0.41804300  0.11050200  0.94575500  1
  O  O35  1  0.08195700  0.11050200  0.44575500  1
  O  O36  1  0.59485800  0.40530300  0.09301600  1
  O  O37  1  0.90514200  0.40530300  0.59301600  1
  O  O38  1  0.40514200  0.59469700  0.90698400  1
  O  O39  1  0.09485800  0.59469700  0.40698400  1
  O  O40  1  0.51653600  0.02604600  0.69794000  1
  O  O41  1  0.98346400  0.02604600  0.19794000  1
  O  O42  1  0.48346400  0.97395400  0.30206000  1
  O  O43  1  0.01653600  0.97395400  0.80206000  1
  O  O44  1  0.74987800  0.18618800  0.80392600  1
  O  O45  1  0.75012200  0.18618800  0.30392600  1
  O  O46  1  0.25012200  0.81381200  0.19607400  1
  O  O47  1  0.24987800  0.81381200  0.69607400  1
  O  O48  1  0.66394300  0.81367900  0.86980500  1
  O  O49  1  0.83605700  0.81367900  0.36980500  1
  O  O50  1  0.33605700  0.18632100  0.13019500  1
  O  O51  1  0.16394300  0.18632100  0.63019500  1
  O  O52  1  0.60547000  0.88656100  0.55720200  1
  O  O53  1  0.89453000  0.88656100  0.05720200  1
  O  O54  1  0.39453000  0.11343900  0.44279800  1
  O  O55  1  0.10547000  0.11343900  0.94279800  1
