# generated using pymatgen
data_Dy6(Ga3Co)7
_symmetry_space_group_name_H-M   'P 1'
_cell_length_a   16.63784800
_cell_length_b   16.63784800
_cell_length_c   4.14464900
_cell_angle_alpha   90.00000000
_cell_angle_beta   90.00000000
_cell_angle_gamma   90.00000000
_symmetry_Int_Tables_number   1
_chemical_formula_structural   Dy6(Ga3Co)7
_chemical_formula_sum   'Dy12 Ga42 Co14'
_cell_volume   1147.31338915
_cell_formula_units_Z   2
loop_
 _symmetry_equiv_pos_site_id
 _symmetry_equiv_pos_as_xyz
  1  'x, y, z'
loop_
 _atom_site_type_symbol
 _atom_site_label
 _atom_site_symmetry_multiplicity
 _atom_site_fract_x
 _atom_site_fract_y
 _atom_site_fract_z
 _atom_site_occupancy
  Dy  Dy0  1  0.10799900  0.60799900  0.50000000  1
  Dy  Dy1  1  0.89200100  0.39200100  0.50000000  1
  Dy  Dy2  1  0.39200100  0.10799900  0.50000000  1
  Dy  Dy3  1  0.60799900  0.89200100  0.50000000  1
  Dy  Dy4  1  0.65752000  0.58691700  0.00000000  1
  Dy  Dy5  1  0.34248000  0.41308300  0.00000000  1
  Dy  Dy6  1  0.84248000  0.08691700  0.00000000  1
  Dy  Dy7  1  0.15752000  0.91308300  0.00000000  1
  Dy  Dy8  1  0.58691700  0.34248000  0.00000000  1
  Dy  Dy9  1  0.41308300  0.65752000  0.00000000  1
  Dy  Dy10  1  0.08691700  0.15752000  0.00000000  1
  Dy  Dy11  1  0.91308300  0.84248000  0.00000000  1
  Ga  Ga12  1  0.00000000  0.50000000  0.00000000  1
  Ga  Ga13  1  0.50000000  0.00000000  0.00000000  1
  Ga  Ga14  1  0.32026000  0.82026000  0.00000000  1
  Ga  Ga15  1  0.67974000  0.17974000  0.00000000  1
  Ga  Ga16  1  0.17974000  0.32026000  0.00000000  1
  Ga  Ga17  1  0.82026000  0.67974000  0.00000000  1
  Ga  Ga18  1  0.42618400  0.92618400  0.50000000  1
  Ga  Ga19  1  0.57381600  0.07381600  0.50000000  1
  Ga  Ga20  1  0.07381600  0.42618400  0.50000000  1
  Ga  Ga21  1  0.92618400  0.57381600  0.50000000  1
  Ga  Ga22  1  0.57479200  0.75739100  0.00000000  1
  Ga  Ga23  1  0.42520800  0.24260900  0.00000000  1
  Ga  Ga24  1  0.92520800  0.25739100  0.00000000  1
  Ga  Ga25  1  0.07479200  0.74260900  0.00000000  1
  Ga  Ga26  1  0.75739100  0.42520800  0.00000000  1
  Ga  Ga27  1  0.24260900  0.57479200  0.00000000  1
  Ga  Ga28  1  0.25739100  0.07479200  0.00000000  1
  Ga  Ga29  1  0.74260900  0.92520800  0.00000000  1
  Ga  Ga30  1  0.53186000  0.61097700  0.50000000  1
  Ga  Ga31  1  0.46814000  0.38902300  0.50000000  1
  Ga  Ga32  1  0.96814000  0.11097700  0.50000000  1
  Ga  Ga33  1  0.03186000  0.88902300  0.50000000  1
  Ga  Ga34  1  0.61097700  0.46814000  0.50000000  1
  Ga  Ga35  1  0.38902300  0.53186000  0.50000000  1
  Ga  Ga36  1  0.11097700  0.03186000  0.50000000  1
  Ga  Ga37  1  0.88902300  0.96814000  0.50000000  1
  Ga  Ga38  1  0.67932300  0.70984400  0.50000000  1
  Ga  Ga39  1  0.32067700  0.29015600  0.50000000  1
  Ga  Ga40  1  0.82067700  0.20984400  0.50000000  1
  Ga  Ga41  1  0.17932300  0.79015600  0.50000000  1
  Ga  Ga42  1  0.70984400  0.32067700  0.50000000  1
  Ga  Ga43  1  0.29015600  0.67932300  0.50000000  1
  Ga  Ga44  1  0.20984400  0.17932300  0.50000000  1
  Ga  Ga45  1  0.79015600  0.82067700  0.50000000  1
  Ga  Ga46  1  0.77228500  0.54353100  0.50000000  1
  Ga  Ga47  1  0.22771500  0.45646900  0.50000000  1
  Ga  Ga48  1  0.72771500  0.04353100  0.50000000  1
  Ga  Ga49  1  0.27228500  0.95646900  0.50000000  1
  Ga  Ga50  1  0.54353100  0.22771500  0.50000000  1
  Ga  Ga51  1  0.45646900  0.77228500  0.50000000  1
  Ga  Ga52  1  0.04353100  0.27228500  0.50000000  1
  Ga  Ga53  1  0.95646900  0.72771500  0.50000000  1
  Co  Co54  1  0.21849900  0.71849900  0.00000000  1
  Co  Co55  1  0.78150100  0.28150100  0.00000000  1
  Co  Co56  1  0.28150100  0.21849900  0.00000000  1
  Co  Co57  1  0.71849900  0.78150100  0.00000000  1
  Co  Co58  1  0.96359500  0.64869700  0.00000000  1
  Co  Co59  1  0.03640500  0.35130300  0.00000000  1
  Co  Co60  1  0.53640500  0.14869700  0.00000000  1
  Co  Co61  1  0.46359500  0.85130300  0.00000000  1
  Co  Co62  1  0.64869700  0.03640500  0.00000000  1
  Co  Co63  1  0.35130300  0.96359500  0.00000000  1
  Co  Co64  1  0.14869700  0.46359500  0.00000000  1
  Co  Co65  1  0.85130300  0.53640500  0.00000000  1
  Co  Co66  1  0.50000000  0.50000000  0.00000000  1
  Co  Co67  1  0.00000000  0.00000000  0.00000000  1
