# generated using pymatgen
data_B3H20(CN)3
_symmetry_space_group_name_H-M   'P 1'
_cell_length_a   6.18858900
_cell_length_b   18.33284700
_cell_length_c   10.73561481
_cell_angle_alpha   90.00000000
_cell_angle_beta   102.85336548
_cell_angle_gamma   90.00000000
_symmetry_Int_Tables_number   1
_chemical_formula_structural   B3H20(CN)3
_chemical_formula_sum   'B12 H80 C12 N12'
_cell_volume   1187.48330930
_cell_formula_units_Z   4
loop_
 _symmetry_equiv_pos_site_id
 _symmetry_equiv_pos_as_xyz
  1  'x, y, z'
loop_
 _atom_site_type_symbol
 _atom_site_label
 _atom_site_symmetry_multiplicity
 _atom_site_fract_x
 _atom_site_fract_y
 _atom_site_fract_z
 _atom_site_occupancy
  B  B0  1  0.68111000  0.95110700  0.69541800  1
  B  B1  1  0.31889000  0.45110700  0.80458200  1
  B  B2  1  0.31889000  0.04889300  0.30458200  1
  B  B3  1  0.68111000  0.54889300  0.19541800  1
  B  B4  1  0.81221100  0.85364300  0.53589900  1
  B  B5  1  0.18778900  0.35364300  0.96410100  1
  B  B6  1  0.18778900  0.14635700  0.46410100  1
  B  B7  1  0.81221100  0.64635700  0.03589900  1
  B  B8  1  0.60097100  0.84707900  0.29442800  1
  B  B9  1  0.39902900  0.34707900  0.20557200  1
  B  B10  1  0.39902900  0.15292100  0.70557200  1
  B  B11  1  0.60097100  0.65292100  0.79442800  1
  H  H12  1  0.49228400  0.95266000  0.62751900  1
  H  H13  1  0.50771600  0.45266000  0.87248100  1
  H  H14  1  0.50771600  0.04734000  0.37248100  1
  H  H15  1  0.49228400  0.54734000  0.12751900  1
  H  H16  1  0.79679500  0.99926800  0.66483100  1
  H  H17  1  0.20320500  0.49926800  0.83516900  1
  H  H18  1  0.20320500  0.00073200  0.33516900  1
  H  H19  1  0.79679500  0.50073200  0.16483100  1
  H  H20  1  0.67495200  0.95611700  0.80891000  1
  H  H21  1  0.32504800  0.45611700  0.69109000  1
  H  H22  1  0.32504800  0.04388300  0.19109000  1
  H  H23  1  0.67495200  0.54388300  0.30891000  1
  H  H24  1  0.69323600  0.83529800  0.70504000  1
  H  H25  1  0.30676400  0.33529800  0.79496000  1
  H  H26  1  0.30676400  0.16470200  0.29496000  1
  H  H27  1  0.69323600  0.66470200  0.20504000  1
  H  H28  1  0.88061400  0.79115100  0.53757300  1
  H  H29  1  0.11938600  0.29115100  0.96242700  1
  H  H30  1  0.11938600  0.20884900  0.46242700  1
  H  H31  1  0.88061400  0.70884900  0.03757300  1
  H  H32  1  0.93864700  0.89753000  0.50431700  1
  H  H33  1  0.06135300  0.39753000  0.99568300  1
  H  H34  1  0.06135300  0.10247000  0.49568300  1
  H  H35  1  0.93864700  0.60247000  0.00431700  1
  H  H36  1  0.51154500  0.90785500  0.44687000  1
  H  H37  1  0.48845500  0.40785500  0.05313000  1
  H  H38  1  0.48845500  0.09214500  0.55313000  1
  H  H39  1  0.51154500  0.59214500  0.94687000  1
  H  H40  1  0.70886800  0.79253800  0.28551400  1
  H  H41  1  0.29113200  0.29253800  0.21448600  1
  H  H42  1  0.29113200  0.20746200  0.71448600  1
  H  H43  1  0.70886800  0.70746200  0.78551400  1
  H  H44  1  0.41766300  0.84671000  0.22374500  1
  H  H45  1  0.58233700  0.34671000  0.27625500  1
  H  H46  1  0.58233700  0.15329000  0.77625500  1
  H  H47  1  0.41766300  0.65329000  0.72374500  1
  H  H48  1  0.87967000  0.92183700  0.31995300  1
  H  H49  1  0.12033000  0.42183700  0.18004700  1
  H  H50  1  0.12033000  0.07816300  0.68004700  1
  H  H51  1  0.87967000  0.57816300  0.81995300  1
  H  H52  1  0.64098700  0.96246300  0.26443300  1
  H  H53  1  0.35901300  0.46246300  0.23556700  1
  H  H54  1  0.35901300  0.03753700  0.73556700  1
  H  H55  1  0.64098700  0.53753700  0.76443300  1
  H  H56  1  0.12339700  0.90726700  0.73538100  1
  H  H57  1  0.87660300  0.40726700  0.76461900  1
  H  H58  1  0.87660300  0.09273300  0.26461900  1
  H  H59  1  0.12339700  0.59273300  0.23538100  1
  H  H60  1  0.00188100  0.87564000  0.86201900  1
  H  H61  1  0.99811900  0.37564000  0.63798100  1
  H  H62  1  0.99811900  0.12436000  0.13798100  1
  H  H63  1  0.00188100  0.62436000  0.36201900  1
  H  H64  1  0.07927200  0.81193400  0.75211600  1
  H  H65  1  0.92072800  0.31193400  0.74788400  1
  H  H66  1  0.92072800  0.18806600  0.24788400  1
  H  H67  1  0.07927200  0.68806600  0.25211500  1
  H  H68  1  0.38736300  0.80952400  0.55913400  1
  H  H69  1  0.61263700  0.30952400  0.94086600  1
  H  H70  1  0.61263700  0.19047600  0.44086600  1
  H  H71  1  0.38736300  0.69047600  0.05913400  1
  H  H72  1  0.48850600  0.74806000  0.45565000  1
  H  H73  1  0.51149400  0.24806000  0.04435000  1
  H  H74  1  0.51149400  0.25194000  0.54435000  1
  H  H75  1  0.48850600  0.75194000  0.95565000  1
  H  H76  1  0.26199100  0.80800900  0.39288100  1
  H  H77  1  0.73800900  0.30800900  0.10711900  1
  H  H78  1  0.73800900  0.19199100  0.60711900  1
  H  H79  1  0.26199100  0.69199100  0.89288100  1
  H  H80  1  0.86352800  0.95776500  0.10360000  1
  H  H81  1  0.13647200  0.45776500  0.39640000  1
  H  H82  1  0.13647200  0.04223500  0.89640000  1
  H  H83  1  0.86352800  0.54223500  0.60360000  1
  H  H84  1  0.60593600  0.90957300  0.05604900  1
  H  H85  1  0.39406400  0.40957300  0.44395100  1
  H  H86  1  0.39406400  0.09042700  0.94395100  1
  H  H87  1  0.60593600  0.59042700  0.55604900  1
  H  H88  1  0.85528000  0.86017300  0.11383400  1
  H  H89  1  0.14472000  0.36017300  0.38616600  1
  H  H90  1  0.14472000  0.13982700  0.88616600  1
  H  H91  1  0.85528000  0.63982700  0.61383400  1
  C  C92  1  0.01242400  0.86652100  0.76255500  1
  C  C93  1  0.98757600  0.36652100  0.73744500  1
  C  C94  1  0.98757600  0.13347900  0.23744500  1
  C  C95  1  0.01242400  0.63347900  0.26255500  1
  C  C96  1  0.41906700  0.80250100  0.46345400  1
  C  C97  1  0.58093300  0.30250100  0.03654600  1
  C  C98  1  0.58093300  0.19749900  0.53654600  1
  C  C99  1  0.41906700  0.69749900  0.96345400  1
  C  C100  1  0.76682400  0.91096300  0.12371000  1
  C  C101  1  0.23317600  0.41096300  0.37629000  1
  C  C102  1  0.23317600  0.08903700  0.87629000  1
  C  C103  1  0.76682400  0.58903700  0.62371000  1
  N  N104  1  0.79049900  0.87432200  0.67623000  1
  N  N105  1  0.20950100  0.37432200  0.82377000  1
  N  N106  1  0.20950100  0.12567800  0.32377000  1
  N  N107  1  0.79049900  0.62567800  0.17623000  1
  N  N108  1  0.58000100  0.85736000  0.43749200  1
  N  N109  1  0.41999900  0.35736000  0.06250800  1
  N  N110  1  0.41999900  0.14264000  0.56250800  1
  N  N111  1  0.58000100  0.64264000  0.93749200  1
  N  N112  1  0.73042200  0.91571100  0.25581000  1
  N  N113  1  0.26957800  0.41571100  0.24419000  1
  N  N114  1  0.26957800  0.08428900  0.74419000  1
  N  N115  1  0.73042200  0.58428900  0.75581000  1
