# generated using pymatgen
data_CrBiO5
_symmetry_space_group_name_H-M   'P 1'
_cell_length_a   7.34290300
_cell_length_b   9.90081500
_cell_length_c   11.27448400
_cell_angle_alpha   90.00000000
_cell_angle_beta   90.00000000
_cell_angle_gamma   90.00000000
_symmetry_Int_Tables_number   1
_chemical_formula_structural   CrBiO5
_chemical_formula_sum   'Cr8 Bi8 O40'
_cell_volume   819.66315140
_cell_formula_units_Z   8
loop_
 _symmetry_equiv_pos_site_id
 _symmetry_equiv_pos_as_xyz
  1  'x, y, z'
loop_
 _atom_site_type_symbol
 _atom_site_label
 _atom_site_symmetry_multiplicity
 _atom_site_fract_x
 _atom_site_fract_y
 _atom_site_fract_z
 _atom_site_occupancy
  Cr  Cr0  1  0.65884300  0.41120400  0.64146100  1
  Cr  Cr1  1  0.34115700  0.08879600  0.14146100  1
  Cr  Cr2  1  0.84115700  0.91120400  0.35853900  1
  Cr  Cr3  1  0.15884300  0.58879600  0.85853900  1
  Cr  Cr4  1  0.34115700  0.58879600  0.35853900  1
  Cr  Cr5  1  0.65884300  0.91120400  0.85853900  1
  Cr  Cr6  1  0.15884300  0.08879600  0.64146100  1
  Cr  Cr7  1  0.84115700  0.41120400  0.14146100  1
  Bi  Bi8  1  0.49163900  0.82487700  0.58990400  1
  Bi  Bi9  1  0.50836100  0.67512300  0.08990400  1
  Bi  Bi10  1  0.00836100  0.32487700  0.41009600  1
  Bi  Bi11  1  0.99163900  0.17512300  0.91009600  1
  Bi  Bi12  1  0.50836100  0.17512300  0.41009600  1
  Bi  Bi13  1  0.49163900  0.32487700  0.91009600  1
  Bi  Bi14  1  0.99163900  0.67512300  0.58990400  1
  Bi  Bi15  1  0.00836100  0.82487700  0.08990400  1
  O  O16  1  0.71909300  0.81504200  0.98065000  1
  O  O17  1  0.28090700  0.68495800  0.48065000  1
  O  O18  1  0.78090700  0.31504200  0.01935000  1
  O  O19  1  0.21909300  0.18495800  0.51935000  1
  O  O20  1  0.28090700  0.18495800  0.01935000  1
  O  O21  1  0.71909300  0.31504200  0.51935000  1
  O  O22  1  0.21909300  0.68495800  0.98065000  1
  O  O23  1  0.78090700  0.81504200  0.48065000  1
  O  O24  1  0.75635100  0.85337400  0.73601600  1
  O  O25  1  0.24364900  0.64662600  0.23601600  1
  O  O26  1  0.74364900  0.35337400  0.26398400  1
  O  O27  1  0.25635100  0.14662600  0.76398400  1
  O  O28  1  0.24364900  0.14662600  0.26398400  1
  O  O29  1  0.75635100  0.35337400  0.76398400  1
  O  O30  1  0.25635100  0.64662600  0.73601600  1
  O  O31  1  0.74364900  0.85337400  0.23601600  1
  O  O32  1  0.44250100  0.89477000  0.83866000  1
  O  O33  1  0.55749900  0.60523000  0.33866000  1
  O  O34  1  0.05749900  0.39477000  0.16134000  1
  O  O35  1  0.94250100  0.10523000  0.66134000  1
  O  O36  1  0.55749900  0.10523000  0.16134000  1
  O  O37  1  0.44250100  0.39477000  0.66134000  1
  O  O38  1  0.94250100  0.60523000  0.83866000  1
  O  O39  1  0.05749900  0.89477000  0.33866000  1
  O  O40  1  0.70327400  0.07759800  0.87916500  1
  O  O41  1  0.29672600  0.42240200  0.37916500  1
  O  O42  1  0.79672600  0.57759800  0.12083500  1
  O  O43  1  0.20327400  0.92240200  0.62083500  1
  O  O44  1  0.29672600  0.92240200  0.12083500  1
  O  O45  1  0.70327400  0.57759800  0.62083500  1
  O  O46  1  0.20327400  0.42240200  0.87916500  1
  O  O47  1  0.79672600  0.07759800  0.37916500  1
  O  O48  1  0.46152200  0.94762100  0.42213100  1
  O  O49  1  0.53847800  0.55237900  0.92213100  1
  O  O50  1  0.03847800  0.44762100  0.57786900  1
  O  O51  1  0.96152200  0.05237900  0.07786900  1
  O  O52  1  0.53847800  0.05237900  0.57786900  1
  O  O53  1  0.46152200  0.44762100  0.07786900  1
  O  O54  1  0.96152200  0.55237900  0.42213100  1
  O  O55  1  0.03847800  0.94762100  0.92213100  1
