# generated using pymatgen
data_Cr4BiNO14
_symmetry_space_group_name_H-M   'P 1'
_cell_length_a   17.34734000
_cell_length_b   8.51626200
_cell_length_c   8.91072186
_cell_angle_alpha   88.48427007
_cell_angle_beta   90.00000000
_cell_angle_gamma   90.00000000
_symmetry_Int_Tables_number   1
_chemical_formula_structural   Cr4BiNO14
_chemical_formula_sum   'Cr16 Bi4 N4 O56'
_cell_volume   1315.96035582
_cell_formula_units_Z   4
loop_
 _symmetry_equiv_pos_site_id
 _symmetry_equiv_pos_as_xyz
  1  'x, y, z'
loop_
 _atom_site_type_symbol
 _atom_site_label
 _atom_site_symmetry_multiplicity
 _atom_site_fract_x
 _atom_site_fract_y
 _atom_site_fract_z
 _atom_site_occupancy
  Cr  Cr0  1  0.31604500  0.58346600  0.79006100  1
  Cr  Cr1  1  0.81604500  0.91653400  0.20993900  1
  Cr  Cr2  1  0.68395500  0.41653400  0.20993900  1
  Cr  Cr3  1  0.18395500  0.08346600  0.79006100  1
  Cr  Cr4  1  0.44772800  0.86940600  0.73618500  1
  Cr  Cr5  1  0.94772800  0.63059400  0.26381500  1
  Cr  Cr6  1  0.55227200  0.13059400  0.26381500  1
  Cr  Cr7  1  0.05227200  0.36940600  0.73618500  1
  Cr  Cr8  1  0.79590000  0.66611200  0.76626200  1
  Cr  Cr9  1  0.29590000  0.83388800  0.23373800  1
  Cr  Cr10  1  0.20410000  0.33388800  0.23373800  1
  Cr  Cr11  1  0.70410000  0.16611200  0.76626200  1
  Cr  Cr12  1  0.94157400  0.91149600  0.79566400  1
  Cr  Cr13  1  0.44157400  0.58850400  0.20433600  1
  Cr  Cr14  1  0.05842600  0.08850400  0.20433600  1
  Cr  Cr15  1  0.55842600  0.41149600  0.79566400  1
  Bi  Bi16  1  0.62530600  0.79132100  0.00596800  1
  Bi  Bi17  1  0.12530600  0.70867900  0.99403200  1
  Bi  Bi18  1  0.37469400  0.20867900  0.99403200  1
  Bi  Bi19  1  0.87469400  0.29132100  0.00596800  1
  N  N20  1  0.12451000  0.74845500  0.50084800  1
  N  N21  1  0.62451000  0.75154500  0.49915200  1
  N  N22  1  0.87549000  0.25154500  0.49915200  1
  N  N23  1  0.37549000  0.24845500  0.50084800  1
  O  O24  1  0.74576000  0.36768800  0.07744200  1
  O  O25  1  0.24576000  0.13231200  0.92255800  1
  O  O26  1  0.25424000  0.63231200  0.92255800  1
  O  O27  1  0.75424000  0.86768800  0.07744200  1
  O  O28  1  0.49693100  0.72550700  0.12599900  1
  O  O29  1  0.99693100  0.77449300  0.87400100  1
  O  O30  1  0.50306900  0.27449300  0.87400100  1
  O  O31  1  0.00306900  0.22550700  0.12599900  1
  O  O32  1  0.89888900  0.79835700  0.18964000  1
  O  O33  1  0.39888900  0.70164300  0.81036000  1
  O  O34  1  0.10111100  0.20164300  0.81036000  1
  O  O35  1  0.60111100  0.29835700  0.18964000  1
  O  O36  1  0.60119600  0.96999900  0.21838300  1
  O  O37  1  0.10119600  0.53000100  0.78161700  1
  O  O38  1  0.39880400  0.03000100  0.78161700  1
  O  O39  1  0.89880400  0.46999900  0.21838300  1
  O  O40  1  0.53629600  0.86748100  0.80708600  1
  O  O41  1  0.03629600  0.63251900  0.19291400  1
  O  O42  1  0.46370400  0.13251900  0.19291400  1
  O  O43  1  0.96370400  0.36748100  0.80708600  1
  O  O44  1  0.35534100  0.66906700  0.27605100  1
  O  O45  1  0.85534100  0.83093300  0.72394900  1
  O  O46  1  0.64465900  0.33093300  0.72394900  1
  O  O47  1  0.14465900  0.16906700  0.27605100  1
  O  O48  1  0.58237100  0.54152800  0.92493300  1
  O  O49  1  0.08237100  0.95847200  0.07506700  1
  O  O50  1  0.41762900  0.45847200  0.07506700  1
  O  O51  1  0.91762900  0.04152800  0.92493300  1
  O  O52  1  0.70523900  0.72435700  0.80677000  1
  O  O53  1  0.20523900  0.77564300  0.19323000  1
  O  O54  1  0.29476100  0.27564300  0.19323000  1
  O  O55  1  0.79476100  0.22435700  0.80677000  1
  O  O56  1  0.79230000  0.56088000  0.62082100  1
  O  O57  1  0.29230000  0.93912000  0.37917900  1
  O  O58  1  0.20770000  0.43912000  0.37917900  1
  O  O59  1  0.70770000  0.06088000  0.62082100  1
  O  O60  1  0.66541700  0.06386900  0.90573500  1
  O  O61  1  0.16541700  0.43613100  0.09426500  1
  O  O62  1  0.33458300  0.93613100  0.09426500  1
  O  O63  1  0.83458300  0.56386900  0.90573500  1
  O  O64  1  0.66024400  0.60819000  0.19550800  1
  O  O65  1  0.16024400  0.89181000  0.80449200  1
  O  O66  1  0.33975600  0.39181000  0.80449200  1
  O  O67  1  0.83975600  0.10819000  0.19550800  1
  O  O68  1  0.77840400  0.88226900  0.37028800  1
  O  O69  1  0.27840400  0.61773100  0.62971200  1
  O  O70  1  0.22159600  0.11773100  0.62971200  1
  O  O71  1  0.72159600  0.38226900  0.37028800  1
  O  O72  1  0.54833500  0.13853000  0.44291400  1
  O  O73  1  0.04833500  0.36147000  0.55708600  1
  O  O74  1  0.45166500  0.86147000  0.55708600  1
  O  O75  1  0.95166500  0.63853000  0.44291400  1
  O  O76  1  0.48600500  0.50168900  0.34041100  1
  O  O77  1  0.98600500  0.99831100  0.65958900  1
  O  O78  1  0.51399500  0.49831100  0.65958900  1
  O  O79  1  0.01399500  0.00168900  0.34041100  1
