# generated using pymatgen
data_DyAu6
_symmetry_space_group_name_H-M   'P 1'
_cell_length_a   10.51402800
_cell_length_b   10.51402800
_cell_length_c   9.93546700
_cell_angle_alpha   90.00000000
_cell_angle_beta   90.00000000
_cell_angle_gamma   90.00000000
_symmetry_Int_Tables_number   1
_chemical_formula_structural   DyAu6
_chemical_formula_sum   'Dy8 Au48'
_cell_volume   1098.31406125
_cell_formula_units_Z   8
loop_
 _symmetry_equiv_pos_site_id
 _symmetry_equiv_pos_as_xyz
  1  'x, y, z'
loop_
 _atom_site_type_symbol
 _atom_site_label
 _atom_site_symmetry_multiplicity
 _atom_site_fract_x
 _atom_site_fract_y
 _atom_site_fract_z
 _atom_site_occupancy
  Dy  Dy0  1  0.32546500  0.82546500  0.03808100  1
  Dy  Dy1  1  0.67453500  0.82546500  0.53808100  1
  Dy  Dy2  1  0.32546500  0.17453500  0.53808100  1
  Dy  Dy3  1  0.67453500  0.17453500  0.03808100  1
  Dy  Dy4  1  0.17453500  0.67453500  0.46191900  1
  Dy  Dy5  1  0.82546500  0.67453500  0.96191900  1
  Dy  Dy6  1  0.17453500  0.32546500  0.96191900  1
  Dy  Dy7  1  0.82546500  0.32546500  0.46191900  1
  Au  Au8  1  0.92993200  0.76297300  0.67066500  1
  Au  Au9  1  0.07006800  0.76297300  0.17066500  1
  Au  Au10  1  0.92993200  0.23702700  0.17066500  1
  Au  Au11  1  0.07006800  0.23702700  0.67066500  1
  Au  Au12  1  0.26297300  0.42993200  0.67066500  1
  Au  Au13  1  0.26297300  0.57006800  0.17066500  1
  Au  Au14  1  0.73702700  0.42993200  0.17066500  1
  Au  Au15  1  0.73702700  0.57006800  0.67066500  1
  Au  Au16  1  0.57006800  0.73702700  0.82933500  1
  Au  Au17  1  0.42993200  0.73702700  0.32933500  1
  Au  Au18  1  0.57006800  0.26297300  0.32933500  1
  Au  Au19  1  0.42993200  0.26297300  0.82933500  1
  Au  Au20  1  0.23702700  0.07006800  0.82933500  1
  Au  Au21  1  0.23702700  0.92993200  0.32933500  1
  Au  Au22  1  0.76297300  0.07006800  0.32933500  1
  Au  Au23  1  0.76297300  0.92993200  0.82933500  1
  Au  Au24  1  0.87275500  0.05000500  0.60510500  1
  Au  Au25  1  0.12724500  0.05000500  0.10510500  1
  Au  Au26  1  0.87275500  0.94999500  0.10510500  1
  Au  Au27  1  0.12724500  0.94999500  0.60510500  1
  Au  Au28  1  0.55000500  0.37275500  0.60510500  1
  Au  Au29  1  0.55000500  0.62724500  0.10510500  1
  Au  Au30  1  0.44999500  0.37275500  0.10510500  1
  Au  Au31  1  0.44999500  0.62724500  0.60510500  1
  Au  Au32  1  0.62724500  0.44999500  0.89489500  1
  Au  Au33  1  0.37275500  0.44999500  0.39489500  1
  Au  Au34  1  0.62724500  0.55000500  0.39489500  1
  Au  Au35  1  0.37275500  0.55000500  0.89489500  1
  Au  Au36  1  0.94999500  0.12724500  0.89489500  1
  Au  Au37  1  0.94999500  0.87275500  0.39489500  1
  Au  Au38  1  0.05000500  0.12724500  0.39489500  1
  Au  Au39  1  0.05000500  0.87275500  0.89489500  1
  Au  Au40  1  0.39722000  0.89722000  0.57057400  1
  Au  Au41  1  0.60278000  0.89722000  0.07057400  1
  Au  Au42  1  0.39722000  0.10278000  0.07057400  1
  Au  Au43  1  0.60278000  0.10278000  0.57057400  1
  Au  Au44  1  0.10278000  0.60278000  0.92942600  1
  Au  Au45  1  0.89722000  0.60278000  0.42942600  1
  Au  Au46  1  0.10278000  0.39722000  0.42942600  1
  Au  Au47  1  0.89722000  0.39722000  0.92942600  1
  Au  Au48  1  0.50000000  0.00000000  0.31756300  1
  Au  Au49  1  0.50000000  0.00000000  0.81756300  1
  Au  Au50  1  0.00000000  0.50000000  0.18243700  1
  Au  Au51  1  0.00000000  0.50000000  0.68243700  1
  Au  Au52  1  0.25000000  0.75000000  0.75000000  1
  Au  Au53  1  0.75000000  0.75000000  0.25000000  1
  Au  Au54  1  0.25000000  0.25000000  0.25000000  1
  Au  Au55  1  0.75000000  0.25000000  0.75000000  1
