# generated using pymatgen
data_InSi4H38C14Cl
_symmetry_space_group_name_H-M   'P 1'
_cell_length_a   9.68288900
_cell_length_b   12.27609110
_cell_length_c   12.60237187
_cell_angle_alpha   77.11087689
_cell_angle_beta   69.43174823
_cell_angle_gamma   67.11580208
_symmetry_Int_Tables_number   1
_chemical_formula_structural   InSi4H38C14Cl
_chemical_formula_sum   'In2 Si8 H76 C28 Cl2'
_cell_volume   1285.63224955
_cell_formula_units_Z   2
loop_
 _symmetry_equiv_pos_site_id
 _symmetry_equiv_pos_as_xyz
  1  'x, y, z'
loop_
 _atom_site_type_symbol
 _atom_site_label
 _atom_site_symmetry_multiplicity
 _atom_site_fract_x
 _atom_site_fract_y
 _atom_site_fract_z
 _atom_site_occupancy
  In  In0  1  0.01688500  0.49319700  0.34161200  1
  In  In1  1  0.98311500  0.50680300  0.65838800  1
  Si  Si2  1  0.25347200  0.20410000  0.28355300  1
  Si  Si3  1  0.74652800  0.79590000  0.71644700  1
  Si  Si4  1  0.87265200  0.26803700  0.36623200  1
  Si  Si5  1  0.12734800  0.73196300  0.63376800  1
  Si  Si6  1  0.18700200  0.68040000  0.14574900  1
  Si  Si7  1  0.81299800  0.31960000  0.85425100  1
  Si  Si8  1  0.80986500  0.74094200  0.20737400  1
  Si  Si9  1  0.19013500  0.25905800  0.79262600  1
  H  H10  1  0.04921400  0.34619200  0.20593200  1
  H  H11  1  0.95078600  0.65380800  0.79406800  1
  H  H12  1  0.19650400  0.09113000  0.47539700  1
  H  H13  1  0.80349600  0.90887000  0.52460300  1
  H  H14  1  0.40110900  0.06284300  0.41329200  1
  H  H15  1  0.59889100  0.93715700  0.58670800  1
  H  H16  1  0.27817700  0.19842300  0.47547700  1
  H  H17  1  0.72182300  0.80157700  0.52452300  1
  H  H18  1  0.27481800  0.12004100  0.11199200  1
  H  H19  1  0.72518200  0.87995900  0.88800800  1
  H  H20  1  0.41144700  0.02109900  0.18479800  1
  H  H21  1  0.58855300  0.97890100  0.81520200  1
  H  H22  1  0.21139900  0.03209600  0.23950200  1
  H  H23  1  0.78860100  0.96790400  0.76049800  1
  H  H24  1  0.39928100  0.31343800  0.11990400  1
  H  H25  1  0.60071900  0.68656200  0.88009600  1
  H  H26  1  0.40746000  0.33733700  0.25239100  1
  H  H27  1  0.59254000  0.66266300  0.74760900  1
  H  H28  1  0.52738400  0.20121300  0.19218800  1
  H  H29  1  0.47261600  0.79878700  0.80781200  1
  H  H30  1  0.97302400  0.12629500  0.52062600  1
  H  H31  1  0.02697600  0.87370500  0.47937400  1
  H  H32  1  0.84950600  0.26720800  0.57000200  1
  H  H33  1  0.15049400  0.73279200  0.42999800  1
  H  H34  1  0.76602200  0.16733700  0.55485000  1
  H  H35  1  0.23397800  0.83266300  0.44515000  1
  H  H36  1  0.68123600  0.43591300  0.28076100  1
  H  H37  1  0.31876400  0.56408700  0.71923900  1
  H  H38  1  0.58389600  0.36137400  0.40433100  1
  H  H39  1  0.41610400  0.63862600  0.59566900  1
  H  H40  1  0.66352900  0.46266500  0.41958900  1
  H  H41  1  0.33647100  0.53733500  0.58041100  1
  H  H42  1  0.88147900  0.18748500  0.19571800  1
  H  H43  1  0.11852100  0.81251500  0.80428200  1
  H  H44  1  0.97941000  0.07180800  0.28492900  1
  H  H45  1  0.02059000  0.92819200  0.71507100  1
  H  H46  1  0.77147600  0.12894300  0.32508000  1
  H  H47  1  0.22852400  0.87105700  0.67492000  1
  H  H48  1  0.97448800  0.72566200  0.32355500  1
  H  H49  1  0.02551200  0.27433800  0.67644500  1
  H  H50  1  0.33789500  0.65811900  0.28013600  1
  H  H51  1  0.66210500  0.34188100  0.71986400  1
  H  H52  1  0.37899300  0.51863000  0.23588600  1
  H  H53  1  0.62100700  0.48137000  0.76411400  1
  H  H54  1  0.46461700  0.62148200  0.14168600  1
  H  H55  1  0.53538300  0.37851800  0.85831400  1
  H  H56  1  0.14257600  0.63078400  0.98042200  1
  H  H57  1  0.85742400  0.36921600  0.01957800  1
  H  H58  1  0.34466000  0.60418000  0.95639600  1
  H  H59  1  0.65534000  0.39582000  0.04360400  1
  H  H60  1  0.25541100  0.50190500  0.04896900  1
  H  H61  1  0.74458900  0.49809500  0.95103100  1
  H  H62  1  0.15072000  0.88964200  0.16231900  1
  H  H63  1  0.84928000  0.11035800  0.83768100  1
  H  H64  1  0.29374200  0.83912100  0.03280400  1
  H  H65  1  0.70625800  0.16087900  0.96719600  1
  H  H66  1  0.09179200  0.88427900  0.04547400  1
  H  H67  1  0.90820800  0.11572100  0.95452600  1
  H  H68  1  0.63144300  0.65987200  0.37588100  1
  H  H69  1  0.36855700  0.34012800  0.62411900  1
  H  H70  1  0.60720200  0.80638100  0.39294400  1
  H  H71  1  0.39279800  0.19361900  0.60705600  1
  H  H72  1  0.52323900  0.78246700  0.29873300  1
  H  H73  1  0.47676100  0.21753300  0.70126700  1
  H  H74  1  0.83182200  0.55695400  0.13909300  1
  H  H75  1  0.16817800  0.44304600  0.86090700  1
  H  H76  1  0.70974600  0.68542200  0.07653800  1
  H  H77  1  0.29025400  0.31457800  0.92346200  1
  H  H78  1  0.91714100  0.64695400  0.02432300  1
  H  H79  1  0.08285900  0.35304600  0.97567700  1
  H  H80  1  0.67884800  0.93442600  0.10975400  1
  H  H81  1  0.32115200  0.06557400  0.89024600  1
  H  H82  1  0.77725000  0.95582900  0.19537300  1
  H  H83  1  0.22275000  0.04417100  0.80462700  1
  H  H84  1  0.88454200  0.89941100  0.06086100  1
  H  H85  1  0.11545800  0.10058900  0.93913900  1
  C  C86  1  0.04962800  0.31938700  0.29598900  1
  C  C87  1  0.95037200  0.68061300  0.70401100  1
  C  C88  1  0.28455400  0.13281500  0.42571400  1
  C  C89  1  0.71544600  0.86718500  0.57428600  1
  C  C90  1  0.29009200  0.08337600  0.19680200  1
  C  C91  1  0.70990800  0.91662400  0.80319800  1
  C  C92  1  0.41097600  0.27140700  0.20456900  1
  C  C93  1  0.58902400  0.72859300  0.79543100  1
  C  C94  1  0.86514100  0.20094700  0.51708600  1
  C  C95  1  0.13485900  0.79905300  0.48291400  1
  C  C96  1  0.68355300  0.39445700  0.36738500  1
  C  C97  1  0.31644700  0.60554300  0.63261500  1
  C  C98  1  0.87814200  0.15335800  0.28485800  1
  C  C99  1  0.12185800  0.84664200  0.71514200  1
  C  C100  1  0.99464600  0.67379500  0.25469800  1
  C  C101  1  0.00535400  0.32620500  0.74530200  1
  C  C102  1  0.35707000  0.61320600  0.20734700  1
  C  C103  1  0.64293000  0.38679400  0.79265300  1
  C  C104  1  0.23637400  0.59656000  0.02149000  1
  C  C105  1  0.76362600  0.40344000  0.97851000  1
  C  C106  1  0.17885500  0.83820000  0.09188900  1
  C  C107  1  0.82114500  0.16180000  0.90811100  1
  C  C108  1  0.62665300  0.74792700  0.33055300  1
  C  C109  1  0.37334700  0.25207300  0.66944700  1
  C  C110  1  0.81845400  0.64892800  0.10209200  1
  C  C111  1  0.18154600  0.35107200  0.89790800  1
  C  C112  1  0.78576300  0.89716300  0.13726700  1
  C  C113  1  0.21423700  0.10283700  0.86273300  1
  Cl  Cl114  1  0.79768300  0.53765500  0.53721300  1
  Cl  Cl115  1  0.20231700  0.46234500  0.46278700  1
