# generated using pymatgen
data_P3N6O7
_symmetry_space_group_name_H-M   'P 1'
_cell_length_a   5.55785592
_cell_length_b   7.64657430
_cell_length_c   12.90827200
_cell_angle_alpha   90.00000000
_cell_angle_beta   90.00000000
_cell_angle_gamma   107.84284806
_symmetry_Int_Tables_number   1
_chemical_formula_structural   P3N6O7
_chemical_formula_sum   'P6 N12 O14'
_cell_volume   522.19639195
_cell_formula_units_Z   2
loop_
 _symmetry_equiv_pos_site_id
 _symmetry_equiv_pos_as_xyz
  1  'x, y, z'
loop_
 _atom_site_type_symbol
 _atom_site_label
 _atom_site_symmetry_multiplicity
 _atom_site_fract_x
 _atom_site_fract_y
 _atom_site_fract_z
 _atom_site_occupancy
  P  P0  1  0.98614000  0.74050200  0.19830200  1
  P  P1  1  0.01386000  0.25949800  0.69830200  1
  P  P2  1  0.12469700  0.10098300  0.31576000  1
  P  P3  1  0.87530300  0.89901700  0.81576000  1
  P  P4  1  0.66504800  0.97063100  0.18492800  1
  P  P5  1  0.33495200  0.02936900  0.68492800  1
  N  N6  1  0.19913700  0.91828900  0.25099000  1
  N  N7  1  0.80086300  0.08171100  0.75099000  1
  N  N8  1  0.88142500  0.12419200  0.25193000  1
  N  N9  1  0.11857500  0.87580800  0.75193000  1
  N  N10  1  0.73941100  0.78130900  0.16877600  1
  N  N11  1  0.26058900  0.21869100  0.66877600  1
  N  N12  1  0.16864800  0.56569400  0.44256400  1
  N  N13  1  0.83135200  0.43430600  0.94256400  1
  N  N14  1  0.32405800  0.85593400  0.93649100  1
  N  N15  1  0.67594200  0.14406600  0.43649100  1
  N  N16  1  0.42586200  0.40845100  0.01594400  1
  N  N17  1  0.57413800  0.59154900  0.51594400  1
  O  O18  1  0.25568100  0.71932600  0.97558300  1
  O  O19  1  0.74431900  0.28067400  0.47558300  1
  O  O20  1  0.05540400  0.57415700  0.17674600  1
  O  O21  1  0.94459600  0.42584300  0.67674600  1
  O  O22  1  0.00135100  0.02675200  0.41939600  1
  O  O23  1  0.99864900  0.97324800  0.91939600  1
  O  O24  1  0.36416300  0.25635900  0.31621700  1
  O  O25  1  0.63583700  0.74364100  0.81621700  1
  O  O26  1  0.57533800  0.04358900  0.09097000  1
  O  O27  1  0.42466200  0.95641100  0.59097000  1
  O  O28  1  0.43608500  0.89506700  0.27457900  1
  O  O29  1  0.56391500  0.10493300  0.77457900  1
  O  O30  1  0.37155000  0.57831200  0.47919600  1
  O  O31  1  0.62845000  0.42168800  0.97919600  1
