# generated using pymatgen
data_ZnCoP2H12O11
_symmetry_space_group_name_H-M   'P 1'
_cell_length_a   7.58581927
_cell_length_b   7.71129049
_cell_length_c   9.52885284
_cell_angle_alpha   88.87916568
_cell_angle_beta   88.93369720
_cell_angle_gamma   87.62023600
_symmetry_Int_Tables_number   1
_chemical_formula_structural   ZnCoP2H12O11
_chemical_formula_sum   'Zn2 Co2 P4 H24 O22'
_cell_volume   556.72845688
_cell_formula_units_Z   2
loop_
 _symmetry_equiv_pos_site_id
 _symmetry_equiv_pos_as_xyz
  1  'x, y, z'
loop_
 _atom_site_type_symbol
 _atom_site_label
 _atom_site_symmetry_multiplicity
 _atom_site_fract_x
 _atom_site_fract_y
 _atom_site_fract_z
 _atom_site_occupancy
  Zn  Zn0  1  0.99926000  0.49619000  0.24854400  1
  Zn  Zn1  1  0.00074000  0.50381000  0.75145600  1
  Co  Co2  1  0.50000000  0.50000000  0.50000000  1
  Co  Co3  1  0.00000000  0.00000000  0.00000000  1
  P  P4  1  0.12525100  0.27690400  0.49152400  1
  P  P5  1  0.87474900  0.72309600  0.50847600  1
  P  P6  1  0.22830900  0.61305700  0.98596800  1
  P  P7  1  0.77169100  0.38694300  0.01403200  1
  H  H8  1  0.20902500  0.10985800  0.48821400  1
  H  H9  1  0.79097500  0.89014200  0.51178600  1
  H  H10  1  0.40023200  0.67654000  0.97197600  1
  H  H11  1  0.59976800  0.32346000  0.02802400  1
  H  H12  1  0.38874500  0.59283400  0.24288100  1
  H  H13  1  0.61125500  0.40716600  0.75711900  1
  H  H14  1  0.59766200  0.58117700  0.23421800  1
  H  H15  1  0.40233800  0.41882300  0.76578200  1
  H  H16  1  0.75279000  0.26746600  0.40627600  1
  H  H17  1  0.24721000  0.73253400  0.59372400  1
  H  H18  1  0.57457700  0.18570000  0.35693100  1
  H  H19  1  0.42542300  0.81430000  0.64306900  1
  H  H20  1  0.66321000  0.93662300  0.10808400  1
  H  H21  1  0.33679000  0.06337700  0.89191600  1
  H  H22  1  0.76543900  0.76191300  0.06509600  1
  H  H23  1  0.23456100  0.23808700  0.93490400  1
  H  H24  1  0.96057800  0.11946200  0.72782200  1
  H  H25  1  0.03942200  0.88053800  0.27217800  1
  H  H26  1  0.95868500  0.91315400  0.73670500  1
  H  H27  1  0.04131500  0.08684600  0.26329500  1
  H  H28  1  0.37515600  0.02278000  0.20698800  1
  H  H29  1  0.62484400  0.97722000  0.79301200  1
  H  H30  1  0.49094700  0.89115800  0.29242200  1
  H  H31  1  0.50905300  0.10884200  0.70757800  1
  O  O32  1  0.98861200  0.27850300  0.36909100  1
  O  O33  1  0.01138800  0.72149700  0.63090900  1
  O  O34  1  0.03541700  0.28854800  0.63796000  1
  O  O35  1  0.96458300  0.71145200  0.36204000  1
  O  O36  1  0.25661700  0.41539000  0.46242200  1
  O  O37  1  0.74338300  0.58461000  0.53757800  1
  O  O38  1  0.09209400  0.75592100  0.95222900  1
  O  O39  1  0.90790600  0.24407900  0.04777100  1
  O  O40  1  0.21824800  0.46713700  0.87468500  1
  O  O41  1  0.78175200  0.53286300  0.12531500  1
  O  O42  1  0.21793800  0.53910200  0.13801100  1
  O  O43  1  0.78206200  0.46089800  0.86198900  1
  O  O44  1  0.49667900  0.62336700  0.29431500  1
  O  O45  1  0.50332100  0.37663300  0.70568500  1
  O  O46  1  0.62416000  0.26340500  0.42575500  1
  O  O47  1  0.37584000  0.73659500  0.57424500  1
  O  O48  1  0.74864500  0.88614700  0.03867700  1
  O  O49  1  0.25135500  0.11385300  0.96132300  1
  O  O50  1  0.91651300  0.01948400  0.78570600  1
  O  O51  1  0.08348700  0.98051600  0.21429400  1
  O  O52  1  0.49452300  0.00578300  0.24559400  1
  O  O53  1  0.50547700  0.99421700  0.75440600  1
