# generated using pymatgen
data_Tb2(Ni5B3)3
_symmetry_space_group_name_H-M   'P 1'
_cell_length_a   9.81397532
_cell_length_b   9.81397532
_cell_length_c   11.25186100
_cell_angle_alpha   90.00000000
_cell_angle_beta   90.00000000
_cell_angle_gamma   107.79489160
_symmetry_Int_Tables_number   1
_chemical_formula_structural   Tb2(Ni5B3)3
_chemical_formula_sum   'Tb8 Ni60 B36'
_cell_volume   1031.86452986
_cell_formula_units_Z   4
loop_
 _symmetry_equiv_pos_site_id
 _symmetry_equiv_pos_as_xyz
  1  'x, y, z'
loop_
 _atom_site_type_symbol
 _atom_site_label
 _atom_site_symmetry_multiplicity
 _atom_site_fract_x
 _atom_site_fract_y
 _atom_site_fract_z
 _atom_site_occupancy
  Tb  Tb0  1  0.25954800  0.25954800  0.95854300  1
  Tb  Tb1  1  0.74045200  0.74045200  0.04145700  1
  Tb  Tb2  1  0.24045200  0.24045200  0.45854300  1
  Tb  Tb3  1  0.75954800  0.75954800  0.54145700  1
  Tb  Tb4  1  0.19228300  0.69228300  0.75000000  1
  Tb  Tb5  1  0.30771700  0.80771700  0.25000000  1
  Tb  Tb6  1  0.80771700  0.30771700  0.25000000  1
  Tb  Tb7  1  0.69228300  0.19228300  0.75000000  1
  Ni  Ni8  1  0.50000000  0.50000000  0.00000000  1
  Ni  Ni9  1  0.00000000  0.00000000  0.50000000  1
  Ni  Ni10  1  0.50000000  0.50000000  0.50000000  1
  Ni  Ni11  1  0.00000000  0.00000000  0.00000000  1
  Ni  Ni12  1  0.23374900  0.23374900  0.71170200  1
  Ni  Ni13  1  0.76625100  0.76625100  0.28829800  1
  Ni  Ni14  1  0.26625100  0.26625100  0.21170200  1
  Ni  Ni15  1  0.73374900  0.73374900  0.78829800  1
  Ni  Ni16  1  0.93141000  0.43141000  0.75000000  1
  Ni  Ni17  1  0.56859000  0.06859000  0.25000000  1
  Ni  Ni18  1  0.06859000  0.56859000  0.25000000  1
  Ni  Ni19  1  0.43141000  0.93141000  0.75000000  1
  Ni  Ni20  1  0.99030200  0.18338300  0.83956300  1
  Ni  Ni21  1  0.81661700  0.00969800  0.16043700  1
  Ni  Ni22  1  0.31661700  0.50969800  0.33956300  1
  Ni  Ni23  1  0.49030200  0.68338300  0.66043700  1
  Ni  Ni24  1  0.00969800  0.81661700  0.16043700  1
  Ni  Ni25  1  0.18338300  0.99030200  0.83956300  1
  Ni  Ni26  1  0.68338300  0.49030200  0.66043700  1
  Ni  Ni27  1  0.50969800  0.31661700  0.33956300  1
  Ni  Ni28  1  0.25691400  0.47164800  0.59748100  1
  Ni  Ni29  1  0.52835200  0.74308600  0.40251900  1
  Ni  Ni30  1  0.02835200  0.24308600  0.09748100  1
  Ni  Ni31  1  0.75691400  0.97164800  0.90251900  1
  Ni  Ni32  1  0.74308600  0.52835200  0.40251900  1
  Ni  Ni33  1  0.47164800  0.25691400  0.59748100  1
  Ni  Ni34  1  0.97164800  0.75691400  0.90251900  1
  Ni  Ni35  1  0.24308600  0.02835200  0.09748100  1
  Ni  Ni36  1  0.99448700  0.22658500  0.61839200  1
  Ni  Ni37  1  0.77341500  0.00551300  0.38160800  1
  Ni  Ni38  1  0.27341500  0.50551300  0.11839200  1
  Ni  Ni39  1  0.49448700  0.72658500  0.88160800  1
  Ni  Ni40  1  0.00551300  0.77341500  0.38160800  1
  Ni  Ni41  1  0.22658500  0.99448700  0.61839200  1
  Ni  Ni42  1  0.72658500  0.49448700  0.88160800  1
  Ni  Ni43  1  0.50551300  0.27341500  0.11839200  1
  Ni  Ni44  1  0.10625800  0.44659700  0.91488700  1
  Ni  Ni45  1  0.55340300  0.89374200  0.08511300  1
  Ni  Ni46  1  0.05340300  0.39374200  0.41488700  1
  Ni  Ni47  1  0.60625800  0.94659700  0.58511300  1
  Ni  Ni48  1  0.89374200  0.55340300  0.08511300  1
  Ni  Ni49  1  0.44659700  0.10625800  0.91488700  1
  Ni  Ni50  1  0.94659700  0.60625800  0.58511300  1
  Ni  Ni51  1  0.39374200  0.05340300  0.41488700  1
  Ni  Ni52  1  0.33081000  0.48899900  0.80614200  1
  Ni  Ni53  1  0.51100100  0.66919000  0.19385800  1
  Ni  Ni54  1  0.01100100  0.16919000  0.30614200  1
  Ni  Ni55  1  0.83081000  0.98899900  0.69385800  1
  Ni  Ni56  1  0.66919000  0.51100100  0.19385800  1
  Ni  Ni57  1  0.48899900  0.33081000  0.80614200  1
  Ni  Ni58  1  0.98899900  0.83081000  0.69385800  1
  Ni  Ni59  1  0.16919000  0.01100100  0.30614200  1
  Ni  Ni60  1  0.83798200  0.36346200  0.52959200  1
  Ni  Ni61  1  0.63653800  0.16201800  0.47040800  1
  Ni  Ni62  1  0.13653800  0.66201800  0.02959200  1
  Ni  Ni63  1  0.33798200  0.86346200  0.97040800  1
  Ni  Ni64  1  0.16201800  0.63653800  0.47040800  1
  Ni  Ni65  1  0.36346200  0.83798200  0.52959200  1
  Ni  Ni66  1  0.86346200  0.33798200  0.97040800  1
  Ni  Ni67  1  0.66201800  0.13653800  0.02959200  1
  B  B68  1  0.36468900  0.63531100  0.50000000  1
  B  B69  1  0.86468900  0.13531100  0.00000000  1
  B  B70  1  0.63531100  0.36468900  0.50000000  1
  B  B71  1  0.13531100  0.86468900  0.00000000  1
  B  B72  1  0.45259900  0.45259900  0.67173400  1
  B  B73  1  0.54740100  0.54740100  0.32826600  1
  B  B74  1  0.04740100  0.04740100  0.17173400  1
  B  B75  1  0.95259900  0.95259900  0.82826600  1
  B  B76  1  0.05633400  0.05633400  0.69985300  1
  B  B77  1  0.94366600  0.94366600  0.30014700  1
  B  B78  1  0.44366600  0.44366600  0.19985300  1
  B  B79  1  0.55633400  0.55633400  0.80014700  1
  B  B80  1  0.11969000  0.37774800  0.74443300  1
  B  B81  1  0.62225200  0.88031000  0.25556700  1
  B  B82  1  0.12225200  0.38031000  0.24443300  1
  B  B83  1  0.61969000  0.87774800  0.75556700  1
  B  B84  1  0.88031000  0.62225200  0.25556700  1
  B  B85  1  0.37774800  0.11969000  0.74443300  1
  B  B86  1  0.87774800  0.61969000  0.75556700  1
  B  B87  1  0.38031000  0.12225200  0.24443300  1
  B  B88  1  0.29789500  0.59189000  0.95001400  1
  B  B89  1  0.40811000  0.70210500  0.04998600  1
  B  B90  1  0.90811000  0.20210500  0.45001400  1
  B  B91  1  0.79789500  0.09189000  0.54998600  1
  B  B92  1  0.70210500  0.40811000  0.04998600  1
  B  B93  1  0.59189000  0.29789500  0.95001400  1
  B  B94  1  0.09189000  0.79789500  0.54998600  1
  B  B95  1  0.20210500  0.90811000  0.45001400  1
  B  B96  1  0.04887700  0.44913600  0.59978600  1
  B  B97  1  0.55086400  0.95112300  0.40021400  1
  B  B98  1  0.05086400  0.45112300  0.09978600  1
  B  B99  1  0.54887700  0.94913600  0.90021400  1
  B  B100  1  0.95112300  0.55086400  0.40021400  1
  B  B101  1  0.44913600  0.04887700  0.59978600  1
  B  B102  1  0.94913600  0.54887700  0.90021400  1
  B  B103  1  0.45112300  0.05086400  0.09978600  1
