# generated using pymatgen
data_Sr13Hg58
_symmetry_space_group_name_H-M   'P 1'
_cell_length_a   15.77471651
_cell_length_b   17.07733655
_cell_length_c   17.07733655
_cell_angle_alpha   119.99998788
_cell_angle_beta   90.00000000
_cell_angle_gamma   90.00000000
_symmetry_Int_Tables_number   1
_chemical_formula_structural   Sr13Hg58
_chemical_formula_sum   'Sr26 Hg116'
_cell_volume   3984.12102719
_cell_formula_units_Z   2
loop_
 _symmetry_equiv_pos_site_id
 _symmetry_equiv_pos_as_xyz
  1  'x, y, z'
loop_
 _atom_site_type_symbol
 _atom_site_label
 _atom_site_symmetry_multiplicity
 _atom_site_fract_x
 _atom_site_fract_y
 _atom_site_fract_z
 _atom_site_occupancy
  Sr  Sr0  1  0.50000000  -0.00000000  -0.00000000  1
  Sr  Sr1  1  -0.00000000  -0.00000000  -0.00000000  1
  Sr  Sr2  1  0.75000000  0.45930353  0.91860459  1
  Sr  Sr3  1  0.75000000  0.45930368  0.54069632  1
  Sr  Sr4  1  0.75000000  0.08139541  0.54069647  1
  Sr  Sr5  1  0.25000000  0.54069647  0.08139541  1
  Sr  Sr6  1  0.25000000  0.54069632  0.45930368  1
  Sr  Sr7  1  0.25000000  0.91860459  0.45930353  1
  Sr  Sr8  1  0.75000000  0.12479542  0.24958866  1
  Sr  Sr9  1  0.75000000  0.12479091  0.87520909  1
  Sr  Sr10  1  0.75000000  0.75041134  0.87520458  1
  Sr  Sr11  1  0.25000000  0.87520458  0.75041134  1
  Sr  Sr12  1  0.25000000  0.87520909  0.12479091  1
  Sr  Sr13  1  0.25000000  0.24958866  0.12479542  1
  Sr  Sr14  1  0.55744144  0.79237050  0.58474193  1
  Sr  Sr15  1  0.55743762  0.79237328  0.20762672  1
  Sr  Sr16  1  0.55744144  0.41525807  0.20762950  1
  Sr  Sr17  1  0.44255856  0.20762950  0.41525807  1
  Sr  Sr18  1  0.44256238  0.20762672  0.79237328  1
  Sr  Sr19  1  0.44255856  0.58474193  0.79237050  1
  Sr  Sr20  1  0.05744144  0.20762950  0.41525807  1
  Sr  Sr21  1  0.05743762  0.20762672  0.79237328  1
  Sr  Sr22  1  0.05744144  0.58474193  0.79237050  1
  Sr  Sr23  1  0.94255856  0.79237050  0.58474193  1
  Sr  Sr24  1  0.94256238  0.79237328  0.20762672  1
  Sr  Sr25  1  0.94255856  0.41525807  0.20762950  1
  Hg  Hg26  1  0.75000000  0.99999964  0.00000036  1
  Hg  Hg27  1  0.25000000  0.00000036  0.99999964  1
  Hg  Hg28  1  0.25000000  0.66666609  0.33333391  1
  Hg  Hg29  1  0.75000000  0.33333391  0.66666609  1
  Hg  Hg30  1  0.59246829  0.66667160  0.33332840  1
  Hg  Hg31  1  0.40753171  0.33332840  0.66667160  1
  Hg  Hg32  1  0.09246829  0.33332840  0.66667160  1
  Hg  Hg33  1  0.90753171  0.66667160  0.33332840  1
  Hg  Hg34  1  0.50000000  0.50000000  -0.00000000  1
  Hg  Hg35  1  0.50000000  0.50000000  0.50000000  1
  Hg  Hg36  1  0.50000000  -0.00000000  0.50000000  1
  Hg  Hg37  1  -0.00000000  0.50000000  -0.00000000  1
  Hg  Hg38  1  -0.00000000  0.50000000  0.50000000  1
  Hg  Hg39  1  -0.00000000  -0.00000000  0.50000000  1
  Hg  Hg40  1  0.75000000  0.73384867  0.46769879  1
  Hg  Hg41  1  0.75000000  0.73385296  0.26614704  1
  Hg  Hg42  1  0.75000000  0.53230121  0.26615133  1
  Hg  Hg43  1  0.25000000  0.26615133  0.53230121  1
  Hg  Hg44  1  0.25000000  0.26614704  0.73385296  1
  Hg  Hg45  1  0.25000000  0.46769879  0.73384867  1
  Hg  Hg46  1  0.50000012  0.80058765  0.99999904  1
  Hg  Hg47  1  0.50000000  0.19941195  0.19941195  1
  Hg  Hg48  1  0.49999988  0.99999904  0.80058765  1
  Hg  Hg49  1  0.49999988  0.19941235  0.00000096  1
  Hg  Hg50  1  0.50000012  0.00000096  0.19941235  1
  Hg  Hg51  1  0.50000000  0.80058805  0.80058805  1
  Hg  Hg52  1  0.00000012  0.19941235  0.00000096  1
  Hg  Hg53  1  -0.00000000  0.80058805  0.80058805  1
  Hg  Hg54  1  -0.00000012  0.00000096  0.19941235  1
  Hg  Hg55  1  -0.00000012  0.80058765  0.99999904  1
  Hg  Hg56  1  0.00000012  0.99999904  0.80058765  1
  Hg  Hg57  1  -0.00000000  0.19941195  0.19941195  1
  Hg  Hg58  1  0.75000000  0.92046625  0.64857848  1
  Hg  Hg59  1  0.75000000  0.72811466  0.07953001  1
  Hg  Hg60  1  0.75000000  0.35141976  0.27188856  1
  Hg  Hg61  1  0.75000000  0.72811144  0.64858024  1
  Hg  Hg62  1  0.75000000  0.35142152  0.07953375  1
  Hg  Hg63  1  0.75000000  0.92046999  0.27188534  1
  Hg  Hg64  1  0.25000000  0.07953375  0.35142152  1
  Hg  Hg65  1  0.25000000  0.27188534  0.92046999  1
  Hg  Hg66  1  0.25000000  0.64858024  0.72811144  1
  Hg  Hg67  1  0.25000000  0.27188856  0.35141976  1
  Hg  Hg68  1  0.25000000  0.64857848  0.92046625  1
  Hg  Hg69  1  0.25000000  0.07953001  0.72811466  1
  Hg  Hg70  1  0.65596089  0.90685380  0.81370759  1
  Hg  Hg71  1  0.65596140  0.90685347  0.09314653  1
  Hg  Hg72  1  0.65596089  0.18629241  0.09314620  1
  Hg  Hg73  1  0.34403911  0.09314620  0.18629241  1
  Hg  Hg74  1  0.34403860  0.09314653  0.90685347  1
  Hg  Hg75  1  0.34403911  0.81370759  0.90685380  1
  Hg  Hg76  1  0.15596089  0.09314620  0.18629241  1
  Hg  Hg77  1  0.15596140  0.09314653  0.90685347  1
  Hg  Hg78  1  0.15596089  0.81370759  0.90685380  1
  Hg  Hg79  1  0.84403911  0.90685380  0.81370759  1
  Hg  Hg80  1  0.84403860  0.90685347  0.09314653  1
  Hg  Hg81  1  0.84403911  0.18629241  0.09314620  1
  Hg  Hg82  1  0.64856821  0.56221501  0.12442905  1
  Hg  Hg83  1  0.64856603  0.56221778  0.43778222  1
  Hg  Hg84  1  0.64856821  0.87557095  0.43778499  1
  Hg  Hg85  1  0.35143179  0.43778499  0.87557095  1
  Hg  Hg86  1  0.35143397  0.43778222  0.56221778  1
  Hg  Hg87  1  0.35143179  0.12442905  0.56221501  1
  Hg  Hg88  1  0.14856821  0.43778499  0.87557095  1
  Hg  Hg89  1  0.14856603  0.43778222  0.56221778  1
  Hg  Hg90  1  0.14856821  0.12442905  0.56221501  1
  Hg  Hg91  1  0.85143179  0.56221501  0.12442905  1
  Hg  Hg92  1  0.85143397  0.56221778  0.43778222  1
  Hg  Hg93  1  0.85143179  0.87557095  0.43778499  1
  Hg  Hg94  1  0.55587363  0.40010047  0.80020679  1
  Hg  Hg95  1  0.55586353  0.40009969  0.59990031  1
  Hg  Hg96  1  0.55587363  0.19979321  0.59989953  1
  Hg  Hg97  1  0.44412637  0.59989953  0.19979321  1
  Hg  Hg98  1  0.44413647  0.59990031  0.40009969  1
  Hg  Hg99  1  0.44412637  0.80020679  0.40010047  1
  Hg  Hg100  1  0.05587363  0.59989953  0.19979321  1
  Hg  Hg101  1  0.05586353  0.59990031  0.40009969  1
  Hg  Hg102  1  0.05587363  0.80020679  0.40010047  1
  Hg  Hg103  1  0.94412637  0.40010047  0.80020679  1
  Hg  Hg104  1  0.94413647  0.40009969  0.59990031  1
  Hg  Hg105  1  0.94412637  0.19979321  0.59989953  1
  Hg  Hg106  1  0.65967952  0.23409885  0.46819406  1
  Hg  Hg107  1  0.65968104  0.23409497  0.76590503  1
  Hg  Hg108  1  0.65967952  0.53180594  0.76590115  1
  Hg  Hg109  1  0.34032048  0.76590115  0.53180594  1
  Hg  Hg110  1  0.34031896  0.76590503  0.23409497  1
  Hg  Hg111  1  0.34032048  0.46819406  0.23409885  1
  Hg  Hg112  1  0.15967952  0.76590115  0.53180594  1
  Hg  Hg113  1  0.15968104  0.76590503  0.23409497  1
  Hg  Hg114  1  0.15967952  0.46819406  0.23409885  1
  Hg  Hg115  1  0.84032048  0.23409885  0.46819406  1
  Hg  Hg116  1  0.84031896  0.23409497  0.76590503  1
  Hg  Hg117  1  0.84032048  0.53180594  0.76590115  1
  Hg  Hg118  1  0.60509680  0.63494095  0.96031186  1
  Hg  Hg119  1  0.60509455  0.32537493  0.36506062  1
  Hg  Hg120  1  0.60509633  0.03968541  0.67462712  1
  Hg  Hg121  1  0.60509633  0.32537288  0.96031459  1
  Hg  Hg122  1  0.60509680  0.03968814  0.36505905  1
  Hg  Hg123  1  0.60509455  0.63493938  0.67462507  1
  Hg  Hg124  1  0.39490320  0.36505905  0.03968814  1
  Hg  Hg125  1  0.39490545  0.67462507  0.63493938  1
  Hg  Hg126  1  0.39490367  0.96031459  0.32537288  1
  Hg  Hg127  1  0.39490367  0.67462712  0.03968541  1
  Hg  Hg128  1  0.39490320  0.96031186  0.63494095  1
  Hg  Hg129  1  0.39490545  0.36506062  0.32537493  1
  Hg  Hg130  1  0.10509680  0.36505905  0.03968814  1
  Hg  Hg131  1  0.10509455  0.67462507  0.63493938  1
  Hg  Hg132  1  0.10509633  0.96031459  0.32537288  1
  Hg  Hg133  1  0.10509633  0.67462712  0.03968541  1
  Hg  Hg134  1  0.10509680  0.96031186  0.63494095  1
  Hg  Hg135  1  0.10509455  0.36506062  0.32537493  1
  Hg  Hg136  1  0.89490320  0.63494095  0.96031186  1
  Hg  Hg137  1  0.89490545  0.32537493  0.36506062  1
  Hg  Hg138  1  0.89490367  0.03968541  0.67462712  1
  Hg  Hg139  1  0.89490367  0.32537288  0.96031459  1
  Hg  Hg140  1  0.89490320  0.03968814  0.36505905  1
  Hg  Hg141  1  0.89490545  0.63493938  0.67462507  1
