# generated using pymatgen
data_CoH24C4S4N8(ClO4)2
_symmetry_space_group_name_H-M   'P 1'
_cell_length_a   8.59530400
_cell_length_b   8.98725841
_cell_length_c   9.14609237
_cell_angle_alpha   74.34534348
_cell_angle_beta   76.70136562
_cell_angle_gamma   64.90872108
_symmetry_Int_Tables_number   1
_chemical_formula_structural   CoH24C4S4N8(ClO4)2
_chemical_formula_sum   'Co1 H24 C4 S4 N8 Cl2 O8'
_cell_volume   610.67543307
_cell_formula_units_Z   1
loop_
 _symmetry_equiv_pos_site_id
 _symmetry_equiv_pos_as_xyz
  1  'x, y, z'
loop_
 _atom_site_type_symbol
 _atom_site_label
 _atom_site_symmetry_multiplicity
 _atom_site_fract_x
 _atom_site_fract_y
 _atom_site_fract_z
 _atom_site_occupancy
  Co  Co0  1  0.00000000  0.00000000  0.00000000  1
  H  H1  1  0.60106000  0.60680200  0.38545900  1
  H  H2  1  0.39894000  0.39319800  0.61454100  1
  H  H3  1  0.73347200  0.38627900  0.40706200  1
  H  H4  1  0.26652800  0.61372100  0.59293800  1
  H  H5  1  0.82359400  0.53990800  0.29794500  1
  H  H6  1  0.17640600  0.46009200  0.70205500  1
  H  H7  1  0.82541000  0.37623000  0.97788400  1
  H  H8  1  0.17459000  0.62377000  0.02211600  1
  H  H9  1  0.66841700  0.19874400  0.13328300  1
  H  H10  1  0.33158300  0.80125600  0.86671700  1
  H  H11  1  0.81385900  0.13673300  0.25038400  1
  H  H12  1  0.18614100  0.86326700  0.74961600  1
  H  H13  1  0.64755300  0.76752900  0.58815500  1
  H  H14  1  0.35244700  0.23247100  0.41184500  1
  H  H15  1  0.76871100  0.68916400  0.74698500  1
  H  H16  1  0.23128900  0.31083600  0.25301500  1
  H  H17  1  0.86777400  0.75511600  0.55576000  1
  H  H18  1  0.13222600  0.24488400  0.44424000  1
  H  H19  1  0.84975900  0.08571700  0.71072300  1
  H  H20  1  0.15024100  0.91428300  0.28927700  1
  H  H21  1  0.67618600  0.02031600  0.95858000  1
  H  H22  1  0.32381400  0.97968400  0.04142000  1
  H  H23  1  0.82192300  0.82814300  0.96133100  1
  H  H24  1  0.17807700  0.17185700  0.03866900  1
  C  C25  1  0.70812400  0.50926600  0.33112400  1
  C  C26  1  0.29187600  0.49073400  0.66887600  1
  C  C27  1  0.74814700  0.77619900  0.63657200  1
  C  C28  1  0.25185300  0.22380100  0.36342800  1
  S  S29  1  0.63855100  0.50823000  0.16324600  1
  S  S30  1  0.36144900  0.49177000  0.83675400  1
  S  S31  1  0.66750300  0.98278300  0.66966800  1
  S  S32  1  0.33249700  0.01721700  0.33033200  1
  N  N33  1  0.80445100  0.34585400  0.09589300  1
  N  N34  1  0.19554900  0.65414600  0.90410700  1
  N  N35  1  0.79187500  0.18610400  0.13865800  1
  N  N36  1  0.20812500  0.81389600  0.86134200  1
  N  N37  1  0.82418500  0.97862600  0.75483700  1
  N  N38  1  0.17581500  0.02137400  0.24516300  1
  N  N39  1  0.80180400  0.95151500  0.91785400  1
  N  N40  1  0.19819600  0.04848500  0.08214600  1
  Cl  Cl41  1  0.01045300  0.77816100  0.21798400  1
  Cl  Cl42  1  0.98954700  0.22183900  0.78201600  1
  O  O43  1  0.48274800  0.47254600  0.20822000  1
  O  O44  1  0.51725200  0.52745400  0.79178000  1
  O  O45  1  0.63913100  0.65549000  0.04899600  1
  O  O46  1  0.36086900  0.34451000  0.95100400  1
  O  O47  1  0.50816300  0.01125600  0.77551000  1
  O  O48  1  0.49183700  0.98874400  0.22449000  1
  O  O49  1  0.66924600  0.09895800  0.52438600  1
  O  O50  1  0.33075400  0.90104200  0.47561400  1
