# generated using pymatgen
data_Pr2Fe6Co8B
_symmetry_space_group_name_H-M   'P 1'
_cell_length_a   8.73294400
_cell_length_b   8.73294400
_cell_length_c   11.87686600
_cell_angle_alpha   90.00000000
_cell_angle_beta   90.00000000
_cell_angle_gamma   90.00000000
_symmetry_Int_Tables_number   1
_chemical_formula_structural   Pr2Fe6Co8B
_chemical_formula_sum   'Pr8 Fe24 Co32 B4'
_cell_volume   905.78100123
_cell_formula_units_Z   4
loop_
 _symmetry_equiv_pos_site_id
 _symmetry_equiv_pos_as_xyz
  1  'x, y, z'
loop_
 _atom_site_type_symbol
 _atom_site_label
 _atom_site_symmetry_multiplicity
 _atom_site_fract_x
 _atom_site_fract_y
 _atom_site_fract_z
 _atom_site_occupancy
  Pr  Pr0  1  0.23054500  0.76945500  0.50000000  1
  Pr  Pr1  1  0.76945500  0.23054500  0.50000000  1
  Pr  Pr2  1  0.26945500  0.26945500  0.00000000  1
  Pr  Pr3  1  0.73054500  0.73054500  0.00000000  1
  Pr  Pr4  1  0.64314600  0.64314600  0.50000000  1
  Pr  Pr5  1  0.35685400  0.35685400  0.50000000  1
  Pr  Pr6  1  0.85685400  0.14314600  0.00000000  1
  Pr  Pr7  1  0.14314600  0.85685400  0.00000000  1
  Fe  Fe8  1  0.00000000  0.50000000  0.50000000  1
  Fe  Fe9  1  0.50000000  0.00000000  0.00000000  1
  Fe  Fe10  1  0.50000000  0.00000000  0.50000000  1
  Fe  Fe11  1  0.00000000  0.50000000  0.00000000  1
  Fe  Fe12  1  0.50000000  0.50000000  0.11555500  1
  Fe  Fe13  1  0.00000000  0.00000000  0.61555500  1
  Fe  Fe14  1  0.50000000  0.50000000  0.88444500  1
  Fe  Fe15  1  0.00000000  0.00000000  0.38444500  1
  Fe  Fe16  1  0.93281800  0.72312300  0.37043900  1
  Fe  Fe17  1  0.06718200  0.27687700  0.37043900  1
  Fe  Fe18  1  0.56718200  0.22312300  0.87043900  1
  Fe  Fe19  1  0.43281800  0.77687700  0.87043900  1
  Fe  Fe20  1  0.06718200  0.27687700  0.62956100  1
  Fe  Fe21  1  0.93281800  0.72312300  0.62956100  1
  Fe  Fe22  1  0.43281800  0.77687700  0.12956100  1
  Fe  Fe23  1  0.56718200  0.22312300  0.12956100  1
  Fe  Fe24  1  0.72312300  0.93281800  0.37043900  1
  Fe  Fe25  1  0.27687700  0.06718200  0.37043900  1
  Fe  Fe26  1  0.22312300  0.56718200  0.87043900  1
  Fe  Fe27  1  0.77687700  0.43281800  0.87043900  1
  Fe  Fe28  1  0.27687700  0.06718200  0.62956100  1
  Fe  Fe29  1  0.72312300  0.93281800  0.62956100  1
  Fe  Fe30  1  0.77687700  0.43281800  0.12956100  1
  Fe  Fe31  1  0.22312300  0.56718200  0.12956100  1
  Co  Co32  1  0.18230600  0.81769400  0.25144200  1
  Co  Co33  1  0.81769400  0.18230600  0.25144200  1
  Co  Co34  1  0.31769400  0.31769400  0.75144200  1
  Co  Co35  1  0.68230600  0.68230600  0.75144200  1
  Co  Co36  1  0.81769400  0.18230600  0.74855800  1
  Co  Co37  1  0.18230600  0.81769400  0.74855800  1
  Co  Co38  1  0.68230600  0.68230600  0.24855800  1
  Co  Co39  1  0.31769400  0.31769400  0.24855800  1
  Co  Co40  1  0.40038700  0.59961300  0.29069400  1
  Co  Co41  1  0.59961300  0.40038700  0.29069400  1
  Co  Co42  1  0.09961300  0.09961300  0.79069400  1
  Co  Co43  1  0.90038700  0.90038700  0.79069400  1
  Co  Co44  1  0.59961300  0.40038700  0.70930600  1
  Co  Co45  1  0.40038700  0.59961300  0.70930600  1
  Co  Co46  1  0.90038700  0.90038700  0.20930600  1
  Co  Co47  1  0.09961300  0.09961300  0.20930600  1
  Co  Co48  1  0.14063400  0.53592500  0.32129400  1
  Co  Co49  1  0.85936600  0.46407500  0.32129400  1
  Co  Co50  1  0.35936600  0.03592500  0.82129400  1
  Co  Co51  1  0.64063400  0.96407500  0.82129400  1
  Co  Co52  1  0.85936600  0.46407500  0.67870600  1
  Co  Co53  1  0.14063400  0.53592500  0.67870600  1
  Co  Co54  1  0.64063400  0.96407500  0.17870600  1
  Co  Co55  1  0.35936600  0.03592500  0.17870600  1
  Co  Co56  1  0.53592500  0.14063400  0.32129400  1
  Co  Co57  1  0.46407500  0.85936600  0.32129400  1
  Co  Co58  1  0.03592500  0.35936600  0.82129400  1
  Co  Co59  1  0.96407500  0.64063400  0.82129400  1
  Co  Co60  1  0.46407500  0.85936600  0.67870600  1
  Co  Co61  1  0.53592500  0.14063400  0.67870600  1
  Co  Co62  1  0.96407500  0.64063400  0.17870600  1
  Co  Co63  1  0.03592500  0.35936600  0.17870600  1
  B  B64  1  0.87602500  0.87602500  0.50000000  1
  B  B65  1  0.12397500  0.12397500  0.50000000  1
  B  B66  1  0.62397500  0.37602500  0.00000000  1
  B  B67  1  0.37602500  0.62397500  0.00000000  1
