# generated using pymatgen
data_SiH12(CO)4
_symmetry_space_group_name_H-M   'P 1'
_cell_length_a   6.12323100
_cell_length_b   9.00427224
_cell_length_c   9.00427224
_cell_angle_alpha   83.36105469
_cell_angle_beta   70.12202006
_cell_angle_gamma   70.12202006
_symmetry_Int_Tables_number   1
_chemical_formula_structural   SiH12(CO)4
_chemical_formula_sum   'Si2 H24 C8 O8'
_cell_volume   439.05664110
_cell_formula_units_Z   2
loop_
 _symmetry_equiv_pos_site_id
 _symmetry_equiv_pos_as_xyz
  1  'x, y, z'
loop_
 _atom_site_type_symbol
 _atom_site_label
 _atom_site_symmetry_multiplicity
 _atom_site_fract_x
 _atom_site_fract_y
 _atom_site_fract_z
 _atom_site_occupancy
  Si  Si0  1  0.12500000  0.25000000  0.75000000  1
  Si  Si1  1  0.87500000  0.75000000  0.25000000  1
  H  H2  1  0.00758200  0.65288300  0.84753500  1
  H  H3  1  0.50800000  0.84711700  0.65246500  1
  H  H4  1  0.16046500  0.84753500  0.84711700  1
  H  H5  1  0.85511700  0.65246500  0.65288300  1
  H  H6  1  0.99241800  0.34711700  0.15246500  1
  H  H7  1  0.49200000  0.15288300  0.34753500  1
  H  H8  1  0.83953500  0.15246500  0.15288300  1
  H  H9  1  0.14488300  0.34753500  0.34711700  1
  H  H10  1  0.35413100  0.44804400  0.66972500  1
  H  H11  1  0.47189900  0.05195600  0.83027500  1
  H  H12  1  0.30217400  0.66972500  0.05195600  1
  H  H13  1  0.02385500  0.83027500  0.44804400  1
  H  H14  1  0.64586900  0.55195600  0.33027500  1
  H  H15  1  0.52810100  0.94804400  0.16972500  1
  H  H16  1  0.69782600  0.33027500  0.94804400  1
  H  H17  1  0.97614500  0.16972500  0.55195600  1
  H  H18  1  0.25799100  0.42009600  0.87854900  1
  H  H19  1  0.55663600  0.07990400  0.62145100  1
  H  H20  1  0.17808700  0.87854900  0.07990400  1
  H  H21  1  0.13654000  0.62145100  0.42009600  1
  H  H22  1  0.74200900  0.57990400  0.12145100  1
  H  H23  1  0.44336400  0.92009600  0.37854900  1
  H  H24  1  0.82191300  0.12145100  0.92009600  1
  H  H25  1  0.86346000  0.37854900  0.57990400  1
  C  C26  1  0.20105400  0.43273000  0.77268600  1
  C  C27  1  0.40647000  0.06727000  0.72731400  1
  C  C28  1  0.13378500  0.77268600  0.06727000  1
  C  C29  1  0.97374000  0.72731400  0.43273000  1
  C  C30  1  0.79894600  0.56727000  0.22731400  1
  C  C31  1  0.59353000  0.93273000  0.27268600  1
  C  C32  1  0.86621500  0.22731400  0.93273000  1
  C  C33  1  0.02626000  0.27268600  0.56727000  1
  O  O34  1  0.98433000  0.57052800  0.79355500  1
  O  O35  1  0.34841400  0.92947200  0.70644500  1
  O  O36  1  0.05485800  0.79355500  0.92947200  1
  O  O37  1  0.77788600  0.70644500  0.57052800  1
  O  O38  1  0.01567000  0.42947200  0.20644500  1
  O  O39  1  0.65158600  0.07052800  0.29355500  1
  O  O40  1  0.94514200  0.20644500  0.07052800  1
  O  O41  1  0.22211400  0.29355500  0.42947200  1
