# generated using pymatgen
data_ZnS
_symmetry_space_group_name_H-M   'P 1'
_cell_length_a   3.87388181
_cell_length_b   3.87388181
_cell_length_c   56.39201851
_cell_angle_alpha   88.03163039
_cell_angle_beta   88.03163039
_cell_angle_gamma   60.00000330
_symmetry_Int_Tables_number   1
_chemical_formula_structural   ZnS
_chemical_formula_sum   'Zn18 S18'
_cell_volume   732.31709335
_cell_formula_units_Z   18
loop_
 _symmetry_equiv_pos_site_id
 _symmetry_equiv_pos_as_xyz
  1  'x, y, z'
loop_
 _atom_site_type_symbol
 _atom_site_label
 _atom_site_symmetry_multiplicity
 _atom_site_fract_x
 _atom_site_fract_y
 _atom_site_fract_z
 _atom_site_occupancy
  Zn  Zn0  1  0.99999500  0.99999500  0.00001500  1
  Zn  Zn1  1  0.94443900  0.94443900  0.16668200  1
  Zn  Zn2  1  0.90740300  0.90740300  0.27779100  1
  Zn  Zn3  1  0.85184900  0.85184900  0.44445400  1
  Zn  Zn4  1  0.81480700  0.81480700  0.55557900  1
  Zn  Zn5  1  0.75925600  0.75925600  0.72223300  1
  Zn  Zn6  1  0.72221200  0.72221200  0.83336400  1
  Zn  Zn7  1  0.64814900  0.64814900  0.05555400  1
  Zn  Zn8  1  0.59258800  0.59258800  0.22223600  1
  Zn  Zn9  1  0.53703400  0.53703400  0.38889700  1
  Zn  Zn10  1  0.46296000  0.46296000  0.61112100  1
  Zn  Zn11  1  0.40740500  0.40740500  0.77778500  1
  Zn  Zn12  1  0.35185200  0.35185200  0.94444300  1
  Zn  Zn13  1  0.29629500  0.29629500  0.11111500  1
  Zn  Zn14  1  0.22222100  0.22222100  0.33333600  1
  Zn  Zn15  1  0.16666700  0.16666700  0.50000000  1
  Zn  Zn16  1  0.11110600  0.11110600  0.66668300  1
  Zn  Zn17  1  0.03703900  0.03703900  0.88888400  1
  S  S18  1  0.98611900  0.98611900  0.04164300  1
  S  S19  1  0.93058100  0.93058100  0.20825700  1
  S  S20  1  0.89352600  0.89352600  0.31942100  1
  S  S21  1  0.83799200  0.83799200  0.48602300  1
  S  S22  1  0.80093000  0.80093000  0.59721000  1
  S  S23  1  0.74540100  0.74540100  0.76379700  1
  S  S24  1  0.70834500  0.70834500  0.87496500  1
  S  S25  1  0.63427300  0.63427300  0.09718100  1
  S  S26  1  0.57869900  0.57869900  0.26390400  1
  S  S27  1  0.52316300  0.52316300  0.43051100  1
  S  S28  1  0.44908300  0.44908300  0.65275200  1
  S  S29  1  0.39351900  0.39351900  0.81944200  1
  S  S30  1  0.33795900  0.33795900  0.98612300  1
  S  S31  1  0.28242300  0.28242300  0.15273000  1
  S  S32  1  0.20834500  0.20834500  0.37496500  1
  S  S33  1  0.15277500  0.15277500  0.54167600  1
  S  S34  1  0.09723500  0.09723500  0.70829400  1
  S  S35  1  0.02317500  0.02317500  0.93047400  1
