# generated using pymatgen
data_GaP2H15C5(NO4)2
_symmetry_space_group_name_H-M   'P 1'
_cell_length_a   15.46824600
_cell_length_b   9.09901800
_cell_length_c   12.85719536
_cell_angle_alpha   45.69379652
_cell_angle_beta   90.00000000
_cell_angle_gamma   90.00000000
_symmetry_Int_Tables_number   1
_chemical_formula_structural   GaP2H15C5(NO4)2
_chemical_formula_sum   'Ga4 P8 H60 C20 N8 O32'
_cell_volume   1294.97848711
_cell_formula_units_Z   4
loop_
 _symmetry_equiv_pos_site_id
 _symmetry_equiv_pos_as_xyz
  1  'x, y, z'
loop_
 _atom_site_type_symbol
 _atom_site_label
 _atom_site_symmetry_multiplicity
 _atom_site_fract_x
 _atom_site_fract_y
 _atom_site_fract_z
 _atom_site_occupancy
  Ga  Ga0  1  0.99570900  0.26438800  0.24415100  1
  Ga  Ga1  1  0.50429100  0.26438800  0.74415100  1
  Ga  Ga2  1  0.00429100  0.73561200  0.75584900  1
  Ga  Ga3  1  0.49570900  0.73561200  0.25584900  1
  P  P4  1  0.91246100  0.84742600  0.49702300  1
  P  P5  1  0.58753900  0.84742600  0.99702300  1
  P  P6  1  0.08753900  0.15257400  0.50297700  1
  P  P7  1  0.41246100  0.15257400  0.00297700  1
  P  P8  1  0.89197300  0.66171500  0.99564300  1
  P  P9  1  0.60802700  0.66171500  0.49564300  1
  P  P10  1  0.10802700  0.33828500  0.00435700  1
  P  P11  1  0.39197300  0.33828500  0.50435700  1
  H  H12  1  0.79773000  0.71270200  0.48747900  1
  H  H13  1  0.70227000  0.71270200  0.98747900  1
  H  H14  1  0.20227000  0.28729800  0.51252100  1
  H  H15  1  0.29773000  0.28729800  0.01252100  1
  H  H16  1  0.81077200  0.13106800  0.48648200  1
  H  H17  1  0.68922800  0.13106800  0.98648200  1
  H  H18  1  0.18922800  0.86893200  0.51351800  1
  H  H19  1  0.31077200  0.86893200  0.01351800  1
  H  H20  1  0.67606500  0.45992500  0.35041600  1
  H  H21  1  0.82393500  0.45992500  0.85041600  1
  H  H22  1  0.32393500  0.54007500  0.64958400  1
  H  H23  1  0.17606500  0.54007500  0.14958400  1
  H  H24  1  0.75865000  0.45542700  0.25536000  1
  H  H25  1  0.74135000  0.45542700  0.75536000  1
  H  H26  1  0.24135000  0.54457300  0.74464000  1
  H  H27  1  0.25865000  0.54457300  0.24464000  1
  H  H28  1  0.62003500  0.31435500  0.25533300  1
  H  H29  1  0.87996500  0.31435500  0.75533300  1
  H  H30  1  0.37996500  0.68564500  0.74466700  1
  H  H31  1  0.12003500  0.68564500  0.24466700  1
  H  H32  1  0.70479700  0.12676200  0.34664900  1
  H  H33  1  0.79520300  0.12676200  0.84664900  1
  H  H34  1  0.29520300  0.87323800  0.65335100  1
  H  H35  1  0.20479700  0.87323800  0.15335100  1
  H  H36  1  0.58173000  0.96284600  0.48616100  1
  H  H37  1  0.91827000  0.96284600  0.98616100  1
  H  H38  1  0.41827000  0.03715400  0.51383900  1
  H  H39  1  0.08173000  0.03715400  0.01383900  1
  H  H40  1  0.55742100  0.14883500  0.48574700  1
  H  H41  1  0.94257900  0.14883500  0.98574700  1
  H  H42  1  0.44257900  0.85116500  0.51425300  1
  H  H43  1  0.05742100  0.85116500  0.01425300  1
  H  H44  1  0.70472400  0.85454000  0.62519500  1
  H  H45  1  0.79527600  0.85454000  0.12519500  1
  H  H46  1  0.29527600  0.14546000  0.37480500  1
  H  H47  1  0.20472400  0.14546000  0.87480500  1
  H  H48  1  0.61922800  0.86657600  0.71338300  1
  H  H49  1  0.88077200  0.86657600  0.21338300  1
  H  H50  1  0.38077200  0.13342400  0.28661700  1
  H  H51  1  0.11922800  0.13342400  0.78661700  1
  H  H52  1  0.75840800  0.00816800  0.71198700  1
  H  H53  1  0.74159200  0.00816800  0.21198700  1
  H  H54  1  0.24159200  0.99183200  0.28801300  1
  H  H55  1  0.25840800  0.99183200  0.78801300  1
  H  H56  1  0.67613600  0.20091000  0.61534700  1
  H  H57  1  0.82386400  0.20091000  0.11534700  1
  H  H58  1  0.32386400  0.79909000  0.38465300  1
  H  H59  1  0.17613600  0.79909000  0.88465300  1
  H  H60  1  0.87016400  0.26630700  0.57939600  1
  H  H61  1  0.62983600  0.26630700  0.07939600  1
  H  H62  1  0.12983600  0.73369300  0.42060400  1
  H  H63  1  0.37016400  0.73369300  0.92060400  1
  H  H64  1  0.79020900  0.46749300  0.47926700  1
  H  H65  1  0.70979100  0.46749300  0.97926700  1
  H  H66  1  0.20979100  0.53250700  0.52073300  1
  H  H67  1  0.29020900  0.53250700  0.02073300  1
  H  H68  1  0.87137700  0.45282900  0.38611300  1
  H  H69  1  0.62862300  0.45282900  0.88611300  1
  H  H70  1  0.12862300  0.54717100  0.61388700  1
  H  H71  1  0.37137700  0.54717100  0.11388700  1
  C  C72  1  0.71618300  0.35958300  0.35087900  1
  C  C73  1  0.78381700  0.35958300  0.85087900  1
  C  C74  1  0.28381700  0.64041700  0.64912100  1
  C  C75  1  0.21618300  0.64041700  0.14912100  1
  C  C76  1  0.66275500  0.22026600  0.35033300  1
  C  C77  1  0.83724500  0.22026600  0.85033300  1
  C  C78  1  0.33724500  0.77973400  0.64966700  1
  C  C79  1  0.16275500  0.77973400  0.14966700  1
  C  C80  1  0.66252500  0.95729400  0.61915300  1
  C  C81  1  0.83747500  0.95729400  0.11915300  1
  C  C82  1  0.33747500  0.04270600  0.38084700  1
  C  C83  1  0.16252500  0.04270600  0.88084700  1
  C  C84  1  0.71608100  0.09999100  0.61622600  1
  C  C85  1  0.78391900  0.09999100  0.11622600  1
  C  C86  1  0.28391900  0.90000900  0.38377400  1
  C  C87  1  0.21608100  0.90000900  0.88377400  1
  C  C88  1  0.82962700  0.36500900  0.48192400  1
  C  C89  1  0.67037300  0.36500900  0.98192400  1
  C  C90  1  0.17037300  0.63499100  0.51807600  1
  C  C91  1  0.32962700  0.63499100  0.01807600  1
  N  N92  1  0.77187900  0.23357800  0.48350200  1
  N  N93  1  0.72812100  0.23357800  0.98350200  1
  N  N94  1  0.22812100  0.76642200  0.51649800  1
  N  N95  1  0.27187900  0.76642200  0.01649800  1
  N  N96  1  0.60906200  0.07364500  0.48470100  1
  N  N97  1  0.89093800  0.07364500  0.98470100  1
  N  N98  1  0.39093800  0.92635500  0.51529900  1
  N  N99  1  0.10906200  0.92635500  0.01529900  1
  O  O100  1  0.84884300  0.96295900  0.50667400  1
  O  O101  1  0.65115700  0.96295900  0.00667400  1
  O  O102  1  0.15115700  0.03704100  0.49332600  1
  O  O103  1  0.34884300  0.03704100  0.99332600  1
  O  O104  1  0.86440200  0.69958600  0.49150200  1
  O  O105  1  0.63559800  0.69958600  0.99150200  1
  O  O106  1  0.13559800  0.30041400  0.50849800  1
  O  O107  1  0.36440200  0.30041400  0.00849800  1
  O  O108  1  0.96982000  0.98968800  0.35699200  1
  O  O109  1  0.53018000  0.98968800  0.85699200  1
  O  O110  1  0.03018000  0.01031200  0.64300800  1
  O  O111  1  0.46982000  0.01031200  0.14300800  1
  O  O112  1  0.97377100  0.70400600  0.63211500  1
  O  O113  1  0.52622900  0.70400600  0.13211500  1
  O  O114  1  0.02622900  0.29599400  0.36788500  1
  O  O115  1  0.47377100  0.29599400  0.86788500  1
  O  O116  1  0.79956700  0.73140600  0.97911300  1
  O  O117  1  0.70043300  0.73140600  0.47911300  1
  O  O118  1  0.20043300  0.26859400  0.02088700  1
  O  O119  1  0.29956700  0.26859400  0.52088700  1
  O  O120  1  0.95793600  0.79099800  0.99359700  1
  O  O121  1  0.54206400  0.79099800  0.49359700  1
  O  O122  1  0.04206400  0.20900200  0.00640300  1
  O  O123  1  0.45793600  0.20900200  0.50640300  1
  O  O124  1  0.89917400  0.42620400  0.14343000  1
  O  O125  1  0.60082600  0.42620400  0.64343000  1
  O  O126  1  0.10082600  0.57379600  0.85657000  1
  O  O127  1  0.39917400  0.57379600  0.35657000  1
  O  O128  1  0.91163400  0.66868500  0.87147900  1
  O  O129  1  0.58836600  0.66868500  0.37147900  1
  O  O130  1  0.08836600  0.33131500  0.12852100  1
  O  O131  1  0.41163400  0.33131500  0.62852100  1
