# generated using pymatgen
data_K2U(SO6)2
_symmetry_space_group_name_H-M   'P 1'
_cell_length_a   10.50782594
_cell_length_b   10.50782594
_cell_length_c   11.16775400
_cell_angle_alpha   90.00000000
_cell_angle_beta   90.00000000
_cell_angle_gamma   109.46999369
_symmetry_Int_Tables_number   1
_chemical_formula_structural   K2U(SO6)2
_chemical_formula_sum   'K8 U4 S8 O48'
_cell_volume   1162.56864686
_cell_formula_units_Z   4
loop_
 _symmetry_equiv_pos_site_id
 _symmetry_equiv_pos_as_xyz
  1  'x, y, z'
loop_
 _atom_site_type_symbol
 _atom_site_label
 _atom_site_symmetry_multiplicity
 _atom_site_fract_x
 _atom_site_fract_y
 _atom_site_fract_z
 _atom_site_occupancy
  K  K0  1  0.60524600  0.39475400  0.23541600  1
  K  K1  1  0.39475400  0.60524600  0.76458400  1
  K  K2  1  0.89475400  0.10524600  0.73541600  1
  K  K3  1  0.10524600  0.89475400  0.26458400  1
  K  K4  1  0.31037900  0.68962100  0.08174300  1
  K  K5  1  0.68962100  0.31037900  0.91825700  1
  K  K6  1  0.18962100  0.81037900  0.58174300  1
  K  K7  1  0.81037900  0.18962100  0.41825700  1
  U  U8  1  0.19245000  0.30755000  0.25000000  1
  U  U9  1  0.30755000  0.19245000  0.75000000  1
  U  U10  1  0.80755000  0.69245000  0.75000000  1
  U  U11  1  0.69245000  0.80755000  0.25000000  1
  S  S12  1  0.09070600  0.34345600  0.93664100  1
  S  S13  1  0.34345600  0.09070600  0.06335900  1
  S  S14  1  0.84345600  0.59070600  0.43664100  1
  S  S15  1  0.59070600  0.84345600  0.56335900  1
  S  S16  1  0.90929400  0.65654400  0.06335900  1
  S  S17  1  0.65654400  0.90929400  0.93664100  1
  S  S18  1  0.15654400  0.40929400  0.56335900  1
  S  S19  1  0.40929400  0.15654400  0.43664100  1
  O  O20  1  0.07779200  0.29033500  0.06527000  1
  O  O21  1  0.29033500  0.07779200  0.93473000  1
  O  O22  1  0.79033500  0.57779200  0.56527000  1
  O  O23  1  0.57779200  0.79033500  0.43473000  1
  O  O24  1  0.92220800  0.70966500  0.93473000  1
  O  O25  1  0.70966500  0.92220800  0.06527000  1
  O  O26  1  0.20966500  0.42220800  0.43473000  1
  O  O27  1  0.42220800  0.20966500  0.56527000  1
  O  O28  1  0.33060000  0.44001100  0.18076200  1
  O  O29  1  0.44001100  0.33060000  0.81923800  1
  O  O30  1  0.94001100  0.83060000  0.68076200  1
  O  O31  1  0.83060000  0.94001100  0.31923800  1
  O  O32  1  0.66940000  0.55998900  0.81923800  1
  O  O33  1  0.55998900  0.66940000  0.18076200  1
  O  O34  1  0.05998900  0.16940000  0.31923800  1
  O  O35  1  0.16940000  0.05998900  0.68076200  1
  O  O36  1  0.95756600  0.34118300  0.89716100  1
  O  O37  1  0.34118300  0.95756600  0.10283900  1
  O  O38  1  0.84118300  0.45756600  0.39716100  1
  O  O39  1  0.45756600  0.84118300  0.60283900  1
  O  O40  1  0.04243400  0.65881700  0.10283900  1
  O  O41  1  0.65881700  0.04243400  0.89716100  1
  O  O42  1  0.15881700  0.54243400  0.60283900  1
  O  O43  1  0.54243400  0.15881700  0.39716100  1
  O  O44  1  0.19582200  0.47624800  0.92931900  1
  O  O45  1  0.47624800  0.19582200  0.07068100  1
  O  O46  1  0.97624800  0.69582200  0.42931900  1
  O  O47  1  0.69582200  0.97624800  0.57068100  1
  O  O48  1  0.80417800  0.52375200  0.07068100  1
  O  O49  1  0.52375200  0.80417800  0.92931900  1
  O  O50  1  0.02375200  0.30417800  0.57068100  1
  O  O51  1  0.30417800  0.02375200  0.42931900  1
  O  O52  1  0.13053900  0.24086500  0.86456900  1
  O  O53  1  0.24086500  0.13053900  0.13543100  1
  O  O54  1  0.74086500  0.63053900  0.36456900  1
  O  O55  1  0.63053900  0.74086500  0.63543100  1
  O  O56  1  0.86946100  0.75913500  0.13543100  1
  O  O57  1  0.75913500  0.86946100  0.86456900  1
  O  O58  1  0.25913500  0.36946100  0.63543100  1
  O  O59  1  0.36946100  0.25913500  0.36456900  1
  O  O60  1  0.06246800  0.43753200  0.25000000  1
  O  O61  1  0.43753200  0.06246800  0.75000000  1
  O  O62  1  0.93753200  0.56246800  0.75000000  1
  O  O63  1  0.56246800  0.93753200  0.25000000  1
  O  O64  1  0.77991700  0.22008300  0.15754400  1
  O  O65  1  0.22008300  0.77991700  0.84245600  1
  O  O66  1  0.72008300  0.27991700  0.65754400  1
  O  O67  1  0.27991700  0.72008300  0.34245600  1
