# generated using pymatgen
data_AgH20S6N5O9
_symmetry_space_group_name_H-M   'P 1'
_cell_length_a   10.99142000
_cell_length_b   10.16822900
_cell_length_c   16.04110752
_cell_angle_alpha   85.91236570
_cell_angle_beta   90.00000000
_cell_angle_gamma   90.00000000
_symmetry_Int_Tables_number   1
_chemical_formula_structural   AgH20S6N5O9
_chemical_formula_sum   'Ag4 H80 S24 N20 O36'
_cell_volume   1788.24616203
_cell_formula_units_Z   4
loop_
 _symmetry_equiv_pos_site_id
 _symmetry_equiv_pos_as_xyz
  1  'x, y, z'
loop_
 _atom_site_type_symbol
 _atom_site_label
 _atom_site_symmetry_multiplicity
 _atom_site_fract_x
 _atom_site_fract_y
 _atom_site_fract_z
 _atom_site_occupancy
  Ag  Ag0  1  0.93596400  0.82744400  0.53991900  1
  Ag  Ag1  1  0.43596400  0.17255600  0.96008100  1
  Ag  Ag2  1  0.06403600  0.17255600  0.46008100  1
  Ag  Ag3  1  0.56403600  0.82744400  0.03991900  1
  H  H4  1  0.12312300  0.87953300  0.77879400  1
  H  H5  1  0.62312300  0.12046700  0.72120600  1
  H  H6  1  0.87687700  0.12046700  0.22120600  1
  H  H7  1  0.37687700  0.87953300  0.27879400  1
  H  H8  1  0.02827800  0.87905300  0.86311000  1
  H  H9  1  0.52827800  0.12094700  0.63689000  1
  H  H10  1  0.97172200  0.12094700  0.13689000  1
  H  H11  1  0.47172200  0.87905300  0.36311000  1
  H  H12  1  0.99796100  0.97801000  0.77994500  1
  H  H13  1  0.49796100  0.02199000  0.72005500  1
  H  H14  1  0.00203900  0.02199000  0.22005500  1
  H  H15  1  0.50203900  0.97801000  0.27994500  1
  H  H16  1  0.12128600  0.00904700  0.84094800  1
  H  H17  1  0.62128600  0.99095300  0.65905200  1
  H  H18  1  0.87871400  0.99095300  0.15905200  1
  H  H19  1  0.37871400  0.00904700  0.34094800  1
  H  H20  1  0.93919200  0.51389800  0.80895000  1
  H  H21  1  0.43919200  0.48610200  0.69105000  1
  H  H22  1  0.06080800  0.48610200  0.19105000  1
  H  H23  1  0.56080800  0.51389800  0.30895000  1
  H  H24  1  0.94742000  0.38888000  0.88843300  1
  H  H25  1  0.44742000  0.61112000  0.61156700  1
  H  H26  1  0.05258000  0.61112000  0.11156700  1
  H  H27  1  0.55258000  0.38888000  0.38843300  1
  H  H28  1  0.91105400  0.35443200  0.78919100  1
  H  H29  1  0.41105400  0.64556800  0.71080900  1
  H  H30  1  0.08894600  0.64556800  0.21080900  1
  H  H31  1  0.58894600  0.35443200  0.28919100  1
  H  H32  1  0.81294600  0.43795100  0.84608300  1
  H  H33  1  0.31294600  0.56204900  0.65391700  1
  H  H34  1  0.18705400  0.56204900  0.15391700  1
  H  H35  1  0.68705400  0.43795100  0.34608300  1
  H  H36  1  0.86575500  0.49934100  0.60186900  1
  H  H37  1  0.36575500  0.50065900  0.89813100  1
  H  H38  1  0.13424500  0.50065900  0.39813100  1
  H  H39  1  0.63424500  0.49934100  0.10186900  1
  H  H40  1  0.73225600  0.47454800  0.65513700  1
  H  H41  1  0.23225600  0.52545200  0.84486300  1
  H  H42  1  0.26774400  0.52545200  0.34486300  1
  H  H43  1  0.76774400  0.47454800  0.15513700  1
  H  H44  1  0.78674100  0.35609100  0.59632000  1
  H  H45  1  0.28674100  0.64390900  0.90368000  1
  H  H46  1  0.21325900  0.64390900  0.40368000  1
  H  H47  1  0.71325900  0.35609100  0.09632000  1
  H  H48  1  0.73397400  0.50344600  0.54923300  1
  H  H49  1  0.23397400  0.49655400  0.95076700  1
  H  H50  1  0.26602600  0.49655400  0.45076700  1
  H  H51  1  0.76602600  0.50344600  0.04923300  1
  H  H52  1  0.83529900  0.81576400  0.32160800  1
  H  H53  1  0.33529900  0.18423600  0.17839200  1
  H  H54  1  0.16470100  0.18423600  0.67839200  1
  H  H55  1  0.66470100  0.81576400  0.82160800  1
  H  H56  1  0.74536900  0.69068000  0.35740600  1
  H  H57  1  0.24536900  0.30932000  0.14259400  1
  H  H58  1  0.25463100  0.30932000  0.64259400  1
  H  H59  1  0.75463100  0.69068000  0.85740600  1
  H  H60  1  0.83733100  0.67041500  0.27495500  1
  H  H61  1  0.33733100  0.32958500  0.22504500  1
  H  H62  1  0.16266900  0.32958500  0.72504500  1
  H  H63  1  0.66266900  0.67041500  0.77495500  1
  H  H64  1  0.71410100  0.76902000  0.26428700  1
  H  H65  1  0.21410100  0.23098000  0.23571300  1
  H  H66  1  0.28589900  0.23098000  0.73571300  1
  H  H67  1  0.78589900  0.76902000  0.76428700  1
  H  H68  1  0.69483100  0.01123100  0.43942300  1
  H  H69  1  0.19483100  0.98876900  0.06057700  1
  H  H70  1  0.30516900  0.98876900  0.56057700  1
  H  H71  1  0.80516900  0.01123100  0.93942300  1
  H  H72  1  0.76792300  0.12126700  0.49784200  1
  H  H73  1  0.26792300  0.87873300  0.00215800  1
  H  H74  1  0.23207700  0.87873300  0.50215800  1
  H  H75  1  0.73207700  0.12126700  0.99784200  1
  H  H76  1  0.63554900  0.16222400  0.45220000  1
  H  H77  1  0.13554900  0.83777600  0.04780000  1
  H  H78  1  0.36445100  0.83777600  0.54780000  1
  H  H79  1  0.86445100  0.16222400  0.95220000  1
  H  H80  1  0.76185700  0.14928800  0.39165600  1
  H  H81  1  0.26185700  0.85071200  0.10834400  1
  H  H82  1  0.23814300  0.85071200  0.60834400  1
  H  H83  1  0.73814300  0.14928800  0.89165600  1
  S  S84  1  0.96670400  0.95309200  0.39531700  1
  S  S85  1  0.46670400  0.04690800  0.10468300  1
  S  S86  1  0.03329600  0.04690800  0.60468300  1
  S  S87  1  0.53329600  0.95309200  0.89531700  1
  S  S88  1  0.71256200  0.80308300  0.59296800  1
  S  S89  1  0.21256200  0.19691700  0.90703200  1
  S  S90  1  0.28743800  0.19691700  0.40703200  1
  S  S91  1  0.78743800  0.80308300  0.09296800  1
  S  S92  1  0.05317200  0.61245800  0.57992400  1
  S  S93  1  0.55317200  0.38754200  0.92007600  1
  S  S94  1  0.94682800  0.38754200  0.42007600  1
  S  S95  1  0.44682800  0.61245800  0.07992400  1
  S  S96  1  0.10516000  0.86674800  0.33168100  1
  S  S97  1  0.60516000  0.13325200  0.16831900  1
  S  S98  1  0.89484000  0.13325200  0.66831900  1
  S  S99  1  0.39484000  0.86674800  0.83168100  1
  S  S100  1  0.61490700  0.74672800  0.49421800  1
  S  S101  1  0.11490700  0.25327200  0.00578200  1
  S  S102  1  0.38509300  0.25327200  0.50578200  1
  S  S103  1  0.88509300  0.74672800  0.99421800  1
  S  S104  1  0.08781400  0.64044500  0.70192200  1
  S  S105  1  0.58781400  0.35955500  0.79807800  1
  S  S106  1  0.91218600  0.35955500  0.29807800  1
  S  S107  1  0.41218600  0.64044500  0.20192200  1
  N  N108  1  0.06981400  0.93680900  0.81537000  1
  N  N109  1  0.56981400  0.06319100  0.68463000  1
  N  N110  1  0.93018600  0.06319100  0.18463000  1
  N  N111  1  0.43018600  0.93680900  0.31537000  1
  N  N112  1  0.90326200  0.42419000  0.83367300  1
  N  N113  1  0.40326200  0.57581000  0.66632700  1
  N  N114  1  0.09673800  0.57581000  0.16632700  1
  N  N115  1  0.59673800  0.42419000  0.33367300  1
  N  N116  1  0.77904800  0.45794000  0.60041800  1
  N  N117  1  0.27904800  0.54206000  0.89958200  1
  N  N118  1  0.22095200  0.54206000  0.39958200  1
  N  N119  1  0.72095200  0.45794000  0.10041800  1
  N  N120  1  0.78325100  0.73678600  0.30375100  1
  N  N121  1  0.28325100  0.26321400  0.19624900  1
  N  N122  1  0.21674900  0.26321400  0.69624900  1
  N  N123  1  0.71674900  0.73678600  0.80375100  1
  N  N124  1  0.71600200  0.11041100  0.44459000  1
  N  N125  1  0.21600200  0.88958900  0.05541000  1
  N  N126  1  0.28399800  0.88958900  0.55541000  1
  N  N127  1  0.78399800  0.11041100  0.94459000  1
  O  O128  1  0.15021800  0.96879300  0.26865600  1
  O  O129  1  0.65021800  0.03120700  0.23134400  1
  O  O130  1  0.84978200  0.03120700  0.73134400  1
  O  O131  1  0.34978200  0.96879300  0.76865600  1
  O  O132  1  0.05077800  0.75307300  0.29239000  1
  O  O133  1  0.55077800  0.24692700  0.20761000  1
  O  O134  1  0.94922200  0.24692700  0.70761000  1
  O  O135  1  0.44922200  0.75307300  0.79239000  1
  O  O136  1  0.20227000  0.82278200  0.39238500  1
  O  O137  1  0.70227000  0.17721800  0.10761500  1
  O  O138  1  0.79773000  0.17721800  0.60761500  1
  O  O139  1  0.29773000  0.82278200  0.89238500  1
  O  O140  1  0.61681700  0.85609900  0.42701100  1
  O  O141  1  0.11681700  0.14390100  0.07298900  1
  O  O142  1  0.38318300  0.14390100  0.57298900  1
  O  O143  1  0.88318300  0.85609900  0.92701100  1
  O  O144  1  0.48681300  0.72047100  0.52176000  1
  O  O145  1  0.98681300  0.27952900  0.97824000  1
  O  O146  1  0.51318700  0.27952900  0.47824000  1
  O  O147  1  0.01318700  0.72047100  0.02176000  1
  O  O148  1  0.67048400  0.62626400  0.46284000  1
  O  O149  1  0.17048400  0.37373600  0.03716000  1
  O  O150  1  0.32951600  0.37373600  0.53716000  1
  O  O151  1  0.82951600  0.62626400  0.96284000  1
  O  O152  1  0.14667000  0.51761400  0.74036500  1
  O  O153  1  0.64667000  0.48238600  0.75963500  1
  O  O154  1  0.85333000  0.48238600  0.25963500  1
  O  O155  1  0.35333000  0.51761400  0.24036500  1
  O  O156  1  0.97265100  0.66562900  0.74660500  1
  O  O157  1  0.47265100  0.33437100  0.75339500  1
  O  O158  1  0.02734900  0.33437100  0.25339500  1
  O  O159  1  0.52734900  0.66562900  0.24660500  1
  O  O160  1  0.17425400  0.75287400  0.70506900  1
  O  O161  1  0.67425400  0.24712600  0.79493100  1
  O  O162  1  0.82574600  0.24712600  0.29493100  1
  O  O163  1  0.32574600  0.75287400  0.20506900  1
