# generated using pymatgen
data_Pr(Ga4Co)2
_symmetry_space_group_name_H-M   'P 1'
_cell_length_a   4.06827800
_cell_length_b   12.62084400
_cell_length_c   14.29364800
_cell_angle_alpha   90.00000000
_cell_angle_beta   90.00000000
_cell_angle_gamma   90.00000000
_symmetry_Int_Tables_number   1
_chemical_formula_structural   Pr(Ga4Co)2
_chemical_formula_sum   'Pr4 Ga32 Co8'
_cell_volume   733.90881432
_cell_formula_units_Z   4
loop_
 _symmetry_equiv_pos_site_id
 _symmetry_equiv_pos_as_xyz
  1  'x, y, z'
loop_
 _atom_site_type_symbol
 _atom_site_label
 _atom_site_symmetry_multiplicity
 _atom_site_fract_x
 _atom_site_fract_y
 _atom_site_fract_z
 _atom_site_occupancy
  Pr  Pr0  1  0.50000000  0.65814100  0.81998000  1
  Pr  Pr1  1  0.50000000  0.34185900  0.18002000  1
  Pr  Pr2  1  0.50000000  0.84185900  0.31998000  1
  Pr  Pr3  1  0.50000000  0.15814100  0.68002000  1
  Ga  Ga4  1  0.00000000  0.50000000  0.50000000  1
  Ga  Ga5  1  0.00000000  0.00000000  0.00000000  1
  Ga  Ga6  1  0.50000000  0.00000000  0.50000000  1
  Ga  Ga7  1  0.50000000  0.50000000  0.00000000  1
  Ga  Ga8  1  0.00000000  0.66248900  0.38013600  1
  Ga  Ga9  1  0.00000000  0.33751100  0.61986400  1
  Ga  Ga10  1  0.00000000  0.83751100  0.88013600  1
  Ga  Ga11  1  0.00000000  0.16248900  0.11986400  1
  Ga  Ga12  1  0.00000000  0.95080600  0.17981300  1
  Ga  Ga13  1  0.00000000  0.04919400  0.82018700  1
  Ga  Ga14  1  0.00000000  0.54919400  0.67981300  1
  Ga  Ga15  1  0.00000000  0.45080600  0.32018700  1
  Ga  Ga16  1  0.00000000  0.73738100  0.17441200  1
  Ga  Ga17  1  0.00000000  0.26261900  0.82558800  1
  Ga  Ga18  1  0.00000000  0.76261900  0.67441200  1
  Ga  Ga19  1  0.00000000  0.23738100  0.32558800  1
  Ga  Ga20  1  0.00000000  0.83150000  0.49051200  1
  Ga  Ga21  1  0.00000000  0.16850000  0.50948800  1
  Ga  Ga22  1  0.00000000  0.66850000  0.99051200  1
  Ga  Ga23  1  0.00000000  0.33150000  0.00948800  1
  Ga  Ga24  1  0.00000000  0.52252200  0.13297100  1
  Ga  Ga25  1  0.00000000  0.47747800  0.86702900  1
  Ga  Ga26  1  0.00000000  0.97747800  0.63297100  1
  Ga  Ga27  1  0.00000000  0.02252200  0.36702900  1
  Ga  Ga28  1  0.50000000  0.66136800  0.54529900  1
  Ga  Ga29  1  0.50000000  0.33863200  0.45470100  1
  Ga  Ga30  1  0.50000000  0.83863200  0.04529900  1
  Ga  Ga31  1  0.50000000  0.16136800  0.95470100  1
  Ga  Ga32  1  0.50000000  0.90269300  0.75392300  1
  Ga  Ga33  1  0.50000000  0.09730700  0.24607700  1
  Ga  Ga34  1  0.50000000  0.59730700  0.25392300  1
  Ga  Ga35  1  0.50000000  0.40269300  0.74607700  1
  Co  Co36  1  0.50000000  0.84680200  0.59624400  1
  Co  Co37  1  0.50000000  0.15319800  0.40375600  1
  Co  Co38  1  0.50000000  0.65319800  0.09624400  1
  Co  Co39  1  0.50000000  0.34680200  0.90375600  1
  Co  Co40  1  0.50000000  0.96424000  0.90690100  1
  Co  Co41  1  0.50000000  0.03576000  0.09309900  1
  Co  Co42  1  0.50000000  0.53576000  0.40690100  1
  Co  Co43  1  0.50000000  0.46424000  0.59309900  1
