# generated using pymatgen
data_RbV(PO4)2
_symmetry_space_group_name_H-M   'P 1'
_cell_length_a   7.48945900
_cell_length_b   8.77723715
_cell_length_c   9.42290595
_cell_angle_alpha   64.46257586
_cell_angle_beta   68.06124316
_cell_angle_gamma   67.30778927
_symmetry_Int_Tables_number   1
_chemical_formula_structural   RbV(PO4)2
_chemical_formula_sum   'Rb3 V3 P6 O24'
_cell_volume   499.40505168
_cell_formula_units_Z   3
loop_
 _symmetry_equiv_pos_site_id
 _symmetry_equiv_pos_as_xyz
  1  'x, y, z'
loop_
 _atom_site_type_symbol
 _atom_site_label
 _atom_site_symmetry_multiplicity
 _atom_site_fract_x
 _atom_site_fract_y
 _atom_site_fract_z
 _atom_site_occupancy
  Rb  Rb0  1  0.13824700  0.65948600  0.03095600  1
  Rb  Rb1  1  0.86175300  0.34051400  0.96904400  1
  Rb  Rb2  1  0.00000000  0.50000000  0.50000000  1
  V  V3  1  0.70138900  0.21193700  0.43728500  1
  V  V4  1  0.29861100  0.78806300  0.56271500  1
  V  V5  1  0.50000000  0.00000000  0.00000000  1
  P  P6  1  0.54595400  0.62263500  0.27089300  1
  P  P7  1  0.45404600  0.37736500  0.72910700  1
  P  P8  1  0.39802700  0.16688600  0.27585500  1
  P  P9  1  0.60197300  0.83311400  0.72414500  1
  P  P10  1  0.06059300  0.93381600  0.27995400  1
  P  P11  1  0.93940700  0.06618400  0.72004600  1
  O  O12  1  0.63726600  0.76449200  0.11719800  1
  O  O13  1  0.36273400  0.23550800  0.88280200  1
  O  O14  1  0.50900000  0.68230300  0.41824900  1
  O  O15  1  0.49100000  0.31769700  0.58175100  1
  O  O16  1  0.36699000  0.59917900  0.25671700  1
  O  O17  1  0.63301000  0.40082100  0.74328300  1
  O  O18  1  0.72227400  0.44727500  0.29514400  1
  O  O19  1  0.27772600  0.55272500  0.70485600  1
  O  O20  1  0.53935100  0.22374000  0.32080400  1
  O  O21  1  0.46064900  0.77626000  0.67919600  1
  O  O22  1  0.22259900  0.31686500  0.23353000  1
  O  O23  1  0.77740100  0.68313500  0.76647000  1
  O  O24  1  0.33526600  0.00971300  0.42568400  1
  O  O25  1  0.66473400  0.99028700  0.57431600  1
  O  O26  1  0.53664000  0.09384000  0.13391000  1
  O  O27  1  0.46336000  0.90616000  0.86609000  1
  O  O28  1  0.95279900  0.85084500  0.24146900  1
  O  O29  1  0.04720100  0.14915500  0.75853100  1
  O  O30  1  0.12154700  0.82015500  0.44444200  1
  O  O31  1  0.87845300  0.17984500  0.55555800  1
  O  O32  1  0.25468100  0.97323900  0.14191000  1
  O  O33  1  0.74531900  0.02676100  0.85809000  1
  O  O34  1  0.93123000  0.11967900  0.29177500  1
  O  O35  1  0.06877000  0.88032100  0.70822500  1
