# generated using pymatgen
data_Al2FeP2(HO)18
_symmetry_space_group_name_H-M   'P 1'
_cell_length_a   5.26297988
_cell_length_b   7.03161640
_cell_length_c   10.34434355
_cell_angle_alpha   96.11274837
_cell_angle_beta   101.34742511
_cell_angle_gamma   110.46688023
_symmetry_Int_Tables_number   1
_chemical_formula_structural   Al2FeP2(HO)18
_chemical_formula_sum   'Al2 Fe1 P2 H18 O18'
_cell_volume   345.17773366
_cell_formula_units_Z   1
loop_
 _symmetry_equiv_pos_site_id
 _symmetry_equiv_pos_as_xyz
  1  'x, y, z'
loop_
 _atom_site_type_symbol
 _atom_site_label
 _atom_site_symmetry_multiplicity
 _atom_site_fract_x
 _atom_site_fract_y
 _atom_site_fract_z
 _atom_site_occupancy
  Al  Al0  1  0.50000000  0.00000000  0.50000000  1
  Al  Al1  1  0.50000000  0.50000000  0.50000000  1
  Fe  Fe2  1  0.00000000  0.00000000  0.00000000  1
  P  P3  1  0.00881700  0.91713700  0.66417600  1
  P  P4  1  0.99118300  0.08286300  0.33582400  1
  H  H5  1  0.83748800  0.32717600  0.49057200  1
  H  H6  1  0.16251200  0.67282400  0.50942800  1
  H  H7  1  0.61802600  0.70041300  0.33087800  1
  H  H8  1  0.38197400  0.29958700  0.66912200  1
  H  H9  1  0.69986800  0.51132800  0.28189400  1
  H  H10  1  0.30013200  0.48867200  0.71810600  1
  H  H11  1  0.32473500  0.40868300  0.08900200  1
  H  H12  1  0.67526500  0.59131700  0.91099800  1
  H  H13  1  0.18087900  0.39132800  0.93676900  1
  H  H14  1  0.81912100  0.60867200  0.06323100  1
  H  H15  1  0.31035500  0.94735100  0.20585200  1
  H  H16  1  0.68964500  0.05264900  0.79414800  1
  H  H17  1  0.54507300  0.00900700  0.12634000  1
  H  H18  1  0.45492700  0.99099300  0.87366000  1
  H  H19  1  0.07532800  0.64906500  0.80648300  1
  H  H20  1  0.92467200  0.35093500  0.19351700  1
  H  H21  1  0.89685100  0.42046800  0.72748200  1
  H  H22  1  0.10314900  0.57953200  0.27251800  1
  O  O23  1  0.80629300  0.03427600  0.65088800  1
  O  O24  1  0.19370700  0.96572400  0.34911200  1
  O  O25  1  0.87074800  0.70085600  0.57107100  1
  O  O26  1  0.12925200  0.29914400  0.42892900  1
  O  O27  1  0.08863400  0.89133000  0.81254200  1
  O  O28  1  0.91136600  0.10867000  0.18745800  1
  O  O29  1  0.71822900  0.95715000  0.37547700  1
  O  O30  1  0.28177100  0.04285000  0.62452300  1
  O  O31  1  0.64899300  0.29131600  0.50676300  1
  O  O32  1  0.35100700  0.70868400  0.49323700  1
  O  O33  1  0.55281600  0.54505900  0.31932700  1
  O  O34  1  0.44718400  0.45494100  0.68067300  1
  O  O35  1  0.25530600  0.31707600  0.00153300  1
  O  O36  1  0.74469400  0.68292400  0.99846700  1
  O  O37  1  0.33888500  0.94833400  0.11374200  1
  O  O38  1  0.66111500  0.05166600  0.88625800  1
  O  O39  1  0.07051400  0.50361900  0.79629000  1
  O  O40  1  0.92948600  0.49638100  0.20371000  1
