# generated using pymatgen
data_U3Ag2(GeO8)2
_symmetry_space_group_name_H-M   'P 1'
_cell_length_a   7.46280800
_cell_length_b   9.99794900
_cell_length_c   18.35943600
_cell_angle_alpha   90.00000000
_cell_angle_beta   90.00000000
_cell_angle_gamma   90.00000000
_symmetry_Int_Tables_number   1
_chemical_formula_structural   U3Ag2(GeO8)2
_chemical_formula_sum   'U12 Ag8 Ge8 O64'
_cell_volume   1369.84844501
_cell_formula_units_Z   4
loop_
 _symmetry_equiv_pos_site_id
 _symmetry_equiv_pos_as_xyz
  1  'x, y, z'
loop_
 _atom_site_type_symbol
 _atom_site_label
 _atom_site_symmetry_multiplicity
 _atom_site_fract_x
 _atom_site_fract_y
 _atom_site_fract_z
 _atom_site_occupancy
  U  U0  1  0.75000000  0.47994000  0.98667400  1
  U  U1  1  0.75000000  0.97994000  0.51332600  1
  U  U2  1  0.25000000  0.52006000  0.01332600  1
  U  U3  1  0.25000000  0.02006000  0.48667400  1
  U  U4  1  0.25000000  0.59089400  0.72910700  1
  U  U5  1  0.25000000  0.09089400  0.77089300  1
  U  U6  1  0.75000000  0.40910600  0.27089300  1
  U  U7  1  0.75000000  0.90910600  0.22910700  1
  U  U8  1  0.75000000  0.62364600  0.71020700  1
  U  U9  1  0.75000000  0.12364600  0.78979300  1
  U  U10  1  0.25000000  0.37635400  0.28979300  1
  U  U11  1  0.25000000  0.87635400  0.21020700  1
  Ag  Ag12  1  0.00156300  0.80402400  0.88542900  1
  Ag  Ag13  1  0.49843700  0.30402400  0.61457100  1
  Ag  Ag14  1  0.50156300  0.19597600  0.11457100  1
  Ag  Ag15  1  0.99843700  0.69597600  0.38542900  1
  Ag  Ag16  1  0.99843700  0.19597600  0.11457100  1
  Ag  Ag17  1  0.50156300  0.69597600  0.38542900  1
  Ag  Ag18  1  0.49843700  0.80402400  0.88542900  1
  Ag  Ag19  1  0.00156300  0.30402400  0.61457100  1
  Ge  Ge20  1  0.00570400  0.38886700  0.84208400  1
  Ge  Ge21  1  0.49429600  0.88886700  0.65791600  1
  Ge  Ge22  1  0.50570400  0.61113300  0.15791600  1
  Ge  Ge23  1  0.99429600  0.11113300  0.34208400  1
  Ge  Ge24  1  0.99429600  0.61113300  0.15791600  1
  Ge  Ge25  1  0.50570400  0.11113300  0.34208400  1
  Ge  Ge26  1  0.49429600  0.38886700  0.84208400  1
  Ge  Ge27  1  0.00570400  0.88886700  0.65791600  1
  O  O28  1  0.75000000  0.64684700  0.94119800  1
  O  O29  1  0.75000000  0.14684700  0.55880200  1
  O  O30  1  0.25000000  0.35315300  0.05880200  1
  O  O31  1  0.25000000  0.85315300  0.44119800  1
  O  O32  1  0.75000000  0.31442200  0.03263800  1
  O  O33  1  0.75000000  0.81442200  0.46736200  1
  O  O34  1  0.25000000  0.68557800  0.96736200  1
  O  O35  1  0.25000000  0.18557800  0.53263800  1
  O  O36  1  0.03181500  0.44144700  0.93548500  1
  O  O37  1  0.46818500  0.94144700  0.56451500  1
  O  O38  1  0.53181500  0.55855300  0.06451500  1
  O  O39  1  0.96818500  0.05855300  0.43548500  1
  O  O40  1  0.96818500  0.55855300  0.06451500  1
  O  O41  1  0.53181500  0.05855300  0.43548500  1
  O  O42  1  0.46818500  0.44144700  0.93548500  1
  O  O43  1  0.03181500  0.94144700  0.56451500  1
  O  O44  1  0.75000000  0.36324000  0.86525900  1
  O  O45  1  0.75000000  0.86324000  0.63474100  1
  O  O46  1  0.25000000  0.63676000  0.13474100  1
  O  O47  1  0.25000000  0.13676000  0.36525900  1
  O  O48  1  0.25000000  0.47592500  0.64952000  1
  O  O49  1  0.25000000  0.97592500  0.85048000  1
  O  O50  1  0.75000000  0.52407500  0.35048000  1
  O  O51  1  0.75000000  0.02407500  0.14952000  1
  O  O52  1  0.25000000  0.70812800  0.80764100  1
  O  O53  1  0.25000000  0.20812800  0.69235900  1
  O  O54  1  0.75000000  0.29187200  0.19235900  1
  O  O55  1  0.75000000  0.79187200  0.30764100  1
  O  O56  1  0.02192300  0.21079000  0.82592000  1
  O  O57  1  0.47807700  0.71079000  0.67408000  1
  O  O58  1  0.52192300  0.78921000  0.17408000  1
  O  O59  1  0.97807700  0.28921000  0.32592000  1
  O  O60  1  0.97807700  0.78921000  0.17408000  1
  O  O61  1  0.52192300  0.28921000  0.32592000  1
  O  O62  1  0.47807700  0.21079000  0.82592000  1
  O  O63  1  0.02192300  0.71079000  0.67408000  1
  O  O64  1  0.96591900  0.50709200  0.76913900  1
  O  O65  1  0.53408100  0.00709200  0.73086100  1
  O  O66  1  0.46591900  0.49290800  0.23086100  1
  O  O67  1  0.03408100  0.99290800  0.26913900  1
  O  O68  1  0.03408100  0.49290800  0.23086100  1
  O  O69  1  0.46591900  0.99290800  0.26913900  1
  O  O70  1  0.53408100  0.50709200  0.76913900  1
  O  O71  1  0.96591900  0.00709200  0.73086100  1
  O  O72  1  0.25000000  0.41715700  0.81683900  1
  O  O73  1  0.25000000  0.91715700  0.68316100  1
  O  O74  1  0.75000000  0.58284300  0.18316100  1
  O  O75  1  0.75000000  0.08284300  0.31683900  1
  O  O76  1  0.75000000  0.50164400  0.63436200  1
  O  O77  1  0.75000000  0.00164400  0.86563800  1
  O  O78  1  0.25000000  0.49835600  0.36563800  1
  O  O79  1  0.25000000  0.99835600  0.13436200  1
  O  O80  1  0.75000000  0.74413900  0.78742500  1
  O  O81  1  0.75000000  0.24413900  0.71257500  1
  O  O82  1  0.25000000  0.25586100  0.21257500  1
  O  O83  1  0.25000000  0.75586100  0.28742500  1
  O  O84  1  0.95593800  0.94774700  0.99676900  1
  O  O85  1  0.54406200  0.44774700  0.50323100  1
  O  O86  1  0.45593800  0.05225300  0.00323100  1
  O  O87  1  0.04406200  0.55225300  0.49676900  1
  O  O88  1  0.04406200  0.05225300  0.00323100  1
  O  O89  1  0.45593800  0.55225300  0.49676900  1
  O  O90  1  0.54406200  0.94774700  0.99676900  1
  O  O91  1  0.95593800  0.44774700  0.50323100  1
