# generated using pymatgen
data_Na2MgH32(SO12)2
_symmetry_space_group_name_H-M   'P 1'
_cell_length_a   6.65870800
_cell_length_b   6.71530570
_cell_length_c   14.62593933
_cell_angle_alpha   87.18825308
_cell_angle_beta   100.15943653
_cell_angle_gamma   114.25602049
_symmetry_Int_Tables_number   1
_chemical_formula_structural   Na2MgH32(SO12)2
_chemical_formula_sum   'Na2 Mg1 H32 S2 O24'
_cell_volume   586.71787219
_cell_formula_units_Z   1
loop_
 _symmetry_equiv_pos_site_id
 _symmetry_equiv_pos_as_xyz
  1  'x, y, z'
loop_
 _atom_site_type_symbol
 _atom_site_label
 _atom_site_symmetry_multiplicity
 _atom_site_fract_x
 _atom_site_fract_y
 _atom_site_fract_z
 _atom_site_occupancy
  Na  Na0  1  0.74931100  0.94650800  0.04934400  1
  Na  Na1  1  0.25068900  0.05349200  0.95065600  1
  Mg  Mg2  1  0.00000000  0.00000000  0.50000000  1
  H  H3  1  0.70917400  0.33734000  0.93796800  1
  H  H4  1  0.29082600  0.66266000  0.06203200  1
  H  H5  1  0.60131100  0.99181900  0.22807000  1
  H  H6  1  0.39868900  0.00818100  0.77193000  1
  H  H7  1  0.79986700  0.59973900  0.57246000  1
  H  H8  1  0.20013300  0.40026100  0.42754000  1
  H  H9  1  0.79781600  0.99424100  0.85015400  1
  H  H10  1  0.20218400  0.00575900  0.14984600  1
  H  H11  1  0.56371800  0.84504000  0.41423300  1
  H  H12  1  0.43628200  0.15496000  0.58576700  1
  H  H13  1  0.57309500  0.56161700  0.14201200  1
  H  H14  1  0.42690500  0.43838300  0.85798800  1
  H  H15  1  0.69305200  0.37400700  0.04079200  1
  H  H16  1  0.30694800  0.62599300  0.95920800  1
  H  H17  1  0.14813100  0.93514700  0.33624500  1
  H  H18  1  0.85186900  0.06485300  0.66375500  1
  H  H19  1  0.54700500  0.41721500  0.34877700  1
  H  H20  1  0.45299500  0.58278500  0.65122300  1
  H  H21  1  0.78110600  0.42862600  0.33207600  1
  H  H22  1  0.21889400  0.57137400  0.66792400  1
  H  H23  1  0.65539500  0.10465900  0.41882500  1
  H  H24  1  0.34460500  0.89534100  0.58117500  1
  H  H25  1  0.92511500  0.97118100  0.30889500  1
  H  H26  1  0.07488500  0.02881900  0.69110500  1
  H  H27  1  0.81938800  0.57937200  0.16750600  1
  H  H28  1  0.18061200  0.42062800  0.83249400  1
  H  H29  1  0.80280300  0.56003700  0.46696100  1
  H  H30  1  0.19719700  0.43996300  0.53303900  1
  H  H31  1  0.82754800  0.19980100  0.22427100  1
  H  H32  1  0.17245200  0.80019900  0.77572900  1
  H  H33  1  0.79758100  0.76228300  0.86894400  1
  H  H34  1  0.20241900  0.23771700  0.13105600  1
  S  S35  1  0.23690500  0.60587800  0.25337300  1
  S  S36  1  0.76309500  0.39412200  0.74662700  1
  O  O37  1  0.29956800  0.84652900  0.24554100  1
  O  O38  1  0.70043200  0.15347100  0.75445900  1
  O  O39  1  0.35866800  0.56363400  0.34293600  1
  O  O40  1  0.64133200  0.43636600  0.65706400  1
  O  O41  1  0.98950800  0.49030700  0.25068600  1
  O  O42  1  0.01049200  0.50969300  0.74931400  1
  O  O43  1  0.29852300  0.52389200  0.17390200  1
  O  O44  1  0.70147700  0.47610800  0.82609800  1
  O  O45  1  0.68143000  0.97784500  0.44563300  1
  O  O46  1  0.31857000  0.02215500  0.55436700  1
  O  O47  1  0.03165300  0.95476100  0.36239700  1
  O  O48  1  0.96834700  0.04523900  0.63760300  1
  O  O49  1  0.87016600  0.67014300  0.51889100  1
  O  O50  1  0.12983400  0.32985700  0.48110900  1
  O  O51  1  0.70775200  0.59056200  0.11516100  1
  O  O52  1  0.29224800  0.40943800  0.88483900  1
  O  O53  1  0.67386100  0.25920900  0.99601500  1
  O  O54  1  0.32613900  0.74079100  0.00398500  1
  O  O55  1  0.84203700  0.90604700  0.89877600  1
  O  O56  1  0.15796300  0.09395300  0.10122400  1
  O  O57  1  0.75355400  0.03961900  0.21374500  1
  O  O58  1  0.24644600  0.96038100  0.78625500  1
  O  O59  1  0.66867400  0.37088900  0.37332600  1
  O  O60  1  0.33132600  0.62911100  0.62667400  1
