# generated using pymatgen
data_CaMnAl4SiP3(HO4)5
_symmetry_space_group_name_H-M   'P 1'
_cell_length_a   10.42803663
_cell_length_b   10.42803663
_cell_length_c   7.39681643
_cell_angle_alpha   70.64053328
_cell_angle_beta   70.64053328
_cell_angle_gamma   67.49461136
_symmetry_Int_Tables_number   1
_chemical_formula_structural   CaMnAl4SiP3(HO4)5
_chemical_formula_sum   'Ca2 Mn2 Al8 Si2 P6 H10 O40'
_cell_volume   681.49408039
_cell_formula_units_Z   2
loop_
 _symmetry_equiv_pos_site_id
 _symmetry_equiv_pos_as_xyz
  1  'x, y, z'
loop_
 _atom_site_type_symbol
 _atom_site_label
 _atom_site_symmetry_multiplicity
 _atom_site_fract_x
 _atom_site_fract_y
 _atom_site_fract_z
 _atom_site_occupancy
  Ca  Ca0  1  0.74339100  0.25660900  0.00000000  1
  Ca  Ca1  1  0.25660900  0.74339100  0.00000000  1
  Mn  Mn2  1  0.28552500  0.28552500  0.94723900  1
  Mn  Mn3  1  0.71447500  0.71447500  0.05276100  1
  Al  Al4  1  0.76466000  0.49819700  0.50275200  1
  Al  Al5  1  0.49819700  0.76466000  0.50275200  1
  Al  Al6  1  0.23534000  0.50180300  0.49724800  1
  Al  Al7  1  0.50180300  0.23534000  0.49724800  1
  Al  Al8  1  0.98938600  0.24744400  0.23147400  1
  Al  Al9  1  0.24744400  0.98938600  0.23147400  1
  Al  Al10  1  0.01061400  0.75255600  0.76852600  1
  Al  Al11  1  0.75255600  0.01061400  0.76852600  1
  Si  Si12  1  0.05038400  0.05038400  0.66484700  1
  Si  Si13  1  0.94961600  0.94961600  0.33515300  1
  P  P14  1  0.46591000  0.46591000  0.76664800  1
  P  P15  1  0.53409000  0.53409000  0.23335200  1
  P  P16  1  0.95566000  0.46284900  0.80459600  1
  P  P17  1  0.46284900  0.95566000  0.80459600  1
  P  P18  1  0.04434000  0.53715100  0.19540400  1
  P  P19  1  0.53715100  0.04434000  0.19540400  1
  H  H20  1  0.81418800  0.81418800  0.35934500  1
  H  H21  1  0.18581200  0.18581200  0.64065500  1
  H  H22  1  0.67930900  0.67930900  0.68966200  1
  H  H23  1  0.32069100  0.32069100  0.31033800  1
  H  H24  1  0.83962900  0.25447500  0.54729500  1
  H  H25  1  0.25447500  0.83962900  0.54729500  1
  H  H26  1  0.16037100  0.74552500  0.45270500  1
  H  H27  1  0.74552500  0.16037100  0.45270500  1
  H  H28  1  0.13570200  0.13570200  0.94530300  1
  H  H29  1  0.86429800  0.86429800  0.05469700  1
  O  O30  1  0.40669200  0.40669200  0.64505300  1
  O  O31  1  0.59330800  0.59330800  0.35494700  1
  O  O32  1  0.40351000  0.40351000  0.98249700  1
  O  O33  1  0.59649000  0.59649000  0.01750300  1
  O  O34  1  0.11253300  0.87762900  0.75249900  1
  O  O35  1  0.87762900  0.11253300  0.75249900  1
  O  O36  1  0.88746700  0.12237100  0.24750100  1
  O  O37  1  0.12237100  0.88746700  0.24750100  1
  O  O38  1  0.12198700  0.41684900  0.73731400  1
  O  O39  1  0.41684900  0.12198700  0.73731400  1
  O  O40  1  0.87801300  0.58315100  0.26268600  1
  O  O41  1  0.58315100  0.87801300  0.26268600  1
  O  O42  1  0.90015700  0.62319600  0.81294000  1
  O  O43  1  0.62319600  0.90015700  0.81294000  1
  O  O44  1  0.09984300  0.37680400  0.18706000  1
  O  O45  1  0.37680400  0.09984300  0.18706000  1
  O  O46  1  0.88730600  0.43776600  0.67064700  1
  O  O47  1  0.43776600  0.88730600  0.67064700  1
  O  O48  1  0.11269400  0.56223400  0.32935300  1
  O  O49  1  0.56223400  0.11269400  0.32935300  1
  O  O50  1  0.09493600  0.09493600  0.42122900  1
  O  O51  1  0.90506400  0.90506400  0.57877100  1
  O  O52  1  0.63134900  0.41296100  0.71789400  1
  O  O53  1  0.41296100  0.63134900  0.71789400  1
  O  O54  1  0.36865100  0.58703900  0.28210600  1
  O  O55  1  0.58703900  0.36865100  0.28210600  1
  O  O56  1  0.90944800  0.36854200  0.01160200  1
  O  O57  1  0.36854200  0.90944800  0.01160200  1
  O  O58  1  0.09055200  0.63145800  0.98839800  1
  O  O59  1  0.63145800  0.09055200  0.98839800  1
  O  O60  1  0.12808100  0.12808100  0.74196600  1
  O  O61  1  0.87191900  0.87191900  0.25803400  1
  O  O62  1  0.67774100  0.67774100  0.55988700  1
  O  O63  1  0.32225900  0.32225900  0.44011300  1
  O  O64  1  0.84733800  0.32970800  0.42295600  1
  O  O65  1  0.32970800  0.84733800  0.42295600  1
  O  O66  1  0.15266200  0.67029200  0.57704400  1
  O  O67  1  0.67029200  0.15266200  0.57704400  1
  O  O68  1  0.15188500  0.15188500  0.06209500  1
  O  O69  1  0.84811500  0.84811500  0.93790500  1
