# generated using pymatgen
data_CoP2H36C12Br2(N3O)2
_symmetry_space_group_name_H-M   'P 1'
_cell_length_a   8.65116400
_cell_length_b   13.20659261
_cell_length_c   13.97514558
_cell_angle_alpha   75.59179573
_cell_angle_beta   71.96971596
_cell_angle_gamma   70.88095237
_symmetry_Int_Tables_number   1
_chemical_formula_structural   CoP2H36C12Br2(N3O)2
_chemical_formula_sum   'Co2 P4 H72 C24 Br4 N12 O4'
_cell_volume   1415.08522063
_cell_formula_units_Z   2
loop_
 _symmetry_equiv_pos_site_id
 _symmetry_equiv_pos_as_xyz
  1  'x, y, z'
loop_
 _atom_site_type_symbol
 _atom_site_label
 _atom_site_symmetry_multiplicity
 _atom_site_fract_x
 _atom_site_fract_y
 _atom_site_fract_z
 _atom_site_occupancy
  Co  Co0  1  0.32459100  0.75000000  0.25000000  1
  Co  Co1  1  0.67540900  0.25000000  0.75000000  1
  P  P2  1  0.45904800  0.74621400  0.45386400  1
  P  P3  1  0.65912600  0.75378600  0.04613600  1
  P  P4  1  0.54095200  0.25378600  0.54613600  1
  P  P5  1  0.34087400  0.24621400  0.95386400  1
  H  H6  1  0.61729800  0.97501700  0.32630600  1
  H  H7  1  0.91862000  0.52498300  0.17369400  1
  H  H8  1  0.38270200  0.02498300  0.67369400  1
  H  H9  1  0.08138000  0.47501700  0.82630600  1
  H  H10  1  0.67783300  0.84122400  0.29920900  1
  H  H11  1  0.81826600  0.65877600  0.20079100  1
  H  H12  1  0.32216700  0.15877600  0.70079100  1
  H  H13  1  0.18173400  0.34122400  0.79920900  1
  H  H14  1  0.49240900  0.93660200  0.26744300  1
  H  H15  1  0.69645400  0.56339800  0.23255700  1
  H  H16  1  0.50759100  0.06339800  0.73255700  1
  H  H17  1  0.30354600  0.43660200  0.76744300  1
  H  H18  1  0.22517700  0.98239500  0.41708800  1
  H  H19  1  0.62465900  0.51760500  0.08291200  1
  H  H20  1  0.77482300  0.01760500  0.58291200  1
  H  H21  1  0.37534100  0.48239500  0.91708800  1
  H  H22  1  0.26060400  0.94072100  0.54228600  1
  H  H23  1  0.74361100  0.55927900  0.95771400  1
  H  H24  1  0.73939600  0.05927900  0.45771400  1
  H  H25  1  0.25638900  0.44072100  0.04228600  1
  H  H26  1  0.36249200  0.03437800  0.45262200  1
  H  H27  1  0.84949200  0.46562200  0.04737800  1
  H  H28  1  0.63750800  0.96562200  0.54737800  1
  H  H29  1  0.15050800  0.53437800  0.95262200  1
  H  H30  1  0.70887600  0.51079500  0.53846600  1
  H  H31  1  0.75813700  0.98920500  0.96153400  1
  H  H32  1  0.29112400  0.48920500  0.46153400  1
  H  H33  1  0.24186300  0.01079500  0.03846600  1
  H  H34  1  0.61739400  0.53405700  0.43359800  1
  H  H35  1  0.58504800  0.96594300  0.06640200  1
  H  H36  1  0.38260600  0.46594300  0.56640200  1
  H  H37  1  0.41495200  0.03405700  0.93359800  1
  H  H38  1  0.83156400  0.53524500  0.41053500  1
  H  H39  1  0.77734400  0.96475500  0.08946500  1
  H  H40  1  0.16843600  0.46475500  0.58946500  1
  H  H41  1  0.22265600  0.03524500  0.91053500  1
  H  H42  1  0.89781300  0.68346900  0.44129100  1
  H  H43  1  0.02257200  0.81653100  0.05870900  1
  H  H44  1  0.10218700  0.31653100  0.55870900  1
  H  H45  1  0.97742800  0.18346900  0.94129100  1
  H  H46  1  0.73561500  0.79811800  0.48459500  1
  H  H47  1  0.01832900  0.70188200  0.01540500  1
  H  H48  1  0.26438500  0.20188200  0.51540500  1
  H  H49  1  0.98167100  0.29811800  0.98459500  1
  H  H50  1  0.77813300  0.67260500  0.57100600  1
  H  H51  1  0.02174400  0.82739500  0.92899400  1
  H  H52  1  0.22186700  0.32739500  0.42899400  1
  H  H53  1  0.97825600  0.17260500  0.07100600  1
  H  H54  1  0.31458300  0.66572300  0.72032600  1
  H  H55  1  0.70063200  0.83427700  0.77967400  1
  H  H56  1  0.68541700  0.33427700  0.27967400  1
  H  H57  1  0.29936800  0.16572300  0.22032600  1
  H  H58  1  0.49986400  0.70640900  0.65115200  1
  H  H59  1  0.85742500  0.79359100  0.84884800  1
  H  H60  1  0.50013600  0.29359100  0.34884800  1
  H  H61  1  0.14257500  0.20640900  0.15115200  1
  H  H62  1  0.30530800  0.80686100  0.68849600  1
  H  H63  1  0.80066400  0.69313900  0.81150400  1
  H  H64  1  0.69469200  0.19313900  0.31150400  1
  H  H65  1  0.19933600  0.30686100  0.18849600  1
  H  H66  1  0.06776700  0.82797500  0.59974800  1
  H  H67  1  0.49548900  0.67202500  0.90025200  1
  H  H68  1  0.93223300  0.17202500  0.40025200  1
  H  H69  1  0.50451100  0.32797500  0.09974800  1
  H  H70  1  0.12151200  0.74474600  0.50478200  1
  H  H71  1  0.37104000  0.75525400  0.99521800  1
  H  H72  1  0.87848800  0.25525400  0.49521800  1
  H  H73  1  0.62896000  0.24474600  0.00478200  1
  H  H74  1  0.09843800  0.68469100  0.63616100  1
  H  H75  1  0.41929000  0.81530900  0.86383900  1
  H  H76  1  0.90156200  0.31530900  0.36383900  1
  H  H77  1  0.58071000  0.18469100  0.13616100  1
  C  C78  1  0.56898300  0.90854800  0.32391600  1
  C  C79  1  0.80144700  0.59145200  0.17608400  1
  C  C80  1  0.43101700  0.09145200  0.67608400  1
  C  C81  1  0.19855300  0.40854800  0.82391600  1
  C  C82  1  0.32029300  0.96183200  0.46136400  1
  C  C83  1  0.74348900  0.53816800  0.03863600  1
  C  C84  1  0.67970700  0.03816800  0.53863600  1
  C  C85  1  0.25651100  0.46183200  0.96136400  1
  C  C86  1  0.70415600  0.55709200  0.46151000  1
  C  C87  1  0.72275800  0.94290800  0.03849000  1
  C  C88  1  0.29584400  0.44290800  0.53849000  1
  C  C89  1  0.27724200  0.05709200  0.96151000  1
  C  C90  1  0.77117900  0.70966600  0.49178000  1
  C  C91  1  0.97262500  0.79033400  0.00822000  1
  C  C92  1  0.22882100  0.29033400  0.50822000  1
  C  C93  1  0.02737500  0.20966600  0.99178000  1
  C  C94  1  0.36310200  0.72799600  0.66091500  1
  C  C95  1  0.75201300  0.77200400  0.83908500  1
  C  C96  1  0.63689800  0.27200400  0.33908500  1
  C  C97  1  0.24798700  0.22799600  0.16091500  1
  C  C98  1  0.14312300  0.74847700  0.57681200  1
  C  C99  1  0.46841200  0.75152300  0.92318800  1
  C  C100  1  0.85687700  0.25152300  0.42318800  1
  C  C101  1  0.53158800  0.24847700  0.07681200  1
  Br  Br102  1  0.26172600  0.59142700  0.23110100  1
  Br  Br103  1  0.08425400  0.90857300  0.26889900  1
  Br  Br104  1  0.73827400  0.40857300  0.76889900  1
  Br  Br105  1  0.91574600  0.09142700  0.73110100  1
  N  N106  1  0.46874100  0.87453100  0.42566700  1
  N  N107  1  0.76893900  0.62546900  0.07433300  1
  N  N108  1  0.53125900  0.12546900  0.57433300  1
  N  N109  1  0.23106100  0.37453100  0.92566700  1
  N  N110  1  0.65212300  0.67445100  0.46175700  1
  N  N111  1  0.78833100  0.82554900  0.03824300  1
  N  N112  1  0.34787700  0.32554900  0.53824300  1
  N  N113  1  0.21166900  0.17445100  0.96175700  1
  N  N114  1  0.32283500  0.73045600  0.56642300  1
  N  N115  1  0.61971400  0.76954400  0.93357700  1
  N  N116  1  0.67716500  0.26954400  0.43357700  1
  N  N117  1  0.38028600  0.23045600  0.06642300  1
  O  O118  1  0.40656400  0.70876300  0.37773400  1
  O  O119  1  0.49306100  0.79123700  0.12226600  1
  O  O120  1  0.59343600  0.29123700  0.62226600  1
  O  O121  1  0.50693900  0.20876300  0.87773400  1
