# generated using pymatgen
data_GeSb2H16C4(S3N)2
_symmetry_space_group_name_H-M   'P 1'
_cell_length_a   11.15541200
_cell_length_b   11.15541200
_cell_length_c   14.01427400
_cell_angle_alpha   90.00000000
_cell_angle_beta   90.00000000
_cell_angle_gamma   90.00000000
_symmetry_Int_Tables_number   1
_chemical_formula_structural   GeSb2H16C4(S3N)2
_chemical_formula_sum   'Ge4 Sb8 H64 C16 S24 N8'
_cell_volume   1743.98133893
_cell_formula_units_Z   4
loop_
 _symmetry_equiv_pos_site_id
 _symmetry_equiv_pos_as_xyz
  1  'x, y, z'
loop_
 _atom_site_type_symbol
 _atom_site_label
 _atom_site_symmetry_multiplicity
 _atom_site_fract_x
 _atom_site_fract_y
 _atom_site_fract_z
 _atom_site_occupancy
  Ge  Ge0  1  0.77015800  0.22984200  0.75000000  1
  Ge  Ge1  1  0.22984200  0.77015800  0.25000000  1
  Ge  Ge2  1  0.72984200  0.72984200  0.50000000  1
  Ge  Ge3  1  0.27015800  0.27015800  0.00000000  1
  Sb  Sb4  1  0.01091900  0.39609000  0.87618700  1
  Sb  Sb5  1  0.98908100  0.60391000  0.37618700  1
  Sb  Sb6  1  0.89609000  0.48908100  0.62618700  1
  Sb  Sb7  1  0.10391000  0.51091900  0.12618700  1
  Sb  Sb8  1  0.60391000  0.98908100  0.62381300  1
  Sb  Sb9  1  0.39609000  0.01091900  0.12381300  1
  Sb  Sb10  1  0.48908100  0.89609000  0.37381300  1
  Sb  Sb11  1  0.51091900  0.10391000  0.87381300  1
  H  H12  1  0.81125900  0.11633400  0.98005700  1
  H  H13  1  0.18874100  0.88366600  0.48005700  1
  H  H14  1  0.61633400  0.68874100  0.73005700  1
  H  H15  1  0.38366600  0.31125900  0.23005700  1
  H  H16  1  0.88366600  0.18874100  0.51994300  1
  H  H17  1  0.11633400  0.81125900  0.01994300  1
  H  H18  1  0.68874100  0.61633400  0.26994300  1
  H  H19  1  0.31125900  0.38366600  0.76994300  1
  H  H20  1  0.93174100  0.17823200  0.03629200  1
  H  H21  1  0.06825900  0.82176800  0.53629200  1
  H  H22  1  0.67823200  0.56825900  0.78629200  1
  H  H23  1  0.32176800  0.43174100  0.28629200  1
  H  H24  1  0.82176800  0.06825900  0.46370800  1
  H  H25  1  0.17823200  0.93174100  0.96370800  1
  H  H26  1  0.56825900  0.67823200  0.21370800  1
  H  H27  1  0.43174100  0.32176800  0.71370800  1
  H  H28  1  0.92293900  0.96884900  0.07370100  1
  H  H29  1  0.07706100  0.03115100  0.57370100  1
  H  H30  1  0.46884900  0.57706100  0.82370100  1
  H  H31  1  0.53115100  0.42293900  0.32370100  1
  H  H32  1  0.03115100  0.07706100  0.42629900  1
  H  H33  1  0.96884900  0.92293900  0.92629900  1
  H  H34  1  0.57706100  0.46884900  0.17629900  1
  H  H35  1  0.42293900  0.53115100  0.67629900  1
  H  H36  1  0.77430800  0.99195100  0.12135100  1
  H  H37  1  0.22569200  0.00804900  0.62135100  1
  H  H38  1  0.49195100  0.72569200  0.87135100  1
  H  H39  1  0.50804900  0.27430800  0.37135100  1
  H  H40  1  0.00804900  0.22569200  0.37864900  1
  H  H41  1  0.99195100  0.77430800  0.87864900  1
  H  H42  1  0.72569200  0.49195100  0.12864900  1
  H  H43  1  0.27430800  0.50804900  0.62864900  1
  H  H44  1  0.90413500  0.05923400  0.17606500  1
  H  H45  1  0.09586500  0.94076600  0.67606500  1
  H  H46  1  0.55923400  0.59586500  0.92606500  1
  H  H47  1  0.44076600  0.40413500  0.42606500  1
  H  H48  1  0.94076600  0.09586500  0.32393500  1
  H  H49  1  0.05923400  0.90413500  0.82393500  1
  H  H50  1  0.59586500  0.55923400  0.07393500  1
  H  H51  1  0.40413500  0.44076600  0.57393500  1
  H  H52  1  0.76837300  0.31124500  0.04223400  1
  H  H53  1  0.23162700  0.68875500  0.54223400  1
  H  H54  1  0.81124500  0.73162700  0.79223400  1
  H  H55  1  0.18875500  0.26837300  0.29223400  1
  H  H56  1  0.68875500  0.23162700  0.45776600  1
  H  H57  1  0.31124500  0.76837300  0.95776600  1
  H  H58  1  0.73162700  0.81124500  0.20776600  1
  H  H59  1  0.26837300  0.18875500  0.70776600  1
  H  H60  1  0.81151100  0.26237100  0.15946600  1
  H  H61  1  0.18848900  0.73762900  0.65946600  1
  H  H62  1  0.76237100  0.68848900  0.90946600  1
  H  H63  1  0.23762900  0.31151100  0.40946600  1
  H  H64  1  0.73762900  0.18848900  0.34053400  1
  H  H65  1  0.26237100  0.81151100  0.84053400  1
  H  H66  1  0.68848900  0.76237100  0.09053400  1
  H  H67  1  0.31151100  0.23762900  0.59053400  1
  H  H68  1  0.68008000  0.19949200  0.10247400  1
  H  H69  1  0.31992000  0.80050800  0.60247400  1
  H  H70  1  0.69949200  0.81992000  0.85247400  1
  H  H71  1  0.30050800  0.18008000  0.35247400  1
  H  H72  1  0.80050800  0.31992000  0.39752600  1
  H  H73  1  0.19949200  0.68008000  0.89752600  1
  H  H74  1  0.81992000  0.69949200  0.14752600  1
  H  H75  1  0.18008000  0.30050800  0.64752600  1
  C  C76  1  0.86218200  0.03239400  0.10867100  1
  C  C77  1  0.13781800  0.96760600  0.60867100  1
  C  C78  1  0.53239400  0.63781800  0.85867100  1
  C  C79  1  0.46760600  0.36218200  0.35867100  1
  C  C80  1  0.96760600  0.13781800  0.39132900  1
  C  C81  1  0.03239400  0.86218200  0.89132900  1
  C  C82  1  0.63781800  0.53239400  0.14132900  1
  C  C83  1  0.36218200  0.46760600  0.64132900  1
  C  C84  1  0.77053800  0.23490600  0.09160400  1
  C  C85  1  0.22946200  0.76509400  0.59160400  1
  C  C86  1  0.73490600  0.72946200  0.84160400  1
  C  C87  1  0.26509400  0.27053800  0.34160400  1
  C  C88  1  0.76509400  0.22946200  0.40839600  1
  C  C89  1  0.23490600  0.77053800  0.90839600  1
  C  C90  1  0.72946200  0.73490600  0.15839600  1
  C  C91  1  0.27053800  0.26509400  0.65839600  1
  S  S92  1  0.95185400  0.54674500  0.99931600  1
  S  S93  1  0.04814600  0.45325500  0.49931600  1
  S  S94  1  0.04674500  0.54814600  0.74931600  1
  S  S95  1  0.95325500  0.45185400  0.24931600  1
  S  S96  1  0.45325500  0.04814600  0.50068400  1
  S  S97  1  0.54674500  0.95185400  0.00068400  1
  S  S98  1  0.54814600  0.04674500  0.25068400  1
  S  S99  1  0.45185400  0.95325500  0.75068400  1
  S  S100  1  0.76892200  0.39200400  0.84452100  1
  S  S101  1  0.23107800  0.60799600  0.34452100  1
  S  S102  1  0.89200400  0.73107800  0.59452100  1
  S  S103  1  0.10799600  0.26892200  0.09452100  1
  S  S104  1  0.60799600  0.23107800  0.65547900  1
  S  S105  1  0.39200400  0.76892200  0.15547900  1
  S  S106  1  0.73107800  0.89200400  0.40547900  1
  S  S107  1  0.26892200  0.10799600  0.90547900  1
  S  S108  1  0.93857100  0.24444000  0.66468700  1
  S  S109  1  0.06142900  0.75556000  0.16468700  1
  S  S110  1  0.74444000  0.56142900  0.41468700  1
  S  S111  1  0.25556000  0.43857100  0.91468700  1
  S  S112  1  0.75556000  0.06142900  0.83531300  1
  S  S113  1  0.24444000  0.93857100  0.33531300  1
  S  S114  1  0.56142900  0.74444000  0.58531300  1
  S  S115  1  0.43857100  0.25556000  0.08531300  1
  N  N116  1  0.84721600  0.14056000  0.04767000  1
  N  N117  1  0.15278400  0.85944000  0.54767000  1
  N  N118  1  0.64056000  0.65278400  0.79767000  1
  N  N119  1  0.35944000  0.34721600  0.29767000  1
  N  N120  1  0.85944000  0.15278400  0.45233000  1
  N  N121  1  0.14056000  0.84721600  0.95233000  1
  N  N122  1  0.65278400  0.64056000  0.20233000  1
  N  N123  1  0.34721600  0.35944000  0.70233000  1
