# generated using pymatgen
data_SiBH3CNCl3
_symmetry_space_group_name_H-M   'P 1'
_cell_length_a   11.24634288
_cell_length_b   11.24634288
_cell_length_c   11.24634345
_cell_angle_alpha   105.58111639
_cell_angle_beta   105.58111639
_cell_angle_gamma   105.58111717
_symmetry_Int_Tables_number   1
_chemical_formula_structural   SiBH3CNCl3
_chemical_formula_sum   'Si6 B6 H18 C6 N6 Cl18'
_cell_volume   1227.59172520
_cell_formula_units_Z   6
loop_
 _symmetry_equiv_pos_site_id
 _symmetry_equiv_pos_as_xyz
  1  'x, y, z'
loop_
 _atom_site_type_symbol
 _atom_site_label
 _atom_site_symmetry_multiplicity
 _atom_site_fract_x
 _atom_site_fract_y
 _atom_site_fract_z
 _atom_site_occupancy
  Si  Si0  1  0.54051200  0.12129600  0.35562900  1
  Si  Si1  1  0.35562900  0.54051200  0.12129600  1
  Si  Si2  1  0.12129600  0.35562900  0.54051200  1
  Si  Si3  1  0.85562900  0.62129600  0.04051200  1
  Si  Si4  1  0.04051200  0.85562900  0.62129600  1
  Si  Si5  1  0.62129600  0.04051200  0.85562900  1
  B  B6  1  0.28365300  0.12052300  0.20689300  1
  B  B7  1  0.20689300  0.28365300  0.12052300  1
  B  B8  1  0.12052300  0.20689300  0.28365300  1
  B  B9  1  0.70689300  0.62052300  0.78365300  1
  B  B10  1  0.78365300  0.70689300  0.62052300  1
  B  B11  1  0.62052300  0.78365300  0.70689300  1
  H  H12  1  0.19608200  0.06891000  0.33971400  1
  H  H13  1  0.33971400  0.19608200  0.06891000  1
  H  H14  1  0.06891000  0.33971400  0.19608200  1
  H  H15  1  0.83971400  0.56891000  0.69608200  1
  H  H16  1  0.69608200  0.83971400  0.56891000  1
  H  H17  1  0.56891000  0.69608200  0.83971400  1
  H  H18  1  0.39966600  0.00838400  0.12603400  1
  H  H19  1  0.12603400  0.39966600  0.00838400  1
  H  H20  1  0.00838400  0.12603400  0.39966600  1
  H  H21  1  0.62603400  0.50838400  0.89966600  1
  H  H22  1  0.89966600  0.62603400  0.50838400  1
  H  H23  1  0.50838400  0.89966600  0.62603400  1
  H  H24  1  0.32960900  0.94444700  0.23016900  1
  H  H25  1  0.23016900  0.32960900  0.94444700  1
  H  H26  1  0.94444700  0.23016900  0.32960900  1
  H  H27  1  0.73016900  0.44444700  0.82960900  1
  H  H28  1  0.82960900  0.73016900  0.44444700  1
  H  H29  1  0.44444700  0.82960900  0.73016900  1
  C  C30  1  0.37741200  0.03683200  0.21694900  1
  C  C31  1  0.21694900  0.37741200  0.03683200  1
  C  C32  1  0.03683200  0.21694900  0.37741200  1
  C  C33  1  0.71694900  0.53683200  0.87741200  1
  C  C34  1  0.87741200  0.71694900  0.53683200  1
  C  C35  1  0.53683200  0.87741200  0.71694900  1
  N  N36  1  0.19854400  0.12460000  0.28181900  1
  N  N37  1  0.28181900  0.19854400  0.12460000  1
  N  N38  1  0.12460000  0.28181900  0.19854400  1
  N  N39  1  0.78181900  0.62460000  0.69854400  1
  N  N40  1  0.69854400  0.78181900  0.62460000  1
  N  N41  1  0.62460000  0.69854400  0.78181900  1
  Cl  Cl42  1  0.64906500  0.00016800  0.36434800  1
  Cl  Cl43  1  0.36434800  0.64906500  0.00016800  1
  Cl  Cl44  1  0.00016800  0.36434800  0.64906500  1
  Cl  Cl45  1  0.86434800  0.50016800  0.14906500  1
  Cl  Cl46  1  0.14906500  0.86434800  0.50016800  1
  Cl  Cl47  1  0.50016800  0.14906500  0.86434800  1
  Cl  Cl48  1  0.65552900  0.28680900  0.33811900  1
  Cl  Cl49  1  0.33811900  0.65552900  0.28680900  1
  Cl  Cl50  1  0.28680900  0.33811900  0.65552900  1
  Cl  Cl51  1  0.83811900  0.78680900  0.15552900  1
  Cl  Cl52  1  0.15552900  0.83811900  0.78680900  1
  Cl  Cl53  1  0.78680900  0.15552900  0.83811900  1
  Cl  Cl54  1  0.51845100  0.17690500  0.53552000  1
  Cl  Cl55  1  0.53552000  0.51845100  0.17690500  1
  Cl  Cl56  1  0.17690500  0.53552000  0.51845100  1
  Cl  Cl57  1  0.03552000  0.67690500  0.01845100  1
  Cl  Cl58  1  0.01845100  0.03552000  0.67690500  1
  Cl  Cl59  1  0.67690500  0.01845100  0.03552000  1
