# generated using pymatgen
data_HNO3
_symmetry_space_group_name_H-M   'P 1'
_cell_length_a   8.08369800
_cell_length_b   8.69044000
_cell_length_c   8.44226689
_cell_angle_alpha   90.00000000
_cell_angle_beta   121.43132223
_cell_angle_gamma   90.00000000
_symmetry_Int_Tables_number   1
_chemical_formula_structural   HNO3
_chemical_formula_sum   'H8 N8 O24'
_cell_volume   506.05216324
_cell_formula_units_Z   8
loop_
 _symmetry_equiv_pos_site_id
 _symmetry_equiv_pos_as_xyz
  1  'x, y, z'
loop_
 _atom_site_type_symbol
 _atom_site_label
 _atom_site_symmetry_multiplicity
 _atom_site_fract_x
 _atom_site_fract_y
 _atom_site_fract_z
 _atom_site_occupancy
  H  H0  1  0.03023400  0.55108900  0.75168100  1
  H  H1  1  0.03023400  0.94891100  0.25168100  1
  H  H2  1  0.96976600  0.44891100  0.24831900  1
  H  H3  1  0.96976600  0.05108900  0.74831900  1
  H  H4  1  0.48782200  0.79216700  0.69599500  1
  H  H5  1  0.48782200  0.70783300  0.19599500  1
  H  H6  1  0.51217800  0.20783300  0.30400500  1
  H  H7  1  0.51217800  0.29216700  0.80400500  1
  N  N8  1  0.01283600  0.77058700  0.73186300  1
  N  N9  1  0.01283600  0.72941300  0.23186300  1
  N  N10  1  0.98716400  0.22941300  0.26813700  1
  N  N11  1  0.98716400  0.27058700  0.76813700  1
  N  N12  1  0.48231400  0.57347900  0.72086900  1
  N  N13  1  0.48231400  0.92652100  0.22086900  1
  N  N14  1  0.51768600  0.42652100  0.27913100  1
  N  N15  1  0.51768600  0.07347900  0.77913100  1
  O  O16  1  0.89194600  0.76390200  0.77681600  1
  O  O17  1  0.89194600  0.73609800  0.27681600  1
  O  O18  1  0.10805400  0.23609800  0.22318400  1
  O  O19  1  0.10805400  0.26390200  0.72318400  1
  O  O20  1  0.07595100  0.88669800  0.69680200  1
  O  O21  1  0.07595100  0.61330200  0.19680200  1
  O  O22  1  0.92404900  0.11330200  0.30319800  1
  O  O23  1  0.92404900  0.38669800  0.80319800  1
  O  O24  1  0.09279700  0.63459400  0.71760600  1
  O  O25  1  0.09279700  0.86540600  0.21760600  1
  O  O26  1  0.90720300  0.36540600  0.28239400  1
  O  O27  1  0.90720300  0.13459400  0.78239400  1
  O  O28  1  0.59965700  0.58787200  0.88677400  1
  O  O29  1  0.59965700  0.91212800  0.38677400  1
  O  O30  1  0.40034300  0.41212800  0.11322600  1
  O  O31  1  0.40034300  0.08787200  0.61322600  1
  O  O32  1  0.40734800  0.45324700  0.63589800  1
  O  O33  1  0.40734800  0.04675300  0.13589800  1
  O  O34  1  0.59265200  0.54675300  0.36410200  1
  O  O35  1  0.59265200  0.95324700  0.86410200  1
  O  O36  1  0.42164800  0.70316400  0.60930700  1
  O  O37  1  0.42164800  0.79683600  0.10930700  1
  O  O38  1  0.57835200  0.29683600  0.39069300  1
  O  O39  1  0.57835200  0.20316400  0.89069300  1
