data_image0
_chemical_formula_structural       Ba4N8O24
_chemical_formula_sum              "Ba4 N8 O24"
_cell_length_a       7.5529
_cell_length_b       7.5529
_cell_length_c       7.5529
_cell_angle_alpha    90
_cell_angle_beta     90
_cell_angle_gamma    90

_space_group_name_H-M_alt    "P 1"
_space_group_IT_number       1

loop_
  _space_group_symop_operation_xyz
  'x, y, z'

loop_
  _atom_site_type_symbol
  _atom_site_label
  _atom_site_symmetry_multiplicity
  _atom_site_fract_x
  _atom_site_fract_y
  _atom_site_fract_z
  _atom_site_occupancy
  Ba  Ba1       1.0  0.00000  0.00000  0.00000  1.0000
  Ba  Ba2       1.0  0.50000  0.00000  0.50000  1.0000
  Ba  Ba3       1.0  0.50000  0.50000  0.00000  1.0000
  Ba  Ba4       1.0  0.00000  0.50000  0.50000  1.0000
  N   N1        1.0  0.39300  0.39300  0.39300  1.0000
  N   N2        1.0  0.10700  0.60700  0.89300  1.0000
  N   N3        1.0  0.89300  0.10700  0.60700  1.0000
  N   N4        1.0  0.60700  0.89300  0.10700  1.0000
  N   N5        1.0  0.60700  0.60700  0.60700  1.0000
  N   N6        1.0  0.89300  0.39300  0.10700  1.0000
  N   N7        1.0  0.10700  0.89300  0.39300  1.0000
  N   N8        1.0  0.39300  0.10700  0.89300  1.0000
  O   O1        1.0  0.32500  0.32400  0.53000  1.0000
  O   O2        1.0  0.17500  0.67600  0.02980  1.0000
  O   O3        1.0  0.82500  0.17600  0.47000  1.0000
  O   O4        1.0  0.67500  0.82400  0.97000  1.0000
  O   O5        1.0  0.53000  0.32500  0.32400  1.0000
  O   O6        1.0  0.32400  0.53000  0.32500  1.0000
  O   O7        1.0  0.97000  0.67500  0.82400  1.0000
  O   O8        1.0  0.67600  0.02980  0.17500  1.0000
  O   O9        1.0  0.02980  0.17500  0.67600  1.0000
  O   O10       1.0  0.17600  0.47000  0.82500  1.0000
  O   O11       1.0  0.47000  0.82500  0.17600  1.0000
  O   O12       1.0  0.82400  0.97000  0.67500  1.0000
  O   O13       1.0  0.67500  0.67600  0.47000  1.0000
  O   O14       1.0  0.82500  0.32400  0.97000  1.0000
  O   O15       1.0  0.17500  0.82400  0.53000  1.0000
  O   O16       1.0  0.32500  0.17600  0.02980  1.0000
  O   O17       1.0  0.47000  0.67500  0.67600  1.0000
  O   O18       1.0  0.67600  0.47000  0.67500  1.0000
  O   O19       1.0  0.02980  0.32500  0.17600  1.0000
  O   O20       1.0  0.32400  0.97000  0.82500  1.0000
  O   O21       1.0  0.97000  0.82500  0.32400  1.0000
  O   O22       1.0  0.82400  0.53000  0.17500  1.0000
  O   O23       1.0  0.53000  0.17500  0.82400  1.0000
  O   O24       1.0  0.17600  0.02980  0.32500  1.0000
