# generated using pymatgen
data_CeH(SeO3)2
_symmetry_space_group_name_H-M   'P 1'
_cell_length_a   7.15360200
_cell_length_b   8.48306500
_cell_length_c   19.60025400
_cell_angle_alpha   90.00000000
_cell_angle_beta   90.00000000
_cell_angle_gamma   90.00000000
_symmetry_Int_Tables_number   1
_chemical_formula_structural   CeH(SeO3)2
_chemical_formula_sum   'Ce8 H8 Se16 O48'
_cell_volume   1189.43104056
_cell_formula_units_Z   8
loop_
 _symmetry_equiv_pos_site_id
 _symmetry_equiv_pos_as_xyz
  1  'x, y, z'
loop_
 _atom_site_type_symbol
 _atom_site_label
 _atom_site_symmetry_multiplicity
 _atom_site_fract_x
 _atom_site_fract_y
 _atom_site_fract_z
 _atom_site_occupancy
  Ce  Ce0  1  0.58554200  0.15409200  0.43529800  1
  Ce  Ce1  1  0.41445800  0.84590800  0.93529800  1
  Ce  Ce2  1  0.58554200  0.34590800  0.93529800  1
  Ce  Ce3  1  0.41445800  0.65409200  0.43529800  1
  Ce  Ce4  1  0.08762200  0.05474200  0.34758800  1
  Ce  Ce5  1  0.91237800  0.94525800  0.84758800  1
  Ce  Ce6  1  0.08762200  0.44525800  0.84758800  1
  Ce  Ce7  1  0.91237800  0.55474200  0.34758800  1
  H  H8  1  0.28052900  0.41994900  0.64457000  1
  H  H9  1  0.71947100  0.58005100  0.14457000  1
  H  H10  1  0.28052900  0.08005100  0.14457000  1
  H  H11  1  0.71947100  0.91994900  0.64457000  1
  H  H12  1  0.78646800  0.82028300  0.14220500  1
  H  H13  1  0.21353200  0.17971700  0.64220500  1
  H  H14  1  0.78646800  0.67971700  0.64220500  1
  H  H15  1  0.21353200  0.32028300  0.14220500  1
  Se  Se16  1  0.57145200  0.90616300  0.29665300  1
  Se  Se17  1  0.42854800  0.09383700  0.79665300  1
  Se  Se18  1  0.57145200  0.59383700  0.79665300  1
  Se  Se19  1  0.42854800  0.40616300  0.29665300  1
  Se  Se20  1  0.56244700  0.37499700  0.58223500  1
  Se  Se21  1  0.43755300  0.62500300  0.08223500  1
  Se  Se22  1  0.56244700  0.12500300  0.08223500  1
  Se  Se23  1  0.43755300  0.87499700  0.58223500  1
  Se  Se24  1  0.06793000  0.30664900  0.48544500  1
  Se  Se25  1  0.93207000  0.69335100  0.98544500  1
  Se  Se26  1  0.06793000  0.19335100  0.98544500  1
  Se  Se27  1  0.93207000  0.80664900  0.48544500  1
  Se  Se28  1  0.07571300  0.82716400  0.19788700  1
  Se  Se29  1  0.92428700  0.17283600  0.69788700  1
  Se  Se30  1  0.07571300  0.67283600  0.69788700  1
  Se  Se31  1  0.92428700  0.32716400  0.19788700  1
  O  O32  1  0.36369600  0.21777200  0.31626700  1
  O  O33  1  0.63630400  0.78222800  0.81626700  1
  O  O34  1  0.36369600  0.28222800  0.81626700  1
  O  O35  1  0.63630400  0.71777200  0.31626700  1
  O  O36  1  0.59491700  0.42362200  0.36227500  1
  O  O37  1  0.40508300  0.57637800  0.86227500  1
  O  O38  1  0.59491700  0.07637800  0.86227500  1
  O  O39  1  0.40508300  0.92362200  0.36227500  1
  O  O40  1  0.73818000  0.03030500  0.33159600  1
  O  O41  1  0.26182000  0.96969500  0.83159600  1
  O  O42  1  0.73818000  0.46969500  0.83159600  1
  O  O43  1  0.26182000  0.53030500  0.33159600  1
  O  O44  1  0.63514100  0.18757300  0.57223600  1
  O  O45  1  0.36485900  0.81242700  0.07223600  1
  O  O46  1  0.63514100  0.31242700  0.07223600  1
  O  O47  1  0.36485900  0.68757300  0.57223600  1
  O  O48  1  0.52914100  0.41770100  0.49791000  1
  O  O49  1  0.47085900  0.58229900  0.99791000  1
  O  O50  1  0.52914100  0.08229900  0.99791000  1
  O  O51  1  0.47085900  0.91770100  0.49791000  1
  O  O52  1  0.32247600  0.33668300  0.61025200  1
  O  O53  1  0.67752400  0.66331700  0.11025200  1
  O  O54  1  0.32247600  0.16331700  0.11025200  1
  O  O55  1  0.67752400  0.83668300  0.61025200  1
  O  O56  1  0.23598500  0.18253300  0.45146600  1
  O  O57  1  0.76401500  0.81746700  0.95146600  1
  O  O58  1  0.23598500  0.31746700  0.95146600  1
  O  O59  1  0.76401500  0.68253300  0.45146600  1
  O  O60  1  0.90446100  0.28866700  0.41853300  1
  O  O61  1  0.09553900  0.71133300  0.91853300  1
  O  O62  1  0.90446100  0.21133300  0.91853300  1
  O  O63  1  0.09553900  0.78866700  0.41853300  1
  O  O64  1  0.13564100  0.49442700  0.46608200  1
  O  O65  1  0.86435900  0.50557300  0.96608200  1
  O  O66  1  0.13564100  0.00557300  0.96608200  1
  O  O67  1  0.86435900  0.99442700  0.46608200  1
  O  O68  1  0.18281600  0.00267400  0.21100800  1
  O  O69  1  0.81718400  0.99732600  0.71100800  1
  O  O70  1  0.18281600  0.49732600  0.71100800  1
  O  O71  1  0.81718400  0.50267400  0.21100800  1
  O  O72  1  0.01698200  0.79138800  0.28086200  1
  O  O73  1  0.98301800  0.20861200  0.78086200  1
  O  O74  1  0.01698200  0.70861200  0.78086200  1
  O  O75  1  0.98301800  0.29138800  0.28086200  1
  O  O76  1  0.86236500  0.90884900  0.16279300  1
  O  O77  1  0.13763500  0.09115100  0.66279300  1
  O  O78  1  0.86236500  0.59115100  0.66279300  1
  O  O79  1  0.13763500  0.40884900  0.16279300  1
