# generated using pymatgen
data_H7C7(NO2)3
_symmetry_space_group_name_H-M   'P 1'
_cell_length_a   11.19834700
_cell_length_b   15.77909200
_cell_length_c   12.79768400
_cell_angle_alpha   90.00000000
_cell_angle_beta   90.00000000
_cell_angle_gamma   90.00000000
_symmetry_Int_Tables_number   1
_chemical_formula_structural   H7C7(NO2)3
_chemical_formula_sum   'H56 C56 N24 O48'
_cell_volume   2261.34753216
_cell_formula_units_Z   8
loop_
 _symmetry_equiv_pos_site_id
 _symmetry_equiv_pos_as_xyz
  1  'x, y, z'
loop_
 _atom_site_type_symbol
 _atom_site_label
 _atom_site_symmetry_multiplicity
 _atom_site_fract_x
 _atom_site_fract_y
 _atom_site_fract_z
 _atom_site_occupancy
  H  H0  1  0.76813500  0.14353600  0.16264000  1
  H  H1  1  0.73186500  0.85646400  0.66264000  1
  H  H2  1  0.26813500  0.35646400  0.83736000  1
  H  H3  1  0.23186500  0.64353600  0.33736000  1
  H  H4  1  0.23186500  0.85646400  0.83736000  1
  H  H5  1  0.26813500  0.14353600  0.33736000  1
  H  H6  1  0.73186500  0.64353600  0.16264000  1
  H  H7  1  0.76813500  0.35646400  0.66264000  1
  H  H8  1  0.11971100  0.07636000  0.17661900  1
  H  H9  1  0.38028900  0.92364000  0.67661900  1
  H  H10  1  0.61971100  0.42364000  0.82338100  1
  H  H11  1  0.88028900  0.57636000  0.32338100  1
  H  H12  1  0.88028900  0.92364000  0.82338100  1
  H  H13  1  0.61971100  0.07636000  0.32338100  1
  H  H14  1  0.38028900  0.57636000  0.17661900  1
  H  H15  1  0.11971100  0.42364000  0.67661900  1
  H  H16  1  0.02031900  0.09088900  0.31123400  1
  H  H17  1  0.47968100  0.90911100  0.81123400  1
  H  H18  1  0.52031900  0.40911100  0.68876600  1
  H  H19  1  0.97968100  0.59088900  0.18876600  1
  H  H20  1  0.97968100  0.90911100  0.68876600  1
  H  H21  1  0.52031900  0.09088900  0.18876600  1
  H  H22  1  0.47968100  0.59088900  0.31123400  1
  H  H23  1  0.02031900  0.40911100  0.81123400  1
  H  H24  1  0.73273800  0.36041400  0.14195600  1
  H  H25  1  0.76726200  0.63958600  0.64195600  1
  H  H26  1  0.23273800  0.13958600  0.85804400  1
  H  H27  1  0.26726200  0.86041400  0.35804400  1
  H  H28  1  0.26726200  0.63958600  0.85804400  1
  H  H29  1  0.23273800  0.36041400  0.35804400  1
  H  H30  1  0.76726200  0.86041400  0.14195600  1
  H  H31  1  0.73273800  0.13958600  0.64195600  1
  H  H32  1  0.91231600  0.37462800  0.10350900  1
  H  H33  1  0.58768400  0.62537200  0.60350900  1
  H  H34  1  0.41231600  0.12537200  0.89649100  1
  H  H35  1  0.08768400  0.87462800  0.39649100  1
  H  H36  1  0.08768400  0.62537200  0.89649100  1
  H  H37  1  0.41231600  0.37462800  0.39649100  1
  H  H38  1  0.58768400  0.87462800  0.10350900  1
  H  H39  1  0.91231600  0.12537200  0.60350900  1
  H  H40  1  0.93041100  0.20007000  0.92316100  1
  H  H41  1  0.56958900  0.79993000  0.42316100  1
  H  H42  1  0.43041100  0.29993000  0.07683900  1
  H  H43  1  0.06958900  0.70007000  0.57683900  1
  H  H44  1  0.06958900  0.79993000  0.07683900  1
  H  H45  1  0.43041100  0.20007000  0.57683900  1
  H  H46  1  0.56958900  0.70007000  0.92316100  1
  H  H47  1  0.93041100  0.29993000  0.42316100  1
  H  H48  1  0.71668800  0.03222100  0.93382000  1
  H  H49  1  0.78331200  0.96777900  0.43382000  1
  H  H50  1  0.21668800  0.46777900  0.06618000  1
  H  H51  1  0.28331200  0.53222100  0.56618000  1
  H  H52  1  0.28331200  0.96777900  0.06618000  1
  H  H53  1  0.21668800  0.03222100  0.56618000  1
  H  H54  1  0.78331200  0.53222100  0.93382000  1
  H  H55  1  0.71668800  0.46777900  0.43382000  1
  C  C56  1  0.84406300  0.16127600  0.11274500  1
  C  C57  1  0.65593700  0.83872400  0.61274500  1
  C  C58  1  0.34406300  0.33872400  0.88725500  1
  C  C59  1  0.15593700  0.66127600  0.38725500  1
  C  C60  1  0.15593700  0.83872400  0.88725500  1
  C  C61  1  0.34406300  0.16127600  0.38725500  1
  C  C62  1  0.65593700  0.66127600  0.11274500  1
  C  C63  1  0.84406300  0.33872400  0.61274500  1
  C  C64  1  0.05332300  0.09841000  0.11851700  1
  C  C65  1  0.44667700  0.90159000  0.61851700  1
  C  C66  1  0.55332300  0.40159000  0.88148300  1
  C  C67  1  0.94667700  0.59841000  0.38148300  1
  C  C68  1  0.94667700  0.90159000  0.88148300  1
  C  C69  1  0.55332300  0.09841000  0.38148300  1
  C  C70  1  0.44667700  0.59841000  0.11851700  1
  C  C71  1  0.05332300  0.40159000  0.61851700  1
  C  C72  1  0.93930400  0.11846200  0.27545300  1
  C  C73  1  0.56069600  0.88153800  0.77545300  1
  C  C74  1  0.43930400  0.38153800  0.72454700  1
  C  C75  1  0.06069600  0.61846200  0.22454700  1
  C  C76  1  0.06069600  0.88153800  0.72454700  1
  C  C77  1  0.43930400  0.11846200  0.22454700  1
  C  C78  1  0.56069600  0.61846200  0.27545300  1
  C  C79  1  0.93930400  0.38153800  0.77545300  1
  C  C80  1  0.73009000  0.29059200  0.14385500  1
  C  C81  1  0.76991000  0.70940800  0.64385500  1
  C  C82  1  0.23009000  0.20940800  0.85614500  1
  C  C83  1  0.26991000  0.79059200  0.35614500  1
  C  C84  1  0.26991000  0.70940800  0.85614500  1
  C  C85  1  0.23009000  0.29059200  0.35614500  1
  C  C86  1  0.76991000  0.79059200  0.14385500  1
  C  C87  1  0.73009000  0.20940800  0.64385500  1
  C  C88  1  0.93585700  0.30724800  0.09142600  1
  C  C89  1  0.56414300  0.69275200  0.59142600  1
  C  C90  1  0.43585700  0.19275200  0.90857400  1
  C  C91  1  0.06414300  0.80724800  0.40857400  1
  C  C92  1  0.06414300  0.69275200  0.90857400  1
  C  C93  1  0.43585700  0.30724800  0.40857400  1
  C  C94  1  0.56414300  0.80724800  0.09142600  1
  C  C95  1  0.93585700  0.19275200  0.59142600  1
  C  C96  1  0.87193400  0.14420100  0.91715300  1
  C  C97  1  0.62806600  0.85579900  0.41715300  1
  C  C98  1  0.37193300  0.35579900  0.08284700  1
  C  C99  1  0.12806600  0.64420100  0.58284700  1
  C  C100  1  0.12806600  0.85579900  0.08284700  1
  C  C101  1  0.37193300  0.14420100  0.58284700  1
  C  C102  1  0.62806600  0.64420100  0.91715300  1
  C  C103  1  0.87193400  0.35579900  0.41715300  1
  C  C104  1  0.73395300  0.05614300  0.01323200  1
  C  C105  1  0.76604700  0.94385700  0.51323200  1
  C  C106  1  0.23395300  0.44385700  0.98676800  1
  C  C107  1  0.26604700  0.55614300  0.48676800  1
  C  C108  1  0.26604700  0.94385700  0.98676800  1
  C  C109  1  0.23395300  0.05614300  0.48676800  1
  C  C110  1  0.76604700  0.55614300  0.01323200  1
  C  C111  1  0.73395300  0.44385700  0.51323200  1
  N  N112  1  0.94952700  0.12835800  0.16691800  1
  N  N113  1  0.55047300  0.87164200  0.66691800  1
  N  N114  1  0.44952700  0.37164200  0.83308200  1
  N  N115  1  0.05047300  0.62835800  0.33308200  1
  N  N116  1  0.05047300  0.87164200  0.83308200  1
  N  N117  1  0.44952700  0.12835800  0.33308200  1
  N  N118  1  0.55047300  0.62835800  0.16691800  1
  N  N119  1  0.94952700  0.37164200  0.66691800  1
  N  N120  1  0.83862700  0.25382500  0.11099800  1
  N  N121  1  0.66137300  0.74617500  0.61099800  1
  N  N122  1  0.33862700  0.24617500  0.88900200  1
  N  N123  1  0.16137300  0.75382500  0.38900200  1
  N  N124  1  0.16137300  0.74617500  0.88900200  1
  N  N125  1  0.33862700  0.25382500  0.38900200  1
  N  N126  1  0.66137300  0.75382500  0.11099800  1
  N  N127  1  0.83862700  0.24617500  0.61099800  1
  N  N128  1  0.81877200  0.12090700  0.01299200  1
  N  N129  1  0.68122800  0.87909300  0.51299200  1
  N  N130  1  0.31877200  0.37909300  0.98700800  1
  N  N131  1  0.18122800  0.62090700  0.48700800  1
  N  N132  1  0.18122800  0.87909300  0.98700800  1
  N  N133  1  0.31877200  0.12090700  0.48700800  1
  N  N134  1  0.68122800  0.62090700  0.01299200  1
  N  N135  1  0.81877200  0.37909300  0.51299200  1
  O  O136  1  0.06892900  0.09519300  0.02447100  1
  O  O137  1  0.43107100  0.90480700  0.52447100  1
  O  O138  1  0.56892900  0.40480700  0.97552900  1
  O  O139  1  0.93107100  0.59519300  0.47552900  1
  O  O140  1  0.93107100  0.90480700  0.97552900  1
  O  O141  1  0.56892900  0.09519300  0.47552900  1
  O  O142  1  0.43107100  0.59519300  0.02447100  1
  O  O143  1  0.06892900  0.40480700  0.52447100  1
  O  O144  1  0.84964900  0.13788800  0.32434000  1
  O  O145  1  0.65035100  0.86211200  0.82434000  1
  O  O146  1  0.34964900  0.36211200  0.67566000  1
  O  O147  1  0.15035100  0.63788800  0.17566000  1
  O  O148  1  0.15035100  0.86211200  0.67566000  1
  O  O149  1  0.34964900  0.13788800  0.17566000  1
  O  O150  1  0.65035100  0.63788800  0.32434000  1
  O  O151  1  0.84964900  0.36211200  0.82434000  1
  O  O152  1  0.64338100  0.24911000  0.17047800  1
  O  O153  1  0.85661900  0.75089000  0.67047800  1
  O  O154  1  0.14338100  0.25089000  0.82952200  1
  O  O155  1  0.35661900  0.74911000  0.32952200  1
  O  O156  1  0.35661900  0.75089000  0.82952200  1
  O  O157  1  0.14338100  0.24911000  0.32952200  1
  O  O158  1  0.85661900  0.74911000  0.17047800  1
  O  O159  1  0.64338100  0.25089000  0.67047800  1
  O  O160  1  0.03445400  0.28233900  0.06470100  1
  O  O161  1  0.46554600  0.71766100  0.56470100  1
  O  O162  1  0.53445400  0.21766100  0.93529900  1
  O  O163  1  0.96554600  0.78233900  0.43529900  1
  O  O164  1  0.96554600  0.71766100  0.93529900  1
  O  O165  1  0.53445400  0.28233900  0.43529900  1
  O  O166  1  0.46554600  0.78233900  0.06470100  1
  O  O167  1  0.03445400  0.21766100  0.56470100  1
  O  O168  1  0.85211200  0.10607200  0.83607300  1
  O  O169  1  0.64788800  0.89392800  0.33607300  1
  O  O170  1  0.35211200  0.39392800  0.16392700  1
  O  O171  1  0.14788800  0.60607200  0.66392700  1
  O  O172  1  0.14788800  0.89392800  0.16392700  1
  O  O173  1  0.35211200  0.10607200  0.66392700  1
  O  O174  1  0.64788800  0.60607200  0.83607300  1
  O  O175  1  0.85211200  0.39392800  0.33607300  1
  O  O176  1  0.68532400  0.02998000  0.09265700  1
  O  O177  1  0.81467600  0.97002000  0.59265700  1
  O  O178  1  0.18532400  0.47002000  0.90734300  1
  O  O179  1  0.31467600  0.52998000  0.40734300  1
  O  O180  1  0.31467600  0.97002000  0.90734300  1
  O  O181  1  0.18532400  0.02998000  0.40734300  1
  O  O182  1  0.81467600  0.52998000  0.09265700  1
  O  O183  1  0.68532400  0.47002000  0.59265700  1
