# generated using pymatgen
data_ZnN3Cl5
_symmetry_space_group_name_H-M   'P 1'
_cell_length_a   9.45375200
_cell_length_b   7.73225500
_cell_length_c   13.69216200
_cell_angle_alpha   90.00000000
_cell_angle_beta   90.00000000
_cell_angle_gamma   90.00000000
_symmetry_Int_Tables_number   1
_chemical_formula_structural   ZnN3Cl5
_chemical_formula_sum   'Zn4 N12 Cl20'
_cell_volume   1000.88090148
_cell_formula_units_Z   4
loop_
 _symmetry_equiv_pos_site_id
 _symmetry_equiv_pos_as_xyz
  1  'x, y, z'
loop_
 _atom_site_type_symbol
 _atom_site_label
 _atom_site_symmetry_multiplicity
 _atom_site_fract_x
 _atom_site_fract_y
 _atom_site_fract_z
 _atom_site_occupancy
  Zn  Zn0  1  0.69962000  0.25000000  0.32122200  1
  Zn  Zn1  1  0.19962000  0.25000000  0.17877800  1
  Zn  Zn2  1  0.30038000  0.75000000  0.67877800  1
  Zn  Zn3  1  0.80038000  0.75000000  0.82122200  1
  N  N4  1  0.95593700  0.25000000  0.87886200  1
  N  N5  1  0.45593700  0.25000000  0.62113800  1
  N  N6  1  0.04406300  0.75000000  0.12113800  1
  N  N7  1  0.54406300  0.75000000  0.37886200  1
  N  N8  1  0.91250100  0.93113300  0.61291700  1
  N  N9  1  0.41250100  0.56886700  0.88708300  1
  N  N10  1  0.08749900  0.43113300  0.38708300  1
  N  N11  1  0.58749900  0.06886700  0.11291700  1
  N  N12  1  0.08749900  0.06886700  0.38708300  1
  N  N13  1  0.58749900  0.43113300  0.11291700  1
  N  N14  1  0.91250100  0.56886700  0.61291700  1
  N  N15  1  0.41250100  0.93113300  0.88708300  1
  Cl  Cl16  1  0.87868900  0.25000000  0.21745400  1
  Cl  Cl17  1  0.37868900  0.25000000  0.28254600  1
  Cl  Cl18  1  0.12131100  0.75000000  0.78254600  1
  Cl  Cl19  1  0.62131100  0.75000000  0.71745400  1
  Cl  Cl20  1  0.58494700  0.25000000  0.07390700  1
  Cl  Cl21  1  0.08494700  0.25000000  0.42609300  1
  Cl  Cl22  1  0.41505300  0.75000000  0.92609300  1
  Cl  Cl23  1  0.91505300  0.75000000  0.57390700  1
  Cl  Cl24  1  0.58157400  0.25000000  0.69958200  1
  Cl  Cl25  1  0.08157400  0.25000000  0.80041800  1
  Cl  Cl26  1  0.41842600  0.75000000  0.30041800  1
  Cl  Cl27  1  0.91842600  0.75000000  0.19958200  1
  Cl  Cl28  1  0.66198500  0.00887700  0.40797600  1
  Cl  Cl29  1  0.16198500  0.49112300  0.09202400  1
  Cl  Cl30  1  0.33801500  0.50887700  0.59202400  1
  Cl  Cl31  1  0.83801500  0.99112300  0.90797600  1
  Cl  Cl32  1  0.33801500  0.99112300  0.59202400  1
  Cl  Cl33  1  0.83801500  0.50887700  0.90797600  1
  Cl  Cl34  1  0.66198500  0.49112300  0.40797600  1
  Cl  Cl35  1  0.16198500  0.00887700  0.09202400  1
