# generated using pymatgen
data_Nd2Fe14C
_symmetry_space_group_name_H-M   'P 1'
_cell_length_a   8.76963700
_cell_length_b   8.76963700
_cell_length_c   11.94058200
_cell_angle_alpha   90.00000000
_cell_angle_beta   90.00000000
_cell_angle_gamma   90.00000000
_symmetry_Int_Tables_number   1
_chemical_formula_structural   Nd2Fe14C
_chemical_formula_sum   'Nd8 Fe56 C4'
_cell_volume   918.30876496
_cell_formula_units_Z   4
loop_
 _symmetry_equiv_pos_site_id
 _symmetry_equiv_pos_as_xyz
  1  'x, y, z'
loop_
 _atom_site_type_symbol
 _atom_site_label
 _atom_site_symmetry_multiplicity
 _atom_site_fract_x
 _atom_site_fract_y
 _atom_site_fract_z
 _atom_site_occupancy
  Nd  Nd0  1  0.23811300  0.76188700  0.50000000  1
  Nd  Nd1  1  0.76188700  0.23811300  0.50000000  1
  Nd  Nd2  1  0.26188700  0.26188700  0.00000000  1
  Nd  Nd3  1  0.73811300  0.73811300  0.00000000  1
  Nd  Nd4  1  0.64254000  0.64254000  0.50000000  1
  Nd  Nd5  1  0.35746000  0.35746000  0.50000000  1
  Nd  Nd6  1  0.85746000  0.14254000  0.00000000  1
  Nd  Nd7  1  0.14254000  0.85746000  0.00000000  1
  Fe  Fe8  1  0.00000000  0.50000000  0.50000000  1
  Fe  Fe9  1  0.50000000  0.00000000  0.00000000  1
  Fe  Fe10  1  0.50000000  0.00000000  0.50000000  1
  Fe  Fe11  1  0.00000000  0.50000000  0.00000000  1
  Fe  Fe12  1  0.50000000  0.50000000  0.10654500  1
  Fe  Fe13  1  0.00000000  0.00000000  0.60654500  1
  Fe  Fe14  1  0.50000000  0.50000000  0.89345500  1
  Fe  Fe15  1  0.00000000  0.00000000  0.39345500  1
  Fe  Fe16  1  0.18233100  0.81766900  0.25505000  1
  Fe  Fe17  1  0.81766900  0.18233100  0.25505000  1
  Fe  Fe18  1  0.31766900  0.31766900  0.75505000  1
  Fe  Fe19  1  0.68233100  0.68233100  0.75505000  1
  Fe  Fe20  1  0.81766900  0.18233100  0.74495000  1
  Fe  Fe21  1  0.18233100  0.81766900  0.74495000  1
  Fe  Fe22  1  0.68233100  0.68233100  0.24495000  1
  Fe  Fe23  1  0.31766900  0.31766900  0.24495000  1
  Fe  Fe24  1  0.40207000  0.59793000  0.29172200  1
  Fe  Fe25  1  0.59793000  0.40207000  0.29172200  1
  Fe  Fe26  1  0.09793000  0.09793000  0.79172200  1
  Fe  Fe27  1  0.90207000  0.90207000  0.79172200  1
  Fe  Fe28  1  0.59793000  0.40207000  0.70827800  1
  Fe  Fe29  1  0.40207000  0.59793000  0.70827800  1
  Fe  Fe30  1  0.90207000  0.90207000  0.20827800  1
  Fe  Fe31  1  0.09793000  0.09793000  0.20827800  1
  Fe  Fe32  1  0.14044000  0.53655900  0.32316900  1
  Fe  Fe33  1  0.85956000  0.46344100  0.32316900  1
  Fe  Fe34  1  0.35956000  0.03655900  0.82316900  1
  Fe  Fe35  1  0.64044000  0.96344100  0.82316900  1
  Fe  Fe36  1  0.85956000  0.46344100  0.67683100  1
  Fe  Fe37  1  0.14044000  0.53655900  0.67683100  1
  Fe  Fe38  1  0.64044000  0.96344100  0.17683100  1
  Fe  Fe39  1  0.35956000  0.03655900  0.17683100  1
  Fe  Fe40  1  0.53655900  0.14044000  0.32316900  1
  Fe  Fe41  1  0.46344100  0.85956000  0.32316900  1
  Fe  Fe42  1  0.03655900  0.35956000  0.82316900  1
  Fe  Fe43  1  0.96344100  0.64044000  0.82316900  1
  Fe  Fe44  1  0.46344100  0.85956000  0.67683100  1
  Fe  Fe45  1  0.53655900  0.14044000  0.67683100  1
  Fe  Fe46  1  0.96344100  0.64044000  0.17683100  1
  Fe  Fe47  1  0.03655900  0.35956000  0.17683100  1
  Fe  Fe48  1  0.93370000  0.72546200  0.37866800  1
  Fe  Fe49  1  0.06630000  0.27453800  0.37866800  1
  Fe  Fe50  1  0.56630000  0.22546200  0.87866800  1
  Fe  Fe51  1  0.43370000  0.77453800  0.87866800  1
  Fe  Fe52  1  0.06630000  0.27453800  0.62133200  1
  Fe  Fe53  1  0.93370000  0.72546200  0.62133200  1
  Fe  Fe54  1  0.43370000  0.77453800  0.12133200  1
  Fe  Fe55  1  0.56630000  0.22546200  0.12133200  1
  Fe  Fe56  1  0.72546200  0.93370000  0.37866800  1
  Fe  Fe57  1  0.27453800  0.06630000  0.37866800  1
  Fe  Fe58  1  0.22546200  0.56630000  0.87866800  1
  Fe  Fe59  1  0.77453800  0.43370000  0.87866800  1
  Fe  Fe60  1  0.27453800  0.06630000  0.62133200  1
  Fe  Fe61  1  0.72546200  0.93370000  0.62133200  1
  Fe  Fe62  1  0.77453800  0.43370000  0.12133200  1
  Fe  Fe63  1  0.22546200  0.56630000  0.12133200  1
  C  C64  1  0.87433900  0.87433900  0.50000000  1
  C  C65  1  0.12566100  0.12566100  0.50000000  1
  C  C66  1  0.62566100  0.37433900  0.00000000  1
  C  C67  1  0.37433900  0.62566100  0.00000000  1
