# generated using pymatgen
data_H14Pb6C8O13
_symmetry_space_group_name_H-M   'P 1'
_cell_length_a   7.42985700
_cell_length_b   11.93040686
_cell_length_c   14.18777678
_cell_angle_alpha   113.08198676
_cell_angle_beta   99.78997852
_cell_angle_gamma   90.07367517
_symmetry_Int_Tables_number   1
_chemical_formula_structural   H14Pb6C8O13
_chemical_formula_sum   'H28 Pb12 C16 O26'
_cell_volume   1136.88781872
_cell_formula_units_Z   2
loop_
 _symmetry_equiv_pos_site_id
 _symmetry_equiv_pos_as_xyz
  1  'x, y, z'
loop_
 _atom_site_type_symbol
 _atom_site_label
 _atom_site_symmetry_multiplicity
 _atom_site_fract_x
 _atom_site_fract_y
 _atom_site_fract_z
 _atom_site_occupancy
  H  H0  1  0.29406400  0.55004400  0.34536300  1
  H  H1  1  0.70593600  0.44995600  0.65463700  1
  H  H2  1  0.08276300  0.52572900  0.34264200  1
  H  H3  1  0.91723700  0.47427100  0.65735800  1
  H  H4  1  0.86202700  0.54446900  0.46177300  1
  H  H5  1  0.13797300  0.45553100  0.53822700  1
  H  H6  1  0.71974400  0.66692100  0.47160800  1
  H  H7  1  0.28025600  0.33307900  0.52839200  1
  H  H8  1  0.62934500  0.53236500  0.47641800  1
  H  H9  1  0.37065500  0.46763500  0.52358200  1
  H  H10  1  0.45381400  0.32386700  0.35593100  1
  H  H11  1  0.54618600  0.67613300  0.64406900  1
  H  H12  1  0.33413800  0.17968200  0.32085100  1
  H  H13  1  0.66586200  0.82031800  0.67914900  1
  H  H14  1  0.57784300  0.19007100  0.33384200  1
  H  H15  1  0.42215700  0.80992900  0.66615800  1
  H  H16  1  0.13659000  0.79610700  0.54277500  1
  H  H17  1  0.86341000  0.20389300  0.45722500  1
  H  H18  1  0.93389100  0.86362400  0.51023900  1
  H  H19  1  0.06610900  0.13637600  0.48976100  1
  H  H20  1  0.15633500  0.93007500  0.52013600  1
  H  H21  1  0.84366500  0.06992500  0.47986400  1
  H  H22  1  0.59910100  0.23577600  0.63619100  1
  H  H23  1  0.40089900  0.76422400  0.36380900  1
  H  H24  1  0.61999900  0.10517600  0.66667000  1
  H  H25  1  0.38000100  0.89482400  0.33333000  1
  H  H26  1  0.39819600  0.15759600  0.64346800  1
  H  H27  1  0.60180400  0.84240400  0.35653200  1
  Pb  Pb28  1  0.65699200  0.41360400  0.07998000  1
  Pb  Pb29  1  0.34300800  0.58639600  0.92002000  1
  Pb  Pb30  1  0.92404900  0.22333900  0.20501900  1
  Pb  Pb31  1  0.07595100  0.77666100  0.79498100  1
  Pb  Pb32  1  0.13988100  0.40738900  0.06840600  1
  Pb  Pb33  1  0.86011900  0.59261100  0.93159400  1
  Pb  Pb34  1  0.86528300  0.08922700  0.92128700  1
  Pb  Pb35  1  0.13471700  0.91077300  0.07871300  1
  Pb  Pb36  1  0.05821300  0.27742000  0.78424900  1
  Pb  Pb37  1  0.94178700  0.72258000  0.21575100  1
  Pb  Pb38  1  0.33610700  0.08913900  0.91528400  1
  Pb  Pb39  1  0.66389300  0.91086100  0.08471600  1
  C  C40  1  0.65946800  0.51615500  0.32284500  1
  C  C41  1  0.34053200  0.48384500  0.67715500  1
  C  C42  1  0.72240900  0.56689800  0.44008100  1
  C  C43  1  0.27759100  0.43310200  0.55991900  1
  C  C44  1  0.43033800  0.20804000  0.19579500  1
  C  C45  1  0.56966200  0.79196000  0.80420500  1
  C  C46  1  0.45094700  0.22542100  0.30859500  1
  C  C47  1  0.54905300  0.77457900  0.69140500  1
  C  C48  1  0.08108200  0.96169000  0.66851200  1
  C  C49  1  0.91891800  0.03831000  0.33148800  1
  C  C50  1  0.07511700  0.88309700  0.55351200  1
  C  C51  1  0.92488300  0.11690300  0.44648800  1
  C  C52  1  0.56866300  0.26936400  0.79182400  1
  C  C53  1  0.43133700  0.73063600  0.20817600  1
  C  C54  1  0.54294500  0.18653500  0.67721800  1
  C  C55  1  0.45705500  0.81346500  0.32278200  1
  O  O56  1  0.88561900  0.28514900  0.07391200  1
  O  O57  1  0.11438100  0.71485100  0.92608800  1
  O  O58  1  0.88405200  0.03507800  0.07665200  1
  O  O59  1  0.11594800  0.96492200  0.92334800  1
  O  O60  1  0.11086000  0.46204000  0.91935600  1
  O  O61  1  0.88914000  0.53796000  0.08064400  1
  O  O62  1  0.11131700  0.21547500  0.91847400  1
  O  O63  1  0.88868300  0.78452500  0.08152600  1
  O  O64  1  0.18637200  0.58680000  0.37531000  1
  O  O65  1  0.81362800  0.41320000  0.62469100  1
  O  O66  1  0.78632300  0.48869700  0.26648800  1
  O  O67  1  0.21367700  0.51130300  0.73351200  1
  O  O68  1  0.49112900  0.50348300  0.28421300  1
  O  O69  1  0.50887100  0.49651700  0.71578700  1
  O  O70  1  0.26967700  0.19813500  0.14256300  1
  O  O71  1  0.73032300  0.80186500  0.85743700  1
  O  O72  1  0.57396200  0.20344000  0.15528800  1
  O  O73  1  0.42603800  0.79656000  0.84471200  1
  O  O74  1  0.42896400  0.30335300  0.83495100  1
  O  O75  1  0.57103600  0.69664700  0.16504900  1
  O  O76  1  0.73279500  0.30250700  0.84370400  1
  O  O77  1  0.26720500  0.69749300  0.15629600  1
  O  O78  1  0.24302200  0.99284100  0.72551300  1
  O  O79  1  0.75697800  0.00715900  0.27448700  1
  O  O80  1  0.93314100  0.99135600  0.70160800  1
  O  O81  1  0.06685900  0.00864400  0.29839200  1
