# generated using pymatgen
data_SnMoH6(CO2)2
_symmetry_space_group_name_H-M   'P 1'
_cell_length_a   7.38051500
_cell_length_b   7.44399100
_cell_length_c   13.73188000
_cell_angle_alpha   90.00000000
_cell_angle_beta   90.00000000
_cell_angle_gamma   90.00000000
_symmetry_Int_Tables_number   1
_chemical_formula_structural   SnMoH6(CO2)2
_chemical_formula_sum   'Sn4 Mo4 H24 C8 O16'
_cell_volume   754.43617786
_cell_formula_units_Z   4
loop_
 _symmetry_equiv_pos_site_id
 _symmetry_equiv_pos_as_xyz
  1  'x, y, z'
loop_
 _atom_site_type_symbol
 _atom_site_label
 _atom_site_symmetry_multiplicity
 _atom_site_fract_x
 _atom_site_fract_y
 _atom_site_fract_z
 _atom_site_occupancy
  Sn  Sn0  1  0.72591600  0.75000000  0.37265300  1
  Sn  Sn1  1  0.77408400  0.75000000  0.87265300  1
  Sn  Sn2  1  0.27408400  0.25000000  0.62734700  1
  Sn  Sn3  1  0.22591600  0.25000000  0.12734700  1
  Mo  Mo4  1  0.56529700  0.25000000  0.38550100  1
  Mo  Mo5  1  0.93470300  0.25000000  0.88550100  1
  Mo  Mo6  1  0.43470300  0.75000000  0.61449900  1
  Mo  Mo7  1  0.06529700  0.75000000  0.11449900  1
  H  H8  1  0.96646400  0.75000000  0.51842200  1
  H  H9  1  0.53353600  0.75000000  0.01842200  1
  H  H10  1  0.03353600  0.25000000  0.48157800  1
  H  H11  1  0.46646400  0.25000000  0.98157800  1
  H  H12  1  0.05917500  0.87069100  0.41641200  1
  H  H13  1  0.44082500  0.62930900  0.91641200  1
  H  H14  1  0.94082500  0.37069100  0.58358800  1
  H  H15  1  0.55917500  0.12930900  0.08358800  1
  H  H16  1  0.94082500  0.12930900  0.58358800  1
  H  H17  1  0.55917500  0.37069100  0.08358800  1
  H  H18  1  0.05917500  0.62930900  0.41641200  1
  H  H19  1  0.44082500  0.87069100  0.91641200  1
  H  H20  1  0.38431200  0.75000000  0.31165100  1
  H  H21  1  0.11568800  0.75000000  0.81165100  1
  H  H22  1  0.61568800  0.25000000  0.68834900  1
  H  H23  1  0.88431200  0.25000000  0.18834900  1
  H  H24  1  0.52121300  0.62915400  0.22531200  1
  H  H25  1  0.97878700  0.87084600  0.72531200  1
  H  H26  1  0.47878700  0.12915400  0.77468800  1
  H  H27  1  0.02121300  0.37084600  0.27468800  1
  H  H28  1  0.47878700  0.37084600  0.77468800  1
  H  H29  1  0.02121300  0.12915400  0.27468800  1
  H  H30  1  0.52121300  0.87084600  0.22531200  1
  H  H31  1  0.97878700  0.62915400  0.72531200  1
  C  C32  1  0.98617600  0.75000000  0.43942800  1
  C  C33  1  0.51382400  0.75000000  0.93942800  1
  C  C34  1  0.01382400  0.25000000  0.56057200  1
  C  C35  1  0.48617600  0.25000000  0.06057200  1
  C  C36  1  0.51109400  0.75000000  0.27014500  1
  C  C37  1  0.98890600  0.75000000  0.77014500  1
  C  C38  1  0.48890600  0.25000000  0.72985500  1
  C  C39  1  0.01109400  0.25000000  0.22985500  1
  O  O40  1  0.70576600  0.44814600  0.38235700  1
  O  O41  1  0.79423400  0.05185400  0.88235700  1
  O  O42  1  0.29423400  0.94814600  0.61764300  1
  O  O43  1  0.20576600  0.55185400  0.11764300  1
  O  O44  1  0.29423400  0.55185400  0.61764300  1
  O  O45  1  0.20576600  0.94814600  0.11764300  1
  O  O46  1  0.70576600  0.05185400  0.38235700  1
  O  O47  1  0.79423400  0.44814600  0.88235700  1
  O  O48  1  0.43257100  0.25000000  0.49649100  1
  O  O49  1  0.06742900  0.25000000  0.99649100  1
  O  O50  1  0.56742900  0.75000000  0.50350900  1
  O  O51  1  0.93257100  0.75000000  0.00350900  1
  O  O52  1  0.41958200  0.25000000  0.28331800  1
  O  O53  1  0.08041800  0.25000000  0.78331800  1
  O  O54  1  0.58041800  0.75000000  0.71668200  1
  O  O55  1  0.91958200  0.75000000  0.21668200  1
