# generated using pymatgen
data_Al4SO18
_symmetry_space_group_name_H-M   'P 1'
_cell_length_a   10.67541900
_cell_length_b   10.53267000
_cell_length_c   13.66223134
_cell_angle_alpha   80.37142598
_cell_angle_beta   90.00000000
_cell_angle_gamma   90.00000000
_symmetry_Int_Tables_number   1
_chemical_formula_structural   Al4SO18
_chemical_formula_sum   'Al16 S4 O72'
_cell_volume   1514.54967723
_cell_formula_units_Z   4
loop_
 _symmetry_equiv_pos_site_id
 _symmetry_equiv_pos_as_xyz
  1  'x, y, z'
loop_
 _atom_site_type_symbol
 _atom_site_label
 _atom_site_symmetry_multiplicity
 _atom_site_fract_x
 _atom_site_fract_y
 _atom_site_fract_z
 _atom_site_occupancy
  Al  Al0  1  0.67091800  0.35313900  0.59716400  1
  Al  Al1  1  0.17091800  0.64686100  0.40283600  1
  Al  Al2  1  0.90931300  0.29429100  0.69330600  1
  Al  Al3  1  0.40931300  0.70570900  0.30669400  1
  Al  Al4  1  0.43463600  0.29656000  0.69716200  1
  Al  Al5  1  0.93463600  0.70344000  0.30283800  1
  Al  Al6  1  0.66596100  0.21964600  0.80831500  1
  Al  Al7  1  0.16596100  0.78035400  0.19168500  1
  Al  Al8  1  0.14174700  0.26920400  0.81078900  1
  Al  Al9  1  0.64174700  0.73079600  0.18921100  1
  Al  Al10  1  0.92122900  0.42176000  0.47821900  1
  Al  Al11  1  0.42122900  0.57824000  0.52178100  1
  Al  Al12  1  0.45593500  0.14337300  0.91567900  1
  Al  Al13  1  0.95593500  0.85662700  0.08432100  1
  Al  Al14  1  0.17316700  0.09689800  0.03707700  1
  Al  Al15  1  0.67316700  0.90310200  0.96292300  1
  S  S16  1  0.42369600  0.59199500  0.91394100  1
  S  S17  1  0.92369600  0.40800500  0.08605900  1
  S  S18  1  0.56371800  0.07893900  0.38314900  1
  S  S19  1  0.06371800  0.92106100  0.61685100  1
  O  O20  1  0.57025600  0.48370100  0.52524300  1
  O  O21  1  0.07025600  0.51629900  0.47475700  1
  O  O22  1  0.83273900  0.43888000  0.60074600  1
  O  O23  1  0.33273900  0.56112000  0.39925400  1
  O  O24  1  0.59042300  0.36782700  0.72084200  1
  O  O25  1  0.09042300  0.63217300  0.27915800  1
  O  O26  1  0.75146100  0.21135000  0.68687300  1
  O  O27  1  0.25146100  0.78865000  0.31312700  1
  O  O28  1  0.52142800  0.25796200  0.58750400  1
  O  O29  1  0.02142800  0.74203800  0.41249600  1
  O  O30  1  0.77043000  0.32739600  0.48795400  1
  O  O31  1  0.27043000  0.67260400  0.51204600  1
  O  O32  1  0.05037400  0.38119000  0.72811200  1
  O  O33  1  0.55037400  0.61881000  0.27188800  1
  O  O34  1  0.81817600  0.30459300  0.80792400  1
  O  O35  1  0.31817600  0.69540700  0.19207600  1
  O  O36  1  0.00968200  0.17592800  0.77270300  1
  O  O37  1  0.50968200  0.82407200  0.22729700  1
  O  O38  1  0.96334600  0.27434300  0.56703400  1
  O  O39  1  0.46334600  0.72565700  0.43296600  1
  O  O40  1  0.37480700  0.43423700  0.60918600  1
  O  O41  1  0.87480700  0.56576300  0.39081400  1
  O  O42  1  0.31673100  0.31230700  0.80176300  1
  O  O43  1  0.81673100  0.68769300  0.19823700  1
  O  O44  1  0.49824900  0.15731300  0.78551500  1
  O  O45  1  0.99824900  0.84268700  0.21448500  1
  O  O46  1  0.27169400  0.22197700  0.73200300  1
  O  O47  1  0.77169400  0.77802300  0.26799700  1
  O  O48  1  0.58798600  0.24885300  0.92683000  1
  O  O49  1  0.08798600  0.75114700  0.07317000  1
  O  O50  1  0.71435800  0.06300000  0.88768100  1
  O  O51  1  0.21435800  0.93700000  0.11231900  1
  O  O52  1  0.13674100  0.22864200  0.94073000  1
  O  O53  1  0.63674100  0.77135800  0.05927000  1
  O  O54  1  0.23688500  0.96745300  0.86355900  1
  O  O55  1  0.73688500  0.03254700  0.13644100  1
  O  O56  1  0.00003500  0.39465800  0.36137200  1
  O  O57  1  0.50003500  0.60534200  0.63862800  1
  O  O58  1  0.32446100  0.14213300  0.99104700  1
  O  O59  1  0.82446100  0.85786700  0.00895300  1
  O  O60  1  0.53061100  0.99562000  0.96802200  1
  O  O61  1  0.03061100  0.00438000  0.03197800  1
  O  O62  1  0.11466100  0.11347600  0.16008900  1
  O  O63  1  0.61466100  0.88652400  0.83991100  1
  O  O64  1  0.53979100  0.54309900  0.87363200  1
  O  O65  1  0.03979100  0.45690100  0.12636800  1
  O  O66  1  0.31411300  0.50799000  0.90746200  1
  O  O67  1  0.81411300  0.49201000  0.09253800  1
  O  O68  1  0.43665700  0.59818200  0.02119000  1
  O  O69  1  0.93665700  0.40181800  0.97881000  1
  O  O70  1  0.40716400  0.72188100  0.85216900  1
  O  O71  1  0.90716400  0.27811900  0.14783100  1
  O  O72  1  0.49332100  0.06468600  0.29208600  1
  O  O73  1  0.99332100  0.93531400  0.70791400  1
  O  O74  1  0.61824900  0.95511100  0.43369000  1
  O  O75  1  0.11824900  0.04488900  0.56631000  1
  O  O76  1  0.46541900  0.11952100  0.45104200  1
  O  O77  1  0.96541900  0.88047900  0.54895800  1
  O  O78  1  0.66213400  0.17734800  0.36002100  1
  O  O79  1  0.16213400  0.82265200  0.63997900  1
  O  O80  1  0.21141300  0.85380700  0.86836400  1
  O  O81  1  0.71141300  0.14619300  0.13163600  1
  O  O82  1  0.01662700  0.97992400  0.36389000  1
  O  O83  1  0.51662700  0.02007600  0.63611000  1
  O  O84  1  0.50303100  0.38998200  0.21723800  1
  O  O85  1  0.00303100  0.61001800  0.78276200  1
  O  O86  1  0.88893100  0.64473200  0.79158800  1
  O  O87  1  0.38893100  0.35526800  0.20841200  1
  O  O88  1  0.81335200  0.64202900  0.71860600  1
  O  O89  1  0.31335200  0.35797100  0.28139400  1
  O  O90  1  0.60894300  0.95569200  0.63210200  1
  O  O91  1  0.10894300  0.04430800  0.36789800  1
