# generated using pymatgen
data_Ca4As3H9O16
_symmetry_space_group_name_H-M   'P 1'
_cell_length_a   10.33020700
_cell_length_b   5.89692100
_cell_length_c   23.16092803
_cell_angle_alpha   82.94349183
_cell_angle_beta   90.00000000
_cell_angle_gamma   90.00000000
_symmetry_Int_Tables_number   1
_chemical_formula_structural   Ca4As3H9O16
_chemical_formula_sum   'Ca16 As12 H36 O64'
_cell_volume   1400.19394304
_cell_formula_units_Z   4
loop_
 _symmetry_equiv_pos_site_id
 _symmetry_equiv_pos_as_xyz
  1  'x, y, z'
loop_
 _atom_site_type_symbol
 _atom_site_label
 _atom_site_symmetry_multiplicity
 _atom_site_fract_x
 _atom_site_fract_y
 _atom_site_fract_z
 _atom_site_occupancy
  Ca  Ca0  1  0.22725800  0.32989600  0.50208900  1
  Ca  Ca1  1  0.72725800  0.67010400  0.99791100  1
  Ca  Ca2  1  0.77274200  0.67010400  0.49791100  1
  Ca  Ca3  1  0.27274200  0.32989600  0.00208900  1
  Ca  Ca4  1  0.35459800  0.99550800  0.64149100  1
  Ca  Ca5  1  0.85459800  0.00449200  0.85850900  1
  Ca  Ca6  1  0.64540200  0.00449200  0.35850900  1
  Ca  Ca7  1  0.14540200  0.99550800  0.14149100  1
  Ca  Ca8  1  0.82199600  0.11411800  0.60720100  1
  Ca  Ca9  1  0.32199600  0.88588200  0.89279900  1
  Ca  Ca10  1  0.17800400  0.88588200  0.39279900  1
  Ca  Ca11  1  0.67800400  0.11411800  0.10720100  1
  Ca  Ca12  1  0.86658400  0.56517700  0.74540800  1
  Ca  Ca13  1  0.36658400  0.43482300  0.75459200  1
  Ca  Ca14  1  0.13341600  0.43482300  0.25459200  1
  Ca  Ca15  1  0.63341600  0.56517700  0.24540800  1
  As  As16  1  0.05262400  0.12916600  0.71449500  1
  As  As17  1  0.55262400  0.87083400  0.78550500  1
  As  As18  1  0.94737600  0.87083400  0.28550500  1
  As  As19  1  0.44737600  0.12916600  0.21449500  1
  As  As20  1  0.50298200  0.46195500  0.59716400  1
  As  As21  1  0.00298200  0.53804500  0.90283600  1
  As  As22  1  0.49701800  0.53804500  0.40283600  1
  As  As23  1  0.99701800  0.46195500  0.09716400  1
  As  As24  1  0.08630500  0.77274900  0.54969000  1
  As  As25  1  0.58630500  0.22725100  0.95031000  1
  As  As26  1  0.91369500  0.22725100  0.45031000  1
  As  As27  1  0.41369500  0.77274900  0.04969000  1
  H  H28  1  0.62992300  0.09501500  0.51231900  1
  H  H29  1  0.12992300  0.90498500  0.98768100  1
  H  H30  1  0.37007700  0.90498500  0.48768100  1
  H  H31  1  0.87007700  0.09501500  0.01231900  1
  H  H32  1  0.57340100  0.89447400  0.55794100  1
  H  H33  1  0.07340100  0.10552600  0.94205900  1
  H  H34  1  0.42659900  0.10552600  0.44205900  1
  H  H35  1  0.92659900  0.89447400  0.05794100  1
  H  H36  1  0.64204500  0.76624500  0.68104800  1
  H  H37  1  0.14204500  0.23375500  0.81895200  1
  H  H38  1  0.35795500  0.23375500  0.31895200  1
  H  H39  1  0.85795500  0.76624500  0.18104800  1
  H  H40  1  0.71590500  0.64231900  0.63321300  1
  H  H41  1  0.21590500  0.35768100  0.86678700  1
  H  H42  1  0.28409500  0.35768100  0.36678700  1
  H  H43  1  0.78409500  0.64231900  0.13321300  1
  H  H44  1  0.63424600  0.26826000  0.69031800  1
  H  H45  1  0.13424600  0.73174000  0.80968200  1
  H  H46  1  0.36575400  0.73174000  0.30968200  1
  H  H47  1  0.86575400  0.26826000  0.19031800  1
  H  H48  1  0.73194100  0.10217000  0.72928800  1
  H  H49  1  0.23194100  0.89783000  0.77071200  1
  H  H50  1  0.26805900  0.89783000  0.27071200  1
  H  H51  1  0.76805900  0.10217000  0.22928800  1
  H  H52  1  0.64446200  0.27283500  0.80540500  1
  H  H53  1  0.14446200  0.72716500  0.69459500  1
  H  H54  1  0.35553800  0.72716500  0.19459500  1
  H  H55  1  0.85553800  0.27283500  0.30540500  1
  H  H56  1  0.71070500  0.41326700  0.85078200  1
  H  H57  1  0.21070500  0.58673300  0.64921800  1
  H  H58  1  0.28929500  0.58673300  0.14921800  1
  H  H59  1  0.78929500  0.41326700  0.35078200  1
  H  H60  1  0.06864300  0.42790900  0.61920200  1
  H  H61  1  0.56864300  0.57209100  0.88079800  1
  H  H62  1  0.93135700  0.57209100  0.38079800  1
  H  H63  1  0.43135700  0.42790900  0.11920200  1
  O  O64  1  0.21994700  0.13912900  0.71447000  1
  O  O65  1  0.71994700  0.86087100  0.78553000  1
  O  O66  1  0.78005300  0.86087100  0.28553000  1
  O  O67  1  0.28005300  0.13912900  0.21447000  1
  O  O68  1  0.00399800  0.86045500  0.70253500  1
  O  O69  1  0.50399800  0.13954500  0.79746500  1
  O  O70  1  0.99600200  0.13954500  0.29746500  1
  O  O71  1  0.49600200  0.86045500  0.20253500  1
  O  O72  1  0.98395600  0.32227900  0.66048800  1
  O  O73  1  0.48395600  0.67772100  0.83951200  1
  O  O74  1  0.01604400  0.67772100  0.33951200  1
  O  O75  1  0.51604400  0.32227900  0.16048800  1
  O  O76  1  0.99630200  0.21047700  0.77901000  1
  O  O77  1  0.49630200  0.78952300  0.72099000  1
  O  O78  1  0.00369800  0.78952300  0.22099000  1
  O  O79  1  0.50369800  0.21047700  0.27901000  1
  O  O80  1  0.66729700  0.46036000  0.58220100  1
  O  O81  1  0.16729700  0.53964000  0.91779900  1
  O  O82  1  0.33270300  0.53964000  0.41779900  1
  O  O83  1  0.83270300  0.46036000  0.08220100  1
  O  O84  1  0.45293900  0.74209000  0.58540500  1
  O  O85  1  0.95293900  0.25791000  0.91459500  1
  O  O86  1  0.54706100  0.25791000  0.41459500  1
  O  O87  1  0.04706100  0.74209000  0.08540500  1
  O  O88  1  0.48120100  0.33281700  0.66840600  1
  O  O89  1  0.98120100  0.66718300  0.83159400  1
  O  O90  1  0.51879900  0.66718300  0.33159400  1
  O  O91  1  0.01879900  0.33281700  0.16840600  1
  O  O92  1  0.41388100  0.28654600  0.55878300  1
  O  O93  1  0.91388100  0.71345400  0.94121700  1
  O  O94  1  0.58611900  0.71345400  0.44121700  1
  O  O95  1  0.08611900  0.28654600  0.05878300  1
  O  O96  1  0.88253100  0.30502200  0.51767600  1
  O  O97  1  0.38253100  0.69497800  0.98232400  1
  O  O98  1  0.11746900  0.69497800  0.48232400  1
  O  O99  1  0.61746900  0.30502200  0.01767600  1
  O  O100  1  0.17702800  0.99194300  0.56945400  1
  O  O101  1  0.67702800  0.00805700  0.93054600  1
  O  O102  1  0.82297200  0.00805700  0.43054600  1
  O  O103  1  0.32297200  0.99194300  0.06945400  1
  O  O104  1  0.92555600  0.80737200  0.56230300  1
  O  O105  1  0.42555600  0.19262800  0.93769700  1
  O  O106  1  0.07444400  0.19262800  0.43769700  1
  O  O107  1  0.57444400  0.80737200  0.06230300  1
  O  O108  1  0.14171200  0.51289300  0.59086700  1
  O  O109  1  0.64171200  0.48710700  0.90913300  1
  O  O110  1  0.85828800  0.48710700  0.40913300  1
  O  O111  1  0.35828800  0.51289300  0.09086700  1
  O  O112  1  0.65631800  0.97468300  0.54311300  1
  O  O113  1  0.15631800  0.02531700  0.95688700  1
  O  O114  1  0.34368200  0.02531700  0.45688700  1
  O  O115  1  0.84368200  0.97468300  0.04311300  1
  O  O116  1  0.72948400  0.75064800  0.66285000  1
  O  O117  1  0.22948400  0.24935200  0.83715000  1
  O  O118  1  0.27051600  0.24935200  0.33715000  1
  O  O119  1  0.77051600  0.75064800  0.16285000  1
  O  O120  1  0.72895600  0.23275700  0.69775400  1
  O  O121  1  0.22895600  0.76724300  0.80224600  1
  O  O122  1  0.27104400  0.76724300  0.30224600  1
  O  O123  1  0.77104400  0.23275700  0.19775400  1
  O  O124  1  0.73067300  0.34061100  0.81488600  1
  O  O125  1  0.23067300  0.65938900  0.68511400  1
  O  O126  1  0.26932700  0.65938900  0.18511400  1
  O  O127  1  0.76932700  0.34061100  0.31488600  1
