# generated using pymatgen
data_Al4H12C15O31
_symmetry_space_group_name_H-M   'P 1'
_cell_length_a   10.02252239
_cell_length_b   10.02252239
_cell_length_c   10.02252239
_cell_angle_alpha   109.47122063
_cell_angle_beta   109.47122063
_cell_angle_gamma   109.47122063
_symmetry_Int_Tables_number   1
_chemical_formula_structural   Al4H12C15O31
_chemical_formula_sum   'Al4 H12 C15 O31'
_cell_volume   775.01340558
_cell_formula_units_Z   1
loop_
 _symmetry_equiv_pos_site_id
 _symmetry_equiv_pos_as_xyz
  1  'x, y, z'
loop_
 _atom_site_type_symbol
 _atom_site_label
 _atom_site_symmetry_multiplicity
 _atom_site_fract_x
 _atom_site_fract_y
 _atom_site_fract_z
 _atom_site_occupancy
  Al  Al0  1  0.00000000  0.00000000  0.50000000  1
  Al  Al1  1  0.50000000  0.00000000  0.00000000  1
  Al  Al2  1  0.00000000  0.50000000  0.00000000  1
  Al  Al3  1  0.50000000  0.50000000  0.50000000  1
  H  H4  1  0.78920100  0.66942400  0.45862400  1
  H  H5  1  0.78920100  0.33057600  0.11977700  1
  H  H6  1  0.21079900  0.66942400  0.88022300  1
  H  H7  1  0.21079900  0.33057600  0.54137600  1
  H  H8  1  0.66942400  0.45862400  0.78920100  1
  H  H9  1  0.33057600  0.11977700  0.78920100  1
  H  H10  1  0.66942400  0.88022300  0.21079900  1
  H  H11  1  0.33057600  0.54137600  0.21079900  1
  H  H12  1  0.45862400  0.78920100  0.66942400  1
  H  H13  1  0.11977700  0.78920100  0.33057600  1
  H  H14  1  0.88022300  0.21079900  0.66942400  1
  H  H15  1  0.54137600  0.21079900  0.33057600  1
  C  C16  1  0.74111600  0.75151300  0.49262900  1
  C  C17  1  0.74111600  0.24848700  0.98960300  1
  C  C18  1  0.25888400  0.75151300  0.01039700  1
  C  C19  1  0.25888400  0.24848700  0.50737100  1
  C  C20  1  0.75151300  0.49262900  0.74111600  1
  C  C21  1  0.24848700  0.98960300  0.74111600  1
  C  C22  1  0.75151300  0.01039700  0.25888400  1
  C  C23  1  0.24848700  0.50737100  0.25888400  1
  C  C24  1  0.49262900  0.74111600  0.75151300  1
  C  C25  1  0.98960300  0.74111600  0.24848700  1
  C  C26  1  0.01039700  0.25888400  0.75151300  1
  C  C27  1  0.50737100  0.25888400  0.24848700  1
  C  C28  1  0.50000000  0.50000000  0.00000000  1
  C  C29  1  0.50000000  0.00000000  0.50000000  1
  C  C30  1  0.00000000  0.50000000  0.50000000  1
  O  O31  1  0.80986000  0.89340500  0.51158200  1
  O  O32  1  0.61817700  0.10659500  0.91645500  1
  O  O33  1  0.19014000  0.70172200  0.08354500  1
  O  O34  1  0.38182300  0.29827800  0.48841800  1
  O  O35  1  0.89340500  0.51158200  0.80986000  1
  O  O36  1  0.10659500  0.91645500  0.61817700  1
  O  O37  1  0.70172200  0.08354500  0.19014000  1
  O  O38  1  0.29827800  0.48841800  0.38182300  1
  O  O39  1  0.51158200  0.80986000  0.89340500  1
  O  O40  1  0.91645500  0.61817700  0.10659500  1
  O  O41  1  0.08354500  0.19014000  0.70172200  1
  O  O42  1  0.48841800  0.38182300  0.29827800  1
  O  O43  1  0.19014000  0.10659500  0.48841800  1
  O  O44  1  0.38182300  0.89340500  0.08354500  1
  O  O45  1  0.80986000  0.29827800  0.91645500  1
  O  O46  1  0.61817700  0.70172200  0.51158200  1
  O  O47  1  0.10659500  0.48841800  0.19014000  1
  O  O48  1  0.89340500  0.08354500  0.38182300  1
  O  O49  1  0.29827800  0.91645500  0.80986000  1
  O  O50  1  0.70172200  0.51158200  0.61817700  1
  O  O51  1  0.48841800  0.19014000  0.10659500  1
  O  O52  1  0.08354500  0.38182300  0.89340500  1
  O  O53  1  0.91645500  0.80986000  0.29827800  1
  O  O54  1  0.51158200  0.61817700  0.70172200  1
  O  O55  1  0.50000000  0.60154000  0.10154000  1
  O  O56  1  0.50000000  0.39846000  0.89846000  1
  O  O57  1  0.60154000  0.10154000  0.50000000  1
  O  O58  1  0.39846000  0.89846000  0.50000000  1
  O  O59  1  0.10154000  0.50000000  0.60154000  1
  O  O60  1  0.89846000  0.50000000  0.39846000  1
  O  O61  1  0.00000000  0.00000000  0.00000000  1
