# generated using pymatgen
data_Cd2Sb5O2F31
_symmetry_space_group_name_H-M   'P 1'
_cell_length_a   11.69647500
_cell_length_b   10.56248300
_cell_length_c   10.74379161
_cell_angle_alpha   72.40344131
_cell_angle_beta   90.00000000
_cell_angle_gamma   90.00000000
_symmetry_Int_Tables_number   1
_chemical_formula_structural   Cd2Sb5O2F31
_chemical_formula_sum   'Cd4 Sb10 O4 F62'
_cell_volume   1265.22175657
_cell_formula_units_Z   2
loop_
 _symmetry_equiv_pos_site_id
 _symmetry_equiv_pos_as_xyz
  1  'x, y, z'
loop_
 _atom_site_type_symbol
 _atom_site_label
 _atom_site_symmetry_multiplicity
 _atom_site_fract_x
 _atom_site_fract_y
 _atom_site_fract_z
 _atom_site_occupancy
  Cd  Cd0  1  0.64432900  0.64191400  0.97776700  1
  Cd  Cd1  1  0.14432900  0.85808600  0.02223300  1
  Cd  Cd2  1  0.35567100  0.35808600  0.02223300  1
  Cd  Cd3  1  0.85567100  0.14191400  0.97776700  1
  Sb  Sb4  1  0.00000000  0.50000000  0.00000000  1
  Sb  Sb5  1  0.50000000  0.00000000  0.00000000  1
  Sb  Sb6  1  0.66749600  0.25667700  0.25805400  1
  Sb  Sb7  1  0.16749600  0.24332300  0.74194600  1
  Sb  Sb8  1  0.33250400  0.74332300  0.74194600  1
  Sb  Sb9  1  0.83250400  0.75667700  0.25805400  1
  Sb  Sb10  1  0.81462000  0.95003400  0.69676700  1
  Sb  Sb11  1  0.31462000  0.54996600  0.30323300  1
  Sb  Sb12  1  0.18538000  0.04996600  0.30323300  1
  Sb  Sb13  1  0.68538000  0.45003400  0.69676700  1
  O  O14  1  0.99887500  0.32488700  0.44406400  1
  O  O15  1  0.49887500  0.17511300  0.55593600  1
  O  O16  1  0.00112500  0.67511300  0.55593600  1
  O  O17  1  0.50112500  0.82488700  0.44406400  1
  F  F18  1  0.95203600  0.31956500  0.01872600  1
  F  F19  1  0.45203600  0.18043500  0.98127400  1
  F  F20  1  0.04796400  0.68043500  0.98127400  1
  F  F21  1  0.54796400  0.81956500  0.01872600  1
  F  F22  1  0.96029600  0.88484500  0.76550500  1
  F  F23  1  0.46029600  0.61515500  0.23449500  1
  F  F24  1  0.03970400  0.11515500  0.23449500  1
  F  F25  1  0.53970400  0.38484500  0.76550500  1
  F  F26  1  0.80289600  0.81790000  0.60983500  1
  F  F27  1  0.30289600  0.68210000  0.39016500  1
  F  F28  1  0.19710400  0.18210000  0.39016500  1
  F  F29  1  0.69710400  0.31790000  0.60983500  1
  F  F30  1  0.74329100  0.82688100  0.85009400  1
  F  F31  1  0.24329100  0.67311900  0.14990600  1
  F  F32  1  0.25670900  0.17311900  0.14990600  1
  F  F33  1  0.75670900  0.32688100  0.85009400  1
  F  F34  1  0.67926000  0.44415000  0.16510800  1
  F  F35  1  0.17926000  0.05585000  0.83489200  1
  F  F36  1  0.32074000  0.55585000  0.83489200  1
  F  F37  1  0.82074000  0.94415000  0.16510800  1
  F  F38  1  0.98016000  0.46626300  0.18220400  1
  F  F39  1  0.48016000  0.03373700  0.81779600  1
  F  F40  1  0.01984000  0.53373700  0.81779600  1
  F  F41  1  0.51984000  0.96626300  0.18220400  1
  F  F42  1  0.50000000  0.50000000  0.00000000  1
  F  F43  1  0.00000000  0.00000000  0.00000000  1
  F  F44  1  0.84425500  0.55753900  0.97006600  1
  F  F45  1  0.34425500  0.94246100  0.02993400  1
  F  F46  1  0.15574500  0.44246100  0.02993400  1
  F  F47  1  0.65574500  0.05753900  0.97006600  1
  F  F48  1  0.73032600  0.21652200  0.10813900  1
  F  F49  1  0.23032600  0.28347800  0.89186100  1
  F  F50  1  0.26967400  0.78347800  0.89186100  1
  F  F51  1  0.76967400  0.71652200  0.10813900  1
  F  F52  1  0.82097100  0.07627000  0.79608000  1
  F  F53  1  0.32097100  0.42373000  0.20392000  1
  F  F54  1  0.17902900  0.92373000  0.20392000  1
  F  F55  1  0.67902900  0.57627000  0.79608000  1
  F  F56  1  0.51732500  0.25850600  0.18601700  1
  F  F57  1  0.01732500  0.24149400  0.81398300  1
  F  F58  1  0.48267500  0.74149400  0.81398300  1
  F  F59  1  0.98267500  0.75850600  0.18601700  1
  F  F60  1  0.81706300  0.26547800  0.32219000  1
  F  F61  1  0.31706300  0.23452200  0.67781000  1
  F  F62  1  0.18293700  0.73452200  0.67781000  1
  F  F63  1  0.68293700  0.76547800  0.32219000  1
  F  F64  1  0.59406500  0.30253300  0.40348300  1
  F  F65  1  0.09406500  0.19746700  0.59651700  1
  F  F66  1  0.40593500  0.69746700  0.59651700  1
  F  F67  1  0.90593500  0.80253300  0.40348300  1
  F  F68  1  0.88045000  0.08100900  0.55287200  1
  F  F69  1  0.38045000  0.41899100  0.44712800  1
  F  F70  1  0.11955000  0.91899100  0.44712800  1
  F  F71  1  0.61955000  0.58100900  0.55287200  1
  F  F72  1  0.66241900  0.01005600  0.64087100  1
  F  F73  1  0.16241900  0.48994400  0.35912900  1
  F  F74  1  0.33758100  0.98994400  0.35912900  1
  F  F75  1  0.83758100  0.51005600  0.64087100  1
  F  F76  1  0.65360700  0.07383100  0.34972800  1
  F  F77  1  0.15360700  0.42616900  0.65027200  1
  F  F78  1  0.34639300  0.92616900  0.65027200  1
  F  F79  1  0.84639300  0.57383100  0.34972800  1
