# generated using pymatgen
data_LuZn5
_symmetry_space_group_name_H-M   'P 1'
_cell_length_a   8.86414410
_cell_length_b   8.86414410
_cell_length_c   8.95402900
_cell_angle_alpha   90.00000000
_cell_angle_beta   90.00000000
_cell_angle_gamma   120.00000073
_symmetry_Int_Tables_number   1
_chemical_formula_structural   LuZn5
_chemical_formula_sum   'Lu6 Zn30'
_cell_volume   609.28816177
_cell_formula_units_Z   6
loop_
 _symmetry_equiv_pos_site_id
 _symmetry_equiv_pos_as_xyz
  1  'x, y, z'
loop_
 _atom_site_type_symbol
 _atom_site_label
 _atom_site_symmetry_multiplicity
 _atom_site_fract_x
 _atom_site_fract_y
 _atom_site_fract_z
 _atom_site_occupancy
  Lu  Lu0  1  0.19536700  0.80463300  0.25000000  1
  Lu  Lu1  1  0.19536700  0.39073400  0.25000000  1
  Lu  Lu2  1  0.60926600  0.80463300  0.25000000  1
  Lu  Lu3  1  0.80463300  0.19536700  0.75000000  1
  Lu  Lu4  1  0.80463300  0.60926600  0.75000000  1
  Lu  Lu5  1  0.39073400  0.19536700  0.75000000  1
  Zn  Zn6  1  0.00000000  0.00000000  0.50000000  1
  Zn  Zn7  1  0.00000000  0.00000000  0.00000000  1
  Zn  Zn8  1  0.33333300  0.66666700  0.48622300  1
  Zn  Zn9  1  0.66666700  0.33333300  0.51377700  1
  Zn  Zn10  1  0.66666700  0.33333300  0.98622300  1
  Zn  Zn11  1  0.33333300  0.66666700  0.01377700  1
  Zn  Zn12  1  0.50000000  0.50000000  0.50000000  1
  Zn  Zn13  1  0.50000000  0.00000000  0.50000000  1
  Zn  Zn14  1  0.00000000  0.50000000  0.50000000  1
  Zn  Zn15  1  0.50000000  0.50000000  0.00000000  1
  Zn  Zn16  1  0.50000000  0.00000000  0.00000000  1
  Zn  Zn17  1  0.00000000  0.50000000  0.00000000  1
  Zn  Zn18  1  0.56686200  0.43313800  0.25000000  1
  Zn  Zn19  1  0.56686200  0.13372500  0.25000000  1
  Zn  Zn20  1  0.86627500  0.43313800  0.25000000  1
  Zn  Zn21  1  0.43313800  0.56686200  0.75000000  1
  Zn  Zn22  1  0.43313800  0.86627500  0.75000000  1
  Zn  Zn23  1  0.13372500  0.56686200  0.75000000  1
  Zn  Zn24  1  0.84073400  0.15926600  0.40881700  1
  Zn  Zn25  1  0.84073400  0.68146700  0.40881700  1
  Zn  Zn26  1  0.31853300  0.15926600  0.40881700  1
  Zn  Zn27  1  0.15926600  0.84073400  0.59118300  1
  Zn  Zn28  1  0.15926600  0.31853300  0.59118300  1
  Zn  Zn29  1  0.68146700  0.84073400  0.59118300  1
  Zn  Zn30  1  0.15926600  0.84073400  0.90881700  1
  Zn  Zn31  1  0.15926600  0.31853300  0.90881700  1
  Zn  Zn32  1  0.68146700  0.84073400  0.90881700  1
  Zn  Zn33  1  0.84073400  0.15926600  0.09118300  1
  Zn  Zn34  1  0.84073400  0.68146700  0.09118300  1
  Zn  Zn35  1  0.31853300  0.15926600  0.09118300  1
