# generated using pymatgen
data_MnSeO3
_symmetry_space_group_name_H-M   'P 1'
_cell_length_a   8.43539100
_cell_length_b   5.36104300
_cell_length_c   14.02056189
_cell_angle_alpha   80.99084816
_cell_angle_beta   90.00000000
_cell_angle_gamma   90.00000000
_symmetry_Int_Tables_number   1
_chemical_formula_structural   MnSeO3
_chemical_formula_sum   'Mn8 Se8 O24'
_cell_volume   626.22278004
_cell_formula_units_Z   8
loop_
 _symmetry_equiv_pos_site_id
 _symmetry_equiv_pos_as_xyz
  1  'x, y, z'
loop_
 _atom_site_type_symbol
 _atom_site_label
 _atom_site_symmetry_multiplicity
 _atom_site_fract_x
 _atom_site_fract_y
 _atom_site_fract_z
 _atom_site_occupancy
  Mn  Mn0  1  0.58047500  0.08385700  0.60099900  1
  Mn  Mn1  1  0.08047500  0.91614300  0.89900100  1
  Mn  Mn2  1  0.41952500  0.91614300  0.39900100  1
  Mn  Mn3  1  0.91952500  0.08385700  0.10099900  1
  Mn  Mn4  1  0.77256600  0.47205400  0.75082100  1
  Mn  Mn5  1  0.27256600  0.52794600  0.74917900  1
  Mn  Mn6  1  0.22743400  0.52794600  0.24917900  1
  Mn  Mn7  1  0.72743400  0.47205400  0.25082100  1
  Se  Se8  1  0.78323200  0.63503100  0.49524100  1
  Se  Se9  1  0.28323200  0.36496900  0.00475900  1
  Se  Se10  1  0.21676800  0.36496900  0.50475900  1
  Se  Se11  1  0.71676800  0.63503100  0.99524100  1
  Se  Se12  1  0.46727800  0.01616500  0.81354500  1
  Se  Se13  1  0.96727800  0.98383500  0.68645500  1
  Se  Se14  1  0.53272200  0.98383500  0.18645500  1
  Se  Se15  1  0.03272200  0.01616500  0.31354500  1
  O  O16  1  0.44106000  0.83277800  0.72369100  1
  O  O17  1  0.94106000  0.16722200  0.77630900  1
  O  O18  1  0.55894000  0.16722200  0.27630900  1
  O  O19  1  0.05894000  0.83277800  0.22369100  1
  O  O20  1  0.54767200  0.27517600  0.74024200  1
  O  O21  1  0.04767200  0.72482400  0.75975800  1
  O  O22  1  0.45232800  0.72482400  0.25975800  1
  O  O23  1  0.95232800  0.27517600  0.24024200  1
  O  O24  1  0.27959200  0.14226900  0.82349200  1
  O  O25  1  0.77959200  0.85773100  0.67650800  1
  O  O26  1  0.72040800  0.85773100  0.17650800  1
  O  O27  1  0.22040800  0.14226900  0.32349200  1
  O  O28  1  0.75564000  0.38667400  0.59025300  1
  O  O29  1  0.25564000  0.61332600  0.90974700  1
  O  O30  1  0.24436000  0.61332600  0.40974700  1
  O  O31  1  0.74436000  0.38667400  0.09025300  1
  O  O32  1  0.60986700  0.81443700  0.49717800  1
  O  O33  1  0.10986700  0.18556300  0.00282200  1
  O  O34  1  0.39013300  0.18556300  0.50282200  1
  O  O35  1  0.89013300  0.81443700  0.99717800  1
  O  O36  1  0.75887100  0.48804800  0.39765500  1
  O  O37  1  0.25887100  0.51195200  0.10234500  1
  O  O38  1  0.24112900  0.51195200  0.60234500  1
  O  O39  1  0.74112900  0.48804800  0.89765500  1
