# generated using pymatgen
data_Hf(MoO4)2
_symmetry_space_group_name_H-M   'P 1'
_cell_length_a   11.23993356
_cell_length_b   10.63664151
_cell_length_c   10.54776771
_cell_angle_alpha   105.53707167
_cell_angle_beta   82.71861902
_cell_angle_gamma   118.23981214
_symmetry_Int_Tables_number   1
_chemical_formula_structural   Hf(MoO4)2
_chemical_formula_sum   'Hf6 Mo12 O48'
_cell_volume   1070.34760632
_cell_formula_units_Z   6
loop_
 _symmetry_equiv_pos_site_id
 _symmetry_equiv_pos_as_xyz
  1  'x, y, z'
loop_
 _atom_site_type_symbol
 _atom_site_label
 _atom_site_symmetry_multiplicity
 _atom_site_fract_x
 _atom_site_fract_y
 _atom_site_fract_z
 _atom_site_occupancy
  Hf  Hf0  1  0.87055200  0.93527600  0.75000000  1
  Hf  Hf1  1  0.12944800  0.06472400  0.25000000  1
  Hf  Hf2  1  0.66336500  0.39252500  0.43810300  1
  Hf  Hf3  1  0.33663500  0.72916000  0.93810300  1
  Hf  Hf4  1  0.33663500  0.60747500  0.56189700  1
  Hf  Hf5  1  0.66336500  0.27084000  0.06189700  1
  Mo  Mo6  1  0.34936700  0.33427900  0.74017500  1
  Mo  Mo7  1  0.62039000  0.99992700  0.73234600  1
  Mo  Mo8  1  0.03540700  0.70071400  0.67919200  1
  Mo  Mo9  1  0.65063300  0.98491200  0.24017500  1
  Mo  Mo10  1  0.96459300  0.66530700  0.17919200  1
  Mo  Mo11  1  0.37961000  0.37953700  0.23234600  1
  Mo  Mo12  1  0.65063300  0.66572100  0.25982500  1
  Mo  Mo13  1  0.37961000  0.00007300  0.26765400  1
  Mo  Mo14  1  0.96459300  0.29928600  0.32080800  1
  Mo  Mo15  1  0.34936700  0.01508800  0.75982500  1
  Mo  Mo16  1  0.03540700  0.33469300  0.82080800  1
  Mo  Mo17  1  0.62039000  0.62046300  0.76765400  1
  O  O18  1  0.91399500  0.29707900  0.94434300  1
  O  O19  1  0.74956800  0.69380300  0.87708500  1
  O  O20  1  0.32934500  0.15746200  0.87275800  1
  O  O21  1  0.08600500  0.38308400  0.44434300  1
  O  O22  1  0.67065500  0.82811700  0.37275800  1
  O  O23  1  0.25043200  0.94423400  0.37708500  1
  O  O24  1  0.08600500  0.70292100  0.05565700  1
  O  O25  1  0.25043200  0.30619700  0.12291500  1
  O  O26  1  0.67065500  0.84253800  0.12724200  1
  O  O27  1  0.91399500  0.61691600  0.55565700  1
  O  O28  1  0.32934500  0.17188300  0.62724200  1
  O  O29  1  0.74956800  0.05576600  0.62291500  1
  O  O30  1  0.99252200  0.12978600  0.72915600  1
  O  O31  1  0.71139000  0.74560300  0.65341100  1
  O  O32  1  0.20906100  0.89620600  0.65321600  1
  O  O33  1  0.00747800  0.13726400  0.22915600  1
  O  O34  1  0.79093900  0.68714500  0.15321600  1
  O  O35  1  0.28861000  0.03421300  0.15341100  1
  O  O36  1  0.00747800  0.87021400  0.27084400  1
  O  O37  1  0.28861000  0.25439700  0.34658900  1
  O  O38  1  0.79093900  0.10379400  0.34678400  1
  O  O39  1  0.99252200  0.86273600  0.77084400  1
  O  O40  1  0.20906100  0.31285500  0.84678400  1
  O  O41  1  0.71139000  0.96578700  0.84658900  1
  O  O42  1  0.18287500  0.54011000  0.87870100  1
  O  O43  1  0.49385300  0.68898800  0.85923100  1
  O  O44  1  0.35788900  0.89164500  0.85518400  1
  O  O45  1  0.81712500  0.35723500  0.37870100  1
  O  O46  1  0.64211100  0.53375600  0.35518400  1
  O  O47  1  0.50614700  0.19513500  0.35923100  1
  O  O48  1  0.81712500  0.45989000  0.12129900  1
  O  O49  1  0.50614700  0.31101200  0.14076900  1
  O  O50  1  0.64211100  0.10835500  0.14481600  1
  O  O51  1  0.18287500  0.64276500  0.62129900  1
  O  O52  1  0.35788900  0.46624400  0.64481600  1
  O  O53  1  0.49385300  0.80486500  0.64076900  1
  O  O54  1  0.96943600  0.36010100  0.69769800  1
  O  O55  1  0.62436000  0.46145000  0.62309900  1
  O  O56  1  0.50361000  0.06889000  0.66034200  1
  O  O57  1  0.03056400  0.39066500  0.19769800  1
  O  O58  1  0.49639000  0.56528100  0.16034200  1
  O  O59  1  0.37564000  0.83709100  0.12309900  1
  O  O60  1  0.03056400  0.63989900  0.30230200  1
  O  O61  1  0.37564000  0.53855000  0.37690100  1
  O  O62  1  0.49639000  0.93111000  0.33965800  1
  O  O63  1  0.96943600  0.60933500  0.80230200  1
  O  O64  1  0.50361000  0.43471900  0.83965800  1
  O  O65  1  0.62436000  0.16290900  0.87690100  1
