# generated using pymatgen
data_Dy3InS6
_symmetry_space_group_name_H-M   'P 1'
_cell_length_a   3.85588600
_cell_length_b   13.42820500
_cell_length_c   16.64337300
_cell_angle_alpha   90.00000000
_cell_angle_beta   90.00000000
_cell_angle_gamma   90.00000000
_symmetry_Int_Tables_number   1
_chemical_formula_structural   Dy3InS6
_chemical_formula_sum   'Dy12 In4 S24'
_cell_volume   861.75437028
_cell_formula_units_Z   4
loop_
 _symmetry_equiv_pos_site_id
 _symmetry_equiv_pos_as_xyz
  1  'x, y, z'
loop_
 _atom_site_type_symbol
 _atom_site_label
 _atom_site_symmetry_multiplicity
 _atom_site_fract_x
 _atom_site_fract_y
 _atom_site_fract_z
 _atom_site_occupancy
  Dy  Dy0  1  0.25407200  0.03656300  0.77666800  1
  Dy  Dy1  1  0.25407200  0.96343700  0.22333200  1
  Dy  Dy2  1  0.74592800  0.46343700  0.27666800  1
  Dy  Dy3  1  0.74592800  0.53656300  0.72333200  1
  Dy  Dy4  1  0.26327800  0.24642300  0.61019300  1
  Dy  Dy5  1  0.26327800  0.75357700  0.38980700  1
  Dy  Dy6  1  0.73672200  0.25357700  0.11019300  1
  Dy  Dy7  1  0.73672200  0.74642300  0.88980700  1
  Dy  Dy8  1  0.74726800  0.30903700  0.85650600  1
  Dy  Dy9  1  0.74726800  0.69096300  0.14349400  1
  Dy  Dy10  1  0.25273200  0.19096300  0.35650600  1
  Dy  Dy11  1  0.25273200  0.80903700  0.64349400  1
  In  In12  1  0.75458600  0.00000000  0.50000000  1
  In  In13  1  0.24541400  0.50000000  0.00000000  1
  In  In14  1  0.39203700  0.50000000  0.50000000  1
  In  In15  1  0.60796300  0.00000000  0.00000000  1
  S  S16  1  0.76874100  0.39658000  0.59339100  1
  S  S17  1  0.76874100  0.60342000  0.40660900  1
  S  S18  1  0.23125900  0.10342000  0.09339100  1
  S  S19  1  0.23125900  0.89658000  0.90660900  1
  S  S20  1  0.24596100  0.30673400  0.98060500  1
  S  S21  1  0.24596100  0.69326600  0.01939500  1
  S  S22  1  0.75403900  0.19326600  0.48060500  1
  S  S23  1  0.75403900  0.80673400  0.51939500  1
  S  S24  1  0.75236300  0.10808100  0.88435800  1
  S  S25  1  0.75236300  0.89191900  0.11564200  1
  S  S26  1  0.24763700  0.39191900  0.38435800  1
  S  S27  1  0.24763700  0.60808100  0.61564200  1
  S  S28  1  0.75893100  0.17888200  0.71692600  1
  S  S29  1  0.75893100  0.82111800  0.28307400  1
  S  S30  1  0.24106900  0.32111800  0.21692600  1
  S  S31  1  0.24106900  0.67888200  0.78307400  1
  S  S32  1  0.24861800  0.38525200  0.75634100  1
  S  S33  1  0.24861800  0.61474800  0.24365900  1
  S  S34  1  0.75138200  0.11474800  0.25634100  1
  S  S35  1  0.75138200  0.88525200  0.74365900  1
  S  S36  1  0.25414500  0.02081200  0.60586500  1
  S  S37  1  0.25414500  0.97918800  0.39413500  1
  S  S38  1  0.74585500  0.47918800  0.10586500  1
  S  S39  1  0.74585500  0.52081200  0.89413500  1
