# generated using pymatgen
data_MgTe(BrO)6
_symmetry_space_group_name_H-M   'P 1'
_cell_length_a   10.96229400
_cell_length_b   10.96229400
_cell_length_c   10.96229400
_cell_angle_alpha   90.00000000
_cell_angle_beta   90.00000000
_cell_angle_gamma   90.00000000
_symmetry_Int_Tables_number   1
_chemical_formula_structural   MgTe(BrO)6
_chemical_formula_sum   'Mg4 Te4 Br24 O24'
_cell_volume   1317.35958589
_cell_formula_units_Z   4
loop_
 _symmetry_equiv_pos_site_id
 _symmetry_equiv_pos_as_xyz
  1  'x, y, z'
loop_
 _atom_site_type_symbol
 _atom_site_label
 _atom_site_symmetry_multiplicity
 _atom_site_fract_x
 _atom_site_fract_y
 _atom_site_fract_z
 _atom_site_occupancy
  Mg  Mg0  1  0.00000000  0.00000000  0.50000000  1
  Mg  Mg1  1  0.00000000  0.50000000  0.00000000  1
  Mg  Mg2  1  0.50000000  0.00000000  0.00000000  1
  Mg  Mg3  1  0.50000000  0.50000000  0.50000000  1
  Te  Te4  1  0.50000000  0.50000000  0.00000000  1
  Te  Te5  1  0.50000000  0.00000000  0.50000000  1
  Te  Te6  1  0.00000000  0.50000000  0.50000000  1
  Te  Te7  1  0.00000000  0.00000000  0.00000000  1
  Br  Br8  1  0.53048200  0.72494300  0.15206700  1
  Br  Br9  1  0.46951800  0.22494300  0.34793300  1
  Br  Br10  1  0.96951800  0.27505700  0.65206700  1
  Br  Br11  1  0.03048200  0.77505700  0.84793300  1
  Br  Br12  1  0.15206700  0.53048200  0.72494300  1
  Br  Br13  1  0.34793300  0.46951800  0.22494300  1
  Br  Br14  1  0.65206700  0.96951800  0.27505700  1
  Br  Br15  1  0.84793300  0.03048200  0.77505700  1
  Br  Br16  1  0.72494300  0.15206700  0.53048200  1
  Br  Br17  1  0.22494300  0.34793300  0.46951800  1
  Br  Br18  1  0.27505700  0.65206700  0.96951800  1
  Br  Br19  1  0.77505700  0.84793300  0.03048200  1
  Br  Br20  1  0.46951800  0.27505700  0.84793300  1
  Br  Br21  1  0.53048200  0.77505700  0.65206700  1
  Br  Br22  1  0.03048200  0.72494300  0.34793300  1
  Br  Br23  1  0.96951800  0.22494300  0.15206700  1
  Br  Br24  1  0.84793300  0.46951800  0.27505700  1
  Br  Br25  1  0.65206700  0.53048200  0.77505700  1
  Br  Br26  1  0.34793300  0.03048200  0.72494300  1
  Br  Br27  1  0.15206700  0.96951800  0.22494300  1
  Br  Br28  1  0.27505700  0.84793300  0.46951800  1
  Br  Br29  1  0.77505700  0.65206700  0.53048200  1
  Br  Br30  1  0.72494300  0.34793300  0.03048200  1
  Br  Br31  1  0.22494300  0.15206700  0.96951800  1
  O  O32  1  0.43795900  0.65475800  0.60073500  1
  O  O33  1  0.56204100  0.15475800  0.89926500  1
  O  O34  1  0.06204100  0.34524200  0.10073500  1
  O  O35  1  0.93795900  0.84524200  0.39926500  1
  O  O36  1  0.60073500  0.43795900  0.65475800  1
  O  O37  1  0.89926500  0.56204100  0.15475800  1
  O  O38  1  0.10073500  0.06204100  0.34524200  1
  O  O39  1  0.39926500  0.93795900  0.84524200  1
  O  O40  1  0.65475800  0.60073500  0.43795900  1
  O  O41  1  0.15475800  0.89926500  0.56204100  1
  O  O42  1  0.34524200  0.10073500  0.06204100  1
  O  O43  1  0.84524200  0.39926500  0.93795900  1
  O  O44  1  0.56204100  0.34524200  0.39926500  1
  O  O45  1  0.43795900  0.84524200  0.10073500  1
  O  O46  1  0.93795900  0.65475800  0.89926500  1
  O  O47  1  0.06204100  0.15475800  0.60073500  1
  O  O48  1  0.39926500  0.56204100  0.34524200  1
  O  O49  1  0.10073500  0.43795900  0.84524200  1
  O  O50  1  0.89926500  0.93795900  0.65475800  1
  O  O51  1  0.60073500  0.06204100  0.15475800  1
  O  O52  1  0.34524200  0.39926500  0.56204100  1
  O  O53  1  0.84524200  0.10073500  0.43795900  1
  O  O54  1  0.65475800  0.89926500  0.93795900  1
  O  O55  1  0.15475800  0.60073500  0.06204100  1
