# generated using pymatgen
data_Cs4PbO3
_symmetry_space_group_name_H-M   'P 1'
_cell_length_a   7.49358700
_cell_length_b   11.93156200
_cell_length_c   12.10983859
_cell_angle_alpha   68.73402918
_cell_angle_beta   90.00000000
_cell_angle_gamma   90.00000000
_symmetry_Int_Tables_number   1
_chemical_formula_structural   Cs4PbO3
_chemical_formula_sum   'Cs16 Pb4 O12'
_cell_volume   1009.01563108
_cell_formula_units_Z   4
loop_
 _symmetry_equiv_pos_site_id
 _symmetry_equiv_pos_as_xyz
  1  'x, y, z'
loop_
 _atom_site_type_symbol
 _atom_site_label
 _atom_site_symmetry_multiplicity
 _atom_site_fract_x
 _atom_site_fract_y
 _atom_site_fract_z
 _atom_site_occupancy
  Cs  Cs0  1  0.61041200  0.66024800  0.66331500  1
  Cs  Cs1  1  0.11041200  0.33975200  0.33668500  1
  Cs  Cs2  1  0.37458100  0.82545800  0.32915500  1
  Cs  Cs3  1  0.87458100  0.17454200  0.67084500  1
  Cs  Cs4  1  0.32182700  0.46241100  0.91375300  1
  Cs  Cs5  1  0.82182700  0.53758900  0.08624700  1
  Cs  Cs6  1  0.20082600  0.96037200  0.93676800  1
  Cs  Cs7  1  0.70082600  0.03962800  0.06323200  1
  Cs  Cs8  1  0.44561600  0.03347400  0.57708700  1
  Cs  Cs9  1  0.94561600  0.96652600  0.42291300  1
  Cs  Cs10  1  0.61731300  0.44680600  0.42258500  1
  Cs  Cs11  1  0.11731300  0.55319400  0.57741500  1
  Cs  Cs12  1  0.83801800  0.35985800  0.87490100  1
  Cs  Cs13  1  0.33801800  0.64014200  0.12509900  1
  Cs  Cs14  1  0.17077200  0.15413100  0.12087400  1
  Cs  Cs15  1  0.67077200  0.84586900  0.87912600  1
  Pb  Pb16  1  0.62019200  0.22396300  0.26638200  1
  Pb  Pb17  1  0.12019200  0.77603700  0.73361800  1
  Pb  Pb18  1  0.37354800  0.25402300  0.72603200  1
  Pb  Pb19  1  0.87354800  0.74597700  0.27396800  1
  O  O20  1  0.85637800  0.26342000  0.15142500  1
  O  O21  1  0.35637800  0.73658000  0.84857500  1
  O  O22  1  0.74707600  0.21049300  0.43942100  1
  O  O23  1  0.24707600  0.78950700  0.56057900  1
  O  O24  1  0.48834800  0.40015000  0.21250200  1
  O  O25  1  0.98834800  0.59985000  0.78749800  1
  O  O26  1  0.18248700  0.23089000  0.87059400  1
  O  O27  1  0.68248700  0.76911000  0.12940600  1
  O  O28  1  0.56022000  0.09955400  0.81492200  1
  O  O29  1  0.06022000  0.90044600  0.18507800  1
  O  O30  1  0.52212500  0.41849000  0.71043100  1
  O  O31  1  0.02212500  0.58151000  0.28956900  1
