# generated using pymatgen
data_PCSN3O2
_symmetry_space_group_name_H-M   'P 1'
_cell_length_a   14.15423600
_cell_length_b   9.71195400
_cell_length_c   12.65313365
_cell_angle_alpha   49.65258904
_cell_angle_beta   90.00000000
_cell_angle_gamma   90.00000000
_symmetry_Int_Tables_number   1
_chemical_formula_structural   PCSN3O2
_chemical_formula_sum   'P8 C8 S8 N24 O16'
_cell_volume   1325.62850591
_cell_formula_units_Z   8
loop_
 _symmetry_equiv_pos_site_id
 _symmetry_equiv_pos_as_xyz
  1  'x, y, z'
loop_
 _atom_site_type_symbol
 _atom_site_label
 _atom_site_symmetry_multiplicity
 _atom_site_fract_x
 _atom_site_fract_y
 _atom_site_fract_z
 _atom_site_occupancy
  P  P0  1  0.52141300  0.79332000  0.36082400  1
  P  P1  1  0.97858700  0.79332000  0.86082400  1
  P  P2  1  0.47858700  0.20668000  0.63917600  1
  P  P3  1  0.02141300  0.20668000  0.13917600  1
  P  P4  1  0.08567600  0.53248400  0.85611300  1
  P  P5  1  0.41432400  0.53248400  0.35611300  1
  P  P6  1  0.91432400  0.46751600  0.14388700  1
  P  P7  1  0.58567600  0.46751600  0.64388700  1
  C  C8  1  0.68486200  0.77790200  0.10671800  1
  C  C9  1  0.81513800  0.77790200  0.60671800  1
  C  C10  1  0.31513800  0.22209800  0.89328200  1
  C  C11  1  0.18486200  0.22209800  0.39328200  1
  C  C12  1  0.48092800  0.73852100  0.76793300  1
  C  C13  1  0.01907200  0.73852100  0.26793300  1
  C  C14  1  0.51907200  0.26147900  0.23206700  1
  C  C15  1  0.98092800  0.26147900  0.73206700  1
  S  S16  1  0.90795700  0.04092900  0.15493000  1
  S  S17  1  0.59204300  0.04092900  0.65493000  1
  S  S18  1  0.09204300  0.95907100  0.84507000  1
  S  S19  1  0.40795700  0.95907100  0.34507000  1
  S  S20  1  0.59105700  0.51701900  0.78377000  1
  S  S21  1  0.90894300  0.51701900  0.28377000  1
  S  S22  1  0.40894300  0.48298100  0.21623000  1
  S  S23  1  0.09105700  0.48298100  0.71623000  1
  N  N24  1  0.17190500  0.02926800  0.51005000  1
  N  N25  1  0.32809500  0.02926800  0.01005000  1
  N  N26  1  0.82809500  0.97073200  0.48995000  1
  N  N27  1  0.67190500  0.97073200  0.98995000  1
  N  N28  1  0.69478700  0.64684500  0.22852100  1
  N  N29  1  0.80521300  0.64684500  0.72852100  1
  N  N30  1  0.30521300  0.35315500  0.77147900  1
  N  N31  1  0.19478700  0.35315500  0.27147900  1
  N  N32  1  0.67497600  0.86988800  0.96010500  1
  N  N33  1  0.82502400  0.86988800  0.46010500  1
  N  N34  1  0.32502400  0.13011200  0.03989500  1
  N  N35  1  0.17497600  0.13011200  0.53989500  1
  N  N36  1  0.48350200  0.58989900  0.77442800  1
  N  N37  1  0.01649800  0.58989900  0.27442800  1
  N  N38  1  0.51649800  0.41010100  0.22557200  1
  N  N39  1  0.98350200  0.41010100  0.72557200  1
  N  N40  1  0.43845000  0.15825000  0.27723200  1
  N  N41  1  0.06155000  0.15825000  0.77723200  1
  N  N42  1  0.56155000  0.84175000  0.72276800  1
  N  N43  1  0.93845000  0.84175000  0.22276800  1
  N  N44  1  0.09751200  0.77241600  0.30307200  1
  N  N45  1  0.40248800  0.77241600  0.80307200  1
  N  N46  1  0.90248800  0.22758400  0.69692800  1
  N  N47  1  0.59751200  0.22758400  0.19692800  1
  O  O48  1  0.61472300  0.87493900  0.30677600  1
  O  O49  1  0.88527700  0.87493900  0.80677600  1
  O  O50  1  0.38527700  0.12506100  0.69322400  1
  O  O51  1  0.11472300  0.12506100  0.19322400  1
  O  O52  1  0.18190900  0.53210500  0.89884400  1
  O  O53  1  0.31809100  0.53210500  0.39884400  1
  O  O54  1  0.81809100  0.46789500  0.10115600  1
  O  O55  1  0.68190900  0.46789500  0.60115600  1
  O  O56  1  0.01221100  0.37931900  0.97468900  1
  O  O57  1  0.48778900  0.37931900  0.47468900  1
  O  O58  1  0.98778900  0.62068100  0.02531100  1
  O  O59  1  0.51221100  0.62068100  0.52531100  1
  O  O60  1  0.52413500  0.28652200  0.70896300  1
  O  O61  1  0.97586500  0.28652200  0.20896300  1
  O  O62  1  0.47586500  0.71347800  0.29103700  1
  O  O63  1  0.02413500  0.71347800  0.79103700  1
