# generated using pymatgen
data_La4(ErS2)11
_symmetry_space_group_name_H-M   'P 1'
_cell_length_a   19.72780124
_cell_length_b   19.72780124
_cell_length_c   11.36874564
_cell_angle_alpha   88.61018332
_cell_angle_beta   88.61018332
_cell_angle_gamma   11.53838458
_symmetry_Int_Tables_number   1
_chemical_formula_structural   La4(ErS2)11
_chemical_formula_sum   'La4 Er11 S22'
_cell_volume   884.75649450
_cell_formula_units_Z   1
loop_
 _symmetry_equiv_pos_site_id
 _symmetry_equiv_pos_as_xyz
  1  'x, y, z'
loop_
 _atom_site_type_symbol
 _atom_site_label
 _atom_site_symmetry_multiplicity
 _atom_site_fract_x
 _atom_site_fract_y
 _atom_site_fract_z
 _atom_site_occupancy
  La  La0  1  0.10395600  0.10395600  0.98776100  1
  La  La1  1  0.89604400  0.89604400  0.01223900  1
  La  La2  1  0.36710400  0.36710400  0.65273900  1
  La  La3  1  0.63289600  0.63289600  0.34726100  1
  Er  Er4  1  0.79785500  0.79785500  0.94191500  1
  Er  Er5  1  0.20214500  0.20214500  0.05808500  1
  Er  Er6  1  0.46202600  0.46202600  0.72883100  1
  Er  Er7  1  0.53797400  0.53797400  0.27116900  1
  Er  Er8  1  0.65764100  0.65764100  0.69836900  1
  Er  Er9  1  0.34235900  0.34235900  0.30163100  1
  Er  Er10  1  0.26392100  0.26392100  0.64798100  1
  Er  Er11  1  0.73607900  0.73607900  0.35201900  1
  Er  Er12  1  0.06934500  0.06934500  0.63955800  1
  Er  Er13  1  0.93065500  0.93065500  0.36044200  1
  Er  Er14  1  0.00000000  0.00000000  0.00000000  1
  S  S15  1  0.08693700  0.08693700  0.24823200  1
  S  S16  1  0.91306300  0.91306300  0.75176800  1
  S  S17  1  0.18923400  0.18923400  0.30788800  1
  S  S18  1  0.81076600  0.81076600  0.69211200  1
  S  S19  1  0.27995500  0.27995500  0.40996700  1
  S  S20  1  0.72004500  0.72004500  0.59003300  1
  S  S21  1  0.44578500  0.44578500  0.50450500  1
  S  S22  1  0.55421500  0.55421500  0.49549500  1
  S  S23  1  0.13438500  0.13438500  0.54772800  1
  S  S24  1  0.86561500  0.86561500  0.45227200  1
  S  S25  1  0.59290400  0.59290400  0.78659800  1
  S  S26  1  0.40709600  0.40709600  0.21340200  1
  S  S27  1  0.45356000  0.45356000  0.96826500  1
  S  S28  1  0.54644000  0.54644000  0.03173500  1
  S  S29  1  0.35028200  0.35028200  0.90882600  1
  S  S30  1  0.64971800  0.64971800  0.09117400  1
  S  S31  1  0.16857400  0.16857400  0.84782800  1
  S  S32  1  0.83142600  0.83142600  0.15217200  1
  S  S33  1  0.00774600  0.00774600  0.76107700  1
  S  S34  1  0.99225400  0.99225400  0.23892300  1
  S  S35  1  0.25533000  0.25533000  0.88098300  1
  S  S36  1  0.74467000  0.74467000  0.11901700  1
