# generated using pymatgen
data_V3P2C2(N3O7)2
_symmetry_space_group_name_H-M   'P 1'
_cell_length_a   7.19175427
_cell_length_b   7.19175427
_cell_length_c   17.99806853
_cell_angle_alpha   83.46452616
_cell_angle_beta   83.46452616
_cell_angle_gamma   60.05106050
_symmetry_Int_Tables_number   1
_chemical_formula_structural   V3P2C2(N3O7)2
_chemical_formula_sum   'V6 P4 C4 N12 O28'
_cell_volume   799.58373956
_cell_formula_units_Z   2
loop_
 _symmetry_equiv_pos_site_id
 _symmetry_equiv_pos_as_xyz
  1  'x, y, z'
loop_
 _atom_site_type_symbol
 _atom_site_label
 _atom_site_symmetry_multiplicity
 _atom_site_fract_x
 _atom_site_fract_y
 _atom_site_fract_z
 _atom_site_occupancy
  V  V0  1  0.84626700  0.68328200  0.24063800  1
  V  V1  1  0.31671800  0.15373300  0.25936200  1
  V  V2  1  0.15373300  0.31671800  0.75936200  1
  V  V3  1  0.68328200  0.84626700  0.74063800  1
  V  V4  1  0.82285000  0.17715000  0.25000000  1
  V  V5  1  0.17715000  0.82285000  0.75000000  1
  P  P6  1  0.05656300  0.32810100  0.11788700  1
  P  P7  1  0.67189900  0.94343700  0.38211300  1
  P  P8  1  0.94343700  0.67189900  0.88211300  1
  P  P9  1  0.32810100  0.05656300  0.61788700  1
  C  C10  1  0.78082300  0.35329100  0.52351600  1
  C  C11  1  0.64670900  0.21917700  0.97648400  1
  C  C12  1  0.21917700  0.64670900  0.47648400  1
  C  C13  1  0.35329100  0.78082300  0.02351600  1
  N  N14  1  0.78087200  0.50659600  0.56085700  1
  N  N15  1  0.49340300  0.21912800  0.93914300  1
  N  N16  1  0.21912800  0.49340400  0.43914300  1
  N  N17  1  0.50659600  0.78087200  0.06085700  1
  N  N18  1  0.77683400  0.37556300  0.44783000  1
  N  N19  1  0.62443700  0.22316600  0.05217000  1
  N  N20  1  0.22316600  0.62443700  0.55217000  1
  N  N21  1  0.37556300  0.77683400  0.94783000  1
  N  N22  1  0.78205600  0.17886800  0.56132800  1
  N  N23  1  0.82113200  0.21794400  0.93867200  1
  N  N24  1  0.21794400  0.82113200  0.43867200  1
  N  N25  1  0.17886800  0.78205600  0.06132800  1
  O  O26  1  0.94194600  0.85767200  0.22548300  1
  O  O27  1  0.14232800  0.05805400  0.27451700  1
  O  O28  1  0.05805400  0.14232800  0.77451700  1
  O  O29  1  0.85767200  0.94194600  0.72548300  1
  O  O30  1  0.57887900  0.85904600  0.22744500  1
  O  O31  1  0.14095400  0.42112100  0.27255500  1
  O  O32  1  0.42112100  0.14095400  0.77255500  1
  O  O33  1  0.85904600  0.57887900  0.72744500  1
  O  O34  1  0.93239400  0.55855400  0.14474200  1
  O  O35  1  0.44144600  0.06760600  0.35525800  1
  O  O36  1  0.06760600  0.44144600  0.85525800  1
  O  O37  1  0.55855400  0.93239400  0.64474200  1
  O  O38  1  0.77046500  0.42782300  0.26943500  1
  O  O39  1  0.57217700  0.22953500  0.23056500  1
  O  O40  1  0.22953500  0.57217700  0.73056500  1
  O  O41  1  0.42782300  0.77046500  0.76943500  1
  O  O42  1  0.79730700  0.71723900  0.34989500  1
  O  O43  1  0.28276100  0.20269300  0.15010500  1
  O  O44  1  0.20269300  0.28276100  0.65010500  1
  O  O45  1  0.71723900  0.79730700  0.84989500  1
  O  O46  1  0.93239900  0.20430900  0.14726800  1
  O  O47  1  0.79569100  0.06760100  0.35273200  1
  O  O48  1  0.06760100  0.79569100  0.85273200  1
  O  O49  1  0.20430900  0.93239900  0.64726800  1
  O  O50  1  0.08548900  0.32745100  0.03101600  1
  O  O51  1  0.67254900  0.91451100  0.46898400  1
  O  O52  1  0.91451100  0.67254900  0.96898400  1
  O  O53  1  0.32745100  0.08548900  0.53101600  1
