# generated using pymatgen
data_Pb7(ClO4)2
_symmetry_space_group_name_H-M   'P 1'
_cell_length_a   20.13628400
_cell_length_b   5.92797500
_cell_length_c   7.29342536
_cell_angle_alpha   66.84588858
_cell_angle_beta   90.00000000
_cell_angle_gamma   90.00000000
_symmetry_Int_Tables_number   1
_chemical_formula_structural   Pb7(ClO4)2
_chemical_formula_sum   'Pb14 Cl4 O16'
_cell_volume   800.47102033
_cell_formula_units_Z   2
loop_
 _symmetry_equiv_pos_site_id
 _symmetry_equiv_pos_as_xyz
  1  'x, y, z'
loop_
 _atom_site_type_symbol
 _atom_site_label
 _atom_site_symmetry_multiplicity
 _atom_site_fract_x
 _atom_site_fract_y
 _atom_site_fract_z
 _atom_site_occupancy
  Pb  Pb0  1  0.99564400  0.96409700  0.34489000  1
  Pb  Pb1  1  0.49564400  0.03590300  0.65511000  1
  Pb  Pb2  1  0.03486700  0.60261800  0.05067700  1
  Pb  Pb3  1  0.53486700  0.39738200  0.94932300  1
  Pb  Pb4  1  0.86615300  0.17038100  0.99877800  1
  Pb  Pb5  1  0.36615300  0.82961900  0.00122200  1
  Pb  Pb6  1  0.86374900  0.49745000  0.34840900  1
  Pb  Pb7  1  0.36374900  0.50255000  0.65159100  1
  Pb  Pb8  1  0.14621600  0.40036900  0.49056400  1
  Pb  Pb9  1  0.64621600  0.59963100  0.50943600  1
  Pb  Pb10  1  0.16371000  0.01534000  0.18133100  1
  Pb  Pb11  1  0.66371000  0.98466000  0.81866900  1
  Pb  Pb12  1  0.22502100  0.75772700  0.79815100  1
  Pb  Pb13  1  0.72502100  0.24227300  0.20184900  1
  Cl  Cl14  1  0.06346200  0.23645300  0.82069000  1
  Cl  Cl15  1  0.56346200  0.76354700  0.17931000  1
  Cl  Cl16  1  0.93228200  0.79919400  0.67251800  1
  Cl  Cl17  1  0.43228200  0.20080600  0.32748200  1
  O  O18  1  0.07434100  0.72328500  0.31453500  1
  O  O19  1  0.57434100  0.27671500  0.68546500  1
  O  O20  1  0.07693900  0.21375400  0.30033400  1
  O  O21  1  0.57693900  0.78624600  0.69966600  1
  O  O22  1  0.93635200  0.29014200  0.20099700  1
  O  O23  1  0.43635200  0.70985800  0.79900300  1
  O  O24  1  0.93608900  0.81136900  0.17567400  1
  O  O25  1  0.43608900  0.18863100  0.82432600  1
  O  O26  1  0.30526800  0.50869800  0.91145900  1
  O  O27  1  0.80526800  0.49130200  0.08854100  1
  O  O28  1  0.28854900  0.05476400  0.76949500  1
  O  O29  1  0.78854900  0.94523600  0.23050500  1
  O  O30  1  0.16122300  0.68815200  0.04294600  1
  O  O31  1  0.66122300  0.31184800  0.95705400  1
  O  O32  1  0.19363500  0.75409000  0.52153600  1
  O  O33  1  0.69363500  0.24591000  0.47846400  1
