# generated using pymatgen
data_Cu2C3NCl5
_symmetry_space_group_name_H-M   'P 1'
_cell_length_a   9.67797200
_cell_length_b   5.98941900
_cell_length_c   20.33472563
_cell_angle_alpha   78.45714314
_cell_angle_beta   90.00000000
_cell_angle_gamma   90.00000000
_symmetry_Int_Tables_number   1
_chemical_formula_structural   Cu2C3NCl5
_chemical_formula_sum   'Cu8 C12 N4 Cl20'
_cell_volume   1154.87202953
_cell_formula_units_Z   4
loop_
 _symmetry_equiv_pos_site_id
 _symmetry_equiv_pos_as_xyz
  1  'x, y, z'
loop_
 _atom_site_type_symbol
 _atom_site_label
 _atom_site_symmetry_multiplicity
 _atom_site_fract_x
 _atom_site_fract_y
 _atom_site_fract_z
 _atom_site_occupancy
  Cu  Cu0  1  0.88806400  0.82019200  0.97500700  1
  Cu  Cu1  1  0.38806400  0.17980800  0.52499300  1
  Cu  Cu2  1  0.11193600  0.17980800  0.02499300  1
  Cu  Cu3  1  0.61193600  0.82019200  0.47500700  1
  Cu  Cu4  1  0.70344800  0.42468600  0.92792600  1
  Cu  Cu5  1  0.20344800  0.57531400  0.57207400  1
  Cu  Cu6  1  0.29655200  0.57531400  0.07207400  1
  Cu  Cu7  1  0.79655200  0.42468600  0.42792600  1
  C  C8  1  0.90701000  0.84402500  0.70490800  1
  C  C9  1  0.40701000  0.15597500  0.79509200  1
  C  C10  1  0.09299000  0.15597500  0.29509200  1
  C  C11  1  0.59299000  0.84402500  0.20490800  1
  C  C12  1  0.06902100  0.39946700  0.62568100  1
  C  C13  1  0.56902100  0.60053300  0.87431900  1
  C  C14  1  0.93097900  0.60053300  0.37431900  1
  C  C15  1  0.43097900  0.39946700  0.12568100  1
  C  C16  1  0.99283100  0.01835800  0.68705200  1
  C  C17  1  0.49283100  0.98164200  0.81294800  1
  C  C18  1  0.00716900  0.98164200  0.31294800  1
  C  C19  1  0.50716900  0.01835800  0.18705200  1
  N  N20  1  0.01861900  0.22828300  0.65536100  1
  N  N21  1  0.51861900  0.77171700  0.84463900  1
  N  N22  1  0.98138100  0.77171700  0.34463900  1
  N  N23  1  0.48138100  0.22828300  0.15536100  1
  Cl  Cl24  1  0.87093600  0.67253100  0.87777100  1
  Cl  Cl25  1  0.37093600  0.32746900  0.62222900  1
  Cl  Cl26  1  0.12906400  0.32746900  0.12222900  1
  Cl  Cl27  1  0.62906400  0.67253100  0.37777100  1
  Cl  Cl28  1  0.78023900  0.49691500  0.03001900  1
  Cl  Cl29  1  0.28023900  0.50308500  0.46998100  1
  Cl  Cl30  1  0.21976100  0.50308500  0.96998100  1
  Cl  Cl31  1  0.71976100  0.49691500  0.53001900  1
  Cl  Cl32  1  0.62064200  0.17814400  0.76979300  1
  Cl  Cl33  1  0.12064200  0.82185600  0.73020700  1
  Cl  Cl34  1  0.37935800  0.82185600  0.23020700  1
  Cl  Cl35  1  0.87935800  0.17814400  0.26979300  1
  Cl  Cl36  1  0.67123800  0.05396200  0.95766500  1
  Cl  Cl37  1  0.17123800  0.94603800  0.54233500  1
  Cl  Cl38  1  0.32876200  0.94603800  0.04233500  1
  Cl  Cl39  1  0.82876200  0.05396200  0.45766500  1
  Cl  Cl40  1  0.04418300  0.08698300  0.92489300  1
  Cl  Cl41  1  0.54418300  0.91301700  0.57510700  1
  Cl  Cl42  1  0.95581700  0.91301700  0.07510700  1
  Cl  Cl43  1  0.45581700  0.08698300  0.42489300  1
