# generated using pymatgen
data_K4Mn2S4O19
_symmetry_space_group_name_H-M   'P 1'
_cell_length_a   9.67793000
_cell_length_b   9.74011100
_cell_length_c   19.70081838
_cell_angle_alpha   71.79110168
_cell_angle_beta   90.00000000
_cell_angle_gamma   90.00000000
_symmetry_Int_Tables_number   1
_chemical_formula_structural   K4Mn2S4O19
_chemical_formula_sum   'K16 Mn8 S16 O76'
_cell_volume   1764.08414597
_cell_formula_units_Z   4
loop_
 _symmetry_equiv_pos_site_id
 _symmetry_equiv_pos_as_xyz
  1  'x, y, z'
loop_
 _atom_site_type_symbol
 _atom_site_label
 _atom_site_symmetry_multiplicity
 _atom_site_fract_x
 _atom_site_fract_y
 _atom_site_fract_z
 _atom_site_occupancy
  K  K0  1  0.79361400  0.60400300  0.55724300  1
  K  K1  1  0.70638600  0.60400300  0.05724300  1
  K  K2  1  0.20638600  0.39599700  0.44275700  1
  K  K3  1  0.29361400  0.39599700  0.94275700  1
  K  K4  1  0.97521400  0.93472400  0.76495400  1
  K  K5  1  0.52478600  0.93472400  0.26495400  1
  K  K6  1  0.02478600  0.06527600  0.23504600  1
  K  K7  1  0.47521400  0.06527600  0.73504600  1
  K  K8  1  0.25585100  0.93994400  0.93135300  1
  K  K9  1  0.24414900  0.93994400  0.43135300  1
  K  K10  1  0.74414900  0.06005600  0.06864700  1
  K  K11  1  0.75585100  0.06005600  0.56864700  1
  K  K12  1  0.08995200  0.25033700  0.62367600  1
  K  K13  1  0.41004800  0.25033700  0.12367600  1
  K  K14  1  0.91004800  0.74966300  0.37632400  1
  K  K15  1  0.58995200  0.74966300  0.87632400  1
  Mn  Mn16  1  0.49162100  0.53920200  0.23620500  1
  Mn  Mn17  1  0.00837900  0.53920200  0.73620500  1
  Mn  Mn18  1  0.50837900  0.46079800  0.76379500  1
  Mn  Mn19  1  0.99162100  0.46079800  0.26379500  1
  Mn  Mn20  1  0.05137800  0.75041900  0.11700900  1
  Mn  Mn21  1  0.44862200  0.75041900  0.61700900  1
  Mn  Mn22  1  0.94862200  0.24958100  0.88299100  1
  Mn  Mn23  1  0.55137800  0.24958100  0.38299100  1
  S  S24  1  0.87853000  0.88319900  0.94648300  1
  S  S25  1  0.62147000  0.88319900  0.44648300  1
  S  S26  1  0.12147000  0.11680100  0.05351700  1
  S  S27  1  0.37853000  0.11680100  0.55351700  1
  S  S28  1  0.21461500  0.25789400  0.78583100  1
  S  S29  1  0.28538500  0.25789400  0.28583100  1
  S  S30  1  0.78538500  0.74210600  0.21416900  1
  S  S31  1  0.71461500  0.74210600  0.71416900  1
  S  S32  1  0.79084600  0.28141700  0.72416600  1
  S  S33  1  0.70915400  0.28141700  0.22416600  1
  S  S34  1  0.20915400  0.71858300  0.27583400  1
  S  S35  1  0.29084600  0.71858300  0.77583400  1
  S  S36  1  0.35054500  0.64252100  0.06696900  1
  S  S37  1  0.14945500  0.64252100  0.56696900  1
  S  S38  1  0.64945500  0.35747900  0.93303100  1
  S  S39  1  0.85054500  0.35747900  0.43303100  1
  O  O40  1  0.15732400  0.23863500  0.85958000  1
  O  O41  1  0.34267600  0.23863500  0.35958000  1
  O  O42  1  0.84267600  0.76136500  0.14042000  1
  O  O43  1  0.65732400  0.76136500  0.64042000  1
  O  O44  1  0.04404600  0.55065900  0.16835000  1
  O  O45  1  0.45595400  0.55065900  0.66835000  1
  O  O46  1  0.95595400  0.44934100  0.83165000  1
  O  O47  1  0.54404600  0.44934100  0.33165000  1
  O  O48  1  0.76612900  0.25437900  0.93215700  1
  O  O49  1  0.73387100  0.25437900  0.43215700  1
  O  O50  1  0.23387100  0.74562100  0.06784300  1
  O  O51  1  0.26612900  0.74562100  0.56784300  1
  O  O52  1  0.18565300  0.12853600  0.76496800  1
  O  O53  1  0.31434700  0.12853600  0.26496800  1
  O  O54  1  0.81434700  0.87146400  0.23503200  1
  O  O55  1  0.68565300  0.87146400  0.73503200  1
  O  O56  1  0.96137000  0.02170200  0.92215000  1
  O  O57  1  0.53863000  0.02170200  0.42215000  1
  O  O58  1  0.03863000  0.97829800  0.07785000  1
  O  O59  1  0.46137000  0.97829800  0.57785000  1
  O  O60  1  0.74120000  0.90751800  0.97667200  1
  O  O61  1  0.75880000  0.90751800  0.47667200  1
  O  O62  1  0.25880000  0.09248200  0.02332800  1
  O  O63  1  0.24120000  0.09248200  0.52332800  1
  O  O64  1  0.63975400  0.30503000  0.73345600  1
  O  O65  1  0.86024600  0.30503000  0.23345600  1
  O  O66  1  0.36024600  0.69497000  0.26654400  1
  O  O67  1  0.13975400  0.69497000  0.76654400  1
  O  O68  1  0.95692000  0.77687300  0.00500400  1
  O  O69  1  0.54308000  0.77687300  0.50500400  1
  O  O70  1  0.04308000  0.22312700  0.99499600  1
  O  O71  1  0.45692000  0.22312700  0.49499600  1
  O  O72  1  0.85656000  0.82681500  0.88662000  1
  O  O73  1  0.64344000  0.82681500  0.38662000  1
  O  O74  1  0.14344000  0.17318500  0.11338000  1
  O  O75  1  0.35656000  0.17318500  0.61338000  1
  O  O76  1  0.85356600  0.20084700  0.79434200  1
  O  O77  1  0.64643400  0.20084700  0.29434200  1
  O  O78  1  0.14643400  0.79915300  0.20565800  1
  O  O79  1  0.35356600  0.79915300  0.70565800  1
  O  O80  1  0.43079700  0.70891400  0.00090500  1
  O  O81  1  0.06920300  0.70891400  0.50090500  1
  O  O82  1  0.56920300  0.29108600  0.99909500  1
  O  O83  1  0.93079700  0.29108600  0.49909500  1
  O  O84  1  0.06030400  0.98594800  0.60076700  1
  O  O85  1  0.43969600  0.98594800  0.10076700  1
  O  O86  1  0.93969600  0.01405200  0.39923300  1
  O  O87  1  0.56030400  0.01405200  0.89923300  1
  O  O88  1  0.35960500  0.57428400  0.80624200  1
  O  O89  1  0.14039500  0.57428400  0.30624200  1
  O  O90  1  0.64039500  0.42571600  0.19375800  1
  O  O91  1  0.85960500  0.42571600  0.69375800  1
  O  O92  1  0.36598900  0.27875200  0.78861100  1
  O  O93  1  0.13401100  0.27875200  0.28861100  1
  O  O94  1  0.63401100  0.72124800  0.21138900  1
  O  O95  1  0.86598900  0.72124800  0.71138900  1
  O  O96  1  0.30914800  0.80426400  0.82513500  1
  O  O97  1  0.19085200  0.80426400  0.32513500  1
  O  O98  1  0.69085200  0.19573600  0.17486500  1
  O  O99  1  0.80914800  0.19573600  0.67486500  1
  O  O100  1  0.20394900  0.50101700  0.56888500  1
  O  O101  1  0.29605100  0.50101700  0.06888500  1
  O  O102  1  0.79605100  0.49898300  0.43111500  1
  O  O103  1  0.70394900  0.49898300  0.93111500  1
  O  O104  1  0.15125400  0.38776900  0.73345900  1
  O  O105  1  0.34874600  0.38776900  0.23345900  1
  O  O106  1  0.84874600  0.61223100  0.26654100  1
  O  O107  1  0.65125400  0.61223100  0.76654100  1
  O  O108  1  0.09056500  0.60829200  0.89943200  1
  O  O109  1  0.40943500  0.60829200  0.39943200  1
  O  O110  1  0.90943500  0.39170800  0.10056800  1
  O  O111  1  0.59056500  0.39170800  0.60056800  1
  O  O112  1  0.05474200  0.63324900  0.62912600  1
  O  O113  1  0.44525800  0.63324900  0.12912600  1
  O  O114  1  0.94525800  0.36675100  0.37087400  1
  O  O115  1  0.55474200  0.36675100  0.87087400  1
