# generated using pymatgen
data_CdC2S2(IN2)2
_symmetry_space_group_name_H-M   'P 1'
_cell_length_a   6.10635600
_cell_length_b   11.06232645
_cell_length_c   16.13622052
_cell_angle_alpha   94.75860993
_cell_angle_beta   90.00000000
_cell_angle_gamma   90.00000000
_symmetry_Int_Tables_number   1
_chemical_formula_structural   CdC2S2(IN2)2
_chemical_formula_sum   'Cd4 C8 S8 I8 N16'
_cell_volume   1086.25260814
_cell_formula_units_Z   4
loop_
 _symmetry_equiv_pos_site_id
 _symmetry_equiv_pos_as_xyz
  1  'x, y, z'
loop_
 _atom_site_type_symbol
 _atom_site_label
 _atom_site_symmetry_multiplicity
 _atom_site_fract_x
 _atom_site_fract_y
 _atom_site_fract_z
 _atom_site_occupancy
  Cd  Cd0  1  0.54141300  0.75661900  0.32198700  1
  Cd  Cd1  1  0.04141300  0.24338100  0.17801300  1
  Cd  Cd2  1  0.45858700  0.24338100  0.67801300  1
  Cd  Cd3  1  0.95858700  0.75661900  0.82198700  1
  C  C4  1  0.42304600  0.86950300  0.16507600  1
  C  C5  1  0.92304600  0.13049700  0.33492400  1
  C  C6  1  0.57695400  0.13049700  0.83492400  1
  C  C7  1  0.07695400  0.86950300  0.66507600  1
  C  C8  1  0.60333000  0.74070600  0.61676400  1
  C  C9  1  0.10333000  0.25929400  0.88323600  1
  C  C10  1  0.39667000  0.25929400  0.38323600  1
  C  C11  1  0.89667000  0.74070600  0.11676400  1
  S  S12  1  0.48010400  0.97760300  0.25530300  1
  S  S13  1  0.98010400  0.02239700  0.24469700  1
  S  S14  1  0.51989600  0.02239700  0.74469700  1
  S  S15  1  0.01989600  0.97760300  0.75530300  1
  S  S16  1  0.48615100  0.83272600  0.48348900  1
  S  S17  1  0.98615100  0.16727400  0.01651100  1
  S  S18  1  0.51384900  0.16727400  0.51651100  1
  S  S19  1  0.01384900  0.83272600  0.98348900  1
  I  I20  1  0.12809500  0.70787400  0.42684400  1
  I  I21  1  0.62809500  0.29212600  0.07315600  1
  I  I22  1  0.87190500  0.29212600  0.57315600  1
  I  I23  1  0.37190500  0.70787400  0.92684400  1
  I  I24  1  0.76735900  0.54221500  0.34667800  1
  I  I25  1  0.26735900  0.45778500  0.15332200  1
  I  I26  1  0.23264100  0.45778500  0.65332200  1
  I  I27  1  0.73264100  0.54221500  0.84667800  1
  N  N28  1  0.41534500  0.75977000  0.19010700  1
  N  N29  1  0.91534500  0.24023000  0.30989300  1
  N  N30  1  0.58465500  0.24023000  0.80989300  1
  N  N31  1  0.08465500  0.75977000  0.69010700  1
  N  N32  1  0.39892100  0.91320300  0.09312100  1
  N  N33  1  0.89892100  0.08679700  0.40687900  1
  N  N34  1  0.60107900  0.08679700  0.90687900  1
  N  N35  1  0.10107900  0.91320300  0.59312100  1
  N  N36  1  0.59743500  0.73535900  0.69011500  1
  N  N37  1  0.09743500  0.26464100  0.80988500  1
  N  N38  1  0.40256500  0.26464100  0.30988500  1
  N  N39  1  0.90256500  0.73535900  0.19011500  1
  N  N40  1  0.63256300  0.74366200  0.53731300  1
  N  N41  1  0.13256300  0.25633800  0.96268700  1
  N  N42  1  0.36743700  0.25633800  0.46268700  1
  N  N43  1  0.86743700  0.74366200  0.03731300  1
