# generated using pymatgen
data_NaH6CSNO3
_symmetry_space_group_name_H-M   'P 1'
_cell_length_a   10.70470352
_cell_length_b   10.70470352
_cell_length_c   10.70470343
_cell_angle_alpha   110.78136655
_cell_angle_beta   110.78136655
_cell_angle_gamma   110.78136211
_symmetry_Int_Tables_number   1
_chemical_formula_structural   NaH6CSNO3
_chemical_formula_sum   'Na6 H36 C6 S6 N6 O18'
_cell_volume   895.55860905
_cell_formula_units_Z   6
loop_
 _symmetry_equiv_pos_site_id
 _symmetry_equiv_pos_as_xyz
  1  'x, y, z'
loop_
 _atom_site_type_symbol
 _atom_site_label
 _atom_site_symmetry_multiplicity
 _atom_site_fract_x
 _atom_site_fract_y
 _atom_site_fract_z
 _atom_site_occupancy
  Na  Na0  1  0.17949100  0.53326500  0.99866800  1
  Na  Na1  1  0.99866800  0.17949100  0.53326500  1
  Na  Na2  1  0.53326500  0.99866800  0.17949100  1
  Na  Na3  1  0.82050900  0.46673500  0.00133200  1
  Na  Na4  1  0.00133200  0.82050900  0.46673500  1
  Na  Na5  1  0.46673500  0.00133200  0.82050900  1
  H  H6  1  0.12473800  0.77820400  0.11672400  1
  H  H7  1  0.11672400  0.12473800  0.77820400  1
  H  H8  1  0.77820400  0.11672400  0.12473800  1
  H  H9  1  0.87526200  0.22179600  0.88327600  1
  H  H10  1  0.88327600  0.87526200  0.22179600  1
  H  H11  1  0.22179600  0.88327600  0.87526200  1
  H  H12  1  0.97504200  0.67301800  0.93834200  1
  H  H13  1  0.93834200  0.97504200  0.67301800  1
  H  H14  1  0.67301800  0.93834200  0.97504200  1
  H  H15  1  0.02495800  0.32698200  0.06165800  1
  H  H16  1  0.06165800  0.02495800  0.32698200  1
  H  H17  1  0.32698200  0.06165800  0.02495800  1
  H  H18  1  0.26371000  0.55773000  0.27662300  1
  H  H19  1  0.27662300  0.26371000  0.55773000  1
  H  H20  1  0.55773000  0.27662300  0.26371000  1
  H  H21  1  0.73629000  0.44227000  0.72337700  1
  H  H22  1  0.72337700  0.73629000  0.44227000  1
  H  H23  1  0.44227000  0.72337700  0.73629000  1
  H  H24  1  0.38664800  0.74480500  0.37594900  1
  H  H25  1  0.37594900  0.38664800  0.74480500  1
  H  H26  1  0.74480500  0.37594900  0.38664800  1
  H  H27  1  0.61335200  0.25519500  0.62405100  1
  H  H28  1  0.62405100  0.61335200  0.25519500  1
  H  H29  1  0.25519500  0.62405100  0.61335200  1
  H  H30  1  0.99627600  0.46827000  0.68436000  1
  H  H31  1  0.68436000  0.99627600  0.46827000  1
  H  H32  1  0.46827000  0.68436000  0.99627600  1
  H  H33  1  0.00372400  0.53173000  0.31564000  1
  H  H34  1  0.31564000  0.00372400  0.53173000  1
  H  H35  1  0.53173000  0.31564000  0.00372400  1
  H  H36  1  0.88966900  0.34713500  0.70304200  1
  H  H37  1  0.70304200  0.88966900  0.34713500  1
  H  H38  1  0.34713500  0.70304200  0.88966900  1
  H  H39  1  0.11033100  0.65286500  0.29695800  1
  H  H40  1  0.29695800  0.11033100  0.65286500  1
  H  H41  1  0.65286500  0.29695800  0.11033100  1
  C  C42  1  0.29647700  0.30736600  0.17004100  1
  C  C43  1  0.17004100  0.29647700  0.30736600  1
  C  C44  1  0.30736600  0.17004100  0.29647700  1
  C  C45  1  0.70352300  0.69263400  0.82995900  1
  C  C46  1  0.82995900  0.70352300  0.69263400  1
  C  C47  1  0.69263400  0.82995900  0.70352300  1
  S  S48  1  0.34161100  0.36671700  0.05306600  1
  S  S49  1  0.05306600  0.34161100  0.36671700  1
  S  S50  1  0.36671700  0.05306600  0.34161100  1
  S  S51  1  0.65838900  0.63328300  0.94693400  1
  S  S52  1  0.94693400  0.65838900  0.63328300  1
  S  S53  1  0.63328300  0.94693400  0.65838900  1
  N  N54  1  0.20785100  0.34888200  0.21912300  1
  N  N55  1  0.21912300  0.20785100  0.34888200  1
  N  N56  1  0.34888200  0.21912300  0.20785100  1
  N  N57  1  0.79214900  0.65111800  0.78087700  1
  N  N58  1  0.78087700  0.79214900  0.65111800  1
  N  N59  1  0.65111800  0.78087700  0.79214900  1
  O  O60  1  0.04659500  0.66818400  0.02331500  1
  O  O61  1  0.02331500  0.04659500  0.66818400  1
  O  O62  1  0.66818400  0.02331500  0.04659500  1
  O  O63  1  0.95340500  0.33181600  0.97668500  1
  O  O64  1  0.97668500  0.95340500  0.33181600  1
  O  O65  1  0.33181600  0.97668500  0.95340500  1
  O  O66  1  0.27782200  0.65749000  0.28296000  1
  O  O67  1  0.28296000  0.27782200  0.65749000  1
  O  O68  1  0.65749000  0.28296000  0.27782200  1
  O  O69  1  0.72217800  0.34251000  0.71704000  1
  O  O70  1  0.71704000  0.72217800  0.34251000  1
  O  O71  1  0.34251000  0.71704000  0.72217800  1
  O  O72  1  0.99003900  0.38445300  0.70537900  1
  O  O73  1  0.70537900  0.99003900  0.38445300  1
  O  O74  1  0.38445300  0.70537900  0.99003900  1
  O  O75  1  0.00996100  0.61554700  0.29462100  1
  O  O76  1  0.29462100  0.00996100  0.61554700  1
  O  O77  1  0.61554700  0.29462100  0.00996100  1
