# generated using pymatgen
data_Na4Sn2Ge5O17
_symmetry_space_group_name_H-M   'P 1'
_cell_length_a   5.45547400
_cell_length_b   7.08440400
_cell_length_c   20.43233033
_cell_angle_alpha   86.75270129
_cell_angle_beta   90.00000000
_cell_angle_gamma   90.00000000
_symmetry_Int_Tables_number   1
_chemical_formula_structural   Na4Sn2Ge5O17
_chemical_formula_sum   'Na8 Sn4 Ge10 O34'
_cell_volume   788.41671381
_cell_formula_units_Z   2
loop_
 _symmetry_equiv_pos_site_id
 _symmetry_equiv_pos_as_xyz
  1  'x, y, z'
loop_
 _atom_site_type_symbol
 _atom_site_label
 _atom_site_symmetry_multiplicity
 _atom_site_fract_x
 _atom_site_fract_y
 _atom_site_fract_z
 _atom_site_occupancy
  Na  Na0  1  0.76636900  0.20945000  0.54037300  1
  Na  Na1  1  0.76636900  0.79055000  0.45962700  1
  Na  Na2  1  0.01176600  0.60606400  0.77899400  1
  Na  Na3  1  0.01176600  0.39393600  0.22100600  1
  Na  Na4  1  0.77043000  0.30149700  0.95977300  1
  Na  Na5  1  0.77043000  0.69850300  0.04022700  1
  Na  Na6  1  0.52516900  0.88133000  0.72315300  1
  Na  Na7  1  0.52516900  0.11867000  0.27684700  1
  Sn  Sn8  1  0.01060500  0.04676000  0.84019500  1
  Sn  Sn9  1  0.01060500  0.95324000  0.15980500  1
  Sn  Sn10  1  0.52977200  0.45466100  0.66089300  1
  Sn  Sn11  1  0.52977200  0.54533900  0.33910700  1
  Ge  Ge12  1  0.05079900  0.14045300  0.67429200  1
  Ge  Ge13  1  0.05079900  0.85954700  0.32570800  1
  Ge  Ge14  1  0.52096900  0.76837100  0.88489100  1
  Ge  Ge15  1  0.52096900  0.23162900  0.11510900  1
  Ge  Ge16  1  0.48748100  0.35960000  0.82667700  1
  Ge  Ge17  1  0.48748100  0.64040000  0.17332300  1
  Ge  Ge18  1  0.02321600  0.73297000  0.61559100  1
  Ge  Ge19  1  0.02321600  0.26703000  0.38440900  1
  Ge  Ge20  1  0.27662000  0.00000000  0.00000000  1
  Ge  Ge21  1  0.26853400  0.50000000  0.50000000  1
  O  O22  1  0.48650600  0.51690800  0.89370100  1
  O  O23  1  0.48650600  0.48309200  0.10629900  1
  O  O24  1  0.48006100  0.82982400  0.96822500  1
  O  O25  1  0.48006100  0.17017600  0.03177500  1
  O  O26  1  0.09776600  0.10722600  0.93745100  1
  O  O27  1  0.09776600  0.89277400  0.06254900  1
  O  O28  1  0.60490100  0.49748800  0.75891700  1
  O  O29  1  0.60490100  0.50251200  0.24108300  1
  O  O30  1  0.23146100  0.63803500  0.67428600  1
  O  O31  1  0.23146100  0.36196500  0.32571400  1
  O  O32  1  0.71594000  0.70677100  0.63949000  1
  O  O33  1  0.71594000  0.29322900  0.36051000  1
  O  O34  1  0.45378200  0.40987200  0.56334000  1
  O  O35  1  0.45378200  0.59012800  0.43666000  1
  O  O36  1  0.36207600  0.19796200  0.68718100  1
  O  O37  1  0.36207600  0.80203800  0.31281900  1
  O  O38  1  0.67826600  0.17782900  0.85920700  1
  O  O39  1  0.67826600  0.82217100  0.14079300  1
  O  O40  1  0.83431900  0.79460900  0.86531000  1
  O  O41  1  0.83431900  0.20539100  0.13469000  1
  O  O42  1  0.17604300  0.30336000  0.81425600  1
  O  O43  1  0.17604300  0.69664000  0.18574400  1
  O  O44  1  0.92634800  0.00673100  0.74239000  1
  O  O45  1  0.92634800  0.99326900  0.25761000  1
  O  O46  1  0.86368500  0.32468700  0.64190800  1
  O  O47  1  0.86368500  0.67531300  0.35809200  1
  O  O48  1  0.05472900  0.98614300  0.60581200  1
  O  O49  1  0.05472900  0.01385700  0.39418800  1
  O  O50  1  0.06323400  0.67171200  0.53169000  1
  O  O51  1  0.06323400  0.32828800  0.46831000  1
  O  O52  1  0.31433400  0.86872400  0.82691400  1
  O  O53  1  0.31433400  0.13127600  0.17308600  1
  O  O54  1  0.46066000  0.00000000  0.50000000  1
  O  O55  1  0.08783600  0.50000000  0.00000000  1
