# generated using pymatgen
data_CuH36S8N11O18
_symmetry_space_group_name_H-M   'P 1'
_cell_length_a   12.49698724
_cell_length_b   12.49698724
_cell_length_c   12.49698724
_cell_angle_alpha   114.60315332
_cell_angle_beta   114.60315332
_cell_angle_gamma   99.63310017
_symmetry_Int_Tables_number   1
_chemical_formula_structural   CuH36S8N11O18
_chemical_formula_sum   'Cu2 H72 S16 N22 O36'
_cell_volume   1470.04968830
_cell_formula_units_Z   2
loop_
 _symmetry_equiv_pos_site_id
 _symmetry_equiv_pos_as_xyz
  1  'x, y, z'
loop_
 _atom_site_type_symbol
 _atom_site_label
 _atom_site_symmetry_multiplicity
 _atom_site_fract_x
 _atom_site_fract_y
 _atom_site_fract_z
 _atom_site_occupancy
  Cu  Cu0  1  0.75000000  0.25000000  0.50000000  1
  Cu  Cu1  1  0.00000000  0.00000000  0.00000000  1
  H  H2  1  0.22291100  0.78835700  0.43846100  1
  H  H3  1  0.40010400  0.46164300  0.93455400  1
  H  H4  1  0.34989600  0.78445000  0.56153900  1
  H  H5  1  0.52708900  0.46555000  0.06544600  1
  H  H6  1  0.21555000  0.77708900  0.56544600  1
  H  H7  1  0.53835700  0.47291100  0.93846100  1
  H  H8  1  0.21164300  0.65010400  0.43455400  1
  H  H9  1  0.53445000  0.59989600  0.06153900  1
  H  H10  1  0.99317500  0.53649100  0.57577000  1
  H  H11  1  0.78927800  0.71350900  0.95668400  1
  H  H12  1  0.96072200  0.41740600  0.42423000  1
  H  H13  1  0.75682500  0.83259400  0.04331600  1
  H  H14  1  0.58259400  0.00682500  0.54331600  1
  H  H15  1  0.28649100  0.24317500  0.07577000  1
  H  H16  1  0.46350900  0.03927800  0.45668400  1
  H  H17  1  0.16740600  0.21072200  0.92423000  1
  H  H18  1  0.98900300  0.56786100  0.45622300  1
  H  H19  1  0.63836200  0.68213900  0.92114200  1
  H  H20  1  0.11163800  0.53278000  0.54377700  1
  H  H21  1  0.76099800  0.71722000  0.07885800  1
  H  H22  1  0.46722000  0.01099800  0.57885800  1
  H  H23  1  0.31786100  0.23900300  0.95622300  1
  H  H24  1  0.43213900  0.88836200  0.42114200  1
  H  H25  1  0.28278000  0.36163800  0.04377700  1
  H  H26  1  0.82193100  0.58032400  0.75897400  1
  H  H27  1  0.92865000  0.66967600  0.74160700  1
  H  H28  1  0.82135000  0.06295700  0.24102600  1
  H  H29  1  0.92806900  0.18704300  0.25839300  1
  H  H30  1  0.93704300  0.17806900  0.75839300  1
  H  H31  1  0.33032400  0.07193100  0.25897400  1
  H  H32  1  0.41967600  0.17865000  0.24160700  1
  H  H33  1  0.81295700  0.07135000  0.74102600  1
  H  H34  1  0.95701200  0.55690300  0.77707600  1
  H  H35  1  0.97017400  0.69309700  0.90010900  1
  H  H36  1  0.77982600  0.17993600  0.22292400  1
  H  H37  1  0.79298800  0.07006400  0.09989100  1
  H  H38  1  0.82006400  0.04298800  0.59989100  1
  H  H39  1  0.30690300  0.20701200  0.27707600  1
  H  H40  1  0.44309700  0.22017400  0.40010900  1
  H  H41  1  0.92993600  0.02982600  0.72292400  1
  H  H42  1  0.99224600  0.04396200  0.48089500  1
  H  H43  1  0.18693300  0.20603800  0.44828400  1
  H  H44  1  0.56306700  0.51135100  0.51910500  1
  H  H45  1  0.75775400  0.73864900  0.55171600  1
  H  H46  1  0.48864900  0.00775400  0.05171600  1
  H  H47  1  0.79396200  0.24224600  0.98089500  1
  H  H48  1  0.95603800  0.43693300  0.94828400  1
  H  H49  1  0.26135100  0.81306700  0.01910500  1
  H  H50  1  0.91824600  0.88211200  0.37974300  1
  H  H51  1  0.24763000  0.36788800  0.53613300  1
  H  H52  1  0.50237000  0.53850300  0.62025700  1
  H  H53  1  0.83175400  0.71149700  0.46386700  1
  H  H54  1  0.46149700  0.08175400  0.96386700  1
  H  H55  1  0.63211200  0.16824600  0.87974300  1
  H  H56  1  0.11788800  0.49763000  0.03613300  1
  H  H57  1  0.28850300  0.75237000  0.12025700  1
  H  H58  1  0.07437100  0.95336300  0.44091000  1
  H  H59  1  0.23754800  0.29663700  0.62100900  1
  H  H60  1  0.51245200  0.63346100  0.55909000  1
  H  H61  1  0.67562900  0.61653900  0.37899100  1
  H  H62  1  0.36653900  0.92562900  0.87899100  1
  H  H63  1  0.70336300  0.32437100  0.94091000  1
  H  H64  1  0.04663700  0.48754800  0.12100900  1
  H  H65  1  0.38346100  0.76245200  0.05909000  1
  H  H66  1  0.02956600  0.95651700  0.55373400  1
  H  H67  1  0.34721700  0.29348300  0.57304900  1
  H  H68  1  0.40278300  0.47583200  0.44626600  1
  H  H69  1  0.72043400  0.77416800  0.42695100  1
  H  H70  1  0.52416800  0.97043400  0.92695100  1
  H  H71  1  0.70651700  0.27956600  0.05373400  1
  H  H72  1  0.04348300  0.59721700  0.07304900  1
  H  H73  1  0.22583200  0.65278300  0.94626600  1
  S  S74  1  0.95344200  0.24800100  0.54466300  1
  S  S75  1  0.04666200  0.00199900  0.20544100  1
  S  S76  1  0.70333800  0.40877900  0.45533700  1
  S  S77  1  0.79655800  0.84122100  0.79455900  1
  S  S78  1  0.59122100  0.04655800  0.29455900  1
  S  S79  1  0.99800100  0.20344200  0.04466300  1
  S  S80  1  0.75199900  0.29666200  0.70544100  1
  S  S81  1  0.15877900  0.95333800  0.95533700  1
  S  S82  1  0.09432900  0.37327100  0.75297900  1
  S  S83  1  0.12970800  0.87672900  0.22105800  1
  S  S84  1  0.62029200  0.34135000  0.24702100  1
  S  S85  1  0.65567100  0.90865000  0.77894200  1
  S  S86  1  0.65865000  0.90567100  0.27894200  1
  S  S87  1  0.12327100  0.34432900  0.25297900  1
  S  S88  1  0.62672900  0.37970800  0.72105800  1
  S  S89  1  0.09135000  0.87029200  0.74702100  1
  N  N90  1  0.25000000  0.75000000  0.50000000  1
  N  N91  1  0.50000000  0.50000000  0.00000000  1
  N  N92  1  0.01383900  0.51383900  0.50000000  1
  N  N93  1  0.73616100  0.73616100  0.00000000  1
  N  N94  1  0.48616100  0.98616100  0.50000000  1
  N  N95  1  0.26383900  0.26383900  0.00000000  1
  N  N96  1  0.91811100  0.62500000  0.79311100  1
  N  N97  1  0.83188900  0.12500000  0.20688900  1
  N  N98  1  0.87500000  0.08188900  0.70688900  1
  N  N99  1  0.37500000  0.16811100  0.29311100  1
  N  N100  1  0.00462000  0.96012200  0.46506800  1
  N  N101  1  0.25494600  0.28987800  0.54449900  1
  N  N102  1  0.49505400  0.53955300  0.53493200  1
  N  N103  1  0.74538000  0.71044700  0.45550100  1
  N  N104  1  0.46044700  0.99538000  0.95550100  1
  N  N105  1  0.71012200  0.25462000  0.96506800  1
  N  N106  1  0.03987800  0.50494600  0.04449900  1
  N  N107  1  0.28955300  0.74505400  0.03493200  1
  N  N108  1  0.37992800  0.12500000  0.75492800  1
  N  N109  1  0.37007200  0.62500000  0.24507200  1
  N  N110  1  0.37500000  0.62007200  0.74507200  1
  N  N111  1  0.87500000  0.62992800  0.25492800  1
  O  O112  1  0.41998100  0.19594500  0.88474400  1
  O  O113  1  0.43880000  0.05405500  0.72403700  1
  O  O114  1  0.31120000  0.53523700  0.11525600  1
  O  O115  1  0.33001900  0.71476300  0.27596300  1
  O  O116  1  0.46476300  0.58001900  0.77596300  1
  O  O117  1  0.94594500  0.66998100  0.38474400  1
  O  O118  1  0.80405500  0.68880000  0.22403700  1
  O  O119  1  0.28523700  0.56120000  0.61525600  1
  O  O120  1  0.28774000  0.12500000  0.66274000  1
  O  O121  1  0.46226000  0.62500000  0.33726000  1
  O  O122  1  0.37500000  0.71226000  0.83726000  1
  O  O123  1  0.87500000  0.53774000  0.16274000  1
  O  O124  1  0.08917600  0.50240800  0.79763100  1
  O  O125  1  0.04522200  0.74759200  0.08676800  1
  O  O126  1  0.70477800  0.29154600  0.20236900  1
  O  O127  1  0.66082400  0.95845400  0.91323200  1
  O  O128  1  0.70845400  0.91082400  0.41323200  1
  O  O129  1  0.25240800  0.33917600  0.29763100  1
  O  O130  1  0.49759200  0.29522200  0.58676800  1
  O  O131  1  0.04154600  0.95477800  0.70236900  1
  O  O132  1  0.22247000  0.38283700  0.77357900  1
  O  O133  1  0.14074200  0.86716300  0.33963300  1
  O  O134  1  0.60925800  0.44889100  0.22642100  1
  O  O135  1  0.52753000  0.80110900  0.66036700  1
  O  O136  1  0.55110900  0.77753000  0.16036700  1
  O  O137  1  0.13283700  0.47247000  0.27357900  1
  O  O138  1  0.61716300  0.39074200  0.83963300  1
  O  O139  1  0.19889100  0.85925800  0.72642100  1
  O  O140  1  0.06842200  0.32289300  0.83247500  1
  O  O141  1  0.25958300  0.92710700  0.24553000  1
  O  O142  1  0.49041700  0.23594700  0.16752500  1
  O  O143  1  0.68157800  0.01405300  0.75447000  1
  O  O144  1  0.76405300  0.93157800  0.25447000  1
  O  O145  1  0.07289300  0.31842200  0.33247500  1
  O  O146  1  0.67710700  0.50958300  0.74553000  1
  O  O147  1  0.98594700  0.74041700  0.66752500  1
