# generated using pymatgen
data_PuP2H4CO7
_symmetry_space_group_name_H-M   'P 1'
_cell_length_a   8.84722716
_cell_length_b   8.86947314
_cell_length_c   9.75309697
_cell_angle_alpha   71.10712759
_cell_angle_beta   71.73905019
_cell_angle_gamma   81.69825214
_symmetry_Int_Tables_number   1
_chemical_formula_structural   PuP2H4CO7
_chemical_formula_sum   'Pu4 P8 H16 C4 O28'
_cell_volume   686.84511495
_cell_formula_units_Z   4
loop_
 _symmetry_equiv_pos_site_id
 _symmetry_equiv_pos_as_xyz
  1  'x, y, z'
loop_
 _atom_site_type_symbol
 _atom_site_label
 _atom_site_symmetry_multiplicity
 _atom_site_fract_x
 _atom_site_fract_y
 _atom_site_fract_z
 _atom_site_occupancy
  Pu  Pu0  1  0.68704900  0.94717300  0.21998500  1
  Pu  Pu1  1  0.31295100  0.05282700  0.78001500  1
  Pu  Pu2  1  0.17279100  0.42426100  0.22184400  1
  Pu  Pu3  1  0.82720900  0.57573900  0.77815600  1
  P  P4  1  0.51954200  0.27091500  0.38395300  1
  P  P5  1  0.48045800  0.72908500  0.61604700  1
  P  P6  1  0.27510800  0.02229800  0.18465700  1
  P  P7  1  0.72489200  0.97770200  0.81534300  1
  P  P8  1  0.98096800  0.23044500  0.62939000  1
  P  P9  1  0.01903200  0.76955500  0.37061000  1
  P  P10  1  0.22870700  0.46191000  0.82989900  1
  P  P11  1  0.77129300  0.53809000  0.17010100  1
  H  H12  1  0.71817300  0.21934700  0.62129300  1
  H  H13  1  0.28182700  0.78065300  0.37870700  1
  H  H14  1  0.84552700  0.07277700  0.54885700  1
  H  H15  1  0.15447300  0.92722300  0.45114300  1
  H  H16  1  0.69690000  0.41512900  0.43266200  1
  H  H17  1  0.30310000  0.58487100  0.56733800  1
  H  H18  1  0.54033400  0.53847000  0.37248100  1
  H  H19  1  0.45966600  0.46153000  0.62751900  1
  H  H20  1  0.93114700  0.19232200  0.95617800  1
  H  H21  1  0.06885300  0.80767800  0.04382200  1
  H  H22  1  0.36854800  0.74509600  0.08111000  1
  H  H23  1  0.63145200  0.25490400  0.91889000  1
  H  H24  1  0.50193500  0.60292800  0.08140800  1
  H  H25  1  0.49806500  0.39707200  0.91859200  1
  H  H26  1  0.96264800  0.18769100  0.10926800  1
  H  H27  1  0.03735200  0.81230900  0.89073200  1
  C  C28  1  0.81336500  0.12796800  0.64072700  1
  C  C29  1  0.18663500  0.87203200  0.35927300  1
  C  C30  1  0.62981300  0.44380900  0.34903900  1
  C  C31  1  0.37018700  0.55619100  0.65096100  1
  O  O32  1  0.07810500  0.66370500  0.26476500  1
  O  O33  1  0.92189500  0.33629500  0.73523500  1
  O  O34  1  0.38654500  0.32482000  0.30586300  1
  O  O35  1  0.61345500  0.67518000  0.69413700  1
  O  O36  1  0.44827000  0.02888800  0.18654800  1
  O  O37  1  0.55173000  0.97111200  0.81345200  1
  O  O38  1  0.93639100  0.45366600  0.17109600  1
  O  O39  1  0.06360900  0.54633400  0.82890400  1
  O  O40  1  0.73007200  0.02691600  0.95005500  1
  O  O41  1  0.26992800  0.97308400  0.04994500  1
  O  O42  1  0.03901800  0.32920500  0.46150300  1
  O  O43  1  0.96098200  0.67079500  0.53849700  1
  O  O44  1  0.89089300  0.89413400  0.32268200  1
  O  O45  1  0.10910700  0.10586600  0.67731800  1
  O  O46  1  0.17917300  0.18120400  0.19417400  1
  O  O47  1  0.82082700  0.81879600  0.80582600  1
  O  O48  1  0.76753300  0.71402700  0.16725200  1
  O  O49  1  0.23246700  0.28597300  0.83274800  1
  O  O50  1  0.89380800  0.15116500  0.06632000  1
  O  O51  1  0.10619200  0.84883500  0.93368000  1
  O  O52  1  0.28320400  0.47524800  0.96143800  1
  O  O53  1  0.71679600  0.52475200  0.03856200  1
  O  O54  1  0.54921100  0.78700900  0.44158800  1
  O  O55  1  0.45078900  0.21299100  0.55841200  1
  O  O56  1  0.39110900  0.63214600  0.13066500  1
  O  O57  1  0.60889100  0.36785400  0.86933500  1
  O  O58  1  0.63607300  0.14387700  0.32666300  1
  O  O59  1  0.36392700  0.85612300  0.67333700  1
