# generated using pymatgen
data_CdH2C4(S3N2)2
_symmetry_space_group_name_H-M   'P 1'
_cell_length_a   8.05189300
_cell_length_b   11.93366800
_cell_length_c   13.02901000
_cell_angle_alpha   90.00000000
_cell_angle_beta   90.00000000
_cell_angle_gamma   90.00000000
_symmetry_Int_Tables_number   1
_chemical_formula_structural   CdH2C4(S3N2)2
_chemical_formula_sum   'Cd4 H8 C16 S24 N16'
_cell_volume   1251.93956264
_cell_formula_units_Z   4
loop_
 _symmetry_equiv_pos_site_id
 _symmetry_equiv_pos_as_xyz
  1  'x, y, z'
loop_
 _atom_site_type_symbol
 _atom_site_label
 _atom_site_symmetry_multiplicity
 _atom_site_fract_x
 _atom_site_fract_y
 _atom_site_fract_z
 _atom_site_occupancy
  Cd  Cd0  1  0.75000000  0.14217900  0.00000000  1
  Cd  Cd1  1  0.25000000  0.35782100  0.50000000  1
  Cd  Cd2  1  0.25000000  0.85782100  0.00000000  1
  Cd  Cd3  1  0.75000000  0.64217900  0.50000000  1
  H  H4  1  0.91487400  0.34193400  0.33010700  1
  H  H5  1  0.41487400  0.15806600  0.16989300  1
  H  H6  1  0.08512600  0.15806600  0.83010700  1
  H  H7  1  0.58512600  0.34193400  0.66989300  1
  H  H8  1  0.08512600  0.65806600  0.66989300  1
  H  H9  1  0.58512600  0.84193400  0.83010700  1
  H  H10  1  0.91487400  0.84193400  0.16989300  1
  H  H11  1  0.41487400  0.65806600  0.33010700  1
  C  C12  1  0.79507600  0.10717200  0.25142100  1
  C  C13  1  0.29507600  0.39282800  0.24857900  1
  C  C14  1  0.20492400  0.39282800  0.75142100  1
  C  C15  1  0.70492400  0.10717200  0.74857900  1
  C  C16  1  0.20492400  0.89282800  0.74857900  1
  C  C17  1  0.70492400  0.60717200  0.75142100  1
  C  C18  1  0.79507600  0.60717200  0.24857900  1
  C  C19  1  0.29507600  0.89282800  0.25142100  1
  C  C20  1  0.92324300  0.18873900  0.40774200  1
  C  C21  1  0.42324300  0.31126100  0.09225800  1
  C  C22  1  0.07675700  0.31126100  0.90774200  1
  C  C23  1  0.57675700  0.18873900  0.59225800  1
  C  C24  1  0.07675700  0.81126100  0.59225800  1
  C  C25  1  0.57675700  0.68873900  0.90774200  1
  C  C26  1  0.92324300  0.68873900  0.09225800  1
  C  C27  1  0.42324300  0.81126100  0.40774200  1
  S  S28  1  0.70455600  0.02109700  0.16127500  1
  S  S29  1  0.20455600  0.47890300  0.33872500  1
  S  S30  1  0.29544400  0.47890300  0.66127500  1
  S  S31  1  0.79544400  0.02109700  0.83872500  1
  S  S32  1  0.29544400  0.97890300  0.83872500  1
  S  S33  1  0.79544400  0.52109700  0.66127500  1
  S  S34  1  0.70455600  0.52109700  0.33872500  1
  S  S35  1  0.20455600  0.97890300  0.16127500  1
  S  S36  1  0.86063800  0.05521500  0.37131000  1
  S  S37  1  0.36063800  0.44478500  0.12869000  1
  S  S38  1  0.13936200  0.44478500  0.87131000  1
  S  S39  1  0.63936200  0.05521500  0.62869000  1
  S  S40  1  0.13936200  0.94478500  0.62869000  1
  S  S41  1  0.63936200  0.55521500  0.87131000  1
  S  S42  1  0.86063800  0.55521500  0.12869000  1
  S  S43  1  0.36063800  0.94478500  0.37131000  1
  S  S44  1  0.99859500  0.22100800  0.52540200  1
  S  S45  1  0.49859500  0.27899200  0.97459800  1
  S  S46  1  0.00140500  0.27899200  0.02540200  1
  S  S47  1  0.50140500  0.22100800  0.47459800  1
  S  S48  1  0.00140500  0.77899200  0.47459800  1
  S  S49  1  0.50140500  0.72100800  0.02540200  1
  S  S50  1  0.99859500  0.72100800  0.97459800  1
  S  S51  1  0.49859500  0.77899200  0.52540200  1
  N  N52  1  0.89457500  0.25683700  0.32754000  1
  N  N53  1  0.39457500  0.24316300  0.17246000  1
  N  N54  1  0.10542500  0.24316300  0.82754000  1
  N  N55  1  0.60542500  0.25683700  0.67246000  1
  N  N56  1  0.10542500  0.74316300  0.67246000  1
  N  N57  1  0.60542500  0.75683700  0.82754000  1
  N  N58  1  0.89457500  0.75683700  0.17246000  1
  N  N59  1  0.39457500  0.74316300  0.32754000  1
  N  N60  1  0.82374600  0.21510500  0.24109600  1
  N  N61  1  0.32374600  0.28489500  0.25890400  1
  N  N62  1  0.17625400  0.28489500  0.74109600  1
  N  N63  1  0.67625400  0.21510500  0.75890400  1
  N  N64  1  0.17625400  0.78489500  0.75890400  1
  N  N65  1  0.67625400  0.71510500  0.74109600  1
  N  N66  1  0.82374600  0.71510500  0.25890400  1
  N  N67  1  0.32374600  0.78489500  0.24109600  1
