# generated using pymatgen
data_MgSiO3
_symmetry_space_group_name_H-M   'P 1'
_cell_length_a   5.38500900
_cell_length_b   8.83255400
_cell_length_c   9.39323200
_cell_angle_alpha   90.00000000
_cell_angle_beta   90.00000000
_cell_angle_gamma   90.00000000
_symmetry_Int_Tables_number   1
_chemical_formula_structural   MgSiO3
_chemical_formula_sum   'Mg8 Si8 O24'
_cell_volume   446.77388919
_cell_formula_units_Z   8
loop_
 _symmetry_equiv_pos_site_id
 _symmetry_equiv_pos_as_xyz
  1  'x, y, z'
loop_
 _atom_site_type_symbol
 _atom_site_label
 _atom_site_symmetry_multiplicity
 _atom_site_fract_x
 _atom_site_fract_y
 _atom_site_fract_z
 _atom_site_occupancy
  Mg  Mg0  1  0.76174000  0.48696800  0.99707700  1
  Mg  Mg1  1  0.23826000  0.51303200  0.49707700  1
  Mg  Mg2  1  0.73826000  0.98696800  0.49707700  1
  Mg  Mg3  1  0.26174000  0.01303200  0.99707700  1
  Mg  Mg4  1  0.26423800  0.65105400  0.00103500  1
  Mg  Mg5  1  0.73576200  0.34894600  0.50103500  1
  Mg  Mg6  1  0.23576200  0.15105400  0.50103500  1
  Mg  Mg7  1  0.76423800  0.84894600  0.00103500  1
  Si  Si8  1  0.57066200  0.65783100  0.70837300  1
  Si  Si9  1  0.42933800  0.34216900  0.20837300  1
  Si  Si10  1  0.92933800  0.15783100  0.20837300  1
  Si  Si11  1  0.07066200  0.84216900  0.70837300  1
  Si  Si12  1  0.56807700  0.15960900  0.78978300  1
  Si  Si13  1  0.43192300  0.84039100  0.28978300  1
  Si  Si14  1  0.93192300  0.65960900  0.28978300  1
  Si  Si15  1  0.06807700  0.34039100  0.78978300  1
  O  O16  1  0.58669100  0.65486500  0.88192000  1
  O  O17  1  0.41330900  0.34513500  0.38192000  1
  O  O18  1  0.91330900  0.15486500  0.38192000  1
  O  O19  1  0.08669100  0.84513500  0.88192000  1
  O  O20  1  0.31387300  0.74478900  0.65056300  1
  O  O21  1  0.68612700  0.25521100  0.15056300  1
  O  O22  1  0.18612700  0.24478900  0.15056300  1
  O  O23  1  0.81387300  0.75521100  0.65056300  1
  O  O24  1  0.54661700  0.49945700  0.62444100  1
  O  O25  1  0.45338300  0.50054300  0.12444100  1
  O  O26  1  0.95338300  0.99945700  0.12444100  1
  O  O27  1  0.04661700  0.00054300  0.62444100  1
  O  O28  1  0.56800100  0.15503100  0.61617500  1
  O  O29  1  0.43199900  0.84496900  0.11617500  1
  O  O30  1  0.93199900  0.65503100  0.11617500  1
  O  O31  1  0.06800100  0.34496900  0.61617500  1
  O  O32  1  0.28674400  0.21981200  0.84529900  1
  O  O33  1  0.71325600  0.78018800  0.34529900  1
  O  O34  1  0.21325600  0.71981200  0.34529900  1
  O  O35  1  0.78674400  0.28018800  0.84529900  1
  O  O36  1  0.58276700  0.00390400  0.87793500  1
  O  O37  1  0.41723300  0.99609600  0.37793500  1
  O  O38  1  0.91723300  0.50390400  0.37793500  1
  O  O39  1  0.08276700  0.49609600  0.87793500  1
