# generated using pymatgen
data_BiH18C3S3(O2F)9
_symmetry_space_group_name_H-M   'P 1'
_cell_length_a   14.07367159
_cell_length_b   14.07367159
_cell_length_c   7.31179100
_cell_angle_alpha   90.00000000
_cell_angle_beta   90.00000000
_cell_angle_gamma   119.99999806
_symmetry_Int_Tables_number   1
_chemical_formula_structural   BiH18C3S3(O2F)9
_chemical_formula_sum   'Bi2 H36 C6 S6 O36 F18'
_cell_volume   1254.20703976
_cell_formula_units_Z   2
loop_
 _symmetry_equiv_pos_site_id
 _symmetry_equiv_pos_as_xyz
  1  'x, y, z'
loop_
 _atom_site_type_symbol
 _atom_site_label
 _atom_site_symmetry_multiplicity
 _atom_site_fract_x
 _atom_site_fract_y
 _atom_site_fract_z
 _atom_site_occupancy
  Bi  Bi0  1  0.33333300  0.66666700  0.75000000  1
  Bi  Bi1  1  0.66666700  0.33333300  0.25000000  1
  H  H2  1  0.36245400  0.86917400  0.54122400  1
  H  H3  1  0.13082600  0.49328000  0.54122400  1
  H  H4  1  0.50672000  0.63754600  0.54122400  1
  H  H5  1  0.63754600  0.13082600  0.04122400  1
  H  H6  1  0.86917400  0.50672000  0.04122400  1
  H  H7  1  0.49328000  0.36245400  0.04122400  1
  H  H8  1  0.63754600  0.13082600  0.45877600  1
  H  H9  1  0.86917400  0.50672000  0.45877600  1
  H  H10  1  0.49328000  0.36245400  0.45877600  1
  H  H11  1  0.36245400  0.86917400  0.95877600  1
  H  H12  1  0.13082600  0.49328000  0.95877600  1
  H  H13  1  0.50672000  0.63754600  0.95877600  1
  H  H14  1  0.27594600  0.76777500  0.42583300  1
  H  H15  1  0.23222500  0.50817100  0.42583300  1
  H  H16  1  0.49182900  0.72405400  0.42583300  1
  H  H17  1  0.72405400  0.23222500  0.92583300  1
  H  H18  1  0.76777500  0.49182900  0.92583300  1
  H  H19  1  0.50817100  0.27594600  0.92583300  1
  H  H20  1  0.72405400  0.23222500  0.57416700  1
  H  H21  1  0.76777500  0.49182900  0.57416700  1
  H  H22  1  0.50817100  0.27594600  0.57416700  1
  H  H23  1  0.27594600  0.76777500  0.07416700  1
  H  H24  1  0.23222500  0.50817100  0.07416700  1
  H  H25  1  0.49182900  0.72405400  0.07416700  1
  H  H26  1  0.09791800  0.64498100  0.64099500  1
  H  H27  1  0.35501900  0.45293700  0.64099500  1
  H  H28  1  0.54706300  0.90208200  0.64099500  1
  H  H29  1  0.90208200  0.35501900  0.14099500  1
  H  H30  1  0.64498100  0.54706300  0.14099500  1
  H  H31  1  0.45293700  0.09791800  0.14099500  1
  H  H32  1  0.90208200  0.35501900  0.35900500  1
  H  H33  1  0.64498100  0.54706300  0.35900500  1
  H  H34  1  0.45293700  0.09791800  0.35900500  1
  H  H35  1  0.09791800  0.64498100  0.85900500  1
  H  H36  1  0.35501900  0.45293700  0.85900500  1
  H  H37  1  0.54706300  0.90208200  0.85900500  1
  C  C38  1  0.23183500  0.00874300  0.75000000  1
  C  C39  1  0.99125700  0.22309200  0.75000000  1
  C  C40  1  0.77690800  0.76816500  0.75000000  1
  C  C41  1  0.76816500  0.99125700  0.25000000  1
  C  C42  1  0.00874300  0.77690800  0.25000000  1
  C  C43  1  0.22309200  0.23183500  0.25000000  1
  S  S44  1  0.38235700  0.05901900  0.75000000  1
  S  S45  1  0.94098100  0.32333800  0.75000000  1
  S  S46  1  0.67666200  0.61764300  0.75000000  1
  S  S47  1  0.61764300  0.94098100  0.25000000  1
  S  S48  1  0.05901900  0.67666200  0.25000000  1
  S  S49  1  0.32333800  0.38235700  0.25000000  1
  O  O50  1  0.34069400  0.79328000  0.50598200  1
  O  O51  1  0.20672000  0.54741400  0.50598200  1
  O  O52  1  0.45258600  0.65930600  0.50598200  1
  O  O53  1  0.65930600  0.20672000  0.00598200  1
  O  O54  1  0.79328000  0.45258600  0.00598200  1
  O  O55  1  0.54741400  0.34069400  0.00598200  1
  O  O56  1  0.65930600  0.20672000  0.49401800  1
  O  O57  1  0.79328000  0.45258600  0.49401800  1
  O  O58  1  0.54741400  0.34069400  0.49401800  1
  O  O59  1  0.34069400  0.79328000  0.99401800  1
  O  O60  1  0.20672000  0.54741400  0.99401800  1
  O  O61  1  0.45258600  0.65930600  0.99401800  1
  O  O62  1  0.14325000  0.65641700  0.75000000  1
  O  O63  1  0.34358300  0.48683300  0.75000000  1
  O  O64  1  0.51316700  0.85675000  0.75000000  1
  O  O65  1  0.85675000  0.34358300  0.25000000  1
  O  O66  1  0.65641700  0.51316700  0.25000000  1
  O  O67  1  0.48683300  0.14325000  0.25000000  1
  O  O68  1  0.39943500  0.01350900  0.58097200  1
  O  O69  1  0.98649100  0.38592600  0.58097200  1
  O  O70  1  0.61407400  0.60056500  0.58097200  1
  O  O71  1  0.60056500  0.98649100  0.08097200  1
  O  O72  1  0.01350900  0.61407400  0.08097200  1
  O  O73  1  0.38592600  0.39943500  0.08097200  1
  O  O74  1  0.60056500  0.98649100  0.41902800  1
  O  O75  1  0.01350900  0.61407400  0.41902800  1
  O  O76  1  0.38592600  0.39943500  0.41902800  1
  O  O77  1  0.39943500  0.01350900  0.91902800  1
  O  O78  1  0.98649100  0.38592600  0.91902800  1
  O  O79  1  0.61407400  0.60056500  0.91902800  1
  O  O80  1  0.43416700  0.17881000  0.75000000  1
  O  O81  1  0.82119000  0.25535700  0.75000000  1
  O  O82  1  0.74464300  0.56583300  0.75000000  1
  O  O83  1  0.56583300  0.82119000  0.25000000  1
  O  O84  1  0.17881000  0.74464300  0.25000000  1
  O  O85  1  0.25535700  0.43416700  0.25000000  1
  F  F86  1  0.17606900  0.89760900  0.75000000  1
  F  F87  1  0.10239100  0.27846000  0.75000000  1
  F  F88  1  0.72154000  0.82393100  0.75000000  1
  F  F89  1  0.82393100  0.10239100  0.25000000  1
  F  F90  1  0.89760900  0.72154000  0.25000000  1
  F  F91  1  0.27846000  0.17606900  0.25000000  1
  F  F92  1  0.20384500  0.04484400  0.59957900  1
  F  F93  1  0.95515600  0.15900100  0.59957900  1
  F  F94  1  0.84099900  0.79615500  0.59957900  1
  F  F95  1  0.79615500  0.95515600  0.09957900  1
  F  F96  1  0.04484400  0.84099900  0.09957900  1
  F  F97  1  0.15900100  0.20384500  0.09957900  1
  F  F98  1  0.79615500  0.95515600  0.40042100  1
  F  F99  1  0.04484400  0.84099900  0.40042100  1
  F  F100  1  0.15900100  0.20384500  0.40042100  1
  F  F101  1  0.20384500  0.04484400  0.90042100  1
  F  F102  1  0.95515600  0.15900100  0.90042100  1
  F  F103  1  0.84099900  0.79615500  0.90042100  1
