# generated using pymatgen
data_UCu4(SeO7)2
_symmetry_space_group_name_H-M   'P 1'
_cell_length_a   5.38418900
_cell_length_b   5.88528200
_cell_length_c   19.93518300
_cell_angle_alpha   90.00000000
_cell_angle_beta   90.00000000
_cell_angle_gamma   90.00000000
_symmetry_Int_Tables_number   1
_chemical_formula_structural   UCu4(SeO7)2
_chemical_formula_sum   'U2 Cu8 Se4 O28'
_cell_volume   631.69552534
_cell_formula_units_Z   2
loop_
 _symmetry_equiv_pos_site_id
 _symmetry_equiv_pos_as_xyz
  1  'x, y, z'
loop_
 _atom_site_type_symbol
 _atom_site_label
 _atom_site_symmetry_multiplicity
 _atom_site_fract_x
 _atom_site_fract_y
 _atom_site_fract_z
 _atom_site_occupancy
  U  U0  1  0.68574000  0.50000000  0.49967100  1
  U  U1  1  0.31426000  0.00000000  0.99967100  1
  Cu  Cu2  1  0.60492000  0.50000000  0.24930500  1
  Cu  Cu3  1  0.39508000  0.00000000  0.74930500  1
  Cu  Cu4  1  0.39169000  0.50000000  0.75259300  1
  Cu  Cu5  1  0.60831000  0.00000000  0.25259300  1
  Cu  Cu6  1  0.10722000  0.25171300  0.25085700  1
  Cu  Cu7  1  0.10722000  0.74828700  0.25085700  1
  Cu  Cu8  1  0.89278000  0.24828700  0.75085700  1
  Cu  Cu9  1  0.89278000  0.75171300  0.75085700  1
  Se  Se10  1  0.98247700  0.50000000  0.08299800  1
  Se  Se11  1  0.01752300  0.00000000  0.58299800  1
  Se  Se12  1  0.64636300  0.50000000  0.91743100  1
  Se  Se13  1  0.35363700  0.00000000  0.41743100  1
  O  O14  1  0.39745100  0.50000000  0.54722100  1
  O  O15  1  0.60254900  0.00000000  0.04722100  1
  O  O16  1  0.97171600  0.50000000  0.45135900  1
  O  O17  1  0.02828400  0.00000000  0.95135900  1
  O  O18  1  0.93325000  0.50000000  0.16727400  1
  O  O19  1  0.06675000  0.00000000  0.66727400  1
  O  O20  1  0.68868500  0.50000000  0.83257600  1
  O  O21  1  0.31131500  0.00000000  0.33257600  1
  O  O22  1  0.18084500  0.27557600  0.07014400  1
  O  O23  1  0.18084500  0.72442400  0.07014400  1
  O  O24  1  0.81915500  0.22442400  0.57014400  1
  O  O25  1  0.81915500  0.77557600  0.57014400  1
  O  O26  1  0.44705200  0.27609600  0.92990300  1
  O  O27  1  0.44705200  0.72390400  0.92990300  1
  O  O28  1  0.55294800  0.22390400  0.42990300  1
  O  O29  1  0.55294800  0.77609600  0.42990300  1
  O  O30  1  0.99070700  0.50000000  0.70517200  1
  O  O31  1  0.00929300  0.00000000  0.20517200  1
  O  O32  1  0.20083400  0.50000000  0.29855000  1
  O  O33  1  0.79916600  0.00000000  0.79855000  1
  O  O34  1  0.78594100  0.25730500  0.28680700  1
  O  O35  1  0.78594100  0.74269500  0.28680700  1
  O  O36  1  0.21405900  0.24269500  0.78680700  1
  O  O37  1  0.21405900  0.75730500  0.78680700  1
  O  O38  1  0.42875500  0.24541000  0.21426300  1
  O  O39  1  0.42875500  0.75459000  0.21426300  1
  O  O40  1  0.57124500  0.25459000  0.71426300  1
  O  O41  1  0.57124500  0.74541000  0.71426300  1
