# generated using pymatgen
data_Rb2FeCl5O
_symmetry_space_group_name_H-M   'P 1'
_cell_length_a   7.46086200
_cell_length_b   10.47806100
_cell_length_c   13.85523000
_cell_angle_alpha   90.00000000
_cell_angle_beta   90.00000000
_cell_angle_gamma   90.00000000
_symmetry_Int_Tables_number   1
_chemical_formula_structural   Rb2FeCl5O
_chemical_formula_sum   'Rb8 Fe4 Cl20 O4'
_cell_volume   1083.13769218
_cell_formula_units_Z   4
loop_
 _symmetry_equiv_pos_site_id
 _symmetry_equiv_pos_as_xyz
  1  'x, y, z'
loop_
 _atom_site_type_symbol
 _atom_site_label
 _atom_site_symmetry_multiplicity
 _atom_site_fract_x
 _atom_site_fract_y
 _atom_site_fract_z
 _atom_site_occupancy
  Rb  Rb0  1  0.17370700  0.49588200  0.36307600  1
  Rb  Rb1  1  0.32629300  0.00411800  0.86307600  1
  Rb  Rb2  1  0.82629300  0.99588200  0.63692400  1
  Rb  Rb3  1  0.67370700  0.50411800  0.13692400  1
  Rb  Rb4  1  0.82629300  0.50411800  0.63692400  1
  Rb  Rb5  1  0.67370700  0.99588200  0.13692400  1
  Rb  Rb6  1  0.17370700  0.00411800  0.36307600  1
  Rb  Rb7  1  0.32629300  0.49588200  0.86307600  1
  Fe  Fe8  1  0.23780000  0.75000000  0.11746400  1
  Fe  Fe9  1  0.26220000  0.75000000  0.61746400  1
  Fe  Fe10  1  0.76220000  0.25000000  0.88253600  1
  Fe  Fe11  1  0.73780000  0.25000000  0.38253600  1
  Cl  Cl12  1  0.92402900  0.75000000  0.21122800  1
  Cl  Cl13  1  0.57597100  0.75000000  0.71122800  1
  Cl  Cl14  1  0.07597100  0.25000000  0.78877200  1
  Cl  Cl15  1  0.42402900  0.25000000  0.28877200  1
  Cl  Cl16  1  0.40005500  0.75000000  0.25903800  1
  Cl  Cl17  1  0.09994500  0.75000000  0.75903800  1
  Cl  Cl18  1  0.59994500  0.25000000  0.74096200  1
  Cl  Cl19  1  0.90005500  0.25000000  0.24096200  1
  Cl  Cl20  1  0.46407100  0.75000000  0.00056600  1
  Cl  Cl21  1  0.03592900  0.75000000  0.50056600  1
  Cl  Cl22  1  0.53592900  0.25000000  0.99943400  1
  Cl  Cl23  1  0.96407100  0.25000000  0.49943400  1
  Cl  Cl24  1  0.19327600  0.52530000  0.10428500  1
  Cl  Cl25  1  0.30672400  0.97470000  0.60428500  1
  Cl  Cl26  1  0.80672400  0.02530000  0.89571500  1
  Cl  Cl27  1  0.69327600  0.47470000  0.39571500  1
  Cl  Cl28  1  0.80672400  0.47470000  0.89571500  1
  Cl  Cl29  1  0.69327600  0.02530000  0.39571500  1
  Cl  Cl30  1  0.19327600  0.97470000  0.10428500  1
  Cl  Cl31  1  0.30672400  0.52530000  0.60428500  1
  O  O32  1  0.00896600  0.75000000  0.04470300  1
  O  O33  1  0.49103400  0.75000000  0.54470300  1
  O  O34  1  0.99103400  0.25000000  0.95529700  1
  O  O35  1  0.50896600  0.25000000  0.45529700  1
