# generated using pymatgen
data_SnH8C2I3N
_symmetry_space_group_name_H-M   'P 1'
_cell_length_a   8.56171400
_cell_length_b   9.16512900
_cell_length_c   15.03145600
_cell_angle_alpha   90.00000000
_cell_angle_beta   90.00000000
_cell_angle_gamma   90.00000000
_symmetry_Int_Tables_number   1
_chemical_formula_structural   SnH8C2I3N
_chemical_formula_sum   'Sn4 H32 C8 I12 N4'
_cell_volume   1179.50652664
_cell_formula_units_Z   4
loop_
 _symmetry_equiv_pos_site_id
 _symmetry_equiv_pos_as_xyz
  1  'x, y, z'
loop_
 _atom_site_type_symbol
 _atom_site_label
 _atom_site_symmetry_multiplicity
 _atom_site_fract_x
 _atom_site_fract_y
 _atom_site_fract_z
 _atom_site_occupancy
  Sn  Sn0  1  0.00368800  0.50431700  0.00062400  1
  Sn  Sn1  1  0.50368800  0.49568300  0.99937600  1
  Sn  Sn2  1  0.50368800  0.00431700  0.49937600  1
  Sn  Sn3  1  0.00368800  0.99568300  0.50062400  1
  H  H4  1  0.58444800  0.89876500  0.10329500  1
  H  H5  1  0.08444800  0.10123500  0.89670500  1
  H  H6  1  0.08444800  0.39876500  0.39670500  1
  H  H7  1  0.58444800  0.60123500  0.60329500  1
  H  H8  1  0.61187400  0.08139200  0.14323500  1
  H  H9  1  0.11187400  0.91860800  0.85676500  1
  H  H10  1  0.11187400  0.58139200  0.35676500  1
  H  H11  1  0.61187400  0.41860800  0.64323500  1
  H  H12  1  0.56304200  0.93858300  0.21908400  1
  H  H13  1  0.06304200  0.06141700  0.78091600  1
  H  H14  1  0.06304200  0.43858300  0.28091600  1
  H  H15  1  0.56304200  0.56141700  0.71908400  1
  H  H16  1  0.52244700  0.96902800  0.83897400  1
  H  H17  1  0.02244700  0.03097200  0.16102600  1
  H  H18  1  0.02244700  0.46902800  0.66102600  1
  H  H19  1  0.52244700  0.53097200  0.33897400  1
  H  H20  1  0.37315700  0.85561500  0.78949400  1
  H  H21  1  0.87315700  0.14438500  0.21050600  1
  H  H22  1  0.87315700  0.35561500  0.71050600  1
  H  H23  1  0.37315700  0.64438500  0.28949400  1
  H  H24  1  0.37077300  0.88812400  0.90660400  1
  H  H25  1  0.87077300  0.11187600  0.09339600  1
  H  H26  1  0.87077300  0.38812400  0.59339600  1
  H  H27  1  0.37077300  0.61187600  0.40660400  1
  H  H28  1  0.31504800  0.10575200  0.76354700  1
  H  H29  1  0.81504800  0.89424800  0.23645300  1
  H  H30  1  0.81504800  0.60575200  0.73645300  1
  H  H31  1  0.31504800  0.39424800  0.26354700  1
  H  H32  1  0.33416100  0.14880100  0.86931000  1
  H  H33  1  0.83416100  0.85119900  0.13069000  1
  H  H34  1  0.83416100  0.64880100  0.63069000  1
  H  H35  1  0.33416100  0.35119900  0.36931000  1
  C  C36  1  0.62732400  0.96542200  0.15851400  1
  C  C37  1  0.12732400  0.03457800  0.84148600  1
  C  C38  1  0.12732400  0.46542200  0.34148600  1
  C  C39  1  0.62732400  0.53457800  0.65851400  1
  C  C40  1  0.39976400  0.93502000  0.84176000  1
  C  C41  1  0.89976400  0.06498000  0.15824000  1
  C  C42  1  0.89976400  0.43502000  0.65824000  1
  C  C43  1  0.39976400  0.56498000  0.34176000  1
  I  I44  1  0.19355500  0.73596200  0.08741400  1
  I  I45  1  0.69355500  0.26403800  0.91258600  1
  I  I46  1  0.69355500  0.23596200  0.41258600  1
  I  I47  1  0.19355500  0.76403800  0.58741400  1
  I  I48  1  0.24383800  0.48693900  0.84055000  1
  I  I49  1  0.74383800  0.51306100  0.15945000  1
  I  I50  1  0.74383800  0.98693900  0.65945000  1
  I  I51  1  0.24383800  0.01306100  0.34055000  1
  I  I52  1  0.79665800  0.72549500  0.90569500  1
  I  I53  1  0.29665800  0.27450500  0.09430500  1
  I  I54  1  0.29665800  0.22549500  0.59430500  1
  I  I55  1  0.79665800  0.77450500  0.40569500  1
  N  N56  1  0.29842400  0.06559700  0.82769500  1
  N  N57  1  0.79842400  0.93440300  0.17230500  1
  N  N58  1  0.79842400  0.56559700  0.67230500  1
  N  N59  1  0.29842400  0.43440300  0.32769500  1
