# generated using pymatgen
data_DyCO4
_symmetry_space_group_name_H-M   'P 1'
_cell_length_a   12.08533018
_cell_length_b   12.08533018
_cell_length_c   9.67282100
_cell_angle_alpha   90.00000000
_cell_angle_beta   90.00000000
_cell_angle_gamma   120.00000098
_symmetry_Int_Tables_number   1
_chemical_formula_structural   DyCO4
_chemical_formula_sum   'Dy18 C18 O72'
_cell_volume   1223.49111166
_cell_formula_units_Z   18
loop_
 _symmetry_equiv_pos_site_id
 _symmetry_equiv_pos_as_xyz
  1  'x, y, z'
loop_
 _atom_site_type_symbol
 _atom_site_label
 _atom_site_symmetry_multiplicity
 _atom_site_fract_x
 _atom_site_fract_y
 _atom_site_fract_z
 _atom_site_occupancy
  Dy  Dy0  1  0.55797900  0.10235200  0.25647000  1
  Dy  Dy1  1  0.54437300  0.44202100  0.25647000  1
  Dy  Dy2  1  0.89764800  0.45562700  0.25647000  1
  Dy  Dy3  1  0.55797900  0.10235200  0.74353000  1
  Dy  Dy4  1  0.54437300  0.44202100  0.74353000  1
  Dy  Dy5  1  0.89764800  0.45562700  0.74353000  1
  Dy  Dy6  1  0.88805400  0.11853000  0.23900400  1
  Dy  Dy7  1  0.23047600  0.11194600  0.23900400  1
  Dy  Dy8  1  0.88147000  0.76952400  0.23900400  1
  Dy  Dy9  1  0.88805400  0.11853000  0.76099600  1
  Dy  Dy10  1  0.23047600  0.11194600  0.76099600  1
  Dy  Dy11  1  0.88147000  0.76952400  0.76099600  1
  Dy  Dy12  1  0.22237900  0.78555700  0.25748600  1
  Dy  Dy13  1  0.56317800  0.77762100  0.25748600  1
  Dy  Dy14  1  0.21444300  0.43682200  0.25748600  1
  Dy  Dy15  1  0.22237900  0.78555700  0.74251400  1
  Dy  Dy16  1  0.56317800  0.77762100  0.74251400  1
  Dy  Dy17  1  0.21444300  0.43682200  0.74251400  1
  C  C18  1  0.79920200  0.81798700  0.50000000  1
  C  C19  1  0.01878500  0.20079800  0.50000000  1
  C  C20  1  0.18201300  0.98121500  0.50000000  1
  C  C21  1  0.76477900  0.22699800  0.50000000  1
  C  C22  1  0.46221900  0.23522100  0.50000000  1
  C  C23  1  0.77300200  0.53778100  0.50000000  1
  C  C24  1  0.44914100  0.87147200  0.50000000  1
  C  C25  1  0.42233100  0.55085900  0.50000000  1
  C  C26  1  0.12852800  0.57766900  0.50000000  1
  C  C27  1  0.79659900  0.88721900  0.00000000  1
  C  C28  1  0.09062000  0.20340100  0.00000000  1
  C  C29  1  0.11278100  0.90938000  0.00000000  1
  C  C30  1  0.51121000  0.86092300  0.00000000  1
  C  C31  1  0.34971300  0.48879000  0.00000000  1
  C  C32  1  0.13907700  0.65028700  0.00000000  1
  C  C33  1  0.69426300  0.16191900  0.00000000  1
  C  C34  1  0.46765600  0.30573700  0.00000000  1
  C  C35  1  0.83808100  0.53234400  0.00000000  1
  O  O36  1  0.90536700  0.81591100  0.50000000  1
  O  O37  1  0.91054400  0.09463300  0.50000000  1
  O  O38  1  0.18408900  0.08945600  0.50000000  1
  O  O39  1  0.74827000  0.81776700  0.38329800  1
  O  O40  1  0.06949700  0.25173000  0.38329800  1
  O  O41  1  0.18223300  0.93050300  0.38329800  1
  O  O42  1  0.74827000  0.81776700  0.61670200  1
  O  O43  1  0.06949700  0.25173000  0.61670200  1
  O  O44  1  0.18223300  0.93050300  0.61670200  1
  O  O45  1  0.64128100  0.15942000  0.50000000  1
  O  O46  1  0.51814000  0.35871900  0.50000000  1
  O  O47  1  0.84058000  0.48186000  0.50000000  1
  O  O48  1  0.82488800  0.25973700  0.38324700  1
  O  O49  1  0.43484800  0.17511200  0.38324700  1
  O  O50  1  0.74026300  0.56515200  0.38324700  1
  O  O51  1  0.82488800  0.25973700  0.61675300  1
  O  O52  1  0.43484800  0.17511200  0.61675300  1
  O  O53  1  0.74026300  0.56515200  0.61675300  1
  O  O54  1  0.50484600  0.80388100  0.50000000  1
  O  O55  1  0.29903500  0.49515400  0.50000000  1
  O  O56  1  0.19611900  0.70096500  0.50000000  1
  O  O57  1  0.42183500  0.90501700  0.38384400  1
  O  O58  1  0.48318200  0.57816500  0.38384400  1
  O  O59  1  0.09498300  0.51681800  0.38384400  1
  O  O60  1  0.42183500  0.90501700  0.61615600  1
  O  O61  1  0.48318200  0.57816500  0.61615600  1
  O  O62  1  0.09498300  0.51681800  0.61615600  1
  O  O63  1  0.85921300  0.82618700  0.00000000  1
  O  O64  1  0.96697500  0.14078700  0.00000000  1
  O  O65  1  0.17381300  0.03302500  0.00000000  1
  O  O66  1  0.76639500  0.91672100  0.88305700  1
  O  O67  1  0.15032600  0.23360500  0.88305700  1
  O  O68  1  0.08327900  0.84967400  0.88305700  1
  O  O69  1  0.76639500  0.91672100  0.11694300  1
  O  O70  1  0.15032600  0.23360500  0.11694300  1
  O  O71  1  0.08327900  0.84967400  0.11694300  1
  O  O72  1  0.51639500  0.75594300  0.00000000  1
  O  O73  1  0.23954800  0.48360500  0.00000000  1
  O  O74  1  0.24405700  0.76045200  0.00000000  1
  O  O75  1  0.51050200  0.91049000  0.88237000  1
  O  O76  1  0.39998800  0.48949800  0.88237000  1
  O  O77  1  0.08951000  0.60001200  0.88237000  1
  O  O78  1  0.51050200  0.91049000  0.11763000  1
  O  O79  1  0.39998800  0.48949800  0.11763000  1
  O  O80  1  0.08951000  0.60001200  0.11763000  1
  O  O81  1  0.58459100  0.15648700  0.00000000  1
  O  O82  1  0.57189600  0.41540900  0.00000000  1
  O  O83  1  0.84351300  0.42810400  0.00000000  1
  O  O84  1  0.74504700  0.16212700  0.88319500  1
  O  O85  1  0.41708100  0.25495300  0.88319500  1
  O  O86  1  0.83787300  0.58291900  0.88319500  1
  O  O87  1  0.74504700  0.16212700  0.11680500  1
  O  O88  1  0.41708100  0.25495300  0.11680500  1
  O  O89  1  0.83787300  0.58291900  0.11680500  1
  O  O90  1  0.66666700  0.33333300  0.24392900  1
  O  O91  1  0.66666700  0.33333300  0.75607100  1
  O  O92  1  0.00000000  0.00000000  0.25601300  1
  O  O93  1  0.00000000  0.00000000  0.74398700  1
  O  O94  1  0.33333300  0.66666700  0.24811100  1
  O  O95  1  0.33333300  0.66666700  0.75188900  1
  O  O96  1  0.34322600  0.00174000  0.19257200  1
  O  O97  1  0.65851400  0.65677400  0.19257200  1
  O  O98  1  0.99826000  0.34148600  0.19257200  1
  O  O99  1  0.34322600  0.00174000  0.80742800  1
  O  O100  1  0.65851400  0.65677400  0.80742800  1
  O  O101  1  0.99826000  0.34148600  0.80742800  1
  O  O102  1  0.00276100  0.67827200  0.30954900  1
  O  O103  1  0.67551100  0.99723900  0.30954900  1
  O  O104  1  0.32172800  0.32448900  0.30954900  1
  O  O105  1  0.00276100  0.67827200  0.69045100  1
  O  O106  1  0.67551100  0.99723900  0.69045100  1
  O  O107  1  0.32172800  0.32448900  0.69045100  1
