# generated using pymatgen
data_AgCS2(O2F)3
_symmetry_space_group_name_H-M   'P 1'
_cell_length_a   26.50097600
_cell_length_b   5.32305900
_cell_length_c   5.66943084
_cell_angle_alpha   78.36596657
_cell_angle_beta   90.00000000
_cell_angle_gamma   90.00000000
_symmetry_Int_Tables_number   1
_chemical_formula_structural   AgCS2(O2F)3
_chemical_formula_sum   'Ag4 C4 S8 O24 F12'
_cell_volume   783.33472823
_cell_formula_units_Z   4
loop_
 _symmetry_equiv_pos_site_id
 _symmetry_equiv_pos_as_xyz
  1  'x, y, z'
loop_
 _atom_site_type_symbol
 _atom_site_label
 _atom_site_symmetry_multiplicity
 _atom_site_fract_x
 _atom_site_fract_y
 _atom_site_fract_z
 _atom_site_occupancy
  Ag  Ag0  1  0.19014700  0.71092000  0.11744200  1
  Ag  Ag1  1  0.69014700  0.28908000  0.38255800  1
  Ag  Ag2  1  0.80985300  0.28908000  0.88255800  1
  Ag  Ag3  1  0.30985300  0.71092000  0.61744200  1
  C  C4  1  0.05386600  0.24549800  0.78713900  1
  C  C5  1  0.55386600  0.75450200  0.71286100  1
  C  C6  1  0.94613400  0.75450200  0.21286100  1
  C  C7  1  0.44613400  0.24549800  0.28713900  1
  S  S8  1  0.11328400  0.43536700  0.69462500  1
  S  S9  1  0.61328400  0.56463300  0.80537500  1
  S  S10  1  0.88671600  0.56463300  0.30537500  1
  S  S11  1  0.38671600  0.43536700  0.19462500  1
  S  S12  1  0.19718400  0.13717800  0.52640800  1
  S  S13  1  0.69718400  0.86282200  0.97359200  1
  S  S14  1  0.80281600  0.86282200  0.47359200  1
  S  S15  1  0.30281600  0.13717800  0.02640800  1
  O  O16  1  0.22378800  0.93732100  0.69339500  1
  O  O17  1  0.72378800  0.06267900  0.80660500  1
  O  O18  1  0.77621200  0.06267900  0.30660500  1
  O  O19  1  0.27621200  0.93732100  0.19339500  1
  O  O20  1  0.15333400  0.21322100  0.74849200  1
  O  O21  1  0.65333400  0.78677900  0.75150800  1
  O  O22  1  0.84666600  0.78677900  0.25150800  1
  O  O23  1  0.34666600  0.21322100  0.24849200  1
  O  O24  1  0.16557300  0.05466900  0.34868400  1
  O  O25  1  0.66557300  0.94533100  0.15131600  1
  O  O26  1  0.83442700  0.94533100  0.65131600  1
  O  O27  1  0.33442700  0.05466900  0.84868400  1
  O  O28  1  0.10923500  0.54293400  0.44213300  1
  O  O29  1  0.60923500  0.45706600  0.05786700  1
  O  O30  1  0.89076500  0.45706600  0.55786700  1
  O  O31  1  0.39076500  0.54293400  0.94213300  1
  O  O32  1  0.11992700  0.59811600  0.86758900  1
  O  O33  1  0.61992700  0.40188400  0.63241100  1
  O  O34  1  0.88007300  0.40188400  0.13241100  1
  O  O35  1  0.38007300  0.59811600  0.36758900  1
  O  O36  1  0.22410800  0.37786000  0.44929900  1
  O  O37  1  0.72410800  0.62214000  0.05070100  1
  O  O38  1  0.77589200  0.62214000  0.55070100  1
  O  O39  1  0.27589200  0.37786000  0.94929900  1
  F  F40  1  0.04608900  0.08038900  0.63972300  1
  F  F41  1  0.54608900  0.91961100  0.86027700  1
  F  F42  1  0.95391100  0.91961100  0.36027700  1
  F  F43  1  0.45391100  0.08038900  0.13972300  1
  F  F44  1  0.05738700  0.11655300  0.01630000  1
  F  F45  1  0.55738700  0.88344700  0.48370000  1
  F  F46  1  0.94261300  0.88344700  0.98370000  1
  F  F47  1  0.44261300  0.11655300  0.51630000  1
  F  F48  1  0.01512700  0.41280000  0.76769100  1
  F  F49  1  0.51512700  0.58720000  0.73230900  1
  F  F50  1  0.98487300  0.58720000  0.23230900  1
  F  F51  1  0.48487300  0.41280000  0.26769100  1
