# generated using pymatgen
data_UCO6
_symmetry_space_group_name_H-M   'P 1'
_cell_length_a   6.45086500
_cell_length_b   11.01801800
_cell_length_c   17.32378500
_cell_angle_alpha   90.00000000
_cell_angle_beta   90.00000000
_cell_angle_gamma   90.00000000
_symmetry_Int_Tables_number   1
_chemical_formula_structural   UCO6
_chemical_formula_sum   'U8 C8 O48'
_cell_volume   1231.30095430
_cell_formula_units_Z   8
loop_
 _symmetry_equiv_pos_site_id
 _symmetry_equiv_pos_as_xyz
  1  'x, y, z'
loop_
 _atom_site_type_symbol
 _atom_site_label
 _atom_site_symmetry_multiplicity
 _atom_site_fract_x
 _atom_site_fract_y
 _atom_site_fract_z
 _atom_site_occupancy
  U  U0  1  0.66173700  0.03496700  0.42450900  1
  U  U1  1  0.16173700  0.46503300  0.57549100  1
  U  U2  1  0.33826300  0.53496700  0.07549100  1
  U  U3  1  0.83826300  0.96503300  0.92450900  1
  U  U4  1  0.33826300  0.96503300  0.57549100  1
  U  U5  1  0.83826300  0.53496700  0.42450900  1
  U  U6  1  0.66173700  0.46503300  0.92450900  1
  U  U7  1  0.16173700  0.03496700  0.07549100  1
  C  C8  1  0.82857800  0.30660300  0.71626100  1
  C  C9  1  0.32857800  0.19339700  0.28373900  1
  C  C10  1  0.17142200  0.80660300  0.78373900  1
  C  C11  1  0.67142200  0.69339700  0.21626100  1
  C  C12  1  0.17142200  0.69339700  0.28373900  1
  C  C13  1  0.67142200  0.80660300  0.71626100  1
  C  C14  1  0.82857800  0.19339700  0.21626100  1
  C  C15  1  0.32857800  0.30660300  0.78373900  1
  O  O16  1  0.54211100  0.57134300  0.85490100  1
  O  O17  1  0.04211100  0.92865700  0.14509900  1
  O  O18  1  0.45788900  0.07134300  0.64509900  1
  O  O19  1  0.95788900  0.42865700  0.35490100  1
  O  O20  1  0.45788900  0.42865700  0.14509900  1
  O  O21  1  0.95788900  0.07134300  0.85490100  1
  O  O22  1  0.54211100  0.92865700  0.35490100  1
  O  O23  1  0.04211100  0.57134300  0.64509900  1
  O  O24  1  0.75174000  0.32064900  0.96549900  1
  O  O25  1  0.25174000  0.17935100  0.03450100  1
  O  O26  1  0.24826000  0.82064900  0.53450100  1
  O  O27  1  0.74826000  0.67935100  0.46549900  1
  O  O28  1  0.24826000  0.67935100  0.03450100  1
  O  O29  1  0.74826000  0.82064900  0.96549900  1
  O  O30  1  0.75174000  0.17935100  0.46549900  1
  O  O31  1  0.25174000  0.32064900  0.53450100  1
  O  O32  1  0.63545400  0.56682100  0.02995400  1
  O  O33  1  0.13545400  0.93317900  0.97004600  1
  O  O34  1  0.36454600  0.06682100  0.47004600  1
  O  O35  1  0.86454600  0.43317900  0.52995400  1
  O  O36  1  0.36454600  0.43317900  0.97004600  1
  O  O37  1  0.86454600  0.06682100  0.02995400  1
  O  O38  1  0.63545400  0.93317900  0.52995400  1
  O  O39  1  0.13545400  0.56682100  0.47004600  1
  O  O40  1  0.60999400  0.76067600  0.65965400  1
  O  O41  1  0.10999400  0.73932400  0.34034600  1
  O  O42  1  0.39000600  0.26067600  0.84034600  1
  O  O43  1  0.89000600  0.23932400  0.15965400  1
  O  O44  1  0.39000600  0.23932400  0.34034600  1
  O  O45  1  0.89000600  0.26067600  0.65965400  1
  O  O46  1  0.60999400  0.73932400  0.15965400  1
  O  O47  1  0.10999400  0.76067600  0.84034600  1
  O  O48  1  0.73119800  0.85347100  0.77307600  1
  O  O49  1  0.23119800  0.64652900  0.22692400  1
  O  O50  1  0.26880200  0.35347100  0.72692400  1
  O  O51  1  0.76880200  0.14652900  0.27307600  1
  O  O52  1  0.26880200  0.14652900  0.22692400  1
  O  O53  1  0.76880200  0.35347100  0.77307600  1
  O  O54  1  0.73119800  0.64652900  0.27307600  1
  O  O55  1  0.23119800  0.85347100  0.72692400  1
  O  O56  1  0.56481600  0.48289000  0.40291900  1
  O  O57  1  0.06481600  0.01711000  0.59708100  1
  O  O58  1  0.43518400  0.98289000  0.09708100  1
  O  O59  1  0.93518400  0.51711000  0.90291900  1
  O  O60  1  0.43518400  0.51711000  0.59708100  1
  O  O61  1  0.93518400  0.98289000  0.40291900  1
  O  O62  1  0.56481600  0.01711000  0.90291900  1
  O  O63  1  0.06481600  0.48289000  0.09708100  1
