# generated using pymatgen
data_Er2Zn17
_symmetry_space_group_name_H-M   'P 1'
_cell_length_a   8.71602200
_cell_length_b   8.96762630
_cell_length_c   8.96762630
_cell_angle_alpha   120.01264700
_cell_angle_beta   90.00000000
_cell_angle_gamma   90.00000000
_symmetry_Int_Tables_number   1
_chemical_formula_structural   Er2Zn17
_chemical_formula_sum   'Er4 Zn34'
_cell_volume   606.94395880
_cell_formula_units_Z   2
loop_
 _symmetry_equiv_pos_site_id
 _symmetry_equiv_pos_as_xyz
  1  'x, y, z'
loop_
 _atom_site_type_symbol
 _atom_site_label
 _atom_site_symmetry_multiplicity
 _atom_site_fract_x
 _atom_site_fract_y
 _atom_site_fract_z
 _atom_site_occupancy
  Er  Er0  1  0.75000000  0.99998600  0.00001400  1
  Er  Er1  1  0.25000000  0.00001400  0.99998600  1
  Er  Er2  1  0.25000000  0.66610900  0.33389100  1
  Er  Er3  1  0.75000000  0.33389100  0.66610900  1
  Zn  Zn4  1  0.59672000  0.66665500  0.33334500  1
  Zn  Zn5  1  0.40328000  0.33334500  0.66665500  1
  Zn  Zn6  1  0.09672000  0.33334500  0.66665500  1
  Zn  Zn7  1  0.90328000  0.66665500  0.33334500  1
  Zn  Zn8  1  0.50000000  0.50000000  0.00000000  1
  Zn  Zn9  1  0.50000000  0.50000000  0.50000000  1
  Zn  Zn10  1  0.50000000  0.00000000  0.50000000  1
  Zn  Zn11  1  0.00000000  0.50000000  0.00000000  1
  Zn  Zn12  1  0.00000000  0.50000000  0.50000000  1
  Zn  Zn13  1  0.00000000  0.00000000  0.50000000  1
  Zn  Zn14  1  0.75000000  0.67060700  0.03223100  1
  Zn  Zn15  1  0.75000000  0.36156500  0.32948100  1
  Zn  Zn16  1  0.75000000  0.96777500  0.63833300  1
  Zn  Zn17  1  0.75000000  0.36166700  0.03222500  1
  Zn  Zn18  1  0.75000000  0.96776900  0.32939300  1
  Zn  Zn19  1  0.75000000  0.67051900  0.63843500  1
  Zn  Zn20  1  0.25000000  0.32939300  0.96776900  1
  Zn  Zn21  1  0.25000000  0.63843500  0.67051900  1
  Zn  Zn22  1  0.25000000  0.03222500  0.36166700  1
  Zn  Zn23  1  0.25000000  0.63833300  0.96777500  1
  Zn  Zn24  1  0.25000000  0.03223100  0.67060700  1
  Zn  Zn25  1  0.25000000  0.32948100  0.36156500  1
  Zn  Zn26  1  0.48227600  0.83837900  0.67708700  1
  Zn  Zn27  1  0.48200500  0.83851400  0.16148600  1
  Zn  Zn28  1  0.48227600  0.32291300  0.16162100  1
  Zn  Zn29  1  0.51772400  0.16162100  0.32291300  1
  Zn  Zn30  1  0.51799500  0.16148600  0.83851400  1
  Zn  Zn31  1  0.51772400  0.67708700  0.83837900  1
  Zn  Zn32  1  0.98227600  0.16162100  0.32291300  1
  Zn  Zn33  1  0.98200500  0.16148600  0.83851400  1
  Zn  Zn34  1  0.98227600  0.67708700  0.83837900  1
  Zn  Zn35  1  0.01772400  0.83837900  0.67708700  1
  Zn  Zn36  1  0.01799500  0.83851400  0.16148600  1
  Zn  Zn37  1  0.01772400  0.32291300  0.16162100  1
