# generated using pymatgen
data_SbAsH6(CF4)2
_symmetry_space_group_name_H-M   'P 1'
_cell_length_a   10.76925940
_cell_length_b   10.76925940
_cell_length_c   10.76925940
_cell_angle_alpha   118.25121995
_cell_angle_beta   116.31507835
_cell_angle_gamma   94.78140745
_symmetry_Int_Tables_number   1
_chemical_formula_structural   SbAsH6(CF4)2
_chemical_formula_sum   'Sb4 As4 H24 C8 F32'
_cell_volume   915.68664726
_cell_formula_units_Z   4
loop_
 _symmetry_equiv_pos_site_id
 _symmetry_equiv_pos_as_xyz
  1  'x, y, z'
loop_
 _atom_site_type_symbol
 _atom_site_label
 _atom_site_symmetry_multiplicity
 _atom_site_fract_x
 _atom_site_fract_y
 _atom_site_fract_z
 _atom_site_occupancy
  Sb  Sb0  1  0.57803200  0.32803200  0.25000000  1
  Sb  Sb1  1  0.92196800  0.17196800  0.75000000  1
  Sb  Sb2  1  0.42196800  0.67196800  0.75000000  1
  Sb  Sb3  1  0.07803200  0.82803200  0.25000000  1
  As  As4  1  0.03055600  0.25000000  0.28055600  1
  As  As5  1  0.46944400  0.75000000  0.21944400  1
  As  As6  1  0.96944400  0.75000000  0.71944400  1
  As  As7  1  0.53055600  0.25000000  0.78055600  1
  H  H8  1  0.18016700  0.18313000  0.15334000  1
  H  H9  1  0.31983300  0.47317300  0.00296200  1
  H  H10  1  0.97021000  0.31687000  0.49703700  1
  H  H11  1  0.52979000  0.02682700  0.34666000  1
  H  H12  1  0.81983300  0.81687000  0.84666000  1
  H  H13  1  0.68016700  0.52682700  0.99703700  1
  H  H14  1  0.02979000  0.68313000  0.50296200  1
  H  H15  1  0.47021000  0.97317300  0.65334000  1
  H  H16  1  0.29013300  0.26857600  0.37801200  1
  H  H17  1  0.20986700  0.58787900  0.97844300  1
  H  H18  1  0.10943600  0.23142400  0.52155700  1
  H  H19  1  0.39056400  0.91212100  0.12198800  1
  H  H20  1  0.70986700  0.73142400  0.62198800  1
  H  H21  1  0.79013300  0.41212100  0.02155700  1
  H  H22  1  0.89056400  0.76857600  0.47844300  1
  H  H23  1  0.60943600  0.08787900  0.87801200  1
  H  H24  1  0.24048500  0.38687500  0.30107400  1
  H  H25  1  0.25951500  0.56058900  0.14638900  1
  H  H26  1  0.91419900  0.11312500  0.35361100  1
  H  H27  1  0.58580100  0.93941100  0.19892600  1
  H  H28  1  0.75951500  0.61312500  0.69892600  1
  H  H29  1  0.74048500  0.43941100  0.85361100  1
  H  H30  1  0.08580100  0.88687500  0.64638900  1
  H  H31  1  0.41419900  0.06058900  0.80107400  1
  C  C32  1  0.20738800  0.27457500  0.27674500  1
  C  C33  1  0.29261200  0.56935700  0.06718800  1
  C  C34  1  0.00217000  0.22542500  0.43281200  1
  C  C35  1  0.49783000  0.93064300  0.22325500  1
  C  C36  1  0.79261200  0.72542500  0.72325500  1
  C  C37  1  0.70738800  0.43064300  0.93281200  1
  C  C38  1  0.99783000  0.77457500  0.56718800  1
  C  C39  1  0.50217000  0.06935700  0.77674500  1
  F  F40  1  0.38879400  0.16420600  0.08034000  1
  F  F41  1  0.11120600  0.19154700  0.77541200  1
  F  F42  1  0.91613500  0.33579400  0.72458800  1
  F  F43  1  0.58386500  0.30845300  0.41966000  1
  F  F44  1  0.61120600  0.83579400  0.91966000  1
  F  F45  1  0.88879400  0.80845300  0.22458800  1
  F  F46  1  0.08386500  0.66420600  0.27541200  1
  F  F47  1  0.41613500  0.69154700  0.58034000  1
  F  F48  1  0.68023100  0.19106400  0.20803900  1
  F  F49  1  0.81976900  0.02780800  0.51083300  1
  F  F50  1  0.01697500  0.30893600  0.98916700  1
  F  F51  1  0.48302500  0.47219200  0.29196100  1
  F  F52  1  0.31976900  0.80893600  0.79196100  1
  F  F53  1  0.18023100  0.97219200  0.48916700  1
  F  F54  1  0.98302500  0.69106400  0.01083300  1
  F  F55  1  0.51697500  0.52780800  0.70803900  1
  F  F56  1  0.57822400  0.35216500  0.08258800  1
  F  F57  1  0.92177600  0.00436400  0.77394100  1
  F  F58  1  0.73042200  0.14783500  0.72605900  1
  F  F59  1  0.76957800  0.49563600  0.41741200  1
  F  F60  1  0.42177600  0.64783500  0.91741200  1
  F  F61  1  0.07822400  0.99563600  0.22605900  1
  F  F62  1  0.26957800  0.85216500  0.27394100  1
  F  F63  1  0.23042200  0.50436400  0.58258800  1
  F  F64  1  0.97252500  0.39393800  0.27628500  1
  F  F65  1  0.52747500  0.80376000  0.42141200  1
  F  F66  1  0.88234700  0.10606200  0.07858800  1
  F  F67  1  0.61765300  0.69624000  0.22371500  1
  F  F68  1  0.02747500  0.60606200  0.72371500  1
  F  F69  1  0.47252500  0.19624000  0.57858800  1
  F  F70  1  0.11765300  0.89393800  0.92141200  1
  F  F71  1  0.38234700  0.30376000  0.77628500  1
