# generated using pymatgen
data_YbCl3O13
_symmetry_space_group_name_H-M   'P 1'
_cell_length_a   6.87432900
_cell_length_b   8.21369667
_cell_length_c   9.99950723
_cell_angle_alpha   75.92002184
_cell_angle_beta   74.93530729
_cell_angle_gamma   76.74869204
_symmetry_Int_Tables_number   1
_chemical_formula_structural   YbCl3O13
_chemical_formula_sum   'Yb2 Cl6 O26'
_cell_volume   520.45414453
_cell_formula_units_Z   2
loop_
 _symmetry_equiv_pos_site_id
 _symmetry_equiv_pos_as_xyz
  1  'x, y, z'
loop_
 _atom_site_type_symbol
 _atom_site_label
 _atom_site_symmetry_multiplicity
 _atom_site_fract_x
 _atom_site_fract_y
 _atom_site_fract_z
 _atom_site_occupancy
  Yb  Yb0  1  0.36048100  0.33558400  0.32079400  1
  Yb  Yb1  1  0.63951900  0.66441600  0.67920600  1
  Cl  Cl2  1  0.70944300  0.90062500  0.30541400  1
  Cl  Cl3  1  0.29055700  0.09937500  0.69458600  1
  Cl  Cl4  1  0.19963300  0.68290700  0.52168300  1
  Cl  Cl5  1  0.80036700  0.31709300  0.47831700  1
  Cl  Cl6  1  0.76668600  0.33378700  0.99207000  1
  Cl  Cl7  1  0.23331400  0.66621300  0.00793000  1
  O  O8  1  0.62369200  0.81560900  0.23062200  1
  O  O9  1  0.37630800  0.18439100  0.76937800  1
  O  O10  1  0.56602000  0.06036200  0.33216000  1
  O  O11  1  0.43398000  0.93963800  0.66784000  1
  O  O12  1  0.73155000  0.79269400  0.44309800  1
  O  O13  1  0.26845000  0.20730600  0.55690200  1
  O  O14  1  0.90594600  0.94106700  0.22833700  1
  O  O15  1  0.09405400  0.05893300  0.77166300  1
  O  O16  1  0.18535900  0.86161000  0.46533500  1
  O  O17  1  0.81464100  0.13839000  0.53466500  1
  O  O18  1  0.22811400  0.58970600  0.40870200  1
  O  O19  1  0.77188600  0.41029400  0.59129800  1
  O  O20  1  0.01248900  0.64735300  0.62708000  1
  O  O21  1  0.98751100  0.35264700  0.37292000  1
  O  O22  1  0.37049800  0.61690800  0.59312100  1
  O  O23  1  0.62950200  0.38309200  0.40687900  1
  O  O24  1  0.97265500  0.28290300  0.01549600  1
  O  O25  1  0.02734500  0.71709700  0.98450400  1
  O  O26  1  0.69176000  0.20330800  0.95902200  1
  O  O27  1  0.30824000  0.79669200  0.04097800  1
  O  O28  1  0.76608000  0.48618500  0.87666900  1
  O  O29  1  0.23392000  0.51381500  0.12333100  1
  O  O30  1  0.63292800  0.39105500  0.12041300  1
  O  O31  1  0.36707200  0.60894500  0.87958700  1
  O  O32  1  0.72998700  0.85627100  0.80691400  1
  O  O33  1  0.27001300  0.14372900  0.19308600  1
