# generated using pymatgen
data_SbN6(O3F)3
_symmetry_space_group_name_H-M   'P 1'
_cell_length_a   7.82656800
_cell_length_b   9.35436900
_cell_length_c   10.05396578
_cell_angle_alpha   80.41537540
_cell_angle_beta   90.00000000
_cell_angle_gamma   90.00000000
_symmetry_Int_Tables_number   1
_chemical_formula_structural   SbN6(O3F)3
_chemical_formula_sum   'Sb2 N12 O18 F6'
_cell_volume   725.80194593
_cell_formula_units_Z   2
loop_
 _symmetry_equiv_pos_site_id
 _symmetry_equiv_pos_as_xyz
  1  'x, y, z'
loop_
 _atom_site_type_symbol
 _atom_site_label
 _atom_site_symmetry_multiplicity
 _atom_site_fract_x
 _atom_site_fract_y
 _atom_site_fract_z
 _atom_site_occupancy
  Sb  Sb0  1  0.46264100  0.85754000  0.36247400  1
  Sb  Sb1  1  0.96264100  0.14246000  0.63752600  1
  N  N2  1  0.34604200  0.56897900  0.09997400  1
  N  N3  1  0.84604200  0.43102100  0.90002600  1
  N  N4  1  0.04736100  0.63551800  0.51997800  1
  N  N5  1  0.54736200  0.36448200  0.48002200  1
  N  N6  1  0.58292700  0.95755300  0.88849800  1
  N  N7  1  0.08292700  0.04244700  0.11150200  1
  N  N8  1  0.84422700  0.68961500  0.18357700  1
  N  N9  1  0.34422700  0.31038500  0.81642300  1
  N  N10  1  0.11314000  0.79761600  0.81606800  1
  N  N11  1  0.61314000  0.20238400  0.18393200  1
  N  N12  1  0.57292000  0.68862700  0.69084700  1
  N  N13  1  0.07292000  0.31137300  0.30915300  1
  O  O14  1  0.74329000  0.64859800  0.27933000  1
  O  O15  1  0.24329000  0.35140200  0.72067000  1
  O  O16  1  0.99594500  0.71891500  0.21013000  1
  O  O17  1  0.49594500  0.28108500  0.78987000  1
  O  O18  1  0.79740500  0.70165000  0.06385000  1
  O  O19  1  0.29740500  0.29835000  0.93615000  1
  O  O20  1  0.00452000  0.84679000  0.72602100  1
  O  O21  1  0.50452000  0.15321000  0.27397900  1
  O  O22  1  0.12941400  0.66336500  0.84399000  1
  O  O23  1  0.62941400  0.33663500  0.15601000  1
  O  O24  1  0.19900100  0.88103500  0.87273200  1
  O  O25  1  0.69900100  0.11896500  0.12726800  1
  O  O26  1  0.56998500  0.64922300  0.81687500  1
  O  O27  1  0.06998500  0.35077700  0.18312500  1
  O  O28  1  0.67101100  0.63010900  0.61921100  1
  O  O29  1  0.17101100  0.36989100  0.38078900  1
  O  O30  1  0.47234400  0.78949600  0.64133200  1
  O  O31  1  0.97234400  0.21050400  0.35866800  1
  F  F32  1  0.41647900  0.87324100  0.17218300  1
  F  F33  1  0.91647900  0.12675900  0.82781700  1
  F  F34  1  0.38018900  0.66135500  0.39379600  1
  F  F35  1  0.88018900  0.33864500  0.60620400  1
  F  F36  1  0.24595700  0.93572100  0.40661700  1
  F  F37  1  0.74595700  0.06427900  0.59338300  1
