# generated using pymatgen
data_K5NaFe2(CO2)12
_symmetry_space_group_name_H-M   'P 1'
_cell_length_a   13.80314029
_cell_length_b   13.80314029
_cell_length_c   13.80314029
_cell_angle_alpha   90.00000000
_cell_angle_beta   90.00000000
_cell_angle_gamma   90.00000000
_symmetry_Int_Tables_number   1
_chemical_formula_structural   K5NaFe2(CO2)12
_chemical_formula_sum   'K20 Na4 Fe8 C48 O96'
_cell_volume   2629.86651878
_cell_formula_units_Z   4
loop_
 _symmetry_equiv_pos_site_id
 _symmetry_equiv_pos_as_xyz
  1  'x, y, z'
loop_
 _atom_site_type_symbol
 _atom_site_label
 _atom_site_symmetry_multiplicity
 _atom_site_fract_x
 _atom_site_fract_y
 _atom_site_fract_z
 _atom_site_occupancy
  K  K0  1  0.07993591  0.57993591  0.92006409  1
  K  K1  1  0.92006409  0.07993591  0.57993591  1
  K  K2  1  0.57993591  0.92006409  0.07993591  1
  K  K3  1  0.42006409  0.42006409  0.42006409  1
  K  K4  1  0.67006409  0.17006409  0.32993591  1
  K  K5  1  0.17006409  0.32993591  0.67006409  1
  K  K6  1  0.32993591  0.67006409  0.17006409  1
  K  K7  1  0.82993591  0.82993591  0.82993591  1
  K  K8  1  0.75915328  0.50915328  0.87500000  1
  K  K9  1  0.24084672  0.00915328  0.62500000  1
  K  K10  1  0.00915328  0.62500000  0.24084672  1
  K  K11  1  0.99084672  0.12500000  0.25915328  1
  K  K12  1  0.12500000  0.25915328  0.99084672  1
  K  K13  1  0.87500000  0.75915328  0.50915328  1
  K  K14  1  0.25915328  0.99084672  0.12500000  1
  K  K15  1  0.74084672  0.49084672  0.37500000  1
  K  K16  1  0.50915328  0.87500000  0.75915328  1
  K  K17  1  0.49084672  0.37500000  0.74084672  1
  K  K18  1  0.62500000  0.24084672  0.00915328  1
  K  K19  1  0.37500000  0.74084672  0.49084672  1
  Na  Na20  1  0.87500000  0.37500000  0.12500000  1
  Na  Na21  1  0.12500000  0.87500000  0.37500000  1
  Na  Na22  1  0.37500000  0.12500000  0.87500000  1
  Na  Na23  1  0.62500000  0.62500000  0.62500000  1
  Fe  Fe24  1  0.23948508  0.73948508  0.76051492  1
  Fe  Fe25  1  0.76051492  0.23948508  0.73948508  1
  Fe  Fe26  1  0.73948508  0.76051492  0.23948508  1
  Fe  Fe27  1  0.26051492  0.26051492  0.26051492  1
  Fe  Fe28  1  0.51051492  0.01051492  0.48948508  1
  Fe  Fe29  1  0.01051492  0.48948508  0.51051492  1
  Fe  Fe30  1  0.48948508  0.51051492  0.01051492  1
  Fe  Fe31  1  0.98948508  0.98948508  0.98948508  1
  C  C32  1  0.27030526  0.80102818  0.95527184  1
  C  C33  1  0.72969474  0.30102818  0.54472816  1
  C  C34  1  0.30102818  0.54472816  0.72969474  1
  C  C35  1  0.69897182  0.04472816  0.77030526  1
  C  C36  1  0.04472816  0.77030526  0.69897182  1
  C  C37  1  0.95527184  0.27030526  0.80102818  1
  C  C38  1  0.77030526  0.69897182  0.04472816  1
  C  C39  1  0.22969474  0.19897182  0.45527184  1
  C  C40  1  0.80102818  0.95527184  0.27030526  1
  C  C41  1  0.19897182  0.45527184  0.22969474  1
  C  C42  1  0.54472816  0.72969474  0.30102818  1
  C  C43  1  0.45527184  0.22969474  0.19897182  1
  C  C44  1  0.44897182  0.97969474  0.29472816  1
  C  C45  1  0.94897182  0.52030526  0.70527184  1
  C  C46  1  0.55102818  0.47969474  0.20527184  1
  C  C47  1  0.05102818  0.02030526  0.79472816  1
  C  C48  1  0.52030526  0.70527184  0.94897182  1
  C  C49  1  0.47969474  0.20527184  0.55102818  1
  C  C50  1  0.97969474  0.29472816  0.44897182  1
  C  C51  1  0.02030526  0.79472816  0.05102818  1
  C  C52  1  0.70527184  0.94897182  0.52030526  1
  C  C53  1  0.20527184  0.55102818  0.47969474  1
  C  C54  1  0.29472816  0.44897182  0.97969474  1
  C  C55  1  0.79472816  0.05102818  0.02030526  1
  C  C56  1  0.30652232  0.88660408  0.89132112  1
  C  C57  1  0.69347768  0.38660408  0.60867888  1
  C  C58  1  0.38660408  0.60867888  0.69347768  1
  C  C59  1  0.61339592  0.10867888  0.80652232  1
  C  C60  1  0.10867888  0.80652232  0.61339592  1
  C  C61  1  0.89132112  0.30652232  0.88660408  1
  C  C62  1  0.80652232  0.61339592  0.10867888  1
  C  C63  1  0.19347768  0.11339592  0.39132112  1
  C  C64  1  0.88660408  0.89132112  0.30652232  1
  C  C65  1  0.11339592  0.39132112  0.19347768  1
  C  C66  1  0.60867888  0.69347768  0.38660408  1
  C  C67  1  0.39132112  0.19347768  0.11339592  1
  C  C68  1  0.36339592  0.94347768  0.35867888  1
  C  C69  1  0.86339592  0.55652232  0.64132112  1
  C  C70  1  0.63660408  0.44347768  0.14132112  1
  C  C71  1  0.13660408  0.05652232  0.85867888  1
  C  C72  1  0.55652232  0.64132112  0.86339592  1
  C  C73  1  0.44347768  0.14132112  0.63660408  1
  C  C74  1  0.94347768  0.35867888  0.36339592  1
  C  C75  1  0.05652232  0.85867888  0.13660408  1
  C  C76  1  0.64132112  0.86339592  0.55652232  1
  C  C77  1  0.14132112  0.63660408  0.44347768  1
  C  C78  1  0.35867888  0.36339592  0.94347768  1
  C  C79  1  0.85867888  0.13660408  0.05652232  1
  O  O80  1  0.24769861  0.72422707  0.90685864  1
  O  O81  1  0.75230139  0.22422707  0.59314136  1
  O  O82  1  0.22422707  0.59314136  0.75230139  1
  O  O83  1  0.77577293  0.09314136  0.74769861  1
  O  O84  1  0.09314136  0.74769861  0.77577293  1
  O  O85  1  0.90685864  0.24769861  0.72422707  1
  O  O86  1  0.74769861  0.77577293  0.09314136  1
  O  O87  1  0.25230139  0.27577293  0.40685864  1
  O  O88  1  0.72422707  0.90685864  0.24769861  1
  O  O89  1  0.27577293  0.40685864  0.25230139  1
  O  O90  1  0.59314136  0.75230139  0.22422707  1
  O  O91  1  0.40685864  0.25230139  0.27577293  1
  O  O92  1  0.52577293  0.00230139  0.34314136  1
  O  O93  1  0.02577293  0.49769861  0.65685864  1
  O  O94  1  0.47422707  0.50230139  0.15685864  1
  O  O95  1  0.97422707  0.99769861  0.84314136  1
  O  O96  1  0.49769861  0.65685864  0.02577293  1
  O  O97  1  0.50230139  0.15685864  0.47422707  1
  O  O98  1  0.00230139  0.34314136  0.52577293  1
  O  O99  1  0.99769861  0.84314136  0.97422707  1
  O  O100  1  0.65685864  0.02577293  0.49769861  1
  O  O101  1  0.15685864  0.47422707  0.50230139  1
  O  O102  1  0.34314136  0.52577293  0.00230139  1
  O  O103  1  0.84314136  0.97422707  0.99769861  1
  O  O104  1  0.29500567  0.87236343  0.79857913  1
  O  O105  1  0.70499433  0.37236343  0.70142087  1
  O  O106  1  0.37236343  0.70142087  0.70499433  1
  O  O107  1  0.62763657  0.20142087  0.79500567  1
  O  O108  1  0.20142087  0.79500567  0.62763657  1
  O  O109  1  0.79857913  0.29500567  0.87236343  1
  O  O110  1  0.79500567  0.62763657  0.20142087  1
  O  O111  1  0.20499433  0.12763657  0.29857913  1
  O  O112  1  0.87236343  0.79857913  0.29500567  1
  O  O113  1  0.12763657  0.29857913  0.20499433  1
  O  O114  1  0.70142087  0.70499433  0.37236343  1
  O  O115  1  0.29857913  0.20499433  0.12763657  1
  O  O116  1  0.37763657  0.95499433  0.45142087  1
  O  O117  1  0.87763657  0.54500567  0.54857913  1
  O  O118  1  0.62236343  0.45499433  0.04857913  1
  O  O119  1  0.12236343  0.04500567  0.95142087  1
  O  O120  1  0.54500567  0.54857913  0.87763657  1
  O  O121  1  0.45499433  0.04857913  0.62236343  1
  O  O122  1  0.95499433  0.45142087  0.37763657  1
  O  O123  1  0.04500567  0.95142087  0.12236343  1
  O  O124  1  0.54857913  0.87763657  0.54500567  1
  O  O125  1  0.04857913  0.62236343  0.45499433  1
  O  O126  1  0.45142087  0.37763657  0.95499433  1
  O  O127  1  0.95142087  0.12236343  0.04500567  1
  O  O128  1  0.26554790  0.81013965  0.04469550  1
  O  O129  1  0.73445210  0.31013965  0.45530450  1
  O  O130  1  0.31013965  0.45530450  0.73445210  1
  O  O131  1  0.68986035  0.95530450  0.76554790  1
  O  O132  1  0.95530450  0.76554790  0.68986035  1
  O  O133  1  0.04469550  0.26554790  0.81013965  1
  O  O134  1  0.76554790  0.68986035  0.95530450  1
  O  O135  1  0.23445210  0.18986035  0.54469550  1
  O  O136  1  0.81013965  0.04469550  0.26554790  1
  O  O137  1  0.18986035  0.54469550  0.23445210  1
  O  O138  1  0.45530450  0.73445210  0.31013965  1
  O  O139  1  0.54469550  0.23445210  0.18986035  1
  O  O140  1  0.43986035  0.98445210  0.20530450  1
  O  O141  1  0.93986035  0.51554790  0.79469550  1
  O  O142  1  0.56013965  0.48445210  0.29469550  1
  O  O143  1  0.06013965  0.01554790  0.70530450  1
  O  O144  1  0.51554790  0.79469550  0.93986035  1
  O  O145  1  0.48445210  0.29469550  0.56013965  1
  O  O146  1  0.98445210  0.20530450  0.43986035  1
  O  O147  1  0.01554790  0.70530450  0.06013965  1
  O  O148  1  0.79469550  0.93986035  0.51554790  1
  O  O149  1  0.29469550  0.56013965  0.48445210  1
  O  O150  1  0.20530450  0.43986035  0.98445210  1
  O  O151  1  0.70530450  0.06013965  0.01554790  1
  O  O152  1  0.34349600  0.95910701  0.92894094  1
  O  O153  1  0.65650400  0.45910701  0.57105906  1
  O  O154  1  0.45910701  0.57105906  0.65650400  1
  O  O155  1  0.54089299  0.07105906  0.84349600  1
  O  O156  1  0.07105906  0.84349600  0.54089299  1
  O  O157  1  0.92894094  0.34349600  0.95910701  1
  O  O158  1  0.84349600  0.54089299  0.07105906  1
  O  O159  1  0.15650400  0.04089299  0.42894094  1
  O  O160  1  0.95910701  0.92894094  0.34349600  1
  O  O161  1  0.04089299  0.42894094  0.15650400  1
  O  O162  1  0.57105906  0.65650400  0.45910701  1
  O  O163  1  0.42894094  0.15650400  0.04089299  1
  O  O164  1  0.29089299  0.90650400  0.32105906  1
  O  O165  1  0.79089299  0.59349600  0.67894094  1
  O  O166  1  0.70910701  0.40650400  0.17894094  1
  O  O167  1  0.20910701  0.09349600  0.82105906  1
  O  O168  1  0.59349600  0.67894094  0.79089299  1
  O  O169  1  0.40650400  0.17894094  0.70910701  1
  O  O170  1  0.90650400  0.32105906  0.29089299  1
  O  O171  1  0.09349600  0.82105906  0.20910701  1
  O  O172  1  0.67894094  0.79089299  0.59349600  1
  O  O173  1  0.17894094  0.70910701  0.40650400  1
  O  O174  1  0.32105906  0.29089299  0.90650400  1
  O  O175  1  0.82105906  0.20910701  0.09349600  1
