# generated using pymatgen
data_Cu5H14(SO9)2
_symmetry_space_group_name_H-M   'P 1'
_cell_length_a   5.62177270
_cell_length_b   6.10575147
_cell_length_c   11.26755030
_cell_angle_alpha   88.45747056
_cell_angle_beta   103.66815150
_cell_angle_gamma   88.27234505
_symmetry_Int_Tables_number   1
_chemical_formula_structural   Cu5H14(SO9)2
_chemical_formula_sum   'Cu5 H14 S2 O18'
_cell_volume   375.40585255
_cell_formula_units_Z   1
loop_
 _symmetry_equiv_pos_site_id
 _symmetry_equiv_pos_as_xyz
  1  'x, y, z'
loop_
 _atom_site_type_symbol
 _atom_site_label
 _atom_site_symmetry_multiplicity
 _atom_site_fract_x
 _atom_site_fract_y
 _atom_site_fract_z
 _atom_site_occupancy
  Cu  Cu0  1  0.00000000  0.00000000  0.00000000  1
  Cu  Cu1  1  0.00000000  0.50000000  0.00000000  1
  Cu  Cu2  1  0.50017800  0.24947100  0.99875700  1
  Cu  Cu3  1  0.49982300  0.75052900  0.00124300  1
  Cu  Cu4  1  0.00000000  0.50000000  0.50000000  1
  H  H5  1  0.84876700  0.25413100  0.82366200  1
  H  H6  1  0.15123300  0.74586900  0.17633800  1
  H  H7  1  0.74844800  0.50407500  0.17027600  1
  H  H8  1  0.25155200  0.49592500  0.82972400  1
  H  H9  1  0.76777000  0.00400500  0.16572900  1
  H  H10  1  0.23223000  0.99599500  0.83427100  1
  H  H11  1  0.13237800  0.87436600  0.41830300  1
  H  H12  1  0.86762200  0.12563400  0.58169700  1
  H  H13  1  0.26662000  0.83829500  0.56494600  1
  H  H14  1  0.73338000  0.16170500  0.43505400  1
  H  H15  1  0.65910700  0.75723100  0.36207000  1
  H  H16  1  0.34089300  0.24276900  0.63793000  1
  H  H17  1  0.55615700  0.51721100  0.36759700  1
  H  H18  1  0.44384300  0.48278900  0.63240300  1
  S  S19  1  0.29785500  0.17180100  0.28080100  1
  S  S20  1  0.70214500  0.82819900  0.71919900  1
  O  O21  1  0.84073700  0.25998400  0.90936000  1
  O  O22  1  0.15926300  0.74001600  0.09064000  1
  O  O23  1  0.71207500  0.49998500  0.08083500  1
  O  O24  1  0.28792500  0.50001500  0.91916500  1
  O  O25  1  0.71584600  0.99632500  0.07601200  1
  O  O26  1  0.28415400  0.00367500  0.92398800  1
  O  O27  1  0.25694900  0.23003700  0.14741800  1
  O  O28  1  0.74305100  0.76996300  0.85258200  1
  O  O29  1  0.09919000  0.02464800  0.29738300  1
  O  O30  1  0.90081000  0.97535200  0.70261700  1
  O  O31  1  0.29507000  0.37551600  0.35042000  1
  O  O32  1  0.70493000  0.62448400  0.64958000  1
  O  O33  1  0.54225000  0.05199800  0.32362100  1
  O  O34  1  0.45775000  0.94800200  0.67637900  1
  O  O35  1  0.14861800  0.77660100  0.49345500  1
  O  O36  1  0.85138200  0.22339900  0.50654500  1
  O  O37  1  0.70754100  0.59938300  0.36318300  1
  O  O38  1  0.29245900  0.40061700  0.63681700  1
