# generated using pymatgen
data_Ho3GaNi
_symmetry_space_group_name_H-M   'P 1'
_cell_length_a   14.69425440
_cell_length_b   14.69425440
_cell_length_c   14.69425440
_cell_angle_alpha   134.07564826
_cell_angle_beta   134.07564826
_cell_angle_gamma   66.96987647
_symmetry_Int_Tables_number   1
_chemical_formula_structural   Ho3GaNi
_chemical_formula_sum   'Ho42 Ga14 Ni14'
_cell_volume   1610.97468234
_cell_formula_units_Z   14
loop_
 _symmetry_equiv_pos_site_id
 _symmetry_equiv_pos_as_xyz
  1  'x, y, z'
loop_
 _atom_site_type_symbol
 _atom_site_label
 _atom_site_symmetry_multiplicity
 _atom_site_fract_x
 _atom_site_fract_y
 _atom_site_fract_z
 _atom_site_occupancy
  Ho  Ho0  1  0.62203800  0.50591500  0.28184400  1
  Ho  Ho1  1  0.22407100  0.34019400  0.71815600  1
  Ho  Ho2  1  0.12203800  0.84019400  0.11612200  1
  Ho  Ho3  1  0.72407100  0.00591500  0.88387800  1
  Ho  Ho4  1  0.34019400  0.62203800  0.11612200  1
  Ho  Ho5  1  0.50591500  0.22407100  0.88387800  1
  Ho  Ho6  1  0.00591500  0.12203800  0.28184400  1
  Ho  Ho7  1  0.84019400  0.72407100  0.71815600  1
  Ho  Ho8  1  0.37796200  0.49408500  0.71815600  1
  Ho  Ho9  1  0.77592900  0.65980600  0.28184400  1
  Ho  Ho10  1  0.87796200  0.15980600  0.88387800  1
  Ho  Ho11  1  0.27592900  0.99408500  0.11612200  1
  Ho  Ho12  1  0.65980600  0.37796200  0.88387800  1
  Ho  Ho13  1  0.49408500  0.77592900  0.11612200  1
  Ho  Ho14  1  0.99408500  0.87796200  0.71815600  1
  Ho  Ho15  1  0.15980600  0.27592900  0.28184400  1
  Ho  Ho16  1  0.38463900  0.51530300  0.28750400  1
  Ho  Ho17  1  0.22779900  0.09713500  0.71249600  1
  Ho  Ho18  1  0.88463900  0.59713500  0.86933600  1
  Ho  Ho19  1  0.72779900  0.01530300  0.13066400  1
  Ho  Ho20  1  0.09713500  0.38463900  0.86933600  1
  Ho  Ho21  1  0.51530300  0.22779900  0.13066400  1
  Ho  Ho22  1  0.01530300  0.88463900  0.28750400  1
  Ho  Ho23  1  0.59713500  0.72779900  0.71249600  1
  Ho  Ho24  1  0.61536100  0.48469700  0.71249600  1
  Ho  Ho25  1  0.77220100  0.90286500  0.28750400  1
  Ho  Ho26  1  0.11536100  0.40286500  0.13066400  1
  Ho  Ho27  1  0.27220100  0.98469700  0.86933600  1
  Ho  Ho28  1  0.90286500  0.61536100  0.13066400  1
  Ho  Ho29  1  0.48469700  0.77220100  0.86933600  1
  Ho  Ho30  1  0.98469700  0.11536100  0.71249600  1
  Ho  Ho31  1  0.40286500  0.27220100  0.28750400  1
  Ho  Ho32  1  0.15090000  0.65090000  0.80179900  1
  Ho  Ho33  1  0.84910000  0.34910000  0.19820100  1
  Ho  Ho34  1  0.65090000  0.84910000  0.50000000  1
  Ho  Ho35  1  0.34910000  0.15090000  0.50000000  1
  Ho  Ho36  1  0.39147900  0.89147900  0.50000000  1
  Ho  Ho37  1  0.89147900  0.39147900  0.50000000  1
  Ho  Ho38  1  0.60852100  0.10852100  0.50000000  1
  Ho  Ho39  1  0.10852100  0.60852100  0.50000000  1
  Ho  Ho40  1  0.25000000  0.75000000  0.50000000  1
  Ho  Ho41  1  0.75000000  0.25000000  0.50000000  1
  Ga  Ga42  1  0.47072400  0.97072400  0.81757300  1
  Ga  Ga43  1  0.15315200  0.65315200  0.18242700  1
  Ga  Ga44  1  0.97072400  0.15315200  0.50000000  1
  Ga  Ga45  1  0.65315200  0.47072400  0.50000000  1
  Ga  Ga46  1  0.52927600  0.02927600  0.18242700  1
  Ga  Ga47  1  0.84684800  0.34684800  0.81757300  1
  Ga  Ga48  1  0.02927600  0.84684800  0.50000000  1
  Ga  Ga49  1  0.34684800  0.52927600  0.50000000  1
  Ga  Ga50  1  0.60503500  0.10503500  0.71006900  1
  Ga  Ga51  1  0.39496500  0.89496500  0.28993100  1
  Ga  Ga52  1  0.10503500  0.39496500  0.50000000  1
  Ga  Ga53  1  0.89496500  0.60503500  0.50000000  1
  Ga  Ga54  1  0.50000000  0.50000000  0.00000000  1
  Ga  Ga55  1  0.00000000  0.00000000  0.00000000  1
  Ni  Ni56  1  0.07033000  0.57033000  0.85777500  1
  Ni  Ni57  1  0.71255500  0.21255500  0.14222500  1
  Ni  Ni58  1  0.57033000  0.71255500  0.50000000  1
  Ni  Ni59  1  0.21255500  0.07033000  0.50000000  1
  Ni  Ni60  1  0.92967000  0.42967000  0.14222500  1
  Ni  Ni61  1  0.28744500  0.78744500  0.85777500  1
  Ni  Ni62  1  0.42967000  0.28744500  0.50000000  1
  Ni  Ni63  1  0.78744500  0.92967000  0.50000000  1
  Ni  Ni64  1  0.36031200  0.36031200  0.00000000  1
  Ni  Ni65  1  0.86031200  0.86031200  0.00000000  1
  Ni  Ni66  1  0.63968800  0.63968800  0.00000000  1
  Ni  Ni67  1  0.13968800  0.13968800  0.00000000  1
  Ni  Ni68  1  0.25000000  0.25000000  0.00000000  1
  Ni  Ni69  1  0.75000000  0.75000000  0.00000000  1
