# generated using pymatgen
data_Sr3TeO6
_symmetry_space_group_name_H-M   'P 1'
_cell_length_a   11.87289012
_cell_length_b   11.91685417
_cell_length_c   11.90936598
_cell_angle_alpha   119.88772060
_cell_angle_beta   119.61103695
_cell_angle_gamma   90.25443649
_symmetry_Int_Tables_number   1
_chemical_formula_structural   Sr3TeO6
_chemical_formula_sum   'Sr24 Te8 O48'
_cell_volume   1197.84479652
_cell_formula_units_Z   8
loop_
 _symmetry_equiv_pos_site_id
 _symmetry_equiv_pos_as_xyz
  1  'x, y, z'
loop_
 _atom_site_type_symbol
 _atom_site_label
 _atom_site_symmetry_multiplicity
 _atom_site_fract_x
 _atom_site_fract_y
 _atom_site_fract_z
 _atom_site_occupancy
  Sr  Sr0  1  0.72276100  0.72041500  0.50237800  1
  Sr  Sr1  1  0.27723900  0.27958500  0.49762200  1
  Sr  Sr2  1  0.27477200  0.77782500  0.05464100  1
  Sr  Sr3  1  0.72522800  0.22217500  0.94535900  1
  Sr  Sr4  1  0.21513200  0.26771800  0.99676600  1
  Sr  Sr5  1  0.78486800  0.73228200  0.00323400  1
  Sr  Sr6  1  0.72587200  0.26584300  0.53312800  1
  Sr  Sr7  1  0.27412800  0.73415700  0.46687200  1
  Sr  Sr8  1  0.36275600  0.12810900  0.20653500  1
  Sr  Sr9  1  0.63724400  0.87189100  0.79346500  1
  Sr  Sr10  1  0.38272400  0.60914200  0.22389200  1
  Sr  Sr11  1  0.61727600  0.39085800  0.77610800  1
  Sr  Sr12  1  0.87013500  0.07708000  0.71432100  1
  Sr  Sr13  1  0.12986500  0.92292000  0.28567900  1
  Sr  Sr14  1  0.64667700  0.88138400  0.25855900  1
  Sr  Sr15  1  0.35332300  0.11861600  0.74144100  1
  Sr  Sr16  1  0.91881300  0.62794000  0.75648900  1
  Sr  Sr17  1  0.08118700  0.37206000  0.24351100  1
  Sr  Sr18  1  0.62312500  0.35114400  0.23179500  1
  Sr  Sr19  1  0.37687500  0.64885600  0.76820500  1
  Sr  Sr20  1  0.86225300  0.13397600  0.27503600  1
  Sr  Sr21  1  0.13774700  0.86602400  0.72496400  1
  Sr  Sr22  1  0.11542200  0.36931200  0.72789100  1
  Sr  Sr23  1  0.88457800  0.63068800  0.27210900  1
  Te  Te24  1  0.50000000  0.50000000  0.50000000  1
  Te  Te25  1  0.50000000  0.00000000  0.50000000  1
  Te  Te26  1  0.00000000  0.50000000  0.00000000  1
  Te  Te27  1  0.50000000  0.00000000  0.00000000  1
  Te  Te28  1  0.00000000  0.00000000  0.50000000  1
  Te  Te29  1  0.00000000  0.50000000  0.50000000  1
  Te  Te30  1  0.50000000  0.50000000  0.00000000  1
  Te  Te31  1  0.00000000  0.00000000  0.00000000  1
  O  O32  1  0.40647400  0.37869500  0.26878100  1
  O  O33  1  0.59352600  0.62130500  0.73121900  1
  O  O34  1  0.67220500  0.51085700  0.51646800  1
  O  O35  1  0.32779500  0.48914300  0.48353200  1
  O  O36  1  0.50202000  0.33487800  0.50301000  1
  O  O37  1  0.49798000  0.66512200  0.49699000  1
  O  O38  1  0.62141500  0.89154400  0.47645200  1
  O  O39  1  0.37858500  0.10845600  0.52354800  1
  O  O40  1  0.48006700  0.00806100  0.33107800  1
  O  O41  1  0.51993300  0.99193900  0.66892200  1
  O  O42  1  0.66489800  0.16836400  0.66306700  1
  O  O43  1  0.33510200  0.83163600  0.33693300  1
  O  O44  1  0.11431900  0.57596200  0.96264700  1
  O  O45  1  0.88568100  0.42403800  0.03735300  1
  O  O46  1  0.00767700  0.68012400  0.15081100  1
  O  O47  1  0.99232300  0.31987600  0.84918900  1
  O  O48  1  0.83452100  0.49455700  0.82757100  1
  O  O49  1  0.16547900  0.50544300  0.17242900  1
  O  O50  1  0.39809400  0.12757700  0.98781300  1
  O  O51  1  0.60190600  0.87242300  0.01218700  1
  O  O52  1  0.35810300  0.89914100  0.98421100  1
  O  O53  1  0.64189700  0.10085900  0.01578900  1
  O  O54  1  0.60750200  0.12557000  0.23410300  1
  O  O55  1  0.39249800  0.87443000  0.76589700  1
  O  O56  1  0.89012500  0.87077800  0.49468700  1
  O  O57  1  0.10987500  0.12922200  0.50531300  1
  O  O58  1  0.88459200  0.89443500  0.27424400  1
  O  O59  1  0.11540800  0.10556500  0.72575600  1
  O  O60  1  0.87150000  0.10670600  0.49963100  1
  O  O61  1  0.12850000  0.89329400  0.50036900  1
  O  O62  1  0.13847900  0.60571000  0.72999500  1
  O  O63  1  0.86152100  0.39429000  0.27000500  1
  O  O64  1  0.91401800  0.63946600  0.53835200  1
  O  O65  1  0.08598200  0.36053400  0.46164800  1
  O  O66  1  0.89222200  0.39196700  0.52028500  1
  O  O67  1  0.10777800  0.60803300  0.47971500  1
  O  O68  1  0.34027700  0.39683500  0.96027900  1
  O  O69  1  0.65972300  0.60316500  0.03972100  1
  O  O70  1  0.44136500  0.66115300  0.05930400  1
  O  O71  1  0.55863500  0.33884700  0.94069600  1
  O  O72  1  0.60571100  0.56003100  0.21981500  1
  O  O73  1  0.39428900  0.43996900  0.78018500  1
  O  O74  1  0.09029900  0.86855600  0.02240100  1
  O  O75  1  0.90970100  0.13144400  0.97759900  1
  O  O76  1  0.10346200  0.04178600  0.93089200  1
  O  O77  1  0.89653800  0.95821400  0.06910800  1
  O  O78  1  0.14810600  0.14630200  0.21724300  1
  O  O79  1  0.85189400  0.85369800  0.78275700  1
