# generated using pymatgen
data_K2Be2Ni(O3F4)2
_symmetry_space_group_name_H-M   'P 1'
_cell_length_a   6.51537837
_cell_length_b   8.19379808
_cell_length_c   11.14576683
_cell_angle_alpha   90.07839564
_cell_angle_beta   89.96340993
_cell_angle_gamma   108.67282169
_symmetry_Int_Tables_number   1
_chemical_formula_structural   K2Be2Ni(O3F4)2
_chemical_formula_sum   'K4 Be4 Ni2 O12 F16'
_cell_volume   563.70321688
_cell_formula_units_Z   2
loop_
 _symmetry_equiv_pos_site_id
 _symmetry_equiv_pos_as_xyz
  1  'x, y, z'
loop_
 _atom_site_type_symbol
 _atom_site_label
 _atom_site_symmetry_multiplicity
 _atom_site_fract_x
 _atom_site_fract_y
 _atom_site_fract_z
 _atom_site_occupancy
  K  K0  1  0.36705300  0.61795500  0.15142600  1
  K  K1  1  0.63262600  0.88207200  0.65143300  1
  K  K2  1  0.63293900  0.38207500  0.84856400  1
  K  K3  1  0.36735400  0.11796400  0.34854600  1
  Be  Be4  1  0.25252900  0.57891500  0.84826600  1
  Be  Be5  1  0.74810600  0.92115300  0.34809400  1
  Be  Be6  1  0.74755100  0.42115600  0.15171900  1
  Be  Be7  1  0.25196300  0.07892600  0.65190500  1
  Ni  Ni8  1  0.99994600  0.50001200  0.50007700  1
  Ni  Ni9  1  0.00004000  0.00005800  0.99997300  1
  O  O10  1  0.01579600  0.32502900  0.40328000  1
  O  O11  1  0.98423200  0.17496600  0.90374700  1
  O  O12  1  0.98419000  0.67467600  0.59655100  1
  O  O13  1  0.01574400  0.82503000  0.09626500  1
  O  O14  1  0.09722500  0.64233600  0.37157500  1
  O  O15  1  0.90273100  0.85782800  0.87112700  1
  O  O16  1  0.90252500  0.35738700  0.62863600  1
  O  O17  1  0.09724100  0.14227400  0.12884400  1
  O  O18  1  0.23014300  0.46075100  0.58314900  1
  O  O19  1  0.77004600  0.03911300  0.08315700  1
  O  O20  1  0.77027700  0.53924400  0.41695200  1
  O  O21  1  0.22998500  0.96094400  0.91679100  1
  F  F22  1  0.43677400  0.59188200  0.75842800  1
  F  F23  1  0.56346600  0.90817600  0.25839300  1
  F  F24  1  0.56319400  0.40815700  0.24158700  1
  F  F25  1  0.43646200  0.09182500  0.74159200  1
  F  F26  1  0.02963500  0.56576300  0.78654600  1
  F  F27  1  0.97027700  0.93389900  0.28654500  1
  F  F28  1  0.97032900  0.43428500  0.21344100  1
  F  F29  1  0.02968300  0.06611900  0.71341500  1
  F  F30  1  0.33091800  0.73824800  0.93630800  1
  F  F31  1  0.66881500  0.76178000  0.43615500  1
  F  F32  1  0.66903000  0.26178200  0.06368600  1
  F  F33  1  0.33118100  0.23822700  0.56385500  1
  F  F34  1  0.23174300  0.42119200  0.93714500  1
  F  F35  1  0.76881400  0.07898100  0.43724800  1
  F  F36  1  0.76825700  0.57883800  0.06284400  1
  F  F37  1  0.23117900  0.92098400  0.56273300  1
