# generated using pymatgen
data_ZnH24C6(N7O6)2
_symmetry_space_group_name_H-M   'P 1'
_cell_length_a   12.66337569
_cell_length_b   12.66337569
_cell_length_c   7.51739799
_cell_angle_alpha   76.53443011
_cell_angle_beta   76.53443011
_cell_angle_gamma   93.03010597
_symmetry_Int_Tables_number   1
_chemical_formula_structural   ZnH24C6(N7O6)2
_chemical_formula_sum   'Zn2 H48 C12 N28 O24'
_cell_volume   1132.79918018
_cell_formula_units_Z   2
loop_
 _symmetry_equiv_pos_site_id
 _symmetry_equiv_pos_as_xyz
  1  'x, y, z'
loop_
 _atom_site_type_symbol
 _atom_site_label
 _atom_site_symmetry_multiplicity
 _atom_site_fract_x
 _atom_site_fract_y
 _atom_site_fract_z
 _atom_site_occupancy
  Zn  Zn0  1  0.17896400  0.82103600  0.75000000  1
  Zn  Zn1  1  0.82103600  0.17896400  0.25000000  1
  H  H2  1  0.38770500  0.12833500  0.73259500  1
  H  H3  1  0.87166500  0.61229500  0.76740500  1
  H  H4  1  0.61229500  0.87166500  0.26740500  1
  H  H5  1  0.12833500  0.38770500  0.23259500  1
  H  H6  1  0.40162700  0.10412200  0.96168300  1
  H  H7  1  0.89587800  0.59837300  0.53831700  1
  H  H8  1  0.59837300  0.89587800  0.03831700  1
  H  H9  1  0.10412200  0.40162700  0.46168300  1
  H  H10  1  0.27675000  0.82928000  0.08436500  1
  H  H11  1  0.17072000  0.72325000  0.41563500  1
  H  H12  1  0.72325000  0.17072000  0.91563500  1
  H  H13  1  0.82928000  0.27675000  0.58436500  1
  H  H14  1  0.32401000  0.93573100  0.17409300  1
  H  H15  1  0.06426900  0.67599000  0.32590700  1
  H  H16  1  0.67599000  0.06426900  0.82590700  1
  H  H17  1  0.93573100  0.32401000  0.67409300  1
  H  H18  1  0.92560700  0.96296900  0.15228300  1
  H  H19  1  0.03703100  0.07439300  0.34771700  1
  H  H20  1  0.07439300  0.03703100  0.84771700  1
  H  H21  1  0.96296900  0.92560700  0.65228300  1
  H  H22  1  0.84372600  0.83825400  0.27794100  1
  H  H23  1  0.16174600  0.15627400  0.22205900  1
  H  H24  1  0.15627400  0.16174600  0.72205900  1
  H  H25  1  0.83825400  0.84372600  0.77794100  1
  H  H26  1  0.98730000  0.67943000  0.01373800  1
  H  H27  1  0.32057000  0.01270000  0.48626200  1
  H  H28  1  0.01270000  0.32057000  0.98626200  1
  H  H29  1  0.67943000  0.98730000  0.51373800  1
  H  H30  1  0.87961100  0.68026400  0.20401100  1
  H  H31  1  0.31973600  0.12038900  0.29598900  1
  H  H32  1  0.12038900  0.31973600  0.79598900  1
  H  H33  1  0.68026400  0.87961100  0.70401100  1
  H  H34  1  0.39460100  0.65736200  0.07506700  1
  H  H35  1  0.34263800  0.60539900  0.42493300  1
  H  H36  1  0.60539900  0.34263800  0.92493300  1
  H  H37  1  0.65736200  0.39460100  0.57506700  1
  H  H38  1  0.38022700  0.52761000  0.04219200  1
  H  H39  1  0.47239000  0.61977300  0.45780800  1
  H  H40  1  0.61977300  0.47239000  0.95780800  1
  H  H41  1  0.52761000  0.38022700  0.54219200  1
  H  H42  1  0.16028800  0.57022400  0.83764300  1
  H  H43  1  0.42977600  0.83971200  0.66235700  1
  H  H44  1  0.83971200  0.42977600  0.16235700  1
  H  H45  1  0.57022400  0.16028800  0.33764300  1
  H  H46  1  0.26144900  0.48442500  0.88044200  1
  H  H47  1  0.51557500  0.73855100  0.61955800  1
  H  H48  1  0.73855100  0.51557500  0.11955800  1
  H  H49  1  0.48442500  0.26144900  0.38044200  1
  C  C50  1  0.33493400  0.97205600  0.88829800  1
  C  C51  1  0.02794400  0.66506600  0.61170200  1
  C  C52  1  0.66506600  0.02794400  0.11170200  1
  C  C53  1  0.97205600  0.33493400  0.38829800  1
  C  C54  1  0.97922300  0.82483800  0.07964700  1
  C  C55  1  0.17516200  0.02077700  0.42035300  1
  C  C56  1  0.02077700  0.17516200  0.92035300  1
  C  C57  1  0.82483800  0.97922300  0.57964700  1
  C  C58  1  0.26224200  0.62258900  0.97795100  1
  C  C59  1  0.37741100  0.73775800  0.52204900  1
  C  C60  1  0.73775800  0.37741100  0.02204900  1
  C  C61  1  0.62258900  0.26224200  0.47795100  1
  N  N62  1  0.38731800  0.07318800  0.85491900  1
  N  N63  1  0.92681200  0.61268200  0.64508100  1
  N  N64  1  0.61268200  0.92681200  0.14508100  1
  N  N65  1  0.07318800  0.38731800  0.35491900  1
  N  N66  1  0.31493600  0.90590700  0.06300200  1
  N  N67  1  0.09409300  0.68506400  0.43699800  1
  N  N68  1  0.68506400  0.09409300  0.93699800  1
  N  N69  1  0.90590700  0.31493600  0.56300200  1
  N  N70  1  0.91438200  0.87923100  0.18660300  1
  N  N71  1  0.12076900  0.08561800  0.31339700  1
  N  N72  1  0.08561800  0.12076900  0.81339700  1
  N  N73  1  0.87923100  0.91438200  0.68660300  1
  N  N74  1  0.95615700  0.71344400  0.12338100  1
  N  N75  1  0.28655600  0.04384300  0.37661900  1
  N  N76  1  0.04384300  0.28655600  0.87661900  1
  N  N77  1  0.71344400  0.95615700  0.62338100  1
  N  N78  1  0.34519100  0.59655500  0.05844700  1
  N  N79  1  0.40344500  0.65480900  0.44155300  1
  N  N80  1  0.65480900  0.40344500  0.94155300  1
  N  N81  1  0.59655500  0.34519100  0.55844700  1
  N  N82  1  0.21782600  0.54671200  0.90867900  1
  N  N83  1  0.45328800  0.78217400  0.59132100  1
  N  N84  1  0.78217400  0.45328800  0.09132100  1
  N  N85  1  0.54671200  0.21782600  0.40867900  1
  N  N86  1  0.36702000  0.31193500  0.01914700  1
  N  N87  1  0.68806500  0.63298000  0.48085300  1
  N  N88  1  0.63298000  0.68806500  0.98085300  1
  N  N89  1  0.31193500  0.36702000  0.51914700  1
  O  O90  1  0.31014300  0.94031200  0.75147600  1
  O  O91  1  0.05968800  0.68985700  0.74852400  1
  O  O92  1  0.68985700  0.05968800  0.24852400  1
  O  O93  1  0.94031200  0.31014300  0.25147600  1
  O  O94  1  0.06085400  0.87499300  0.94776500  1
  O  O95  1  0.12500700  0.93914600  0.55223500  1
  O  O96  1  0.93914600  0.12500700  0.05223500  1
  O  O97  1  0.87499300  0.06085400  0.44776500  1
  O  O98  1  0.22439100  0.71443100  0.97610500  1
  O  O99  1  0.28556900  0.77560900  0.52389500  1
  O  O100  1  0.77560900  0.28556900  0.02389500  1
  O  O101  1  0.71443100  0.22439100  0.47610500  1
  O  O102  1  0.41009100  0.40055300  0.90024200  1
  O  O103  1  0.59944700  0.58990900  0.59975800  1
  O  O104  1  0.58990900  0.59944700  0.09975800  1
  O  O105  1  0.40055300  0.41009100  0.40024200  1
  O  O106  1  0.26404200  0.29538600  0.08666400  1
  O  O107  1  0.70461400  0.73595800  0.41333600  1
  O  O108  1  0.73595800  0.70461400  0.91333600  1
  O  O109  1  0.29538600  0.26404200  0.58666400  1
  O  O110  1  0.42682500  0.23898300  0.07191900  1
  O  O111  1  0.76101700  0.57317500  0.42808100  1
  O  O112  1  0.57317500  0.76101700  0.92808100  1
  O  O113  1  0.23898300  0.42682500  0.57191900  1
