# generated using pymatgen
data_Rb4Mo5H4Se2O23
_symmetry_space_group_name_H-M   'P 1'
_cell_length_a   10.47420400
_cell_length_b   11.38321622
_cell_length_c   12.41082850
_cell_angle_alpha   104.98756488
_cell_angle_beta   90.00000000
_cell_angle_gamma   117.39177034
_symmetry_Int_Tables_number   1
_chemical_formula_structural   Rb4Mo5H4Se2O23
_chemical_formula_sum   'Rb8 Mo10 H8 Se4 O46'
_cell_volume   1256.87277598
_cell_formula_units_Z   2
loop_
 _symmetry_equiv_pos_site_id
 _symmetry_equiv_pos_as_xyz
  1  'x, y, z'
loop_
 _atom_site_type_symbol
 _atom_site_label
 _atom_site_symmetry_multiplicity
 _atom_site_fract_x
 _atom_site_fract_y
 _atom_site_fract_z
 _atom_site_occupancy
  Rb  Rb0  1  0.16710400  0.37375000  0.90684400  1
  Rb  Rb1  1  0.79335500  0.62625000  0.09315600  1
  Rb  Rb2  1  0.76527700  0.65599600  0.72873100  1
  Rb  Rb3  1  0.10928100  0.34400400  0.27126900  1
  Rb  Rb4  1  0.34712400  0.64170200  0.59320900  1
  Rb  Rb5  1  0.70542200  0.35829800  0.40679100  1
  Rb  Rb6  1  0.75301200  0.02393500  0.74661100  1
  Rb  Rb7  1  0.72907800  0.97606500  0.25338900  1
  Mo  Mo8  1  0.39950900  0.00000000  0.50000000  1
  Mo  Mo9  1  0.35161700  0.28878600  0.59923000  1
  Mo  Mo10  1  0.06283100  0.71121400  0.40077000  1
  Mo  Mo11  1  0.99401500  0.19410100  0.53627800  1
  Mo  Mo12  1  0.79991400  0.80589900  0.46372200  1
  Mo  Mo13  1  0.51489400  0.80494300  0.94523000  1
  Mo  Mo14  1  0.70995200  0.19505700  0.05477000  1
  Mo  Mo15  1  0.10655800  0.00000000  0.00000000  1
  Mo  Mo16  1  0.43997900  0.28374800  0.11849900  1
  Mo  Mo17  1  0.15623100  0.71625200  0.88150100  1
  H  H18  1  0.86668400  0.39393200  0.65748000  1
  H  H19  1  0.47275200  0.60606800  0.34252000  1
  H  H20  1  0.72848500  0.38282500  0.71153900  1
  H  H21  1  0.34565900  0.61717500  0.28846100  1
  H  H22  1  0.13085400  0.58358600  0.16819700  1
  H  H23  1  0.54726900  0.41641400  0.83180300  1
  H  H24  1  0.28233700  0.64687100  0.12716300  1
  H  H25  1  0.63546500  0.35312900  0.87283700  1
  Se  Se26  1  0.11448500  0.98499700  0.66823800  1
  Se  Se27  1  0.12948900  0.01500300  0.33176200  1
  Se  Se28  1  0.36528800  0.96146900  0.16117800  1
  Se  Se29  1  0.40381900  0.03853100  0.83882200  1
  O  O30  1  0.53556800  0.06713200  0.41773400  1
  O  O31  1  0.46843600  0.93286800  0.58226600  1
  O  O32  1  0.42216300  0.16166900  0.61861300  1
  O  O33  1  0.26049400  0.83833100  0.38138700  1
  O  O34  1  0.49424000  0.40263500  0.54438400  1
  O  O35  1  0.09160500  0.59736500  0.45561600  1
  O  O36  1  0.19987400  0.32530500  0.54628700  1
  O  O37  1  0.87456900  0.67469500  0.45371300  1
  O  O38  1  0.41307000  0.39618200  0.06049500  1
  O  O39  1  0.01688800  0.60381800  0.93950500  1
  O  O40  1  0.65597600  0.00000000  0.00000000  1
  O  O41  1  0.11750500  0.62996400  0.73780900  1
  O  O42  1  0.48754100  0.37003600  0.26219100  1
  O  O43  1  0.56246500  0.76882000  0.80863500  1
  O  O44  1  0.79364400  0.23118000  0.19136500  1
  O  O45  1  0.21777200  0.88425300  0.05505700  1
  O  O46  1  0.33351900  0.11574700  0.94494300  1
  O  O47  1  0.48659700  0.11153700  0.12680700  1
  O  O48  1  0.37506000  0.88846300  0.87319300  1
  O  O49  1  0.17496900  0.89027300  0.56767900  1
  O  O50  1  0.28469600  0.10972700  0.43232100  1
  O  O51  1  0.13545500  0.12078500  0.61439600  1
  O  O52  1  0.01466900  0.87921500  0.38560400  1
  O  O53  1  0.93123200  0.88799100  0.64311500  1
  O  O54  1  0.04324100  0.11200900  0.35688500  1
  O  O55  1  0.44510400  0.85920900  0.12357100  1
  O  O56  1  0.58589500  0.14079100  0.87642900  1
  O  O57  1  0.38402000  0.37892500  0.74331800  1
  O  O58  1  0.00509500  0.62107500  0.25668200  1
  O  O59  1  0.91643900  0.25758600  0.45721800  1
  O  O60  1  0.65885300  0.74241400  0.54278200  1
  O  O61  1  0.59146400  0.73189200  0.01382500  1
  O  O62  1  0.85957100  0.26810800  0.98617500  1
  O  O63  1  0.84685300  0.00000000  0.50000000  1
  O  O64  1  0.63791600  0.32864800  0.07871400  1
  O  O65  1  0.30926800  0.67135200  0.92128600  1
  O  O66  1  0.96193200  0.25452300  0.67342900  1
  O  O67  1  0.70740900  0.74547700  0.32657100  1
  O  O68  1  0.04484400  0.08251100  0.92857100  1
  O  O69  1  0.96233300  0.91748900  0.07142900  1
  O  O70  1  0.23676100  0.15278200  0.12946500  1
  O  O71  1  0.08397900  0.84721800  0.87053500  1
  O  O72  1  0.21323000  0.56568600  0.14826000  1
  O  O73  1  0.64754400  0.43431400  0.85174000  1
  O  O74  1  0.77692800  0.39752400  0.64457400  1
  O  O75  1  0.37940400  0.60247600  0.35542600  1
