# generated using pymatgen
data_Zn3(PO6)2
_symmetry_space_group_name_H-M   'P 1'
_cell_length_a   5.15180300
_cell_length_b   10.86331600
_cell_length_c   18.29013800
_cell_angle_alpha   90.00000000
_cell_angle_beta   90.00000000
_cell_angle_gamma   90.00000000
_symmetry_Int_Tables_number   1
_chemical_formula_structural   Zn3(PO6)2
_chemical_formula_sum   'Zn12 P8 O48'
_cell_volume   1023.61971707
_cell_formula_units_Z   4
loop_
 _symmetry_equiv_pos_site_id
 _symmetry_equiv_pos_as_xyz
  1  'x, y, z'
loop_
 _atom_site_type_symbol
 _atom_site_label
 _atom_site_symmetry_multiplicity
 _atom_site_fract_x
 _atom_site_fract_y
 _atom_site_fract_z
 _atom_site_occupancy
  Zn  Zn0  1  0.03513200  0.83139800  0.25000000  1
  Zn  Zn1  1  0.46486800  0.33139800  0.25000000  1
  Zn  Zn2  1  0.96486800  0.16860200  0.75000000  1
  Zn  Zn3  1  0.53513200  0.66860200  0.75000000  1
  Zn  Zn4  1  0.20633400  0.64389900  0.00474300  1
  Zn  Zn5  1  0.29366600  0.14389900  0.49525700  1
  Zn  Zn6  1  0.79366600  0.35610100  0.50474300  1
  Zn  Zn7  1  0.70633400  0.85610100  0.99525700  1
  Zn  Zn8  1  0.79366600  0.35610100  0.99525700  1
  Zn  Zn9  1  0.70633400  0.85610100  0.50474300  1
  Zn  Zn10  1  0.20633400  0.64389900  0.49525700  1
  Zn  Zn11  1  0.29366600  0.14389900  0.00474300  1
  P  P12  1  0.21952100  0.89632000  0.09075100  1
  P  P13  1  0.28047900  0.39632000  0.40924900  1
  P  P14  1  0.78047900  0.10368000  0.59075100  1
  P  P15  1  0.71952100  0.60368000  0.90924900  1
  P  P16  1  0.78047900  0.10368000  0.90924900  1
  P  P17  1  0.71952100  0.60368000  0.59075100  1
  P  P18  1  0.21952100  0.89632000  0.40924900  1
  P  P19  1  0.28047900  0.39632000  0.09075100  1
  O  O20  1  0.35748200  0.80693800  0.03480700  1
  O  O21  1  0.14251800  0.30693800  0.46519300  1
  O  O22  1  0.64251800  0.19306200  0.53480700  1
  O  O23  1  0.85748200  0.69306200  0.96519300  1
  O  O24  1  0.64251800  0.19306200  0.96519300  1
  O  O25  1  0.85748200  0.69306200  0.53480700  1
  O  O26  1  0.35748200  0.80693800  0.46519300  1
  O  O27  1  0.14251800  0.30693800  0.03480700  1
  O  O28  1  0.34096900  0.02470100  0.08211500  1
  O  O29  1  0.15903100  0.52470100  0.41788500  1
  O  O30  1  0.65903100  0.97529900  0.58211500  1
  O  O31  1  0.84096900  0.47529900  0.91788500  1
  O  O32  1  0.65903100  0.97529900  0.91788500  1
  O  O33  1  0.84096900  0.47529900  0.58211500  1
  O  O34  1  0.34096900  0.02470100  0.41788500  1
  O  O35  1  0.15903100  0.52470100  0.08211500  1
  O  O36  1  0.26818200  0.84469100  0.16872500  1
  O  O37  1  0.23181800  0.34469100  0.33127500  1
  O  O38  1  0.73181800  0.15530900  0.66872500  1
  O  O39  1  0.76818200  0.65530900  0.83127500  1
  O  O40  1  0.73181800  0.15530900  0.83127500  1
  O  O41  1  0.76818200  0.65530900  0.66872500  1
  O  O42  1  0.26818200  0.84469100  0.33127500  1
  O  O43  1  0.23181800  0.34469100  0.16872500  1
  O  O44  1  0.92499100  0.89582100  0.07773100  1
  O  O45  1  0.57500900  0.39582100  0.42226900  1
  O  O46  1  0.07500900  0.10417900  0.57773100  1
  O  O47  1  0.42499100  0.60417900  0.92226900  1
  O  O48  1  0.07500900  0.10417900  0.92226900  1
  O  O49  1  0.42499100  0.60417900  0.57773100  1
  O  O50  1  0.92499100  0.89582100  0.42226900  1
  O  O51  1  0.57500900  0.39582100  0.07773100  1
  O  O52  1  0.76757300  0.66724600  0.19019100  1
  O  O53  1  0.73242700  0.16724600  0.30980900  1
  O  O54  1  0.23242700  0.33275400  0.69019100  1
  O  O55  1  0.26757300  0.83275400  0.80980900  1
  O  O56  1  0.23242700  0.33275400  0.80980900  1
  O  O57  1  0.26757300  0.83275400  0.69019100  1
  O  O58  1  0.76757300  0.66724600  0.30980900  1
  O  O59  1  0.73242700  0.16724600  0.19019100  1
  O  O60  1  0.69275100  0.90079700  0.25000000  1
  O  O61  1  0.80724900  0.40079700  0.25000000  1
  O  O62  1  0.30724900  0.09920300  0.75000000  1
  O  O63  1  0.19275100  0.59920300  0.75000000  1
  O  O64  1  0.66401600  0.62712400  0.25000000  1
  O  O65  1  0.83598400  0.12712400  0.25000000  1
  O  O66  1  0.33598400  0.37287600  0.75000000  1
  O  O67  1  0.16401600  0.87287600  0.75000000  1
