# generated using pymatgen
data_PtC8(SF3)4
_symmetry_space_group_name_H-M   'P 1'
_cell_length_a   15.53539800
_cell_length_b   4.95467100
_cell_length_c   10.51217587
_cell_angle_alpha   76.94418473
_cell_angle_beta   90.00000000
_cell_angle_gamma   90.00000000
_symmetry_Int_Tables_number   1
_chemical_formula_structural   PtC8(SF3)4
_chemical_formula_sum   'Pt2 C16 S8 F24'
_cell_volume   788.23527307
_cell_formula_units_Z   2
loop_
 _symmetry_equiv_pos_site_id
 _symmetry_equiv_pos_as_xyz
  1  'x, y, z'
loop_
 _atom_site_type_symbol
 _atom_site_label
 _atom_site_symmetry_multiplicity
 _atom_site_fract_x
 _atom_site_fract_y
 _atom_site_fract_z
 _atom_site_occupancy
  Pt  Pt0  1  0.50000000  0.50000000  0.50000000  1
  Pt  Pt1  1  0.00000000  0.50000000  0.00000000  1
  C  C2  1  0.65207900  0.16442200  0.66756700  1
  C  C3  1  0.15207900  0.83557800  0.83243300  1
  C  C4  1  0.34792100  0.83557800  0.33243300  1
  C  C5  1  0.84792100  0.16442200  0.16756700  1
  C  C6  1  0.57856800  0.03958600  0.73142900  1
  C  C7  1  0.07856800  0.96041400  0.76857100  1
  C  C8  1  0.42143200  0.96041400  0.26857100  1
  C  C9  1  0.92143200  0.03958600  0.23142900  1
  C  C10  1  0.74424400  0.08302200  0.71005800  1
  C  C11  1  0.24424400  0.91697800  0.78994200  1
  C  C12  1  0.25575600  0.91697800  0.28994200  1
  C  C13  1  0.75575600  0.08302200  0.21005800  1
  C  C14  1  0.57879600  0.80750000  0.85459600  1
  C  C15  1  0.07879600  0.19250000  0.64540400  1
  C  C16  1  0.42120400  0.19250000  0.14540400  1
  C  C17  1  0.92120400  0.80750000  0.35459600  1
  S  S18  1  0.64307300  0.42614400  0.53217600  1
  S  S19  1  0.14307300  0.57385600  0.96782400  1
  S  S20  1  0.35692700  0.57385600  0.46782400  1
  S  S21  1  0.85692700  0.42614400  0.03217600  1
  S  S22  1  0.47879800  0.15041400  0.67677800  1
  S  S23  1  0.97879800  0.84958600  0.82322200  1
  S  S24  1  0.52120200  0.84958600  0.32322200  1
  S  S25  1  0.02120200  0.15041400  0.17677800  1
  F  F26  1  0.76793700  0.83975100  0.67981700  1
  F  F27  1  0.26793700  0.16024900  0.82018300  1
  F  F28  1  0.23206300  0.16024900  0.32018300  1
  F  F29  1  0.73206300  0.83975100  0.17981700  1
  F  F30  1  0.75471200  0.05260400  0.84159500  1
  F  F31  1  0.25471200  0.94739600  0.65840500  1
  F  F32  1  0.24528800  0.94739600  0.15840500  1
  F  F33  1  0.74528800  0.05260400  0.34159500  1
  F  F34  1  0.80176200  0.27778400  0.65098600  1
  F  F35  1  0.30176200  0.72221600  0.84901400  1
  F  F36  1  0.19823800  0.72221600  0.34901400  1
  F  F37  1  0.69823800  0.27778400  0.15098600  1
  F  F38  1  0.64049500  0.61328900  0.85145200  1
  F  F39  1  0.14049500  0.38671100  0.64854800  1
  F  F40  1  0.35950500  0.38671100  0.14854800  1
  F  F41  1  0.85950500  0.61328900  0.35145200  1
  F  F42  1  0.50206200  0.67146200  0.87035600  1
  F  F43  1  0.00206200  0.32853800  0.62964400  1
  F  F44  1  0.49793800  0.32853800  0.12964400  1
  F  F45  1  0.99793800  0.67146200  0.37035600  1
  F  F46  1  0.59240800  0.90784500  0.96336100  1
  F  F47  1  0.09240800  0.09215500  0.53663900  1
  F  F48  1  0.40759200  0.09215500  0.03663900  1
  F  F49  1  0.90759200  0.90784500  0.46336100  1
