# generated using pymatgen
data_PuP2H4CO7
_symmetry_space_group_name_H-M   'P 1'
_cell_length_a   8.79602200
_cell_length_b   11.41846200
_cell_length_c   13.86369500
_cell_angle_alpha   90.00000000
_cell_angle_beta   90.00000000
_cell_angle_gamma   90.00000000
_symmetry_Int_Tables_number   1
_chemical_formula_structural   PuP2H4CO7
_chemical_formula_sum   'Pu8 P16 H32 C8 O56'
_cell_volume   1392.42853027
_cell_formula_units_Z   8
loop_
 _symmetry_equiv_pos_site_id
 _symmetry_equiv_pos_as_xyz
  1  'x, y, z'
loop_
 _atom_site_type_symbol
 _atom_site_label
 _atom_site_symmetry_multiplicity
 _atom_site_fract_x
 _atom_site_fract_y
 _atom_site_fract_z
 _atom_site_occupancy
  Pu  Pu0  1  0.33823300  0.27482700  0.64696300  1
  Pu  Pu1  1  0.83823300  0.22517300  0.35303700  1
  Pu  Pu2  1  0.66176700  0.77482700  0.85303700  1
  Pu  Pu3  1  0.16176700  0.72517300  0.14696300  1
  Pu  Pu4  1  0.66176700  0.72517300  0.35303700  1
  Pu  Pu5  1  0.16176700  0.77482700  0.64696300  1
  Pu  Pu6  1  0.33823300  0.22517300  0.14696300  1
  Pu  Pu7  1  0.83823300  0.27482700  0.85303700  1
  P  P8  1  0.00037800  0.47436500  0.67458200  1
  P  P9  1  0.50037800  0.02563500  0.32541800  1
  P  P10  1  0.99962200  0.97436500  0.82541800  1
  P  P11  1  0.49962200  0.52563500  0.17458200  1
  P  P12  1  0.99962200  0.52563500  0.32541800  1
  P  P13  1  0.49962200  0.97436500  0.67458200  1
  P  P14  1  0.00037800  0.02563500  0.17458200  1
  P  P15  1  0.50037800  0.47436500  0.82541800  1
  P  P16  1  0.75268900  0.30600700  0.59750800  1
  P  P17  1  0.25268900  0.19399300  0.40249200  1
  P  P18  1  0.24731100  0.80600700  0.90249200  1
  P  P19  1  0.74731100  0.69399300  0.09750800  1
  P  P20  1  0.24731100  0.69399300  0.40249200  1
  P  P21  1  0.74731100  0.80600700  0.59750800  1
  P  P22  1  0.75268900  0.19399300  0.09750800  1
  P  P23  1  0.25268900  0.30600700  0.90249200  1
  H  H24  1  0.75141700  0.51297500  0.62231000  1
  H  H25  1  0.25141700  0.98702500  0.37769000  1
  H  H26  1  0.24858300  0.01297500  0.87769000  1
  H  H27  1  0.74858300  0.48702500  0.12231000  1
  H  H28  1  0.24858300  0.48702500  0.37769000  1
  H  H29  1  0.74858300  0.01297500  0.62231000  1
  H  H30  1  0.75141700  0.98702500  0.12231000  1
  H  H31  1  0.25141700  0.51297500  0.87769000  1
  H  H32  1  0.86485200  0.47569700  0.52204500  1
  H  H33  1  0.36485200  0.02430300  0.47795500  1
  H  H34  1  0.13514800  0.97569700  0.97795500  1
  H  H35  1  0.63514800  0.52430300  0.02204500  1
  H  H36  1  0.13514800  0.52430300  0.47795500  1
  H  H37  1  0.63514800  0.97569700  0.52204500  1
  H  H38  1  0.86485200  0.02430300  0.02204500  1
  H  H39  1  0.36485200  0.47569700  0.97795500  1
  H  H40  1  0.10088600  0.07225200  0.64627300  1
  H  H41  1  0.60088600  0.42774800  0.35372700  1
  H  H42  1  0.89911400  0.57225200  0.85372700  1
  H  H43  1  0.39911400  0.92774800  0.14627300  1
  H  H44  1  0.89911400  0.92774800  0.35372700  1
  H  H45  1  0.39911400  0.57225200  0.64627300  1
  H  H46  1  0.10088600  0.42774800  0.14627300  1
  H  H47  1  0.60088600  0.07225200  0.85372700  1
  H  H48  1  0.07923000  0.15367300  0.54915300  1
  H  H49  1  0.57923000  0.34632700  0.45084700  1
  H  H50  1  0.92077000  0.65367300  0.95084700  1
  H  H51  1  0.42077000  0.84632700  0.04915300  1
  H  H52  1  0.92077000  0.84632700  0.45084700  1
  H  H53  1  0.42077000  0.65367300  0.54915300  1
  H  H54  1  0.07923000  0.34632700  0.04915300  1
  H  H55  1  0.57923000  0.15367300  0.95084700  1
  C  C56  1  0.83806600  0.45088500  0.59663500  1
  C  C57  1  0.33806600  0.04911500  0.40336500  1
  C  C58  1  0.16193400  0.95088500  0.90336500  1
  C  C59  1  0.66193400  0.54911500  0.09663500  1
  C  C60  1  0.16193400  0.54911500  0.40336500  1
  C  C61  1  0.66193400  0.95088500  0.59663500  1
  C  C62  1  0.83806600  0.04911500  0.09663500  1
  C  C63  1  0.33806600  0.45088500  0.90336500  1
  O  O64  1  0.94742700  0.44732200  0.77840400  1
  O  O65  1  0.44742700  0.05267800  0.22159600  1
  O  O66  1  0.05257300  0.94732200  0.72159600  1
  O  O67  1  0.55257300  0.55267800  0.27840400  1
  O  O68  1  0.05257300  0.55267800  0.22159600  1
  O  O69  1  0.55257300  0.94732200  0.77840400  1
  O  O70  1  0.94742700  0.05267800  0.27840400  1
  O  O71  1  0.44742700  0.44732200  0.72159600  1
  O  O72  1  0.04381800  0.60546600  0.66525800  1
  O  O73  1  0.54381800  0.89453400  0.33474200  1
  O  O74  1  0.95618200  0.10546600  0.83474200  1
  O  O75  1  0.45618200  0.39453400  0.16525800  1
  O  O76  1  0.95618200  0.39453400  0.33474200  1
  O  O77  1  0.45618200  0.10546600  0.66525800  1
  O  O78  1  0.04381800  0.89453400  0.16525800  1
  O  O79  1  0.54381800  0.60546600  0.83474200  1
  O  O80  1  0.13501200  0.39788200  0.64054900  1
  O  O81  1  0.63501200  0.10211800  0.35945100  1
  O  O82  1  0.86498800  0.89788200  0.85945100  1
  O  O83  1  0.36498800  0.60211800  0.14054900  1
  O  O84  1  0.86498800  0.60211800  0.35945100  1
  O  O85  1  0.36498800  0.89788200  0.64054900  1
  O  O86  1  0.13501200  0.10211800  0.14054900  1
  O  O87  1  0.63501200  0.39788200  0.85945100  1
  O  O88  1  0.78266600  0.25075300  0.69825800  1
  O  O89  1  0.28266600  0.24924700  0.30174200  1
  O  O90  1  0.21733400  0.75075300  0.80174200  1
  O  O91  1  0.71733400  0.74924700  0.19825800  1
  O  O92  1  0.21733400  0.74924700  0.30174200  1
  O  O93  1  0.71733400  0.75075300  0.69825800  1
  O  O94  1  0.78266600  0.24924700  0.19825800  1
  O  O95  1  0.28266600  0.25075300  0.80174200  1
  O  O96  1  0.82639700  0.23039400  0.51749800  1
  O  O97  1  0.32639700  0.26960600  0.48250200  1
  O  O98  1  0.17360300  0.73039400  0.98250200  1
  O  O99  1  0.67360300  0.76960600  0.01749800  1
  O  O100  1  0.17360300  0.76960600  0.48250200  1
  O  O101  1  0.67360300  0.73039400  0.51749800  1
  O  O102  1  0.82639700  0.26960600  0.01749800  1
  O  O103  1  0.32639700  0.23039400  0.98250200  1
  O  O104  1  0.58178800  0.32016700  0.57810300  1
  O  O105  1  0.08178800  0.17983300  0.42189700  1
  O  O106  1  0.41821200  0.82016700  0.92189700  1
  O  O107  1  0.91821200  0.67983300  0.07810300  1
  O  O108  1  0.41821200  0.67983300  0.42189700  1
  O  O109  1  0.91821200  0.82016700  0.57810300  1
  O  O110  1  0.58178800  0.17983300  0.07810300  1
  O  O111  1  0.08178800  0.32016700  0.92189700  1
  O  O112  1  0.13449900  0.14387200  0.61155000  1
  O  O113  1  0.63449900  0.35612800  0.38845000  1
  O  O114  1  0.86550100  0.64387200  0.88845000  1
  O  O115  1  0.36550100  0.85612800  0.11155000  1
  O  O116  1  0.86550100  0.85612800  0.38845000  1
  O  O117  1  0.36550100  0.64387200  0.61155000  1
  O  O118  1  0.13449900  0.35612800  0.11155000  1
  O  O119  1  0.63449900  0.14387200  0.88845000  1
