# generated using pymatgen
data_CuH12C6(Br3N2)2
_symmetry_space_group_name_H-M   'P 1'
_cell_length_a   8.02797100
_cell_length_b   8.44735939
_cell_length_c   14.65980188
_cell_angle_alpha   96.50942897
_cell_angle_beta   102.71592665
_cell_angle_gamma   104.37087175
_symmetry_Int_Tables_number   1
_chemical_formula_structural   CuH12C6(Br3N2)2
_chemical_formula_sum   'Cu2 H24 C12 Br12 N8'
_cell_volume   924.46279518
_cell_formula_units_Z   2
loop_
 _symmetry_equiv_pos_site_id
 _symmetry_equiv_pos_as_xyz
  1  'x, y, z'
loop_
 _atom_site_type_symbol
 _atom_site_label
 _atom_site_symmetry_multiplicity
 _atom_site_fract_x
 _atom_site_fract_y
 _atom_site_fract_z
 _atom_site_occupancy
  Cu  Cu0  1  0.78792300  0.79448000  0.74630500  1
  Cu  Cu1  1  0.21207700  0.20552000  0.25369500  1
  H  H2  1  0.36773500  0.52707400  0.11814100  1
  H  H3  1  0.63226500  0.47292600  0.88185900  1
  H  H4  1  0.11848200  0.68861700  0.88652400  1
  H  H5  1  0.88151800  0.31138300  0.11347600  1
  H  H6  1  0.99080700  0.13115200  0.63327600  1
  H  H7  1  0.00919300  0.86884800  0.36672400  1
  H  H8  1  0.15551600  0.39840600  0.43758100  1
  H  H9  1  0.84448400  0.60159400  0.56241900  1
  H  H10  1  0.27036500  0.78542000  0.17262500  1
  H  H11  1  0.72963500  0.21458000  0.82737500  1
  H  H12  1  0.48037200  0.85928800  0.14699400  1
  H  H13  1  0.51962800  0.14071200  0.85300600  1
  H  H14  1  0.34436400  0.93763700  0.00244900  1
  H  H15  1  0.65563600  0.06236300  0.99755100  1
  H  H16  1  0.14354200  0.89867400  0.03944200  1
  H  H17  1  0.85645800  0.10132600  0.96055800  1
  H  H18  1  0.40923500  0.30685300  0.53431800  1
  H  H19  1  0.59076500  0.69314700  0.46568200  1
  H  H20  1  0.41077800  0.50044300  0.60051700  1
  H  H21  1  0.58922200  0.49955700  0.39948300  1
  H  H22  1  0.27963500  0.36785700  0.71211200  1
  H  H23  1  0.72036500  0.63214300  0.28788800  1
  H  H24  1  0.33935300  0.18839600  0.66790400  1
  H  H25  1  0.66064700  0.81160400  0.33209600  1
  C  C26  1  0.34156000  0.78531100  0.11666600  1
  C  C27  1  0.65844000  0.21468900  0.88333400  1
  C  C28  1  0.25051100  0.84593200  0.02778600  1
  C  C29  1  0.74948900  0.15406800  0.97221400  1
  C  C30  1  0.33278800  0.37137600  0.57109700  1
  C  C31  1  0.66721200  0.62862400  0.42890300  1
  C  C32  1  0.26853500  0.28001100  0.64822400  1
  C  C33  1  0.73146400  0.71998900  0.35177600  1
  C  C34  1  0.23558300  0.57049100  0.98936400  1
  C  C35  1  0.76441700  0.42950900  0.01063600  1
  C  C36  1  0.03005400  0.25753100  0.52295400  1
  C  C37  1  0.96994600  0.74246900  0.47704600  1
  Br  Br38  1  0.65895500  0.95650700  0.64286100  1
  Br  Br39  1  0.34104500  0.04349300  0.35713900  1
  Br  Br40  1  0.08736200  0.97810500  0.80440300  1
  Br  Br41  1  0.91263800  0.02189500  0.19559700  1
  Br  Br42  1  0.85764900  0.53329000  0.71506700  1
  Br  Br43  1  0.14235100  0.46671000  0.28493300  1
  Br  Br44  1  0.55192200  0.69466700  0.82038600  1
  Br  Br45  1  0.44807800  0.30533300  0.17961400  1
  Br  Br46  1  0.18097000  0.35724700  0.91810200  1
  Br  Br47  1  0.81903000  0.64275300  0.08189800  1
  Br  Br48  1  0.79688600  0.19868100  0.44786100  1
  Br  Br49  1  0.20311400  0.80131900  0.55213900  1
  N  N50  1  0.33189600  0.61296200  0.07823400  1
  N  N51  1  0.66810400  0.38703800  0.92176600  1
  N  N52  1  0.17835100  0.69232500  0.95610900  1
  N  N53  1  0.82164900  0.30767500  0.04389100  1
  N  N54  1  0.07892500  0.19795800  0.60126600  1
  N  N55  1  0.92107500  0.80204200  0.39873400  1
  N  N56  1  0.16379300  0.36324400  0.50326100  1
  N  N57  1  0.83620700  0.63675600  0.49673900  1
