# generated using pymatgen
data_NaAl6Sb7(TeCl3)8
_symmetry_space_group_name_H-M   'P 1'
_cell_length_a   12.67008400
_cell_length_b   13.09436074
_cell_length_c   18.88861117
_cell_angle_alpha   92.56893886
_cell_angle_beta   90.20186990
_cell_angle_gamma   105.80233840
_symmetry_Int_Tables_number   1
_chemical_formula_structural   NaAl6Sb7(TeCl3)8
_chemical_formula_sum   'Na2 Al12 Sb14 Te16 Cl48'
_cell_volume   3011.87851778
_cell_formula_units_Z   2
loop_
 _symmetry_equiv_pos_site_id
 _symmetry_equiv_pos_as_xyz
  1  'x, y, z'
loop_
 _atom_site_type_symbol
 _atom_site_label
 _atom_site_symmetry_multiplicity
 _atom_site_fract_x
 _atom_site_fract_y
 _atom_site_fract_z
 _atom_site_occupancy
  Na  Na0  1  0.67750900  0.25016600  0.28554700  1
  Na  Na1  1  0.32249100  0.74983400  0.71445300  1
  Al  Al2  1  0.80176300  0.69108900  0.88960600  1
  Al  Al3  1  0.19823700  0.30891100  0.11039400  1
  Al  Al4  1  0.72075100  0.98855000  0.14622200  1
  Al  Al5  1  0.27924900  0.01145000  0.85377800  1
  Al  Al6  1  0.65855100  0.39464300  0.08426500  1
  Al  Al7  1  0.34144900  0.60535700  0.91573500  1
  Al  Al8  1  0.30120700  0.18082200  0.39944900  1
  Al  Al9  1  0.69879300  0.81917800  0.60055100  1
  Al  Al10  1  0.21368800  0.46180800  0.63691400  1
  Al  Al11  1  0.78631200  0.53819200  0.36308600  1
  Al  Al12  1  0.17011600  0.87178700  0.59369200  1
  Al  Al13  1  0.82988400  0.12821300  0.40630800  1
  Sb  Sb14  1  0.75593000  0.25808800  0.75666500  1
  Sb  Sb15  1  0.24407000  0.74191200  0.24333500  1
  Sb  Sb16  1  0.85756400  0.99809300  0.79917200  1
  Sb  Sb17  1  0.14243600  0.00190700  0.20082800  1
  Sb  Sb18  1  0.63563500  0.50354000  0.70580900  1
  Sb  Sb19  1  0.36436500  0.49646000  0.29419100  1
  Sb  Sb20  1  0.78454100  0.19276200  0.96521700  1
  Sb  Sb21  1  0.21545900  0.80723800  0.03478300  1
  Sb  Sb22  1  0.73746400  0.31703700  0.54924300  1
  Sb  Sb23  1  0.26253600  0.68296300  0.45075700  1
  Sb  Sb24  1  0.06310600  0.30050500  0.84744400  1
  Sb  Sb25  1  0.93689400  0.69949500  0.15255600  1
  Sb  Sb26  1  0.45026200  0.19286900  0.65897700  1
  Sb  Sb27  1  0.54973800  0.80713100  0.34102300  1
  Te  Te28  1  0.87934500  0.38077600  0.88778900  1
  Te  Te29  1  0.12065500  0.61922400  0.11221100  1
  Te  Te30  1  0.64758500  0.12694600  0.62461300  1
  Te  Te31  1  0.35241500  0.87305400  0.37538700  1
  Te  Te32  1  0.95990700  0.18504400  0.71939400  1
  Te  Te33  1  0.04009300  0.81495600  0.28060600  1
  Te  Te34  1  0.53985700  0.31671300  0.78611900  1
  Te  Te35  1  0.46014300  0.68328700  0.21388100  1
  Te  Te36  1  0.66642300  0.06316900  0.84407500  1
  Te  Te37  1  0.33357700  0.93683100  0.15592500  1
  Te  Te38  1  0.83965900  0.45741700  0.66997700  1
  Te  Te39  1  0.16034100  0.54258300  0.33002300  1
  Te  Te40  1  0.97472700  0.10956800  0.92485600  1
  Te  Te41  1  0.02527300  0.89043200  0.07514400  1
  Te  Te42  1  0.53352900  0.37998800  0.57818900  1
  Te  Te43  1  0.46647100  0.62001200  0.42181100  1
  Cl  Cl44  1  0.76687700  0.83830700  0.92494100  1
  Cl  Cl45  1  0.23312300  0.16169300  0.07505900  1
  Cl  Cl46  1  0.86456700  0.70689500  0.78368300  1
  Cl  Cl47  1  0.13543300  0.29310500  0.21631700  1
  Cl  Cl48  1  0.92035600  0.66282500  0.96423100  1
  Cl  Cl49  1  0.07964400  0.33717500  0.03576900  1
  Cl  Cl50  1  0.65761400  0.55749400  0.88499700  1
  Cl  Cl51  1  0.34238600  0.44250600  0.11500300  1
  Cl  Cl52  1  0.62505700  0.02959700  0.23379800  1
  Cl  Cl53  1  0.37494300  0.97040300  0.76620200  1
  Cl  Cl54  1  0.87580200  0.10417500  0.13497200  1
  Cl  Cl55  1  0.12419800  0.89582500  0.86502800  1
  Cl  Cl56  1  0.74490100  0.83617100  0.17049200  1
  Cl  Cl57  1  0.25509900  0.16382900  0.82950800  1
  Cl  Cl58  1  0.62332000  0.98035900  0.05127200  1
  Cl  Cl59  1  0.37668000  0.01964100  0.94872800  1
  Cl  Cl60  1  0.82951700  0.39390500  0.08923400  1
  Cl  Cl61  1  0.17048300  0.60609500  0.91076600  1
  Cl  Cl62  1  0.59662600  0.29976500  0.98633500  1
  Cl  Cl63  1  0.40337400  0.70023500  0.01366500  1
  Cl  Cl64  1  0.64621400  0.55347600  0.08557500  1
  Cl  Cl65  1  0.35378600  0.44652400  0.91442500  1
  Cl  Cl66  1  0.56959600  0.31021100  0.17137100  1
  Cl  Cl67  1  0.43040400  0.68978900  0.82862900  1
  Cl  Cl68  1  0.29447100  0.34230800  0.42538300  1
  Cl  Cl69  1  0.70552900  0.65769200  0.57461700  1
  Cl  Cl70  1  0.38975700  0.17563700  0.30200600  1
  Cl  Cl71  1  0.61024300  0.82436300  0.69799400  1
  Cl  Cl72  1  0.38954500  0.13322100  0.48486200  1
  Cl  Cl73  1  0.61045500  0.86677900  0.51513800  1
  Cl  Cl74  1  0.13984700  0.07493900  0.38416200  1
  Cl  Cl75  1  0.86015300  0.92506100  0.61583800  1
  Cl  Cl76  1  0.14088200  0.50027000  0.73487900  1
  Cl  Cl77  1  0.85911800  0.49973000  0.26512100  1
  Cl  Cl78  1  0.36657100  0.58463900  0.62234300  1
  Cl  Cl79  1  0.63342900  0.41536100  0.37765700  1
  Cl  Cl80  1  0.24810700  0.31112800  0.64961400  1
  Cl  Cl81  1  0.75189300  0.68887200  0.35038600  1
  Cl  Cl82  1  0.10530900  0.46002600  0.54934000  1
  Cl  Cl83  1  0.89469100  0.53997400  0.45066000  1
  Cl  Cl84  1  0.34310600  0.87367500  0.58242900  1
  Cl  Cl85  1  0.65689400  0.12632500  0.41757100  1
  Cl  Cl86  1  0.09527700  0.82142900  0.48942800  1
  Cl  Cl87  1  0.90472300  0.17857100  0.51057200  1
  Cl  Cl88  1  0.15766900  0.02342200  0.63116500  1
  Cl  Cl89  1  0.84233100  0.97657800  0.36883500  1
  Cl  Cl90  1  0.10707000  0.74898700  0.66729600  1
  Cl  Cl91  1  0.89293000  0.25101300  0.33270400  1
