# generated using pymatgen
data_B12Pb6O25
_symmetry_space_group_name_H-M   'P 1'
_cell_length_a   8.90187930
_cell_length_b   8.90187930
_cell_length_c   8.90188015
_cell_angle_alpha   81.52354667
_cell_angle_beta   81.52354667
_cell_angle_gamma   81.52354442
_symmetry_Int_Tables_number   1
_chemical_formula_structural   B12Pb6O25
_chemical_formula_sum   'B12 Pb6 O25'
_cell_volume   684.37053674
_cell_formula_units_Z   1
loop_
 _symmetry_equiv_pos_site_id
 _symmetry_equiv_pos_as_xyz
  1  'x, y, z'
loop_
 _atom_site_type_symbol
 _atom_site_label
 _atom_site_symmetry_multiplicity
 _atom_site_fract_x
 _atom_site_fract_y
 _atom_site_fract_z
 _atom_site_occupancy
  B  B0  1  0.50000000  0.73038200  0.26961800  1
  B  B1  1  0.26961800  0.50000000  0.73038200  1
  B  B2  1  0.73038200  0.26961800  0.50000000  1
  B  B3  1  0.26961800  0.73038200  0.50000000  1
  B  B4  1  0.50000000  0.26961800  0.73038200  1
  B  B5  1  0.73038200  0.50000000  0.26961800  1
  B  B6  1  0.39281700  0.39281700  0.96594300  1
  B  B7  1  0.96594300  0.39281700  0.39281700  1
  B  B8  1  0.39281700  0.96594300  0.39281700  1
  B  B9  1  0.60718300  0.60718300  0.03405700  1
  B  B10  1  0.03405700  0.60718300  0.60718300  1
  B  B11  1  0.60718300  0.03405700  0.60718300  1
  Pb  Pb12  1  0.58458300  0.20244800  0.20244800  1
  Pb  Pb13  1  0.20244800  0.58458300  0.20244800  1
  Pb  Pb14  1  0.20244800  0.20244800  0.58458300  1
  Pb  Pb15  1  0.41541700  0.79755200  0.79755200  1
  Pb  Pb16  1  0.79755200  0.41541700  0.79755200  1
  Pb  Pb17  1  0.79755200  0.79755200  0.41541700  1
  O  O18  1  0.28824000  0.49914400  0.89358100  1
  O  O19  1  0.89358100  0.28824000  0.49914400  1
  O  O20  1  0.49914400  0.89358100  0.28824000  1
  O  O21  1  0.89358100  0.49914400  0.28824000  1
  O  O22  1  0.28824000  0.89358100  0.49914400  1
  O  O23  1  0.49914400  0.28824000  0.89358100  1
  O  O24  1  0.71176000  0.50085600  0.10641900  1
  O  O25  1  0.10641900  0.71176000  0.50085600  1
  O  O26  1  0.50085600  0.10641900  0.71176000  1
  O  O27  1  0.10641900  0.50085600  0.71176000  1
  O  O28  1  0.71176000  0.10641900  0.50085600  1
  O  O29  1  0.50085600  0.71176000  0.10641900  1
  O  O30  1  0.31940400  0.64611000  0.64611000  1
  O  O31  1  0.64611000  0.31940400  0.64611000  1
  O  O32  1  0.64611000  0.64611000  0.31940400  1
  O  O33  1  0.68059600  0.35389000  0.35389000  1
  O  O34  1  0.35389000  0.68059600  0.35389000  1
  O  O35  1  0.35389000  0.35389000  0.68059600  1
  O  O36  1  0.39181600  0.39181600  0.12161800  1
  O  O37  1  0.12161800  0.39181600  0.39181600  1
  O  O38  1  0.39181600  0.12161800  0.39181600  1
  O  O39  1  0.60818400  0.60818400  0.87838200  1
  O  O40  1  0.87838200  0.60818400  0.60818400  1
  O  O41  1  0.60818400  0.87838200  0.60818400  1
  O  O42  1  0.50000000  0.50000000  0.50000000  1
