# generated using pymatgen
data_Na12(CuO2)7
_symmetry_space_group_name_H-M   'P 1'
_cell_length_a   10.81114115
_cell_length_b   10.81114115
_cell_length_c   5.72227212
_cell_angle_alpha   82.08465555
_cell_angle_beta   82.08465555
_cell_angle_gamma   134.57335132
_symmetry_Int_Tables_number   1
_chemical_formula_structural   Na12(CuO2)7
_chemical_formula_sum   'Na12 Cu7 O14'
_cell_volume   445.10673613
_cell_formula_units_Z   1
loop_
 _symmetry_equiv_pos_site_id
 _symmetry_equiv_pos_as_xyz
  1  'x, y, z'
loop_
 _atom_site_type_symbol
 _atom_site_label
 _atom_site_symmetry_multiplicity
 _atom_site_fract_x
 _atom_site_fract_y
 _atom_site_fract_z
 _atom_site_occupancy
  Na  Na0  1  0.15695800  0.61571800  0.39196000  1
  Na  Na1  1  0.61571800  0.15695800  0.39196000  1
  Na  Na2  1  0.76970500  0.46124200  0.61133200  1
  Na  Na3  1  0.46124200  0.76970500  0.61133200  1
  Na  Na4  1  0.62268100  0.62268100  0.61470900  1
  Na  Na5  1  0.30627300  0.45629000  0.38773600  1
  Na  Na6  1  0.45629000  0.30627300  0.38773600  1
  Na  Na7  1  0.22765100  0.89676000  0.65549100  1
  Na  Na8  1  0.89676000  0.22765100  0.65549100  1
  Na  Na9  1  0.02461600  0.85836100  0.32479000  1
  Na  Na10  1  0.85836100  0.02461600  0.32479000  1
  Na  Na11  1  0.05863200  0.05863200  0.67229600  1
  Cu  Cu12  1  0.46153500  0.03350600  0.99755200  1
  Cu  Cu13  1  0.03350600  0.46153500  0.99755200  1
  Cu  Cu14  1  0.33480600  0.19237100  0.97575900  1
  Cu  Cu15  1  0.19237100  0.33480600  0.97575900  1
  Cu  Cu16  1  0.88069900  0.59571500  0.01953100  1
  Cu  Cu17  1  0.59571500  0.88069900  0.01953100  1
  Cu  Cu18  1  0.73992700  0.73992700  0.02527200  1
  O  O19  1  0.58122700  0.00686900  0.77296800  1
  O  O20  1  0.00686900  0.58122700  0.77296800  1
  O  O21  1  0.46678100  0.90188100  0.24643900  1
  O  O22  1  0.90188100  0.46678100  0.24643900  1
  O  O23  1  0.46014700  0.16737600  0.74165300  1
  O  O24  1  0.16737600  0.46014700  0.74165300  1
  O  O25  1  0.32103400  0.32103400  0.73058600  1
  O  O26  1  0.88582600  0.74072500  0.76845900  1
  O  O27  1  0.74072500  0.88582600  0.76845900  1
  O  O28  1  0.34556500  0.06209900  0.23110000  1
  O  O29  1  0.06209900  0.34556500  0.23110000  1
  O  O30  1  0.18607900  0.18607900  0.23043500  1
  O  O31  1  0.75400400  0.60684400  0.26853000  1
  O  O32  1  0.60684400  0.75400400  0.26853000  1
