# generated using pymatgen
data_H4CS(NO)2
_symmetry_space_group_name_H-M   'P 1'
_cell_length_a   7.95130100
_cell_length_b   8.12292682
_cell_length_c   8.39506066
_cell_angle_alpha   118.03589751
_cell_angle_beta   114.02499391
_cell_angle_gamma   87.78835552
_symmetry_Int_Tables_number   1
_chemical_formula_structural   H4CS(NO)2
_chemical_formula_sum   'H16 C4 S4 N8 O8'
_cell_volume   429.20936723
_cell_formula_units_Z   4
loop_
 _symmetry_equiv_pos_site_id
 _symmetry_equiv_pos_as_xyz
  1  'x, y, z'
loop_
 _atom_site_type_symbol
 _atom_site_label
 _atom_site_symmetry_multiplicity
 _atom_site_fract_x
 _atom_site_fract_y
 _atom_site_fract_z
 _atom_site_occupancy
  H  H0  1  0.53998500  0.84535400  0.36956500  1
  H  H1  1  0.46001500  0.15464600  0.63043500  1
  H  H2  1  0.03679400  0.80664100  0.77220100  1
  H  H3  1  0.96320600  0.19335900  0.22779900  1
  H  H4  1  0.22226100  0.95954500  0.74518700  1
  H  H5  1  0.77773900  0.04045500  0.25481300  1
  H  H6  1  0.44556400  0.90740200  0.77083700  1
  H  H7  1  0.55443600  0.09259800  0.22916300  1
  H  H8  1  0.77693700  0.45332500  0.74272600  1
  H  H9  1  0.22306300  0.54667500  0.25727400  1
  H  H10  1  0.78705600  0.67506900  0.75427200  1
  H  H11  1  0.21294400  0.32493100  0.24572800  1
  H  H12  1  0.23991900  0.41802400  0.78334700  1
  H  H13  1  0.76008100  0.58197600  0.21665300  1
  H  H14  1  0.04031000  0.29645000  0.75954000  1
  H  H15  1  0.95969000  0.70355000  0.24046000  1
  C  C16  1  0.29046700  0.73131100  0.79039300  1
  C  C17  1  0.70953300  0.26868900  0.20960700  1
  C  C18  1  0.02241900  0.55425400  0.76833100  1
  C  C19  1  0.97758100  0.44574600  0.23166900  1
  S  S20  1  0.45493500  0.60251700  0.83260000  1
  S  S21  1  0.54506500  0.39748300  0.16740000  1
  S  S22  1  0.76575900  0.01409400  0.66881600  1
  S  S23  1  0.23424100  0.98590600  0.33118400  1
  N  N24  1  0.11177100  0.70225700  0.77701500  1
  N  N25  1  0.88822900  0.29774300  0.22298500  1
  N  N26  1  0.32053200  0.87852600  0.76816300  1
  N  N27  1  0.67946800  0.12147400  0.23183700  1
  N  N28  1  0.84982400  0.56293800  0.75524900  1
  N  N29  1  0.15017600  0.43706200  0.24475100  1
  N  N30  1  0.10436000  0.41011100  0.76928600  1
  N  N31  1  0.89564000  0.58988900  0.23071400  1
  O  O32  1  0.68929600  0.19124200  0.70872100  1
  O  O33  1  0.31070400  0.80875800  0.29127900  1
  O  O34  1  0.96847400  0.04772200  0.73347700  1
  O  O35  1  0.03152600  0.95227800  0.26652300  1
  O  O36  1  0.68156700  0.88352600  0.43045900  1
  O  O37  1  0.31843300  0.11647400  0.56954100  1
  O  O38  1  0.70866700  0.90922600  0.74644500  1
  O  O39  1  0.29133300  0.09077400  0.25355500  1
