# generated using pymatgen
data_PtRhBr6N5Cl
_symmetry_space_group_name_H-M   'P 1'
_cell_length_a   9.52130000
_cell_length_b   9.27697100
_cell_length_c   17.32956229
_cell_angle_alpha   85.65020010
_cell_angle_beta   90.00000000
_cell_angle_gamma   90.00000000
_symmetry_Int_Tables_number   1
_chemical_formula_structural   PtRhBr6N5Cl
_chemical_formula_sum   'Pt4 Rh4 Br24 N20 Cl4'
_cell_volume   1526.29081001
_cell_formula_units_Z   4
loop_
 _symmetry_equiv_pos_site_id
 _symmetry_equiv_pos_as_xyz
  1  'x, y, z'
loop_
 _atom_site_type_symbol
 _atom_site_label
 _atom_site_symmetry_multiplicity
 _atom_site_fract_x
 _atom_site_fract_y
 _atom_site_fract_z
 _atom_site_occupancy
  Pt  Pt0  1  0.25000000  0.16225400  0.15663400  1
  Pt  Pt1  1  0.75000000  0.83774600  0.84336600  1
  Pt  Pt2  1  0.25000000  0.36788000  0.66826300  1
  Pt  Pt3  1  0.75000000  0.63212000  0.33173700  1
  Rh  Rh4  1  0.25000000  0.70744500  0.08031700  1
  Rh  Rh5  1  0.75000000  0.29255500  0.91968300  1
  Rh  Rh6  1  0.25000000  0.83121900  0.60482100  1
  Rh  Rh7  1  0.75000000  0.16878100  0.39517900  1
  Br  Br8  1  0.41292900  0.93215500  0.19380600  1
  Br  Br9  1  0.91292900  0.06784500  0.80619400  1
  Br  Br10  1  0.58707100  0.06784500  0.80619400  1
  Br  Br11  1  0.08707100  0.93215500  0.19380600  1
  Br  Br12  1  0.25000000  0.07254800  0.02243000  1
  Br  Br13  1  0.75000000  0.92745200  0.97757000  1
  Br  Br14  1  0.41428500  0.39090100  0.12164500  1
  Br  Br15  1  0.91428500  0.60909900  0.87835500  1
  Br  Br16  1  0.58571500  0.60909900  0.87835500  1
  Br  Br17  1  0.08571500  0.39090100  0.12164500  1
  Br  Br18  1  0.25000000  0.22825600  0.29068000  1
  Br  Br19  1  0.75000000  0.77174400  0.70932000  1
  Br  Br20  1  0.25000000  0.12803200  0.57565100  1
  Br  Br21  1  0.75000000  0.87196800  0.42434900  1
  Br  Br22  1  0.25000000  0.60153300  0.75759900  1
  Br  Br23  1  0.75000000  0.39846700  0.24240100  1
  Br  Br24  1  0.50992000  0.36275600  0.65787900  1
  Br  Br25  1  0.00992000  0.63724400  0.34212100  1
  Br  Br26  1  0.49008000  0.63724400  0.34212100  1
  Br  Br27  1  0.99008000  0.36275600  0.65787900  1
  Br  Br28  1  0.25000000  0.54372100  0.54944900  1
  Br  Br29  1  0.75000000  0.45627900  0.45055100  1
  Br  Br30  1  0.25000000  0.20266100  0.78492100  1
  Br  Br31  1  0.75000000  0.79733900  0.21507900  1
  N  N32  1  0.25000000  0.80291000  0.18531700  1
  N  N33  1  0.75000000  0.19709000  0.81468300  1
  N  N34  1  0.25000000  0.49561500  0.15407200  1
  N  N35  1  0.75000000  0.50438500  0.84592800  1
  N  N36  1  0.44081700  0.64091900  0.10294700  1
  N  N37  1  0.94081700  0.35908100  0.89705300  1
  N  N38  1  0.55918300  0.35908100  0.89705300  1
  N  N39  1  0.05918300  0.64091900  0.10294700  1
  N  N40  1  0.25000000  0.86448700  0.00902300  1
  N  N41  1  0.75000000  0.13551300  0.99097700  1
  N  N42  1  0.38835000  0.99738000  0.59748100  1
  N  N43  1  0.88835000  0.00262000  0.40251900  1
  N  N44  1  0.61165000  0.00262000  0.40251900  1
  N  N45  1  0.11165000  0.99738000  0.59748100  1
  N  N46  1  0.39187000  0.67510500  0.57486500  1
  N  N47  1  0.89187000  0.32489500  0.42513500  1
  N  N48  1  0.60813000  0.32489500  0.42513500  1
  N  N49  1  0.10813000  0.67510500  0.57486500  1
  N  N50  1  0.25000000  0.78528900  0.71212100  1
  N  N51  1  0.75000000  0.21471100  0.28787900  1
  Cl  Cl52  1  0.25000000  0.57065500  0.96448400  1
  Cl  Cl53  1  0.75000000  0.42934500  0.03551600  1
  Cl  Cl54  1  0.25000000  0.85874000  0.46320100  1
  Cl  Cl55  1  0.75000000  0.14126000  0.53679900  1
