# generated using pymatgen
data_Na4Sn(S2O7)2
_symmetry_space_group_name_H-M   'P 1'
_cell_length_a   8.45957333
_cell_length_b   11.07384297
_cell_length_c   10.79700846
_cell_angle_alpha   79.78291366
_cell_angle_beta   66.93622859
_cell_angle_gamma   63.07794338
_symmetry_Int_Tables_number   1
_chemical_formula_structural   Na4Sn(S2O7)2
_chemical_formula_sum   'Na8 Sn2 S8 O28'
_cell_volume   829.75953285
_cell_formula_units_Z   2
loop_
 _symmetry_equiv_pos_site_id
 _symmetry_equiv_pos_as_xyz
  1  'x, y, z'
loop_
 _atom_site_type_symbol
 _atom_site_label
 _atom_site_symmetry_multiplicity
 _atom_site_fract_x
 _atom_site_fract_y
 _atom_site_fract_z
 _atom_site_occupancy
  Na  Na0  1  0.45933900  0.37999800  0.72790000  1
  Na  Na1  1  0.18723900  0.87999800  0.27210000  1
  Na  Na2  1  0.82702200  0.50335900  0.56988800  1
  Na  Na3  1  0.39691000  0.00335900  0.43011200  1
  Na  Na4  1  0.22917800  0.30325600  0.60773000  1
  Na  Na5  1  0.83690800  0.80325600  0.39227000  1
  Na  Na6  1  0.28934200  0.55866900  0.09739400  1
  Na  Na7  1  0.38673600  0.05866900  0.90260600  1
  Sn  Sn8  1  0.87005000  0.33437600  0.16093400  1
  Sn  Sn9  1  0.03098400  0.83437600  0.83906600  1
  S  S10  1  0.98290300  0.20022200  0.44444500  1
  S  S11  1  0.42734800  0.70022200  0.55555500  1
  S  S12  1  0.19700500  0.58026100  0.42515200  1
  S  S13  1  0.62215700  0.08026100  0.57484800  1
  S  S14  1  0.61682200  0.75750700  0.06413800  1
  S  S15  1  0.68096000  0.25750700  0.93586200  1
  S  S16  1  0.95510100  0.01608100  0.06203700  1
  S  S17  1  0.01713700  0.51608100  0.93796300  1
  O  O18  1  0.69441300  0.42722500  0.80269100  1
  O  O19  1  0.49710400  0.92722500  0.19730900  1
  O  O20  1  0.14504000  0.35582400  0.86587800  1
  O  O21  1  0.01091800  0.85582400  0.13412200  1
  O  O22  1  0.05401000  0.75687200  0.03721700  1
  O  O23  1  0.09122700  0.25687200  0.96278300  1
  O  O24  1  0.32172700  0.78910400  0.68183300  1
  O  O25  1  0.00356000  0.28910400  0.31816700  1
  O  O26  1  0.63651800  0.03354200  0.44310100  1
  O  O27  1  0.07962000  0.53354200  0.55689900  1
  O  O28  1  0.59412500  0.23076700  0.55209600  1
  O  O29  1  0.14622100  0.73076700  0.44790400  1
  O  O30  1  0.10248400  0.59541100  0.32320700  1
  O  O31  1  0.42569100  0.09541100  0.67679300  1
  O  O32  1  0.51674800  0.55413900  0.59032700  1
  O  O33  1  0.10707500  0.05413900  0.40967300  1
  O  O34  1  0.03863600  0.24581100  0.53773600  1
  O  O35  1  0.57637200  0.74581100  0.46226400  1
  O  O36  1  0.57530600  0.21771900  0.88109800  1
  O  O37  1  0.45640400  0.71771900  0.11890200  1
  O  O38  1  0.15789300  0.57284300  0.85241500  1
  O  O39  1  0.01030800  0.07284300  0.14758500  1
  O  O40  1  0.02909500  0.48141400  0.07692900  1
  O  O41  1  0.10602500  0.98141400  0.92307100  1
  O  O42  1  0.56007900  0.34421400  0.05685900  1
  O  O43  1  0.61693800  0.84421400  0.94314100  1
  O  O44  1  0.57328000  0.53968400  0.87036400  1
  O  O45  1  0.44364400  0.03968400  0.12963600  1
