# generated using pymatgen
data_Ce3Ge
_symmetry_space_group_name_H-M   'P 1'
_cell_length_a   11.96770500
_cell_length_b   11.96770500
_cell_length_c   5.93561200
_cell_angle_alpha   90.00000000
_cell_angle_beta   90.00000000
_cell_angle_gamma   90.00000000
_symmetry_Int_Tables_number   1
_chemical_formula_structural   Ce3Ge
_chemical_formula_sum   'Ce24 Ge8'
_cell_volume   850.13374450
_cell_formula_units_Z   8
loop_
 _symmetry_equiv_pos_site_id
 _symmetry_equiv_pos_as_xyz
  1  'x, y, z'
loop_
 _atom_site_type_symbol
 _atom_site_label
 _atom_site_symmetry_multiplicity
 _atom_site_fract_x
 _atom_site_fract_y
 _atom_site_fract_z
 _atom_site_occupancy
  Ce  Ce0  1  0.28203000  0.82605600  0.98317600  1
  Ce  Ce1  1  0.71797000  0.17394400  0.98317600  1
  Ce  Ce2  1  0.67394400  0.78203000  0.48317600  1
  Ce  Ce3  1  0.32605600  0.21797000  0.48317600  1
  Ce  Ce4  1  0.21797000  0.67394400  0.51682400  1
  Ce  Ce5  1  0.78203000  0.32605600  0.51682400  1
  Ce  Ce6  1  0.82605600  0.71797000  0.01682400  1
  Ce  Ce7  1  0.17394400  0.28203000  0.01682400  1
  Ce  Ce8  1  0.38760000  0.91933500  0.52527100  1
  Ce  Ce9  1  0.61240000  0.08066500  0.52527100  1
  Ce  Ce10  1  0.58066500  0.88760000  0.02527100  1
  Ce  Ce11  1  0.41933500  0.11240000  0.02527100  1
  Ce  Ce12  1  0.11240000  0.58066500  0.97472900  1
  Ce  Ce13  1  0.88760000  0.41933500  0.97472900  1
  Ce  Ce14  1  0.91933500  0.61240000  0.47472900  1
  Ce  Ce15  1  0.08066500  0.38760000  0.47472900  1
  Ce  Ce16  1  0.03167100  0.86058400  0.73032500  1
  Ce  Ce17  1  0.96832900  0.13941600  0.73032500  1
  Ce  Ce18  1  0.63941600  0.53167100  0.23032500  1
  Ce  Ce19  1  0.36058400  0.46832900  0.23032500  1
  Ce  Ce20  1  0.46832900  0.63941600  0.76967500  1
  Ce  Ce21  1  0.53167100  0.36058400  0.76967500  1
  Ce  Ce22  1  0.86058400  0.96832900  0.26967500  1
  Ce  Ce23  1  0.13941600  0.03167100  0.26967500  1
  Ge  Ge24  1  0.79633000  0.95031700  0.77768900  1
  Ge  Ge25  1  0.20367000  0.04968300  0.77768900  1
  Ge  Ge26  1  0.54968300  0.29633000  0.27768900  1
  Ge  Ge27  1  0.45031700  0.70367000  0.27768900  1
  Ge  Ge28  1  0.70367000  0.54968300  0.72231100  1
  Ge  Ge29  1  0.29633000  0.45031700  0.72231100  1
  Ge  Ge30  1  0.95031700  0.20367000  0.22231100  1
  Ge  Ge31  1  0.04968300  0.79633000  0.22231100  1
