# generated using pymatgen
data_ZnSi3GeH35C13BrO
_symmetry_space_group_name_H-M   'P 1'
_cell_length_a   10.11417600
_cell_length_b   11.02214767
_cell_length_c   13.82925567
_cell_angle_alpha   92.27445081
_cell_angle_beta   105.64617816
_cell_angle_gamma   97.22652651
_symmetry_Int_Tables_number   1
_chemical_formula_structural   ZnSi3GeH35C13BrO
_chemical_formula_sum   'Zn2 Si6 Ge2 H70 C26 Br2 O2'
_cell_volume   1468.38684147
_cell_formula_units_Z   2
loop_
 _symmetry_equiv_pos_site_id
 _symmetry_equiv_pos_as_xyz
  1  'x, y, z'
loop_
 _atom_site_type_symbol
 _atom_site_label
 _atom_site_symmetry_multiplicity
 _atom_site_fract_x
 _atom_site_fract_y
 _atom_site_fract_z
 _atom_site_occupancy
  Zn  Zn0  1  0.90420000  0.86851900  0.91090800  1
  Zn  Zn1  1  0.09580000  0.13148100  0.08909200  1
  Si  Si2  1  0.08962800  0.72553500  0.73348900  1
  Si  Si3  1  0.91037200  0.27446500  0.26651100  1
  Si  Si4  1  0.73038700  0.55270800  0.73886200  1
  Si  Si5  1  0.26961300  0.44729200  0.26113800  1
  Si  Si6  1  0.74651900  0.87288800  0.61909100  1
  Si  Si7  1  0.25348100  0.12711200  0.38090900  1
  Ge  Ge8  1  0.86329500  0.75259000  0.74887300  1
  Ge  Ge9  1  0.13670500  0.24741000  0.25112700  1
  H  H10  1  0.22640500  0.90723100  0.84811300  1
  H  H11  1  0.77359500  0.09276900  0.15188700  1
  H  H12  1  0.31750800  0.85282000  0.76490600  1
  H  H13  1  0.68249200  0.14718000  0.23509400  1
  H  H14  1  0.18414900  0.94439500  0.72007700  1
  H  H15  1  0.81585100  0.05560500  0.27992300  1
  H  H16  1  0.73441600  0.46983500  0.56706300  1
  H  H17  1  0.26558400  0.53016500  0.43293700  1
  H  H18  1  0.87008900  0.42262600  0.66258000  1
  H  H19  1  0.12991100  0.57737400  0.33742000  1
  H  H20  1  0.69665900  0.35160900  0.64356700  1
  H  H21  1  0.30334100  0.64839100  0.35643300  1
  H  H22  1  0.60235300  0.91761100  0.95573900  1
  H  H23  1  0.39764700  0.08238900  0.04426100  1
  H  H24  1  0.56069600  0.76158900  0.90565500  1
  H  H25  1  0.43930400  0.23841100  0.09434500  1
  H  H26  1  0.17408400  0.63527500  0.89892900  1
  H  H27  1  0.82591600  0.36472500  0.10107100  1
  H  H28  1  0.10607000  0.51688500  0.79983300  1
  H  H29  1  0.89393000  0.48311500  0.20016700  1
  H  H30  1  0.27213400  0.60263300  0.81395600  1
  H  H31  1  0.72786600  0.39736700  0.18604400  1
  H  H32  1  0.62039500  0.62517700  0.12528000  1
  H  H33  1  0.37960500  0.37482300  0.87472000  1
  H  H34  1  0.65548200  0.75401800  0.21309300  1
  H  H35  1  0.34451800  0.24598200  0.78690700  1
  H  H36  1  0.84699500  0.68747600  0.11108200  1
  H  H37  1  0.15300500  0.31252400  0.88891800  1
  H  H38  1  0.85320600  0.83898500  0.16348200  1
  H  H39  1  0.14679400  0.16101500  0.83651800  1
  H  H40  1  0.62416300  0.70470400  0.48365000  1
  H  H41  1  0.37583700  0.29529600  0.51635000  1
  H  H42  1  0.64326200  0.85039000  0.43401300  1
  H  H43  1  0.35673800  0.14961000  0.56598700  1
  H  H44  1  0.78683800  0.76739300  0.46725400  1
  H  H45  1  0.21316200  0.23260700  0.53274600  1
  H  H46  1  0.50454100  0.59658400  0.62574900  1
  H  H47  1  0.49545900  0.40341600  0.37425100  1
  H  H48  1  0.48169800  0.46669600  0.69477300  1
  H  H49  1  0.51830200  0.53330400  0.30522700  1
  H  H50  1  0.50645000  0.61763700  0.75421200  1
  H  H51  1  0.49355000  0.38236300  0.24578800  1
  H  H52  1  0.88284800  0.47112900  0.88973400  1
  H  H53  1  0.11715200  0.52887100  0.11026600  1
  H  H54  1  0.74766300  0.53735500  0.92238600  1
  H  H55  1  0.25233700  0.46264500  0.07761400  1
  H  H56  1  0.71175300  0.39021900  0.85437100  1
  H  H57  1  0.28824700  0.60978100  0.14562900  1
  H  H58  1  0.50800600  0.83535400  0.64470100  1
  H  H59  1  0.49199400  0.16464600  0.35529900  1
  H  H60  1  0.60619500  0.97155800  0.71590200  1
  H  H61  1  0.39380500  0.02844200  0.28409800  1
  H  H62  1  0.53407400  0.97198500  0.58383600  1
  H  H63  1  0.46592600  0.02801500  0.41616400  1
  H  H64  1  0.51926200  0.87210800  0.09607100  1
  H  H65  1  0.48073800  0.12789200  0.90392900  1
  H  H66  1  0.44216800  0.72904200  0.03072400  1
  H  H67  1  0.55783200  0.27095800  0.96927600  1
  H  H68  1  0.04923700  0.73865200  0.54718200  1
  H  H69  1  0.95076300  0.26134800  0.45281800  1
  H  H70  1  0.19646400  0.66647200  0.60056300  1
  H  H71  1  0.80353600  0.33352800  0.39943700  1
  H  H72  1  0.02727000  0.58261100  0.57586700  1
  H  H73  1  0.97273000  0.41738900  0.42413300  1
  H  H74  1  0.95377400  0.00483000  0.59372400  1
  H  H75  1  0.04622600  0.99517000  0.40627600  1
  H  H76  1  0.79910700  0.07233900  0.55302800  1
  H  H77  1  0.20089300  0.92766100  0.44697200  1
  H  H78  1  0.88655400  0.07885000  0.68368700  1
  H  H79  1  0.11344600  0.92115000  0.31631300  1
  C  C80  1  0.21544900  0.87227000  0.77040500  1
  C  C81  1  0.78455100  0.12773000  0.22959500  1
  C  C82  1  0.76165900  0.43973900  0.64376300  1
  C  C83  1  0.23834100  0.56026100  0.35623700  1
  C  C84  1  0.60784500  0.82202100  0.97519900  1
  C  C85  1  0.39215500  0.17797900  0.02480100  1
  C  C86  1  0.16665300  0.60867000  0.82007100  1
  C  C87  1  0.83334700  0.39133000  0.17992900  1
  C  C88  1  0.64866800  0.72556900  0.13461800  1
  C  C89  1  0.35133200  0.27443100  0.86538200  1
  C  C90  1  0.78648800  0.76403200  0.11093300  1
  C  C91  1  0.21351200  0.23596800  0.88906700  1
  C  C92  1  0.69563700  0.79002400  0.48913300  1
  C  C93  1  0.30436300  0.20997600  0.51086700  1
  C  C94  1  0.53778700  0.56016400  0.69988100  1
  C  C95  1  0.46221300  0.43983600  0.30011900  1
  C  C96  1  0.77259800  0.48211600  0.86355900  1
  C  C97  1  0.22740200  0.51788400  0.13644100  1
  C  C98  1  0.58315600  0.91603900  0.64395400  1
  C  C99  1  0.41684400  0.08396100  0.35604600  1
  C  C100  1  0.54143800  0.78915400  0.05977400  1
  C  C101  1  0.45856200  0.21084600  0.94022600  1
  C  C102  1  0.08898900  0.67308300  0.60165000  1
  C  C103  1  0.91101100  0.32691700  0.39835000  1
  C  C104  1  0.85842400  0.02098500  0.61252300  1
  C  C105  1  0.14157600  0.97901500  0.38747700  1
  Br  Br106  1  0.87873200  0.09738400  0.93856800  1
  Br  Br107  1  0.12126800  0.90261600  0.06143200  1
  O  O108  1  0.75305700  0.80536900  0.00954700  1
  O  O109  1  0.24694300  0.19463100  0.99045300  1
