# generated using pymatgen
data_Mg3(SiO3)4
_symmetry_space_group_name_H-M   'P 1'
_cell_length_a   5.35942571
_cell_length_b   5.35942571
_cell_length_c   19.32616121
_cell_angle_alpha   87.02002829
_cell_angle_beta   87.02002829
_cell_angle_gamma   119.65249010
_symmetry_Int_Tables_number   1
_chemical_formula_structural   Mg3(SiO3)4
_chemical_formula_sum   'Mg6 Si8 O24'
_cell_volume   479.82995129
_cell_formula_units_Z   2
loop_
 _symmetry_equiv_pos_site_id
 _symmetry_equiv_pos_as_xyz
  1  'x, y, z'
loop_
 _atom_site_type_symbol
 _atom_site_label
 _atom_site_symmetry_multiplicity
 _atom_site_fract_x
 _atom_site_fract_y
 _atom_site_fract_z
 _atom_site_occupancy
  Mg  Mg0  1  0.50000000  0.00000000  0.50000000  1
  Mg  Mg1  1  0.00000000  0.50000000  0.00000000  1
  Mg  Mg2  1  0.14591100  0.32290200  0.50012400  1
  Mg  Mg3  1  0.67709800  0.85408900  0.99987600  1
  Mg  Mg4  1  0.85408900  0.67709800  0.49987600  1
  Mg  Mg5  1  0.32290200  0.14591100  0.00012400  1
  Si  Si6  1  0.88570000  0.38577700  0.35496000  1
  Si  Si7  1  0.61422300  0.11430000  0.14504000  1
  Si  Si8  1  0.11430000  0.61422300  0.64504000  1
  Si  Si9  1  0.38577700  0.88570000  0.85496000  1
  Si  Si10  1  0.21923100  0.05245400  0.35499200  1
  Si  Si11  1  0.94754600  0.78076900  0.14500800  1
  Si  Si12  1  0.78076900  0.94754600  0.64500800  1
  Si  Si13  1  0.05245400  0.21923100  0.85499200  1
  O  O14  1  0.85591800  0.35110900  0.44086700  1
  O  O15  1  0.64889100  0.14408200  0.05913300  1
  O  O16  1  0.14408200  0.64889100  0.55913300  1
  O  O17  1  0.35110900  0.85591800  0.94086700  1
  O  O18  1  0.18726400  0.01775400  0.44090900  1
  O  O19  1  0.98224600  0.81273600  0.05909100  1
  O  O20  1  0.81273600  0.98224600  0.55909100  1
  O  O21  1  0.01775400  0.18726400  0.94090900  1
  O  O22  1  0.51531200  0.66605600  0.45592200  1
  O  O23  1  0.33394400  0.48468800  0.04407800  1
  O  O24  1  0.48468800  0.33394400  0.54407800  1
  O  O25  1  0.66605600  0.51531200  0.95592200  1
  O  O26  1  0.56254100  0.22598000  0.32732400  1
  O  O27  1  0.77402000  0.43745900  0.17267600  1
  O  O28  1  0.43745900  0.77402000  0.67267600  1
  O  O29  1  0.22598000  0.56254100  0.82732400  1
  O  O30  1  0.05858400  0.72916300  0.32736800  1
  O  O31  1  0.27083700  0.94141600  0.17263200  1
  O  O32  1  0.94141600  0.27083700  0.67263200  1
  O  O33  1  0.72916300  0.05858400  0.82736800  1
  O  O34  1  0.06673900  0.23323000  0.32641600  1
  O  O35  1  0.76677000  0.93326100  0.17358400  1
  O  O36  1  0.93326100  0.76677000  0.67358400  1
  O  O37  1  0.23323000  0.06673900  0.82641600  1
