# generated using pymatgen
data_FeP3(HO)6
_symmetry_space_group_name_H-M   'P 1'
_cell_length_a   7.44840020
_cell_length_b   7.44840020
_cell_length_c   7.44840100
_cell_angle_alpha   102.28504019
_cell_angle_beta   102.28504019
_cell_angle_gamma   102.28504173
_symmetry_Int_Tables_number   1
_chemical_formula_structural   FeP3(HO)6
_chemical_formula_sum   'Fe2 P6 H12 O12'
_cell_volume   379.83527579
_cell_formula_units_Z   2
loop_
 _symmetry_equiv_pos_site_id
 _symmetry_equiv_pos_as_xyz
  1  'x, y, z'
loop_
 _atom_site_type_symbol
 _atom_site_label
 _atom_site_symmetry_multiplicity
 _atom_site_fract_x
 _atom_site_fract_y
 _atom_site_fract_z
 _atom_site_occupancy
  Fe  Fe0  1  0.00000000  0.00000000  0.00000000  1
  Fe  Fe1  1  0.50000000  0.50000000  0.50000000  1
  P  P2  1  0.42890500  0.25795900  0.04776500  1
  P  P3  1  0.25795900  0.04776500  0.42890500  1
  P  P4  1  0.04776500  0.42890500  0.25795900  1
  P  P5  1  0.57109500  0.74204100  0.95223500  1
  P  P6  1  0.74204100  0.95223500  0.57109500  1
  P  P7  1  0.95223500  0.57109500  0.74204100  1
  H  H8  1  0.56556100  0.23025000  0.94652100  1
  H  H9  1  0.23025000  0.94652100  0.56556100  1
  H  H10  1  0.94652100  0.56556100  0.23025000  1
  H  H11  1  0.43443900  0.76975000  0.05347900  1
  H  H12  1  0.76975000  0.05347900  0.43443900  1
  H  H13  1  0.05347900  0.43443900  0.76975000  1
  H  H14  1  0.33785600  0.38404300  0.97082100  1
  H  H15  1  0.38404300  0.97082100  0.33785600  1
  H  H16  1  0.97082100  0.33785600  0.38404300  1
  H  H17  1  0.66214400  0.61595700  0.02917900  1
  H  H18  1  0.61595700  0.02917900  0.66214400  1
  H  H19  1  0.02917900  0.66214400  0.61595700  1
  O  O20  1  0.28108000  0.06638900  0.00559300  1
  O  O21  1  0.06638900  0.00559300  0.28108000  1
  O  O22  1  0.00559300  0.28108000  0.06638900  1
  O  O23  1  0.71892000  0.93361100  0.99440700  1
  O  O24  1  0.93361100  0.99440700  0.71892000  1
  O  O25  1  0.99440700  0.71892000  0.93361100  1
  O  O26  1  0.54069800  0.35208800  0.25635500  1
  O  O27  1  0.35208800  0.25635500  0.54069800  1
  O  O28  1  0.25635500  0.54069800  0.35208800  1
  O  O29  1  0.45930200  0.64791200  0.74364500  1
  O  O30  1  0.64791200  0.74364500  0.45930200  1
  O  O31  1  0.74364500  0.45930200  0.64791200  1
