# generated using pymatgen
data_SiO2
_symmetry_space_group_name_H-M   'P 1'
_cell_length_a   13.60631617
_cell_length_b   20.24247394
_cell_length_c   20.47811106
_cell_angle_alpha   90.00000000
_cell_angle_beta   90.00000000
_cell_angle_gamma   90.63841736
_symmetry_Int_Tables_number   1
_chemical_formula_structural   SiO2
_chemical_formula_sum   'Si96 O192'
_cell_volume   5639.84386031
_cell_formula_units_Z   96
loop_
 _symmetry_equiv_pos_site_id
 _symmetry_equiv_pos_as_xyz
  1  'x, y, z'
loop_
 _atom_site_type_symbol
 _atom_site_label
 _atom_site_symmetry_multiplicity
 _atom_site_fract_x
 _atom_site_fract_y
 _atom_site_fract_z
 _atom_site_occupancy
  Si  Si0  1  0.17994321  0.55544978  0.07951373  1
  Si  Si1  1  0.82005679  0.44455022  0.92048627  1
  Si  Si2  1  0.67994321  0.05544978  0.42048627  1
  Si  Si3  1  0.32005679  0.94455022  0.57951373  1
  Si  Si4  1  0.33644628  0.53074672  0.18622874  1
  Si  Si5  1  0.66355372  0.46925328  0.81377126  1
  Si  Si6  1  0.83644628  0.03074672  0.31377126  1
  Si  Si7  1  0.16355372  0.96925328  0.68622874  1
  Si  Si8  1  0.55332463  0.56241397  0.22048405  1
  Si  Si9  1  0.44667537  0.43758603  0.77951595  1
  Si  Si10  1  0.05332463  0.06241397  0.27951595  1
  Si  Si11  1  0.94667537  0.93758603  0.72048405  1
  Si  Si12  1  0.53679311  0.56226892  0.37599573  1
  Si  Si13  1  0.46320689  0.43773108  0.62400427  1
  Si  Si14  1  0.03679311  0.06226892  0.12400427  1
  Si  Si15  1  0.96320689  0.93773108  0.87599573  1
  Si  Si16  1  0.32429433  0.52789472  0.42322518  1
  Si  Si17  1  0.67570567  0.47210528  0.57677482  1
  Si  Si18  1  0.82429433  0.02789472  0.07677482  1
  Si  Si19  1  0.17570567  0.97210528  0.92322518  1
  Si  Si20  1  0.18671813  0.55579440  0.30431913  1
  Si  Si21  1  0.81328187  0.44420560  0.69568087  1
  Si  Si22  1  0.68671813  0.05579440  0.19568087  1
  Si  Si23  1  0.31328187  0.94420560  0.80431913  1
  Si  Si24  1  0.18065914  0.32861947  0.07453090  1
  Si  Si25  1  0.81934086  0.67138053  0.92546910  1
  Si  Si26  1  0.68065914  0.82861947  0.42546910  1
  Si  Si27  1  0.31934086  0.17138053  0.57453090  1
  Si  Si28  1  0.32615427  0.37345846  0.18786680  1
  Si  Si29  1  0.67384573  0.62654154  0.81213320  1
  Si  Si30  1  0.82615427  0.87345846  0.31213320  1
  Si  Si31  1  0.17384573  0.12654154  0.68786680  1
  Si  Si32  1  0.53581214  0.32401391  0.22688390  1
  Si  Si33  1  0.46418786  0.67598609  0.77311610  1
  Si  Si34  1  0.03581214  0.82401391  0.27311610  1
  Si  Si35  1  0.96418786  0.17598609  0.72688390  1
  Si  Si36  1  0.53425246  0.32356637  0.38087672  1
  Si  Si37  1  0.46574754  0.67643363  0.61912328  1
  Si  Si38  1  0.03425246  0.82356637  0.11912328  1
  Si  Si39  1  0.96574754  0.17643363  0.88087672  1
  Si  Si40  1  0.32480645  0.37061246  0.42853070  1
  Si  Si41  1  0.67519355  0.62938754  0.57146930  1
  Si  Si42  1  0.82480645  0.87061246  0.07146930  1
  Si  Si43  1  0.17519355  0.12938754  0.92853070  1
  Si  Si44  1  0.18590554  0.33482275  0.30920449  1
  Si  Si45  1  0.81409446  0.66517725  0.69079551  1
  Si  Si46  1  0.68590554  0.83482275  0.19079551  1
  Si  Si47  1  0.31409446  0.16517725  0.80920449  1
  Si  Si48  1  0.16518656  0.94301960  0.07166134  1
  Si  Si49  1  0.83481344  0.05698040  0.92833866  1
  Si  Si50  1  0.66518656  0.44301960  0.42833866  1
  Si  Si51  1  0.33481344  0.55698040  0.57166134  1
  Si  Si52  1  0.31200979  0.97300278  0.18767565  1
  Si  Si53  1  0.68799021  0.02699722  0.81232435  1
  Si  Si54  1  0.81200979  0.47300278  0.31232435  1
  Si  Si55  1  0.18799021  0.52699722  0.68767565  1
  Si  Si56  1  0.52933119  0.93873237  0.22297967  1
  Si  Si57  1  0.47066881  0.06126763  0.77702033  1
  Si  Si58  1  0.02933119  0.43873237  0.27702033  1
  Si  Si59  1  0.97066881  0.56126763  0.72297967  1
  Si  Si60  1  0.53396653  0.93555603  0.37837755  1
  Si  Si61  1  0.46603347  0.06444397  0.62162245  1
  Si  Si62  1  0.03396653  0.43555603  0.12162245  1
  Si  Si63  1  0.96603347  0.56444397  0.87837755  1
  Si  Si64  1  0.32160459  0.97311521  0.42904808  1
  Si  Si65  1  0.67839541  0.02688479  0.57095192  1
  Si  Si66  1  0.82160459  0.47311521  0.07095192  1
  Si  Si67  1  0.17839541  0.52688479  0.92904808  1
  Si  Si68  1  0.18256234  0.93792441  0.31261050  1
  Si  Si69  1  0.81743766  0.06207559  0.68738950  1
  Si  Si70  1  0.68256234  0.43792441  0.18738950  1
  Si  Si71  1  0.31743766  0.56207559  0.81261050  1
  Si  Si72  1  0.18562961  0.17198292  0.07612885  1
  Si  Si73  1  0.81437039  0.82801708  0.92387115  1
  Si  Si74  1  0.68562961  0.67198292  0.42387115  1
  Si  Si75  1  0.31437039  0.32801708  0.57612885  1
  Si  Si76  1  0.33158773  0.13152450  0.18732768  1
  Si  Si77  1  0.66841227  0.86847550  0.81267232  1
  Si  Si78  1  0.83158773  0.63152450  0.31267232  1
  Si  Si79  1  0.16841227  0.36847550  0.68732768  1
  Si  Si80  1  0.54574224  0.16901081  0.22703172  1
  Si  Si81  1  0.45425776  0.83098919  0.77296828  1
  Si  Si82  1  0.04574224  0.66901081  0.27296828  1
  Si  Si83  1  0.95425776  0.33098919  0.72703172  1
  Si  Si84  1  0.53858917  0.17011217  0.38109185  1
  Si  Si85  1  0.46141083  0.82988783  0.61890815  1
  Si  Si86  1  0.03858917  0.67011217  0.11890815  1
  Si  Si87  1  0.96141083  0.32988783  0.88109185  1
  Si  Si88  1  0.32247635  0.13084900  0.42748111  1
  Si  Si89  1  0.67752365  0.86915100  0.57251889  1
  Si  Si90  1  0.82247635  0.63084900  0.07251889  1
  Si  Si91  1  0.17752365  0.36915100  0.92748111  1
  Si  Si92  1  0.20208336  0.18074836  0.30551600  1
  Si  Si93  1  0.79791664  0.81925164  0.69448400  1
  Si  Si94  1  0.70208336  0.68074836  0.19448400  1
  Si  Si95  1  0.29791664  0.31925164  0.80551600  1
  O  O96  1  0.28036765  0.55867117  0.12214185  1
  O  O97  1  0.71963235  0.44132883  0.87785815  1
  O  O98  1  0.78036765  0.05867117  0.37785815  1
  O  O99  1  0.21963235  0.94132883  0.62214185  1
  O  O100  1  0.44384364  0.56612506  0.18959608  1
  O  O101  1  0.55615636  0.43387494  0.81040392  1
  O  O102  1  0.94384364  0.06612506  0.31040392  1
  O  O103  1  0.05615636  0.93387494  0.68959608  1
  O  O104  1  0.54640056  0.54761641  0.29845127  1
  O  O105  1  0.45359944  0.45238359  0.70154873  1
  O  O106  1  0.04640056  0.04761641  0.20154873  1
  O  O107  1  0.95359944  0.95238359  0.79845127  1
  O  O108  1  0.42190783  0.56693079  0.39689823  1
  O  O109  1  0.57809217  0.43306921  0.60310177  1
  O  O110  1  0.92190783  0.06693079  0.10310177  1
  O  O111  1  0.07809217  0.93306921  0.89689823  1
  O  O112  1  0.23099620  0.54440346  0.37696505  1
  O  O113  1  0.76900380  0.45559654  0.62303495  1
  O  O114  1  0.73099620  0.04440346  0.12303495  1
  O  O115  1  0.26900380  0.95559654  0.87696505  1
  O  O116  1  0.27469993  0.54782911  0.25183574  1
  O  O117  1  0.72530007  0.45217089  0.74816426  1
  O  O118  1  0.77469993  0.04782911  0.24816426  1
  O  O119  1  0.22530007  0.95217089  0.75183574  1
  O  O120  1  0.27095008  0.34671539  0.12297409  1
  O  O121  1  0.72904992  0.65328461  0.87702591  1
  O  O122  1  0.77095008  0.84671539  0.37702591  1
  O  O123  1  0.22904992  0.15328461  0.62297409  1
  O  O124  1  0.42778584  0.33321764  0.19513196  1
  O  O125  1  0.57221416  0.66678236  0.80486804  1
  O  O126  1  0.92778584  0.83321764  0.30486804  1
  O  O127  1  0.07221416  0.16678236  0.69513196  1
  O  O128  1  0.53177785  0.34377785  0.30395548  1
  O  O129  1  0.46822215  0.65622215  0.69604452  1
  O  O130  1  0.03177785  0.84377785  0.19604452  1
  O  O131  1  0.96822215  0.15622215  0.80395548  1
  O  O132  1  0.42485851  0.33113616  0.41139434  1
  O  O133  1  0.57514149  0.66886384  0.58860566  1
  O  O134  1  0.92485851  0.83113616  0.08860566  1
  O  O135  1  0.07514149  0.16886384  0.91139434  1
  O  O136  1  0.23724602  0.34896969  0.37936821  1
  O  O137  1  0.76275398  0.65103031  0.62063179  1
  O  O138  1  0.73724602  0.84896969  0.12063179  1
  O  O139  1  0.26275398  0.15103031  0.87936821  1
  O  O140  1  0.25751238  0.36220978  0.25166257  1
  O  O141  1  0.74248762  0.63779022  0.74833743  1
  O  O142  1  0.75751238  0.86220978  0.24833743  1
  O  O143  1  0.24248762  0.13779022  0.75166257  1
  O  O144  1  0.35079145  0.45157414  0.18100472  1
  O  O145  1  0.64920855  0.54842586  0.81899528  1
  O  O146  1  0.85079145  0.95157414  0.31899528  1
  O  O147  1  0.14920855  0.04842586  0.68100472  1
  O  O148  1  0.34669884  0.44933866  0.42198350  1
  O  O149  1  0.65330116  0.55066134  0.57801650  1
  O  O150  1  0.84669884  0.94933866  0.07801650  1
  O  O151  1  0.15330116  0.05066134  0.92198350  1
  O  O152  1  0.12288826  0.62523034  0.08563287  1
  O  O153  1  0.87711174  0.37476966  0.91436713  1
  O  O154  1  0.62288826  0.12523034  0.41436713  1
  O  O155  1  0.37711174  0.87476966  0.58563287  1
  O  O156  1  0.11075044  0.49586640  0.10755150  1
  O  O157  1  0.88924956  0.50413360  0.89244850  1
  O  O158  1  0.61075044  0.99586640  0.39244850  1
  O  O159  1  0.38924956  0.00413360  0.60755150  1
  O  O160  1  0.08140181  0.36632896  0.09778625  1
  O  O161  1  0.91859819  0.63367104  0.90221375  1
  O  O162  1  0.58140181  0.86632896  0.40221375  1
  O  O163  1  0.41859819  0.13367104  0.59778625  1
  O  O164  1  0.14121273  0.62963572  0.29958759  1
  O  O165  1  0.85878727  0.37036428  0.70041241  1
  O  O166  1  0.64121273  0.12963572  0.20041241  1
  O  O167  1  0.35878727  0.87036428  0.79958759  1
  O  O168  1  0.09941838  0.50269276  0.29020282  1
  O  O169  1  0.90058162  0.49730724  0.70979718  1
  O  O170  1  0.59941838  0.00269276  0.20979718  1
  O  O171  1  0.40058162  0.99730724  0.79020282  1
  O  O172  1  0.08129239  0.37272494  0.30507360  1
  O  O173  1  0.91870761  0.62727506  0.69492640  1
  O  O174  1  0.58129239  0.87272494  0.19492640  1
  O  O175  1  0.41870761  0.12727506  0.80507360  1
  O  O176  1  0.29643657  0.55147794  0.49673472  1
  O  O177  1  0.70356343  0.44852206  0.50326528  1
  O  O178  1  0.79643657  0.05147794  0.00326528  1
  O  O179  1  0.20356343  0.94852206  0.99673472  1
  O  O180  1  0.29057695  0.35249107  0.50236545  1
  O  O181  1  0.70942305  0.64750893  0.49763455  1
  O  O182  1  0.79057695  0.85249107  0.99763455  1
  O  O183  1  0.20942305  0.14750893  0.00236545  1
  O  O184  1  0.15893964  0.24971468  0.07618532  1
  O  O185  1  0.84106036  0.75028532  0.92381468  1
  O  O186  1  0.65893964  0.74971468  0.42381468  1
  O  O187  1  0.34106036  0.25028532  0.57618532  1
  O  O188  1  0.16469219  0.25628582  0.30131588  1
  O  O189  1  0.83530781  0.74371418  0.69868412  1
  O  O190  1  0.66469219  0.75628582  0.19868412  1
  O  O191  1  0.33530781  0.24371418  0.80131588  1
  O  O192  1  0.56742854  0.24744677  0.21783831  1
  O  O193  1  0.43257146  0.75255323  0.78216169  1
  O  O194  1  0.06742854  0.74744677  0.28216169  1
  O  O195  1  0.93257146  0.25255323  0.71783831  1
  O  O196  1  0.56918608  0.24754746  0.38980675  1
  O  O197  1  0.43081392  0.75245254  0.61019325  1
  O  O198  1  0.06918608  0.74754746  0.11019325  1
  O  O199  1  0.93081392  0.25245254  0.88980675  1
  O  O200  1  0.25904178  0.95030182  0.12013776  1
  O  O201  1  0.74095822  0.04969818  0.87986224  1
  O  O202  1  0.75904178  0.45030182  0.37986224  1
  O  O203  1  0.24095822  0.54969818  0.62013776  1
  O  O204  1  0.42482368  0.94798671  0.18603561  1
  O  O205  1  0.57517632  0.05201329  0.81396439  1
  O  O206  1  0.92482368  0.44798671  0.31396439  1
  O  O207  1  0.07517632  0.55201329  0.68603561  1
  O  O208  1  0.50966246  0.93187276  0.30097645  1
  O  O209  1  0.49033754  0.06812724  0.69902355  1
  O  O210  1  0.00966246  0.43187276  0.19902355  1
  O  O211  1  0.99033754  0.56812724  0.80097645  1
  O  O212  1  0.43330901  0.94769109  0.41854508  1
  O  O213  1  0.56669099  0.05230891  0.58145492  1
  O  O214  1  0.93330901  0.44769109  0.08145492  1
  O  O215  1  0.06669099  0.55230891  0.91854508  1
  O  O216  1  0.24709542  0.93530845  0.37926350  1
  O  O217  1  0.75290458  0.06469155  0.62073650  1
  O  O218  1  0.74709542  0.43530845  0.12073650  1
  O  O219  1  0.25290458  0.56469155  0.87926350  1
  O  O220  1  0.25494873  0.94021097  0.24944053  1
  O  O221  1  0.74505127  0.05978903  0.75055947  1
  O  O222  1  0.75494873  0.44021097  0.25055947  1
  O  O223  1  0.24505127  0.55978903  0.74944053  1
  O  O224  1  0.28286294  0.15892118  0.12035035  1
  O  O225  1  0.71713706  0.84107882  0.87964965  1
  O  O226  1  0.78286294  0.65892118  0.37964965  1
  O  O227  1  0.21713706  0.34107882  0.62035035  1
  O  O228  1  0.44919389  0.14596407  0.18549563  1
  O  O229  1  0.55080611  0.85403593  0.81450437  1
  O  O230  1  0.94919389  0.64596407  0.31450437  1
  O  O231  1  0.05080611  0.35403593  0.68549563  1
  O  O232  1  0.52731052  0.15163878  0.30390946  1
  O  O233  1  0.47268948  0.84836122  0.69609054  1
  O  O234  1  0.02731052  0.65163878  0.19609054  1
  O  O235  1  0.97268948  0.34836122  0.80390946  1
  O  O236  1  0.43500615  0.15601335  0.41752356  1
  O  O237  1  0.56499385  0.84398665  0.58247644  1
  O  O238  1  0.93500615  0.65601335  0.08247644  1
  O  O239  1  0.06499385  0.34398665  0.91752356  1
  O  O240  1  0.24967993  0.16763464  0.37693805  1
  O  O241  1  0.75032007  0.83236536  0.62306195  1
  O  O242  1  0.74967993  0.66763464  0.12306195  1
  O  O243  1  0.25032007  0.33236536  0.87693805  1
  O  O244  1  0.28571567  0.16928622  0.25001075  1
  O  O245  1  0.71428433  0.83071378  0.74998925  1
  O  O246  1  0.78571567  0.66928622  0.24998925  1
  O  O247  1  0.21428433  0.33071378  0.75001075  1
  O  O248  1  0.30888412  0.05290117  0.19449041  1
  O  O249  1  0.69111588  0.94709883  0.80550959  1
  O  O250  1  0.80888412  0.55290117  0.30550959  1
  O  O251  1  0.19111588  0.44709883  0.69449041  1
  O  O252  1  0.31646012  0.05180313  0.41498563  1
  O  O253  1  0.68353988  0.94819687  0.58501437  1
  O  O254  1  0.81646012  0.55180313  0.08501437  1
  O  O255  1  0.18353988  0.44819687  0.91498563  1
  O  O256  1  0.11175427  0.87162966  0.08147513  1
  O  O257  1  0.88824573  0.12837034  0.91852487  1
  O  O258  1  0.61175427  0.37162966  0.41852487  1
  O  O259  1  0.38824573  0.62837034  0.58147513  1
  O  O260  1  0.08673431  0.00157357  0.08471349  1
  O  O261  1  0.91326569  0.99842643  0.91528651  1
  O  O262  1  0.58673431  0.50157357  0.41528651  1
  O  O263  1  0.41326569  0.49842643  0.58471349  1
  O  O264  1  0.09143745  0.13169780  0.10605054  1
  O  O265  1  0.90856255  0.86830220  0.89394946  1
  O  O266  1  0.59143745  0.63169780  0.39394946  1
  O  O267  1  0.40856255  0.36830220  0.60605054  1
  O  O268  1  0.11541883  0.87124750  0.30984607  1
  O  O269  1  0.88458117  0.12875250  0.69015393  1
  O  O270  1  0.61541883  0.37124750  0.19015393  1
  O  O271  1  0.38458117  0.62875250  0.80984607  1
  O  O272  1  0.11381979  0.00300961  0.31380337  1
  O  O273  1  0.88618021  0.99699039  0.68619663  1
  O  O274  1  0.61381979  0.50300961  0.18619663  1
  O  O275  1  0.38618021  0.49699039  0.81380337  1
  O  O276  1  0.10835728  0.13240866  0.29271764  1
  O  O277  1  0.89164272  0.86759134  0.70728236  1
  O  O278  1  0.60835728  0.63240866  0.20728236  1
  O  O279  1  0.39164272  0.36759134  0.79271764  1
  O  O280  1  0.29002680  0.95750143  0.50393961  1
  O  O281  1  0.70997320  0.04249857  0.49606039  1
  O  O282  1  0.79002680  0.45750143  0.99606039  1
  O  O283  1  0.20997320  0.54249857  0.00393961  1
  O  O284  1  0.28830158  0.14818142  0.50133574  1
  O  O285  1  0.71169842  0.85181858  0.49866426  1
  O  O286  1  0.78830158  0.64818142  0.99866426  1
  O  O287  1  0.21169842  0.35181858  0.00133574  1
