# generated using pymatgen
data_HgS2(NO3)2
_symmetry_space_group_name_H-M   'P 1'
_cell_length_a   6.92405400
_cell_length_b   10.15468600
_cell_length_c   15.08480300
_cell_angle_alpha   90.00000000
_cell_angle_beta   90.00000000
_cell_angle_gamma   90.00000000
_symmetry_Int_Tables_number   1
_chemical_formula_structural   HgS2(NO3)2
_chemical_formula_sum   'Hg4 S8 N8 O24'
_cell_volume   1060.63654738
_cell_formula_units_Z   4
loop_
 _symmetry_equiv_pos_site_id
 _symmetry_equiv_pos_as_xyz
  1  'x, y, z'
loop_
 _atom_site_type_symbol
 _atom_site_label
 _atom_site_symmetry_multiplicity
 _atom_site_fract_x
 _atom_site_fract_y
 _atom_site_fract_z
 _atom_site_occupancy
  Hg  Hg0  1  0.02096600  0.72350300  0.86849000  1
  Hg  Hg1  1  0.47903400  0.27649700  0.36849000  1
  Hg  Hg2  1  0.52096600  0.77649700  0.13151000  1
  Hg  Hg3  1  0.97903400  0.22350300  0.63151000  1
  S  S4  1  0.99409200  0.84669800  0.68680200  1
  S  S5  1  0.50590800  0.15330200  0.18680200  1
  S  S6  1  0.49409200  0.65330200  0.31319800  1
  S  S7  1  0.00590800  0.34669800  0.81319800  1
  S  S8  1  0.03480400  0.64104800  0.06219400  1
  S  S9  1  0.46519600  0.35895200  0.56219400  1
  S  S10  1  0.53480400  0.85895200  0.93780600  1
  S  S11  1  0.96519600  0.14104800  0.43780600  1
  N  N12  1  0.54743300  0.39137700  0.96811600  1
  N  N13  1  0.95256700  0.60862300  0.46811600  1
  N  N14  1  0.04743300  0.10862300  0.03188400  1
  N  N15  1  0.45256700  0.89137700  0.53188400  1
  N  N16  1  0.96309900  0.92608800  0.27174300  1
  N  N17  1  0.53690100  0.07391200  0.77174300  1
  N  N18  1  0.46309900  0.57391200  0.72825700  1
  N  N19  1  0.03690100  0.42608800  0.22825700  1
  O  O20  1  0.84904900  0.57777400  0.05947100  1
  O  O21  1  0.65095100  0.42222600  0.55947100  1
  O  O22  1  0.34904900  0.92222600  0.94052900  1
  O  O23  1  0.15095100  0.07777400  0.44052900  1
  O  O24  1  0.11411600  0.74746300  0.64695000  1
  O  O25  1  0.38588400  0.25253700  0.14695000  1
  O  O26  1  0.61411600  0.75253700  0.35305000  1
  O  O27  1  0.88588400  0.24746300  0.85305000  1
  O  O28  1  0.20796700  0.56689000  0.04459100  1
  O  O29  1  0.29203300  0.43311000  0.54459100  1
  O  O30  1  0.70796700  0.93311000  0.95540900  1
  O  O31  1  0.79203300  0.06689000  0.45540900  1
  O  O32  1  0.04973800  0.77497700  0.09343500  1
  O  O33  1  0.45026200  0.22502300  0.59343500  1
  O  O34  1  0.54973800  0.72502300  0.90656500  1
  O  O35  1  0.95026200  0.27497700  0.40656500  1
  O  O36  1  0.78706100  0.83529600  0.68483100  1
  O  O37  1  0.71293900  0.16470400  0.18483100  1
  O  O38  1  0.28706100  0.66470400  0.31516900  1
  O  O39  1  0.21293900  0.33529600  0.81516900  1
  O  O40  1  0.08131600  0.96692800  0.71902600  1
  O  O41  1  0.41868400  0.03307200  0.21902600  1
  O  O42  1  0.58131600  0.53307200  0.28097400  1
  O  O43  1  0.91868400  0.46692800  0.78097400  1
