# generated using pymatgen
data_K3V2O12
_symmetry_space_group_name_H-M   'P 1'
_cell_length_a   10.06703600
_cell_length_b   6.86245400
_cell_length_c   15.86331889
_cell_angle_alpha   86.99374279
_cell_angle_beta   90.00000000
_cell_angle_gamma   90.00000000
_symmetry_Int_Tables_number   1
_chemical_formula_structural   K3V2O12
_chemical_formula_sum   'K12 V8 O48'
_cell_volume   1094.40240987
_cell_formula_units_Z   4
loop_
 _symmetry_equiv_pos_site_id
 _symmetry_equiv_pos_as_xyz
  1  'x, y, z'
loop_
 _atom_site_type_symbol
 _atom_site_label
 _atom_site_symmetry_multiplicity
 _atom_site_fract_x
 _atom_site_fract_y
 _atom_site_fract_z
 _atom_site_occupancy
  K  K0  1  0.59102800  0.26481900  0.87584400  1
  K  K1  1  0.09102800  0.73518100  0.62415600  1
  K  K2  1  0.40897200  0.73518100  0.12415600  1
  K  K3  1  0.90897200  0.26481900  0.37584400  1
  K  K4  1  0.55775400  0.80220500  0.68169100  1
  K  K5  1  0.05775400  0.19779500  0.81830900  1
  K  K6  1  0.44224600  0.19779500  0.31830900  1
  K  K7  1  0.94224600  0.80220500  0.18169100  1
  K  K8  1  0.28138500  0.72656000  0.87482400  1
  K  K9  1  0.78138500  0.27344000  0.62517600  1
  K  K10  1  0.71861500  0.27344000  0.12517600  1
  K  K11  1  0.21861500  0.72656000  0.37482400  1
  V  V12  1  0.38081400  0.26198400  0.68692100  1
  V  V13  1  0.88081400  0.73801600  0.81307900  1
  V  V14  1  0.61918600  0.73801600  0.31307900  1
  V  V15  1  0.11918600  0.26198400  0.18692100  1
  V  V16  1  0.69408200  0.74359100  0.95694700  1
  V  V17  1  0.19408200  0.25640900  0.54305300  1
  V  V18  1  0.30591800  0.25640900  0.04305300  1
  V  V19  1  0.80591800  0.74359100  0.45694700  1
  O  O20  1  0.34626300  0.53056100  0.71876000  1
  O  O21  1  0.84626300  0.46943900  0.78124000  1
  O  O22  1  0.65373700  0.46943900  0.28124000  1
  O  O23  1  0.15373700  0.53056100  0.21876000  1
  O  O24  1  0.32345600  0.38974000  0.78654700  1
  O  O25  1  0.82345600  0.61026000  0.71345300  1
  O  O26  1  0.67654400  0.61026000  0.21345300  1
  O  O27  1  0.17654400  0.38974000  0.28654700  1
  O  O28  1  0.30490400  0.02767900  0.73905600  1
  O  O29  1  0.80490400  0.97232100  0.76094400  1
  O  O30  1  0.69509600  0.97232100  0.26094400  1
  O  O31  1  0.19509600  0.02767900  0.23905600  1
  O  O32  1  0.31873600  0.01038300  0.64924200  1
  O  O33  1  0.81873600  0.98961700  0.85075800  1
  O  O34  1  0.68126400  0.98961700  0.35075800  1
  O  O35  1  0.18126400  0.01038300  0.14924200  1
  O  O36  1  0.63710900  0.67166800  0.84544100  1
  O  O37  1  0.13710900  0.32833200  0.65455900  1
  O  O38  1  0.36289100  0.32833200  0.15455900  1
  O  O39  1  0.86289100  0.67166800  0.34544100  1
  O  O40  1  0.55392100  0.82126700  0.87999700  1
  O  O41  1  0.05392100  0.17873300  0.62000300  1
  O  O42  1  0.44607900  0.17873300  0.12000300  1
  O  O43  1  0.94607900  0.82126700  0.37999700  1
  O  O44  1  0.65580800  0.98397200  0.01320600  1
  O  O45  1  0.15580800  0.01602800  0.48679400  1
  O  O46  1  0.34419200  0.01602800  0.98679400  1
  O  O47  1  0.84419200  0.98397200  0.51320600  1
  O  O48  1  0.78478400  0.92310300  0.03394800  1
  O  O49  1  0.28478400  0.07689700  0.46605200  1
  O  O50  1  0.21521600  0.07689700  0.96605200  1
  O  O51  1  0.71521600  0.92310300  0.53394800  1
  O  O52  1  0.54324400  0.23439400  0.70175700  1
  O  O53  1  0.04324400  0.76560600  0.79824300  1
  O  O54  1  0.45675600  0.76560600  0.29824300  1
  O  O55  1  0.95675600  0.23439400  0.20175700  1
  O  O56  1  0.63244400  0.57334800  0.02315000  1
  O  O57  1  0.13244400  0.42665200  0.47685000  1
  O  O58  1  0.36755600  0.42665200  0.97685000  1
  O  O59  1  0.86755600  0.57334800  0.52315000  1
  O  O60  1  0.86080600  0.64776400  0.92675000  1
  O  O61  1  0.36080600  0.35223600  0.57325000  1
  O  O62  1  0.13919400  0.35223600  0.07325000  1
  O  O63  1  0.63919400  0.64776400  0.42675000  1
  O  O64  1  0.92373200  0.26509700  0.97352600  1
  O  O65  1  0.42373200  0.73490300  0.52647400  1
  O  O66  1  0.07626800  0.73490300  0.02647400  1
  O  O67  1  0.57626800  0.26509700  0.47352600  1
