# generated using pymatgen
data_Cs2Mo5O16
_symmetry_space_group_name_H-M   'P 1'
_cell_length_a   11.45316438
_cell_length_b   11.45316438
_cell_length_c   14.74755665
_cell_angle_alpha   58.77089085
_cell_angle_beta   58.77089085
_cell_angle_gamma   28.89331686
_symmetry_Int_Tables_number   1
_chemical_formula_structural   Cs2Mo5O16
_chemical_formula_sum   'Cs4 Mo10 O32'
_cell_volume   789.46658508
_cell_formula_units_Z   2
loop_
 _symmetry_equiv_pos_site_id
 _symmetry_equiv_pos_as_xyz
  1  'x, y, z'
loop_
 _atom_site_type_symbol
 _atom_site_label
 _atom_site_symmetry_multiplicity
 _atom_site_fract_x
 _atom_site_fract_y
 _atom_site_fract_z
 _atom_site_occupancy
  Cs  Cs0  1  0.94611600  0.61673400  0.33343200  1
  Cs  Cs1  1  0.38326600  0.05388400  0.16656800  1
  Cs  Cs2  1  0.05388400  0.38326600  0.66656800  1
  Cs  Cs3  1  0.61673400  0.94611600  0.83343200  1
  Mo  Mo4  1  0.12461700  0.87538300  0.25000000  1
  Mo  Mo5  1  0.87538300  0.12461700  0.75000000  1
  Mo  Mo6  1  0.67345900  0.11207600  0.46220500  1
  Mo  Mo7  1  0.88792400  0.32654100  0.03779500  1
  Mo  Mo8  1  0.32654100  0.88792400  0.53779500  1
  Mo  Mo9  1  0.11207600  0.67345900  0.96220500  1
  Mo  Mo10  1  0.26870800  0.61032700  0.60508600  1
  Mo  Mo11  1  0.38967300  0.73129200  0.89491400  1
  Mo  Mo12  1  0.73129200  0.38967300  0.39491400  1
  Mo  Mo13  1  0.61032700  0.26870800  0.10508600  1
  O  O14  1  0.93100600  0.87480000  0.36586700  1
  O  O15  1  0.12520000  0.06899400  0.13413300  1
  O  O16  1  0.06899400  0.12520000  0.63413300  1
  O  O17  1  0.87480000  0.93100600  0.86586700  1
  O  O18  1  0.03036500  0.82626200  0.53665300  1
  O  O19  1  0.17373800  0.96963500  0.96334700  1
  O  O20  1  0.96963500  0.17373800  0.46334700  1
  O  O21  1  0.82626200  0.03036500  0.03665300  1
  O  O22  1  0.17382500  0.80759300  0.65856900  1
  O  O23  1  0.19240700  0.82617500  0.84143100  1
  O  O24  1  0.82617500  0.19240700  0.34143100  1
  O  O25  1  0.80759300  0.17382500  0.15856900  1
  O  O26  1  0.41508900  0.31679300  0.41679200  1
  O  O27  1  0.68320700  0.58491100  0.08320800  1
  O  O28  1  0.58491100  0.68320700  0.58320800  1
  O  O29  1  0.31679300  0.41508900  0.91679200  1
  O  O30  1  0.54479900  0.34492100  0.51646600  1
  O  O31  1  0.65507900  0.45520100  0.98353400  1
  O  O32  1  0.45520100  0.65507900  0.48353400  1
  O  O33  1  0.34492100  0.54479900  0.01646600  1
  O  O34  1  0.65888600  0.28304300  0.68733500  1
  O  O35  1  0.71695700  0.34111400  0.81266500  1
  O  O36  1  0.34111400  0.71695700  0.31266500  1
  O  O37  1  0.28304300  0.65888600  0.18733500  1
  O  O38  1  0.66368000  0.96289500  0.58351200  1
  O  O39  1  0.03710500  0.33632000  0.91648800  1
  O  O40  1  0.33632000  0.03710500  0.41648800  1
  O  O41  1  0.96289500  0.66368000  0.08351200  1
  O  O42  1  0.22597200  0.48031200  0.71593000  1
  O  O43  1  0.51968800  0.77402800  0.78407000  1
  O  O44  1  0.77402800  0.51968800  0.28407000  1
  O  O45  1  0.48031200  0.22597200  0.21593000  1
