# generated using pymatgen
data_BP4(HO2)3
_symmetry_space_group_name_H-M   'P 1'
_cell_length_a   9.07857384
_cell_length_b   16.34383760
_cell_length_c   24.55193988
_cell_angle_alpha   90.00000000
_cell_angle_beta   90.00000000
_cell_angle_gamma   90.00000000
_symmetry_Int_Tables_number   1
_chemical_formula_structural   BP4(HO2)3
_chemical_formula_sum   'B16 P64 H48 O96'
_cell_volume   3642.98581754
_cell_formula_units_Z   16
loop_
 _symmetry_equiv_pos_site_id
 _symmetry_equiv_pos_as_xyz
  1  'x, y, z'
loop_
 _atom_site_type_symbol
 _atom_site_label
 _atom_site_symmetry_multiplicity
 _atom_site_fract_x
 _atom_site_fract_y
 _atom_site_fract_z
 _atom_site_occupancy
  B  B0  1  0.27372738  0.22495905  0.29667627  1
  B  B1  1  0.77372738  0.27504095  0.70332373  1
  B  B2  1  0.72627262  0.72495905  0.20332373  1
  B  B3  1  0.22627262  0.77504095  0.79667627  1
  B  B4  1  0.72627262  0.77504095  0.70332373  1
  B  B5  1  0.22627262  0.72495905  0.29667627  1
  B  B6  1  0.27372738  0.27504095  0.79667627  1
  B  B7  1  0.77372738  0.22495905  0.20332373  1
  B  B8  1  0.71139945  0.92466217  0.46947077  1
  B  B9  1  0.21139945  0.57533783  0.53052923  1
  B  B10  1  0.28860055  0.42466217  0.03052923  1
  B  B11  1  0.78860055  0.07533783  0.96947077  1
  B  B12  1  0.28860055  0.07533783  0.53052923  1
  B  B13  1  0.78860055  0.42466217  0.46947077  1
  B  B14  1  0.71139945  0.57533783  0.96947077  1
  B  B15  1  0.21139945  0.92466217  0.03052923  1
  P  P16  1  0.80025984  0.01136876  0.43234663  1
  P  P17  1  0.30025984  0.48863124  0.56765337  1
  P  P18  1  0.19974016  0.51136876  0.06765337  1
  P  P19  1  0.69974016  0.98863124  0.93234663  1
  P  P20  1  0.19974016  0.98863124  0.56765337  1
  P  P21  1  0.69974016  0.51136876  0.43234663  1
  P  P22  1  0.80025984  0.48863124  0.93234663  1
  P  P23  1  0.30025984  0.01136876  0.06765337  1
  P  P24  1  0.15966095  0.13345375  0.31361395  1
  P  P25  1  0.65966095  0.36654625  0.68638605  1
  P  P26  1  0.84033905  0.63345375  0.18638605  1
  P  P27  1  0.34033905  0.86654625  0.81361395  1
  P  P28  1  0.84033905  0.86654625  0.68638605  1
  P  P29  1  0.34033905  0.63345375  0.31361395  1
  P  P30  1  0.15966095  0.36654625  0.81361395  1
  P  P31  1  0.65966095  0.13345375  0.18638605  1
  P  P32  1  0.16136418  0.96658748  0.26220449  1
  P  P33  1  0.66136418  0.53341252  0.73779551  1
  P  P34  1  0.83863582  0.46658748  0.23779551  1
  P  P35  1  0.33863582  0.03341252  0.76220449  1
  P  P36  1  0.83863582  0.03341252  0.73779551  1
  P  P37  1  0.33863582  0.46658748  0.26220449  1
  P  P38  1  0.16136418  0.53341252  0.76220449  1
  P  P39  1  0.66136418  0.96658748  0.23779551  1
  P  P40  1  0.01303578  0.90521660  0.36765431  1
  P  P41  1  0.51303578  0.59478340  0.63234569  1
  P  P42  1  0.98696422  0.40521660  0.13234569  1
  P  P43  1  0.48696422  0.09478340  0.86765431  1
  P  P44  1  0.98696422  0.09478340  0.63234569  1
  P  P45  1  0.48696422  0.40521660  0.36765431  1
  P  P46  1  0.01303578  0.59478340  0.86765431  1
  P  P47  1  0.51303578  0.90521660  0.13234569  1
  P  P48  1  0.87795528  0.17617760  0.48131530  1
  P  P49  1  0.37795528  0.32382240  0.51868470  1
  P  P50  1  0.12204472  0.67617760  0.01868470  1
  P  P51  1  0.62204472  0.82382240  0.98131530  1
  P  P52  1  0.12204472  0.82382240  0.51868470  1
  P  P53  1  0.62204472  0.67617760  0.48131530  1
  P  P54  1  0.87795528  0.32382240  0.98131530  1
  P  P55  1  0.37795528  0.17617760  0.01868470  1
  P  P56  1  0.92683587  0.23667509  0.36421512  1
  P  P57  1  0.42683587  0.26332491  0.63578488  1
  P  P58  1  0.07316413  0.73667509  0.13578488  1
  P  P59  1  0.57316413  0.76332491  0.86421512  1
  P  P60  1  0.07316413  0.76332491  0.63578488  1
  P  P61  1  0.57316413  0.73667509  0.36421512  1
  P  P62  1  0.92683587  0.26332491  0.86421512  1
  P  P63  1  0.42683587  0.23667509  0.13578488  1
  P  P64  1  0.31150544  0.98897890  0.36801243  1
  P  P65  1  0.81150544  0.51102110  0.63198757  1
  P  P66  1  0.68849456  0.48897890  0.13198757  1
  P  P67  1  0.18849456  0.01102110  0.86801243  1
  P  P68  1  0.68849456  0.01102110  0.63198757  1
  P  P69  1  0.18849456  0.48897890  0.36801243  1
  P  P70  1  0.31150544  0.51102110  0.86801243  1
  P  P71  1  0.81150544  0.98897890  0.13198757  1
  P  P72  1  0.63282711  0.16566466  0.40209828  1
  P  P73  1  0.13282711  0.33433534  0.59790172  1
  P  P74  1  0.36717289  0.66566466  0.09790172  1
  P  P75  1  0.86717289  0.83433534  0.90209828  1
  P  P76  1  0.36717289  0.83433534  0.59790172  1
  P  P77  1  0.86717289  0.66566466  0.40209828  1
  P  P78  1  0.63282711  0.33433534  0.90209828  1
  P  P79  1  0.13282711  0.16566466  0.09790172  1
  H  H80  1  0.81209661  0.88545235  0.48901378  1
  H  H81  1  0.31209661  0.61454765  0.51098622  1
  H  H82  1  0.18790339  0.38545235  0.01098622  1
  H  H83  1  0.68790339  0.11454765  0.98901378  1
  H  H84  1  0.18790339  0.11454765  0.51098622  1
  H  H85  1  0.68790339  0.38545235  0.48901378  1
  H  H86  1  0.81209661  0.61454765  0.98901378  1
  H  H87  1  0.31209661  0.88545235  0.01098622  1
  H  H88  1  0.64441106  0.88918929  0.43356580  1
  H  H89  1  0.14441106  0.61081071  0.56643420  1
  H  H90  1  0.35558894  0.38918929  0.06643420  1
  H  H91  1  0.85558894  0.11081071  0.93356580  1
  H  H92  1  0.35558894  0.11081071  0.56643420  1
  H  H93  1  0.85558894  0.38918929  0.43356580  1
  H  H94  1  0.64441106  0.61081071  0.93356580  1
  H  H95  1  0.14441106  0.88918929  0.06643420  1
  H  H96  1  0.39547259  0.19839893  0.28632574  1
  H  H97  1  0.89547259  0.30160107  0.71367426  1
  H  H98  1  0.60452741  0.69839893  0.21367426  1
  H  H99  1  0.10452741  0.80160107  0.78632574  1
  H  H100  1  0.60452741  0.80160107  0.71367426  1
  H  H101  1  0.10452741  0.69839893  0.28632574  1
  H  H102  1  0.39547259  0.30160107  0.78632574  1
  H  H103  1  0.89547259  0.19839893  0.21367426  1
  H  H104  1  0.26862711  0.26082925  0.34034071  1
  H  H105  1  0.76862711  0.23917075  0.65965929  1
  H  H106  1  0.73137289  0.76082925  0.15965929  1
  H  H107  1  0.23137289  0.73917075  0.84034071  1
  H  H108  1  0.73137289  0.73917075  0.65965929  1
  H  H109  1  0.23137289  0.76082925  0.34034071  1
  H  H110  1  0.26862711  0.23917075  0.84034071  1
  H  H111  1  0.76862711  0.26082925  0.15965929  1
  H  H112  1  0.63175308  0.95780497  0.50261010  1
  H  H113  1  0.13175308  0.54219503  0.49738990  1
  H  H114  1  0.36824692  0.45780497  0.99738990  1
  H  H115  1  0.86824692  0.04219503  0.00261010  1
  H  H116  1  0.36824692  0.04219503  0.49738990  1
  H  H117  1  0.86824692  0.45780497  0.50261010  1
  H  H118  1  0.63175308  0.54219503  0.00261010  1
  H  H119  1  0.13175308  0.95780497  0.99738990  1
  H  H120  1  0.21092529  0.26040206  0.25995164  1
  H  H121  1  0.71092529  0.23959794  0.74004836  1
  H  H122  1  0.78907471  0.76040206  0.24004836  1
  H  H123  1  0.28907471  0.73959794  0.75995164  1
  H  H124  1  0.78907471  0.73959794  0.74004836  1
  H  H125  1  0.28907471  0.76040206  0.25995164  1
  H  H126  1  0.21092529  0.23959794  0.75995164  1
  H  H127  1  0.71092529  0.26040206  0.24004836  1
  O  O128  1  0.30741721  0.96152995  0.30270636  1
  O  O129  1  0.80741721  0.53847005  0.69729364  1
  O  O130  1  0.69258279  0.46152995  0.19729364  1
  O  O131  1  0.19258279  0.03847005  0.80270636  1
  O  O132  1  0.69258279  0.03847005  0.69729364  1
  O  O133  1  0.19258279  0.46152995  0.30270636  1
  O  O134  1  0.30741721  0.53847005  0.80270636  1
  O  O135  1  0.80741721  0.96152995  0.19729364  1
  O  O136  1  0.68683282  0.06752461  0.39848928  1
  O  O137  1  0.18683282  0.43247539  0.60151072  1
  O  O138  1  0.31316718  0.56752461  0.10151072  1
  O  O139  1  0.81316718  0.93247539  0.89848928  1
  O  O140  1  0.31316718  0.93247539  0.60151072  1
  O  O141  1  0.81316718  0.56752461  0.39848928  1
  O  O142  1  0.68683282  0.43247539  0.89848928  1
  O  O143  1  0.18683282  0.06752461  0.10151072  1
  O  O144  1  0.03105644  0.93074322  0.30291431  1
  O  O145  1  0.53105644  0.56925678  0.69708569  1
  O  O146  1  0.96894356  0.43074322  0.19708569  1
  O  O147  1  0.46894356  0.06925678  0.80291431  1
  O  O148  1  0.96894356  0.06925678  0.69708569  1
  O  O149  1  0.46894356  0.43074322  0.30291431  1
  O  O150  1  0.03105644  0.56925678  0.80291431  1
  O  O151  1  0.53105644  0.93074322  0.19708569  1
  O  O152  1  0.17579782  0.93193820  0.39229741  1
  O  O153  1  0.67579782  0.56806180  0.60770259  1
  O  O154  1  0.82420218  0.43193820  0.10770259  1
  O  O155  1  0.32420218  0.06806180  0.89229741  1
  O  O156  1  0.82420218  0.06806180  0.60770259  1
  O  O157  1  0.32420218  0.43193820  0.39229741  1
  O  O158  1  0.17579782  0.56806180  0.89229741  1
  O  O159  1  0.67579782  0.93193820  0.10770259  1
  O  O160  1  0.75245435  0.20950210  0.36036123  1
  O  O161  1  0.25245435  0.29049790  0.63963877  1
  O  O162  1  0.24754565  0.70950210  0.13963877  1
  O  O163  1  0.74754565  0.79049790  0.86036123  1
  O  O164  1  0.24754565  0.79049790  0.63963877  1
  O  O165  1  0.74754565  0.70950210  0.36036123  1
  O  O166  1  0.75245435  0.29049790  0.86036123  1
  O  O167  1  0.25245435  0.20950210  0.13963877  1
  O  O168  1  0.96674216  0.21389718  0.42831003  1
  O  O169  1  0.46674216  0.28610282  0.57168997  1
  O  O170  1  0.03325784  0.71389718  0.07168997  1
  O  O171  1  0.53325784  0.78610282  0.92831003  1
  O  O172  1  0.03325784  0.78610282  0.57168997  1
  O  O173  1  0.53325784  0.71389718  0.42831003  1
  O  O174  1  0.96674216  0.28610282  0.92831003  1
  O  O175  1  0.46674216  0.21389718  0.07168997  1
  O  O176  1  0.99532885  0.15162257  0.33454235  1
  O  O177  1  0.49532885  0.34837743  0.66545765  1
  O  O178  1  0.00467115  0.65162257  0.16545765  1
  O  O179  1  0.50467115  0.84837743  0.83454235  1
  O  O180  1  0.00467115  0.84837743  0.66545765  1
  O  O181  1  0.50467115  0.65162257  0.33454235  1
  O  O182  1  0.99532885  0.34837743  0.83454235  1
  O  O183  1  0.49532885  0.15162257  0.16545765  1
  O  O184  1  0.22764375  0.07989765  0.36278544  1
  O  O185  1  0.72764375  0.42010235  0.63721456  1
  O  O186  1  0.77235625  0.57989765  0.13721456  1
  O  O187  1  0.27235625  0.92010235  0.86278544  1
  O  O188  1  0.77235625  0.92010235  0.63721456  1
  O  O189  1  0.27235625  0.57989765  0.36278544  1
  O  O190  1  0.22764375  0.42010235  0.86278544  1
  O  O191  1  0.72764375  0.07989765  0.13721456  1
  O  O192  1  0.13008740  0.06793102  0.26566259  1
  O  O193  1  0.63008740  0.43206898  0.73433741  1
  O  O194  1  0.86991260  0.56793102  0.23433741  1
  O  O195  1  0.36991260  0.93206898  0.76566259  1
  O  O196  1  0.86991260  0.93206898  0.73433741  1
  O  O197  1  0.36991260  0.56793102  0.26566259  1
  O  O198  1  0.13008740  0.43206898  0.76566259  1
  O  O199  1  0.63008740  0.06793102  0.23433741  1
  O  O200  1  0.70448833  0.19031444  0.46200923  1
  O  O201  1  0.20448833  0.30968556  0.53799077  1
  O  O202  1  0.29551167  0.69031444  0.03799077  1
  O  O203  1  0.79551167  0.80968556  0.96200923  1
  O  O204  1  0.29551167  0.80968556  0.53799077  1
  O  O205  1  0.79551167  0.69031444  0.46200923  1
  O  O206  1  0.70448833  0.30968556  0.96200923  1
  O  O207  1  0.20448833  0.19031444  0.03799077  1
  O  O208  1  0.88992847  0.07485910  0.47012330  1
  O  O209  1  0.38992847  0.42514090  0.52987670  1
  O  O210  1  0.11007153  0.57485910  0.02987670  1
  O  O211  1  0.61007153  0.92514090  0.97012330  1
  O  O212  1  0.11007153  0.92514090  0.52987670  1
  O  O213  1  0.61007153  0.57485910  0.47012330  1
  O  O214  1  0.88992847  0.42514090  0.97012330  1
  O  O215  1  0.38992847  0.07485910  0.02987670  1
  O  O216  1  0.91748272  0.98885427  0.38577146  1
  O  O217  1  0.41748272  0.51114573  0.61422854  1
  O  O218  1  0.08251728  0.48885427  0.11422854  1
  O  O219  1  0.58251728  0.01114573  0.88577146  1
  O  O220  1  0.08251728  0.01114573  0.61422854  1
  O  O221  1  0.58251728  0.48885427  0.38577146  1
  O  O222  1  0.91748272  0.51114573  0.88577146  1
  O  O223  1  0.41748272  0.98885427  0.11422854  1
