# generated using pymatgen
data_KAlPO5
_symmetry_space_group_name_H-M   'P 1'
_cell_length_a   6.34004900
_cell_length_b   10.23878900
_cell_length_c   12.79641100
_cell_angle_alpha   90.00000000
_cell_angle_beta   90.00000000
_cell_angle_gamma   90.00000000
_symmetry_Int_Tables_number   1
_chemical_formula_structural   KAlPO5
_chemical_formula_sum   'K8 Al8 P8 O40'
_cell_volume   830.67164883
_cell_formula_units_Z   8
loop_
 _symmetry_equiv_pos_site_id
 _symmetry_equiv_pos_as_xyz
  1  'x, y, z'
loop_
 _atom_site_type_symbol
 _atom_site_label
 _atom_site_symmetry_multiplicity
 _atom_site_fract_x
 _atom_site_fract_y
 _atom_site_fract_z
 _atom_site_occupancy
  K  K0  1  0.03726000  0.15275200  0.14463900  1
  K  K1  1  0.03726000  0.84724800  0.35536100  1
  K  K2  1  0.46274000  0.34724800  0.14463900  1
  K  K3  1  0.46274000  0.65275200  0.35536100  1
  K  K4  1  0.96274000  0.84724800  0.85536100  1
  K  K5  1  0.96274000  0.15275200  0.64463900  1
  K  K6  1  0.53726000  0.65275200  0.85536100  1
  K  K7  1  0.53726000  0.34724800  0.64463900  1
  Al  Al8  1  0.75000000  0.25000000  0.36931100  1
  Al  Al9  1  0.75000000  0.75000000  0.13068900  1
  Al  Al10  1  0.25000000  0.75000000  0.63068900  1
  Al  Al11  1  0.25000000  0.25000000  0.86931100  1
  Al  Al12  1  0.00000000  0.50000000  0.00000000  1
  Al  Al13  1  0.00000000  0.50000000  0.50000000  1
  Al  Al14  1  0.50000000  0.00000000  0.00000000  1
  Al  Al15  1  0.50000000  0.00000000  0.50000000  1
  P  P16  1  0.75000000  0.25000000  0.93092200  1
  P  P17  1  0.75000000  0.75000000  0.56907800  1
  P  P18  1  0.25000000  0.75000000  0.06907800  1
  P  P19  1  0.25000000  0.25000000  0.43092200  1
  P  P20  1  0.92902300  0.50000000  0.25000000  1
  P  P21  1  0.57097700  0.00000000  0.25000000  1
  P  P22  1  0.07097700  0.50000000  0.75000000  1
  P  P23  1  0.42902300  0.00000000  0.75000000  1
  O  O24  1  0.06543000  0.47492400  0.15171600  1
  O  O25  1  0.06543000  0.52507600  0.34828400  1
  O  O26  1  0.43457000  0.02507600  0.15171600  1
  O  O27  1  0.43457000  0.97492400  0.34828400  1
  O  O28  1  0.93457000  0.52507600  0.84828400  1
  O  O29  1  0.93457000  0.47492400  0.65171600  1
  O  O30  1  0.56543000  0.97492400  0.84828400  1
  O  O31  1  0.56543000  0.02507600  0.65171600  1
  O  O32  1  0.80680800  0.36366500  0.00698200  1
  O  O33  1  0.80680800  0.63633500  0.49301800  1
  O  O34  1  0.69319200  0.13633500  0.00698200  1
  O  O35  1  0.69319200  0.86366500  0.49301800  1
  O  O36  1  0.19319200  0.63633500  0.99301800  1
  O  O37  1  0.19319200  0.36366500  0.50698200  1
  O  O38  1  0.30680800  0.86366500  0.99301800  1
  O  O39  1  0.30680800  0.13633500  0.50698200  1
  O  O40  1  0.05831500  0.21095700  0.36348100  1
  O  O41  1  0.05831500  0.78904300  0.13651900  1
  O  O42  1  0.44168500  0.28904300  0.36348100  1
  O  O43  1  0.44168500  0.71095700  0.13651900  1
  O  O44  1  0.94168500  0.78904300  0.63651900  1
  O  O45  1  0.94168500  0.21095700  0.86348100  1
  O  O46  1  0.55831500  0.71095700  0.63651900  1
  O  O47  1  0.55831500  0.28904300  0.86348100  1
  O  O48  1  0.78360700  0.37988000  0.26779200  1
  O  O49  1  0.78360700  0.62012000  0.23220800  1
  O  O50  1  0.71639300  0.12012000  0.26779200  1
  O  O51  1  0.71639300  0.87988000  0.23220800  1
  O  O52  1  0.21639300  0.62012000  0.73220800  1
  O  O53  1  0.21639300  0.37988000  0.76779200  1
  O  O54  1  0.28360700  0.87988000  0.73220800  1
  O  O55  1  0.28360700  0.12012000  0.76779200  1
  O  O56  1  0.21199500  0.37393100  0.97445400  1
  O  O57  1  0.21199500  0.62606900  0.52554600  1
  O  O58  1  0.28800500  0.12606900  0.97445400  1
  O  O59  1  0.28800500  0.87393100  0.52554600  1
  O  O60  1  0.78800500  0.62606900  0.02554600  1
  O  O61  1  0.78800500  0.37393100  0.47445400  1
  O  O62  1  0.71199500  0.87393100  0.02554600  1
  O  O63  1  0.71199500  0.12606900  0.47445400  1
