# generated using pymatgen
data_H14C2N8O5
_symmetry_space_group_name_H-M   'P 1'
_cell_length_a   4.83125400
_cell_length_b   9.71150547
_cell_length_c   12.78734786
_cell_angle_alpha   87.30675856
_cell_angle_beta   79.11096104
_cell_angle_gamma   75.59711399
_symmetry_Int_Tables_number   1
_chemical_formula_structural   H14C2N8O5
_chemical_formula_sum   'H28 C4 N16 O10'
_cell_volume   570.64685192
_cell_formula_units_Z   2
loop_
 _symmetry_equiv_pos_site_id
 _symmetry_equiv_pos_as_xyz
  1  'x, y, z'
loop_
 _atom_site_type_symbol
 _atom_site_label
 _atom_site_symmetry_multiplicity
 _atom_site_fract_x
 _atom_site_fract_y
 _atom_site_fract_z
 _atom_site_occupancy
  H  H0  1  0.78548100  0.03202500  0.58351100  1
  H  H1  1  0.40101700  0.96797500  0.41648900  1
  H  H2  1  0.56750600  0.46797500  0.08351100  1
  H  H3  1  0.11899200  0.53202500  0.91648900  1
  H  H4  1  0.71176600  0.19677200  0.51810500  1
  H  H5  1  0.42664300  0.80322800  0.48189500  1
  H  H6  1  0.65853800  0.30322800  0.01810500  1
  H  H7  1  0.97987100  0.69677200  0.98189500  1
  H  H8  1  0.10326200  0.34331200  0.67880300  1
  H  H9  1  0.12537700  0.65668800  0.32119700  1
  H  H10  1  0.19657400  0.15668800  0.17880300  1
  H  H11  1  0.53206500  0.84331200  0.82119700  1
  H  H12  1  0.88174600  0.38345600  0.57971400  1
  H  H13  1  0.84491600  0.61654400  0.42028600  1
  H  H14  1  0.01520200  0.11654400  0.07971400  1
  H  H15  1  0.21146000  0.88345600  0.92028600  1
  H  H16  1  0.19794900  0.11490700  0.75563300  1
  H  H17  1  0.06848900  0.88509300  0.24436700  1
  H  H18  1  0.06285700  0.38509300  0.25563300  1
  H  H19  1  0.70358200  0.61490700  0.74436700  1
  H  H20  1  0.04246300  0.98798900  0.70765100  1
  H  H21  1  0.73810400  0.01201100  0.29234900  1
  H  H22  1  0.78045300  0.51201100  0.20765100  1
  H  H23  1  0.50011400  0.48798900  0.79234900  1
  H  H24  1  0.38638100  0.54447900  0.55202500  1
  H  H25  1  0.48288400  0.45552100  0.44797500  1
  H  H26  1  0.68086000  0.95552100  0.05202500  1
  H  H27  1  0.68840500  0.04447900  0.94797500  1
  C  C28  1  0.96846100  0.17714400  0.63335600  1
  C  C29  1  0.77896000  0.82285600  0.36664400  1
  C  C30  1  0.89560400  0.32285600  0.13335600  1
  C  C31  1  0.35181700  0.67714400  0.86664400  1
  N  N32  1  0.06350100  0.75630500  0.62253800  1
  N  N33  1  0.44234400  0.24369500  0.37746200  1
  N  N34  1  0.56980600  0.74369500  0.12253800  1
  N  N35  1  0.43603900  0.25630500  0.87746200  1
  N  N36  1  0.82237500  0.13059100  0.56857700  1
  N  N37  1  0.52154300  0.86940900  0.43142300  1
  N  N38  1  0.70296600  0.36940900  0.06857700  1
  N  N39  1  0.14095200  0.63059100  0.93142300  1
  N  N40  1  0.99148000  0.31175700  0.62829500  1
  N  N41  1  0.93153200  0.68824300  0.37170500  1
  N  N42  1  0.05323700  0.18824300  0.12829500  1
  N  N43  1  0.36977500  0.81175700  0.87170500  1
  N  N44  1  0.09743500  0.08392200  0.70019700  1
  N  N45  1  0.88155400  0.91607800  0.29980300  1
  N  N46  1  0.93135600  0.41607800  0.20019700  1
  N  N47  1  0.54763200  0.58392200  0.79980300  1
  O  O48  1  0.05274300  0.62734500  0.63613900  1
  O  O49  1  0.31622700  0.37265500  0.36386100  1
  O  O50  1  0.43008800  0.87265500  0.13613900  1
  O  O51  1  0.43888200  0.12734500  0.86386100  1
  O  O52  1  0.86217000  0.84558100  0.68115100  1
  O  O53  1  0.38890200  0.15441900  0.31884900  1
  O  O54  1  0.45775100  0.65441900  0.18115100  1
  O  O55  1  0.29332100  0.34558100  0.81884900  1
  O  O56  1  0.56389600  0.50000000  0.50000000  1
  O  O57  1  0.81389600  0.00000000  0.00000000  1
