# generated using pymatgen
data_Sr2Fe2P3(O6F)2
_symmetry_space_group_name_H-M   'P 1'
_cell_length_a   8.21457200
_cell_length_b   8.86562180
_cell_length_c   8.98248692
_cell_angle_alpha   102.33967493
_cell_angle_beta   115.75849256
_cell_angle_gamma   90.08521062
_symmetry_Int_Tables_number   1
_chemical_formula_structural   Sr2Fe2P3(O6F)2
_chemical_formula_sum   'Sr4 Fe4 P6 O24 F4'
_cell_volume   572.23709302
_cell_formula_units_Z   2
loop_
 _symmetry_equiv_pos_site_id
 _symmetry_equiv_pos_as_xyz
  1  'x, y, z'
loop_
 _atom_site_type_symbol
 _atom_site_label
 _atom_site_symmetry_multiplicity
 _atom_site_fract_x
 _atom_site_fract_y
 _atom_site_fract_z
 _atom_site_occupancy
  Sr  Sr0  1  0.60782600  0.29868900  0.41983300  1
  Sr  Sr1  1  0.39217400  0.70131100  0.58016700  1
  Sr  Sr2  1  0.80193300  0.80239200  0.42803100  1
  Sr  Sr3  1  0.19806700  0.19760800  0.57196900  1
  Fe  Fe4  1  0.32775300  0.57166900  0.16467900  1
  Fe  Fe5  1  0.67224700  0.42833100  0.83532100  1
  Fe  Fe6  1  0.16925700  0.92276300  0.83692200  1
  Fe  Fe7  1  0.83074300  0.07723700  0.16307800  1
  P  P8  1  0.00018600  0.56271300  0.75806500  1
  P  P9  1  0.99981400  0.43728700  0.24193500  1
  P  P10  1  0.76643100  0.05334500  0.75555400  1
  P  P11  1  0.23356900  0.94665500  0.24444600  1
  P  P12  1  0.44972400  0.25485900  0.99867200  1
  P  P13  1  0.55027600  0.74514100  0.00132800  1
  O  O14  1  0.07588600  0.45927500  0.64483500  1
  O  O15  1  0.92411400  0.54072500  0.35516500  1
  O  O16  1  0.70398600  0.21209100  0.71969900  1
  O  O17  1  0.29601400  0.78790900  0.28030100  1
  O  O18  1  0.94435400  0.03142200  0.73597400  1
  O  O19  1  0.05564600  0.96857800  0.26402600  1
  O  O20  1  0.62125700  0.92429000  0.61233400  1
  O  O21  1  0.37874300  0.07571000  0.38766600  1
  O  O22  1  0.36845900  0.35057800  0.11079500  1
  O  O23  1  0.63154100  0.64942200  0.88920500  1
  O  O24  1  0.62459900  0.20570200  0.12994800  1
  O  O25  1  0.37540100  0.79429800  0.87005200  1
  O  O26  1  0.98624400  0.72801200  0.72542100  1
  O  O27  1  0.01375600  0.27198800  0.27457900  1
  O  O28  1  0.48217300  0.34730500  0.88504300  1
  O  O29  1  0.51782700  0.65269500  0.11495700  1
  O  O30  1  0.79181000  0.03962200  0.93111900  1
  O  O31  1  0.20819000  0.96037800  0.06888100  1
  O  O32  1  0.31412100  0.11564300  0.86714900  1
  O  O33  1  0.68587900  0.88435700  0.13285100  1
  O  O34  1  0.80584400  0.49203500  0.70961300  1
  O  O35  1  0.19415600  0.50796500  0.29038700  1
  O  O36  1  0.12673100  0.56790400  0.94517800  1
  O  O37  1  0.87326900  0.43209600  0.05482200  1
  F  F38  1  0.15059300  0.88699600  0.58900200  1
  F  F39  1  0.84940700  0.11300400  0.41099800  1
  F  F40  1  0.55337100  0.58969700  0.40070100  1
  F  F41  1  0.44662900  0.41030300  0.59929900  1
