# generated using pymatgen
data_KNb(BO3)2
_symmetry_space_group_name_H-M   'P 1'
_cell_length_a   7.43501000
_cell_length_b   9.36195700
_cell_length_c   32.33635300
_cell_angle_alpha   90.00000000
_cell_angle_beta   90.00000000
_cell_angle_gamma   90.00000000
_symmetry_Int_Tables_number   1
_chemical_formula_structural   KNb(BO3)2
_chemical_formula_sum   'K16 Nb16 B32 O96'
_cell_volume   2250.81207423
_cell_formula_units_Z   16
loop_
 _symmetry_equiv_pos_site_id
 _symmetry_equiv_pos_as_xyz
  1  'x, y, z'
loop_
 _atom_site_type_symbol
 _atom_site_label
 _atom_site_symmetry_multiplicity
 _atom_site_fract_x
 _atom_site_fract_y
 _atom_site_fract_z
 _atom_site_occupancy
  K  K0  1  0.25198100  0.75095600  0.06350100  1
  K  K1  1  0.74801900  0.25095600  0.93649900  1
  K  K2  1  0.24801900  0.75095600  0.56350100  1
  K  K3  1  0.75198100  0.25095600  0.43649900  1
  K  K4  1  0.74008000  0.26304900  0.06023800  1
  K  K5  1  0.25992000  0.76304900  0.93976200  1
  K  K6  1  0.75992000  0.26304900  0.56023800  1
  K  K7  1  0.24008000  0.76304900  0.43976200  1
  K  K8  1  0.24057500  0.75386000  0.18851600  1
  K  K9  1  0.75942500  0.25386000  0.81148400  1
  K  K10  1  0.25942500  0.75386000  0.68851600  1
  K  K11  1  0.74057500  0.25386000  0.31148400  1
  K  K12  1  0.74479900  0.26344300  0.18597300  1
  K  K13  1  0.25520100  0.76344300  0.81402700  1
  K  K14  1  0.75520100  0.26344300  0.68597300  1
  K  K15  1  0.24479900  0.76344300  0.31402700  1
  Nb  Nb16  1  0.23849500  0.36234200  0.10101400  1
  Nb  Nb17  1  0.76150500  0.86234200  0.89898600  1
  Nb  Nb18  1  0.26150500  0.36234200  0.60101400  1
  Nb  Nb19  1  0.73849500  0.86234200  0.39898600  1
  Nb  Nb20  1  0.21183100  0.35853700  0.34990500  1
  Nb  Nb21  1  0.78816900  0.85853700  0.65009500  1
  Nb  Nb22  1  0.28816900  0.35853700  0.84990500  1
  Nb  Nb23  1  0.71183100  0.85853700  0.15009500  1
  Nb  Nb24  1  0.26796700  0.35928500  0.47613600  1
  Nb  Nb25  1  0.73203300  0.85928500  0.52386400  1
  Nb  Nb26  1  0.23203300  0.35928500  0.97613600  1
  Nb  Nb27  1  0.76796700  0.85928500  0.02386400  1
  Nb  Nb28  1  0.26201600  0.36094900  0.22493100  1
  Nb  Nb29  1  0.73798400  0.86094900  0.77506900  1
  Nb  Nb30  1  0.23798400  0.36094900  0.72493100  1
  Nb  Nb31  1  0.76201600  0.86094900  0.27506900  1
  B  B32  1  0.42260800  0.07337200  0.25873900  1
  B  B33  1  0.57739200  0.57337200  0.74126100  1
  B  B34  1  0.07739200  0.07337200  0.75873900  1
  B  B35  1  0.92260800  0.57337200  0.24126100  1
  B  B36  1  0.11268300  0.05910200  0.00474800  1
  B  B37  1  0.88731700  0.55910200  0.99525200  1
  B  B38  1  0.38731700  0.05910200  0.50474800  1
  B  B39  1  0.61268300  0.55910200  0.49525200  1
  B  B40  1  0.09291800  0.07053500  0.24539600  1
  B  B41  1  0.90708200  0.57053500  0.75460400  1
  B  B42  1  0.40708200  0.07053500  0.74539600  1
  B  B43  1  0.59291800  0.57053500  0.25460400  1
  B  B44  1  0.08545300  0.06185200  0.38225800  1
  B  B45  1  0.91454700  0.56185200  0.61774200  1
  B  B46  1  0.41454700  0.06185200  0.88225800  1
  B  B47  1  0.58545300  0.56185200  0.11774200  1
  B  B48  1  0.03909300  0.08401900  0.13108000  1
  B  B49  1  0.96090700  0.58401900  0.86892000  1
  B  B50  1  0.46090700  0.08401900  0.63108000  1
  B  B51  1  0.53909300  0.58401900  0.36892000  1
  B  B52  1  0.44398000  0.08461800  0.00286500  1
  B  B53  1  0.55602000  0.58461800  0.99713500  1
  B  B54  1  0.05602000  0.08461800  0.50286500  1
  B  B55  1  0.94398000  0.58461800  0.49713500  1
  B  B56  1  0.41766000  0.08062900  0.37193400  1
  B  B57  1  0.58234000  0.58062900  0.62806600  1
  B  B58  1  0.08234000  0.08062900  0.87193400  1
  B  B59  1  0.91766000  0.58062900  0.12806600  1
  B  B60  1  0.36759700  0.06060900  0.12264500  1
  B  B61  1  0.63240300  0.56060900  0.87735500  1
  B  B62  1  0.13240300  0.06060900  0.62264500  1
  B  B63  1  0.86759700  0.56060900  0.37735500  1
  O  O64  1  0.43618300  0.50839900  0.24299700  1
  O  O65  1  0.56381700  0.00839900  0.75700300  1
  O  O66  1  0.06381700  0.50839900  0.74299700  1
  O  O67  1  0.93618300  0.00839900  0.25700300  1
  O  O68  1  0.48487100  0.48340900  0.47438700  1
  O  O69  1  0.51512900  0.98340900  0.52561300  1
  O  O70  1  0.01512900  0.48340900  0.97438700  1
  O  O71  1  0.98487100  0.98340900  0.02561300  1
  O  O72  1  0.45855300  0.48521500  0.09643200  1
  O  O73  1  0.54144700  0.98521500  0.90356800  1
  O  O74  1  0.04144700  0.48521500  0.59643200  1
  O  O75  1  0.95855300  0.98521500  0.40356800  1
  O  O76  1  0.00805000  0.48587500  0.36166300  1
  O  O77  1  0.99195000  0.98587500  0.63833700  1
  O  O78  1  0.49195000  0.48587500  0.86166300  1
  O  O79  1  0.50805000  0.98587500  0.13833700  1
  O  O80  1  0.40997900  0.21157700  0.35355000  1
  O  O81  1  0.59002100  0.71157700  0.64645000  1
  O  O82  1  0.09002100  0.21157700  0.85355000  1
  O  O83  1  0.90997900  0.71157700  0.14645000  1
  O  O84  1  0.25456700  0.00303000  0.25717000  1
  O  O85  1  0.74543300  0.50303000  0.74283000  1
  O  O86  1  0.24543300  0.00303000  0.75717000  1
  O  O87  1  0.75456700  0.50303000  0.24283000  1
  O  O88  1  0.03680300  0.22403600  0.11927900  1
  O  O89  1  0.96319700  0.72403600  0.88072100  1
  O  O90  1  0.46319700  0.22403600  0.61927900  1
  O  O91  1  0.53680300  0.72403600  0.38072100  1
  O  O92  1  0.44785500  0.20792400  0.24367300  1
  O  O93  1  0.55214500  0.70792400  0.75632700  1
  O  O94  1  0.05214500  0.20792400  0.74367300  1
  O  O95  1  0.94785500  0.70792400  0.25632700  1
  O  O96  1  0.23900100  0.35254700  0.42070200  1
  O  O97  1  0.76099900  0.85254700  0.57929800  1
  O  O98  1  0.26099900  0.35254700  0.92070200  1
  O  O99  1  0.73900100  0.85254700  0.07929800  1
  O  O100  1  0.06180600  0.22465900  0.49132500  1
  O  O101  1  0.93819400  0.72465900  0.50867500  1
  O  O102  1  0.43819400  0.22465900  0.99132500  1
  O  O103  1  0.56180600  0.72465900  0.00867500  1
  O  O104  1  0.42469300  0.18124100  0.48347200  1
  O  O105  1  0.57530700  0.68124100  0.51652800  1
  O  O106  1  0.07530700  0.18124100  0.98347200  1
  O  O107  1  0.92469300  0.68124100  0.01652800  1
  O  O108  1  0.19696100  0.00163500  0.13038500  1
  O  O109  1  0.80303900  0.50163500  0.86961500  1
  O  O110  1  0.30303900  0.00163500  0.63038500  1
  O  O111  1  0.69696100  0.50163500  0.36961500  1
  O  O112  1  0.18354900  0.36730400  0.04654400  1
  O  O113  1  0.81645100  0.86730400  0.95345600  1
  O  O114  1  0.31645100  0.36730400  0.54654400  1
  O  O115  1  0.68354900  0.86730400  0.45345600  1
  O  O116  1  0.38698400  0.51878600  0.35439900  1
  O  O117  1  0.61301600  0.01878600  0.64560100  1
  O  O118  1  0.11301600  0.51878600  0.85439900  1
  O  O119  1  0.88698400  0.01878600  0.14560100  1
  O  O120  1  0.18660700  0.35622000  0.29409500  1
  O  O121  1  0.81339300  0.85622000  0.70590500  1
  O  O122  1  0.31339300  0.35622000  0.79409500  1
  O  O123  1  0.68660700  0.85622000  0.20590500  1
  O  O124  1  0.04511000  0.18813600  0.36347100  1
  O  O125  1  0.95489000  0.68813600  0.63652900  1
  O  O126  1  0.45489000  0.18813600  0.86347100  1
  O  O127  1  0.54511000  0.68813600  0.13652900  1
  O  O128  1  0.05889600  0.49966900  0.22218800  1
  O  O129  1  0.94110400  0.99966900  0.77781200  1
  O  O130  1  0.44110400  0.49966900  0.72218800  1
  O  O131  1  0.55889600  0.99966900  0.27781200  1
  O  O132  1  0.26080700  0.00319000  0.38195900  1
  O  O133  1  0.73919300  0.50319000  0.61804100  1
  O  O134  1  0.23919300  0.00319000  0.88195900  1
  O  O135  1  0.76080700  0.50319000  0.11804100  1
  O  O136  1  0.09183400  0.19363600  0.22300500  1
  O  O137  1  0.90816600  0.69363600  0.77699500  1
  O  O138  1  0.40816600  0.19363600  0.72300500  1
  O  O139  1  0.59183400  0.69363600  0.27699500  1
  O  O140  1  0.31801300  0.36231600  0.17029900  1
  O  O141  1  0.68198700  0.86231600  0.82970100  1
  O  O142  1  0.18198700  0.36231600  0.67029900  1
  O  O143  1  0.81801300  0.86231600  0.32970100  1
  O  O144  1  0.39156400  0.18334600  0.10077900  1
  O  O145  1  0.60843600  0.68334600  0.89922100  1
  O  O146  1  0.10843600  0.18334600  0.60077900  1
  O  O147  1  0.89156400  0.68334600  0.39922100  1
  O  O148  1  0.08047100  0.52339900  0.11849500  1
  O  O149  1  0.91952900  0.02339900  0.88150500  1
  O  O150  1  0.41952900  0.52339900  0.61849500  1
  O  O151  1  0.58047100  0.02339900  0.38150500  1
  O  O152  1  0.28775000  0.00130400  0.00689100  1
  O  O153  1  0.71225000  0.50130400  0.99310900  1
  O  O154  1  0.21225000  0.00130400  0.50689100  1
  O  O155  1  0.78775000  0.50130400  0.49310900  1
  O  O156  1  0.60563300  0.02377000  0.01213000  1
  O  O157  1  0.39436700  0.52377000  0.98787000  1
  O  O158  1  0.89436700  0.02377000  0.51213000  1
  O  O159  1  0.10563300  0.52377000  0.48787000  1
