# generated using pymatgen
data_K4Ba2Na4Ti8Mn(Si8O33)2
_symmetry_space_group_name_H-M   'P 1'
_cell_length_a   10.47779401
_cell_length_b   10.47779401
_cell_length_c   14.16907798
_cell_angle_alpha   70.32552076
_cell_angle_beta   70.32552076
_cell_angle_gamma   83.15031218
_symmetry_Int_Tables_number   1
_chemical_formula_structural   K4Ba2Na4Ti8Mn(Si8O33)2
_chemical_formula_sum   'K4 Ba2 Na4 Ti8 Mn1 Si16 O66'
_cell_volume   1379.18823205
_cell_formula_units_Z   1
loop_
 _symmetry_equiv_pos_site_id
 _symmetry_equiv_pos_as_xyz
  1  'x, y, z'
loop_
 _atom_site_type_symbol
 _atom_site_label
 _atom_site_symmetry_multiplicity
 _atom_site_fract_x
 _atom_site_fract_y
 _atom_site_fract_z
 _atom_site_occupancy
  K  K0  1  0.39725600  0.39725600  0.17413200  1
  K  K1  1  0.60274400  0.60274400  0.82586800  1
  K  K2  1  0.90251900  0.90251900  0.68449300  1
  K  K3  1  0.09748100  0.09748100  0.31550700  1
  Ba  Ba4  1  0.55790500  0.55790500  0.34155400  1
  Ba  Ba5  1  0.44209500  0.44209500  0.65844600  1
  Na  Na6  1  0.98793500  0.52262900  0.31773900  1
  Na  Na7  1  0.47737100  0.01206500  0.68226100  1
  Na  Na8  1  0.01206500  0.47737100  0.68226100  1
  Na  Na9  1  0.52262900  0.98793500  0.31773900  1
  Ti  Ti10  1  0.75095700  0.25701700  0.25700000  1
  Ti  Ti11  1  0.74298300  0.24904300  0.74300000  1
  Ti  Ti12  1  0.24904300  0.74298300  0.74300000  1
  Ti  Ti13  1  0.25701700  0.75095700  0.25700000  1
  Ti  Ti14  1  0.72440000  0.27560000  0.50000000  1
  Ti  Ti15  1  0.27560000  0.72440000  0.50000000  1
  Ti  Ti16  1  0.76969500  0.23030500  0.00000000  1
  Ti  Ti17  1  0.23030500  0.76969500  0.00000000  1
  Mn  Mn18  1  0.00000000  0.00000000  0.00000000  1
  Si  Si19  1  0.23252100  0.45308500  0.44553500  1
  Si  Si20  1  0.54691500  0.76747900  0.55446500  1
  Si  Si21  1  0.76747900  0.54691500  0.55446500  1
  Si  Si22  1  0.45308500  0.23252100  0.44553500  1
  Si  Si23  1  0.95577500  0.73840100  0.93748800  1
  Si  Si24  1  0.26159900  0.04422500  0.06251200  1
  Si  Si25  1  0.04422500  0.26159900  0.06251200  1
  Si  Si26  1  0.73840100  0.95577500  0.93748800  1
  Si  Si27  1  0.76590000  0.99060600  0.44871600  1
  Si  Si28  1  0.00939400  0.23410000  0.55128400  1
  Si  Si29  1  0.23410000  0.00939400  0.55128400  1
  Si  Si30  1  0.99060600  0.76590000  0.44871600  1
  Si  Si31  1  0.73827400  0.51810700  0.05203100  1
  Si  Si32  1  0.48189300  0.26172600  0.94796900  1
  Si  Si33  1  0.26172600  0.48189300  0.94796900  1
  Si  Si34  1  0.51810700  0.73827400  0.05203100  1
  O  O35  1  0.70185100  0.47936200  0.49337900  1
  O  O36  1  0.52063800  0.29814900  0.50662100  1
  O  O37  1  0.29814900  0.52063800  0.50662100  1
  O  O38  1  0.47936200  0.70185100  0.49337900  1
  O  O39  1  0.03392800  0.80762100  0.99227300  1
  O  O40  1  0.19237900  0.96607200  0.00772700  1
  O  O41  1  0.96607200  0.19237900  0.00772700  1
  O  O42  1  0.80762100  0.03392800  0.99227300  1
  O  O43  1  0.81860900  0.27328400  0.84896100  1
  O  O44  1  0.72671600  0.18139100  0.15103900  1
  O  O45  1  0.18139100  0.72671600  0.15103900  1
  O  O46  1  0.27328400  0.81860900  0.84896100  1
  O  O47  1  0.75458600  0.34307800  0.35089300  1
  O  O48  1  0.65692200  0.24541400  0.64910700  1
  O  O49  1  0.24541400  0.65692200  0.64910700  1
  O  O50  1  0.34307800  0.75458600  0.35089300  1
  O  O51  1  0.91924900  0.28553100  0.47101600  1
  O  O52  1  0.71446900  0.08075100  0.52898400  1
  O  O53  1  0.08075100  0.71446900  0.52898400  1
  O  O54  1  0.28553100  0.91924900  0.47101600  1
  O  O55  1  0.78306800  0.41952700  0.97777400  1
  O  O56  1  0.58047300  0.21693200  0.02222600  1
  O  O57  1  0.21693200  0.58047300  0.02222600  1
  O  O58  1  0.41952700  0.78306800  0.97777400  1
  O  O59  1  0.82273300  0.08527900  0.32715800  1
  O  O60  1  0.91472100  0.17726700  0.67284200  1
  O  O61  1  0.17726700  0.91472100  0.67284200  1
  O  O62  1  0.08527900  0.82273300  0.32715800  1
  O  O63  1  0.67509300  0.43491600  0.17711100  1
  O  O64  1  0.56508400  0.32490700  0.82288900  1
  O  O65  1  0.32490700  0.56508400  0.82288900  1
  O  O66  1  0.43491600  0.67509300  0.17711100  1
  O  O67  1  0.88788400  0.88788400  0.48314900  1
  O  O68  1  0.11211600  0.11211600  0.51685100  1
  O  O69  1  0.61599300  0.61599300  0.01444000  1
  O  O70  1  0.38400700  0.38400700  0.98556000  1
  O  O71  1  0.64063200  0.89552500  0.46408000  1
  O  O72  1  0.10447500  0.35936800  0.53592000  1
  O  O73  1  0.35936800  0.10447500  0.53592000  1
  O  O74  1  0.89552500  0.64063200  0.46408000  1
  O  O75  1  0.86353500  0.61417900  0.03172200  1
  O  O76  1  0.38582100  0.13646500  0.96827800  1
  O  O77  1  0.13646500  0.38582100  0.96827800  1
  O  O78  1  0.61417900  0.86353500  0.03172200  1
  O  O79  1  0.35177800  0.35177800  0.39401200  1
  O  O80  1  0.64822200  0.64822200  0.60598800  1
  O  O81  1  0.85376200  0.85376200  0.88897500  1
  O  O82  1  0.14623800  0.14623800  0.11102500  1
  O  O83  1  0.06279600  0.68999200  0.84185700  1
  O  O84  1  0.31000800  0.93720400  0.15814300  1
  O  O85  1  0.93720400  0.31000800  0.15814300  1
  O  O86  1  0.68999200  0.06279600  0.84185700  1
  O  O87  1  0.19178800  0.55864400  0.34625300  1
  O  O88  1  0.44135600  0.80821200  0.65374700  1
  O  O89  1  0.80821200  0.44135600  0.65374700  1
  O  O90  1  0.55864400  0.19178800  0.34625300  1
  O  O91  1  0.94063200  0.94063200  0.13094200  1
  O  O92  1  0.05936800  0.05936800  0.86905800  1
  O  O93  1  0.80814200  0.71930900  0.22645700  1
  O  O94  1  0.28069100  0.19185800  0.77354300  1
  O  O95  1  0.19185800  0.28069100  0.77354300  1
  O  O96  1  0.71930900  0.80814200  0.22645700  1
  O  O97  1  0.09903400  0.39633100  0.19941200  1
  O  O98  1  0.60366900  0.90096600  0.80058800  1
  O  O99  1  0.90096600  0.60366900  0.80058800  1
  O  O100  1  0.39633100  0.09903400  0.19941200  1
