# generated using pymatgen
data_ErSbMo2O9
_symmetry_space_group_name_H-M   'P 1'
_cell_length_a   9.65508915
_cell_length_b   9.65508915
_cell_length_c   10.79321067
_cell_angle_alpha   68.02504641
_cell_angle_beta   68.02504641
_cell_angle_gamma   95.19700522
_symmetry_Int_Tables_number   1
_chemical_formula_structural   ErSbMo2O9
_chemical_formula_sum   'Er4 Sb4 Mo8 O36'
_cell_volume   833.57340809
_cell_formula_units_Z   4
loop_
 _symmetry_equiv_pos_site_id
 _symmetry_equiv_pos_as_xyz
  1  'x, y, z'
loop_
 _atom_site_type_symbol
 _atom_site_label
 _atom_site_symmetry_multiplicity
 _atom_site_fract_x
 _atom_site_fract_y
 _atom_site_fract_z
 _atom_site_occupancy
  Er  Er0  1  0.67111200  0.32888800  0.75000000  1
  Er  Er1  1  0.32888800  0.67111200  0.25000000  1
  Er  Er2  1  0.12608000  0.87392000  0.75000000  1
  Er  Er3  1  0.87392000  0.12608000  0.25000000  1
  Sb  Sb4  1  0.65243700  0.61736800  0.96566200  1
  Sb  Sb5  1  0.38263200  0.34756300  0.53433800  1
  Sb  Sb6  1  0.34756300  0.38263200  0.03433800  1
  Sb  Sb7  1  0.61736800  0.65243700  0.46566200  1
  Mo  Mo8  1  0.04566400  0.25945400  0.47425200  1
  Mo  Mo9  1  0.74054600  0.95433600  0.02574800  1
  Mo  Mo10  1  0.95433600  0.74054600  0.52574800  1
  Mo  Mo11  1  0.25945400  0.04566400  0.97425200  1
  Mo  Mo12  1  0.05848800  0.43390000  0.80643100  1
  Mo  Mo13  1  0.56610000  0.94151200  0.69356900  1
  Mo  Mo14  1  0.94151200  0.56610000  0.19356900  1
  Mo  Mo15  1  0.43390000  0.05848800  0.30643100  1
  O  O16  1  0.06658300  0.09443000  0.60245800  1
  O  O17  1  0.90557000  0.93341700  0.89754200  1
  O  O18  1  0.93341700  0.90557000  0.39754200  1
  O  O19  1  0.09443000  0.06658300  0.10245800  1
  O  O20  1  0.86799400  0.29791000  0.56879100  1
  O  O21  1  0.70209000  0.13200600  0.93120900  1
  O  O22  1  0.13200600  0.70209000  0.43120900  1
  O  O23  1  0.29791000  0.86799400  0.06879100  1
  O  O24  1  0.04222600  0.22057700  0.32465700  1
  O  O25  1  0.77942300  0.95777400  0.17534300  1
  O  O26  1  0.95777400  0.77942300  0.67534300  1
  O  O27  1  0.22057700  0.04222600  0.82465700  1
  O  O28  1  0.77815500  0.59410400  0.57972200  1
  O  O29  1  0.40589600  0.22184500  0.92027800  1
  O  O30  1  0.22184500  0.40589600  0.42027800  1
  O  O31  1  0.59410400  0.77815500  0.07972200  1
  O  O32  1  0.97808100  0.30491400  0.99942800  1
  O  O33  1  0.69508600  0.02191900  0.50057200  1
  O  O34  1  0.02191900  0.69508600  0.00057200  1
  O  O35  1  0.30491400  0.97808100  0.49942800  1
  O  O36  1  0.14718500  0.62171600  0.77133200  1
  O  O37  1  0.37828400  0.85281500  0.72866800  1
  O  O38  1  0.85281500  0.37828400  0.22866800  1
  O  O39  1  0.62171600  0.14718500  0.27133200  1
  O  O40  1  0.90697900  0.44456700  0.74947100  1
  O  O41  1  0.55543300  0.09302100  0.75052900  1
  O  O42  1  0.09302100  0.55543300  0.25052900  1
  O  O43  1  0.44456700  0.90697900  0.24947100  1
  O  O44  1  0.20878400  0.36185100  0.70233200  1
  O  O45  1  0.63814900  0.79121600  0.79766800  1
  O  O46  1  0.79121600  0.63814900  0.29766800  1
  O  O47  1  0.36185100  0.20878400  0.20233200  1
  O  O48  1  0.57709900  0.45857200  0.89844300  1
  O  O49  1  0.54142800  0.42290100  0.60155700  1
  O  O50  1  0.42290100  0.54142800  0.10155700  1
  O  O51  1  0.45857200  0.57709900  0.39844300  1
