# generated using pymatgen
data_Tb4Al2O9
_symmetry_space_group_name_H-M   'P 1'
_cell_length_a   10.59832400
_cell_length_b   7.46525000
_cell_length_c   11.28477834
_cell_angle_alpha   71.44645075
_cell_angle_beta   90.00000000
_cell_angle_gamma   90.00000000
_symmetry_Int_Tables_number   1
_chemical_formula_structural   Tb4Al2O9
_chemical_formula_sum   'Tb16 Al8 O36'
_cell_volume   846.43798219
_cell_formula_units_Z   4
loop_
 _symmetry_equiv_pos_site_id
 _symmetry_equiv_pos_as_xyz
  1  'x, y, z'
loop_
 _atom_site_type_symbol
 _atom_site_label
 _atom_site_symmetry_multiplicity
 _atom_site_fract_x
 _atom_site_fract_y
 _atom_site_fract_z
 _atom_site_occupancy
  Tb  Tb0  1  0.60995400  0.47580400  0.28432500  1
  Tb  Tb1  1  0.10995400  0.52419600  0.21567500  1
  Tb  Tb2  1  0.39004600  0.52419600  0.71567500  1
  Tb  Tb3  1  0.89004600  0.47580400  0.78432500  1
  Tb  Tb4  1  0.59566000  0.97622600  0.30530700  1
  Tb  Tb5  1  0.09566000  0.02377400  0.19469300  1
  Tb  Tb6  1  0.40434000  0.02377400  0.69469300  1
  Tb  Tb7  1  0.90434000  0.97622600  0.80530700  1
  Tb  Tb8  1  0.62640200  0.66150900  0.93645500  1
  Tb  Tb9  1  0.12640200  0.33849100  0.56354500  1
  Tb  Tb10  1  0.37359800  0.33849100  0.06354500  1
  Tb  Tb11  1  0.87359800  0.66150900  0.43645500  1
  Tb  Tb12  1  0.62184500  0.16192400  0.91665700  1
  Tb  Tb13  1  0.12184500  0.83807600  0.58334300  1
  Tb  Tb14  1  0.37815500  0.83807600  0.08334300  1
  Tb  Tb15  1  0.87815500  0.16192400  0.41665700  1
  Al  Al16  1  0.68000800  0.78105700  0.62727300  1
  Al  Al17  1  0.18000800  0.21894300  0.87272700  1
  Al  Al18  1  0.31999200  0.21894300  0.37272700  1
  Al  Al19  1  0.81999200  0.78105700  0.12727300  1
  Al  Al20  1  0.67662000  0.34560600  0.61346000  1
  Al  Al21  1  0.17662000  0.65439400  0.88654000  1
  Al  Al22  1  0.32338000  0.65439400  0.38654000  1
  Al  Al23  1  0.82338000  0.34560600  0.11346000  1
  O  O24  1  0.73809100  0.20952200  0.24677600  1
  O  O25  1  0.23809100  0.79047800  0.25322400  1
  O  O26  1  0.26190900  0.79047800  0.75322400  1
  O  O27  1  0.76190900  0.20952200  0.74677600  1
  O  O28  1  0.73742300  0.76710200  0.26731100  1
  O  O29  1  0.23742300  0.23289800  0.23268900  1
  O  O30  1  0.26257700  0.23289800  0.73268900  1
  O  O31  1  0.76257700  0.76710200  0.76731100  1
  O  O32  1  0.51849900  0.78723400  0.65723800  1
  O  O33  1  0.01849900  0.21276600  0.84276200  1
  O  O34  1  0.48150100  0.21276600  0.34276200  1
  O  O35  1  0.98150100  0.78723400  0.15723800  1
  O  O36  1  0.73296700  0.92581100  0.48035900  1
  O  O37  1  0.23296700  0.07418900  0.01964100  1
  O  O38  1  0.26703300  0.07418900  0.51964100  1
  O  O39  1  0.76703300  0.92581100  0.98035900  1
  O  O40  1  0.74013800  0.56575100  0.61449500  1
  O  O41  1  0.24013800  0.43424900  0.88550500  1
  O  O42  1  0.25986200  0.43424900  0.38550500  1
  O  O43  1  0.75986200  0.56575100  0.11449500  1
  O  O44  1  0.72920700  0.35846400  0.46285500  1
  O  O45  1  0.22920700  0.64153600  0.03714500  1
  O  O46  1  0.27079300  0.64153600  0.53714500  1
  O  O47  1  0.77079300  0.35846400  0.96285500  1
  O  O48  1  0.51694700  0.30717600  0.65901200  1
  O  O49  1  0.01694700  0.69282400  0.84098800  1
  O  O50  1  0.48305300  0.69282400  0.34098800  1
  O  O51  1  0.98305300  0.30717600  0.15901200  1
  O  O52  1  0.49393000  0.92255700  0.89342200  1
  O  O53  1  0.99393000  0.07744300  0.60657800  1
  O  O54  1  0.50607000  0.07744300  0.10657800  1
  O  O55  1  0.00607000  0.92255700  0.39342200  1
  O  O56  1  0.50831500  0.43493100  0.89309700  1
  O  O57  1  0.00831500  0.56506900  0.60690300  1
  O  O58  1  0.49168500  0.56506900  0.10690300  1
  O  O59  1  0.99168500  0.43493100  0.39309700  1
