# generated using pymatgen
data_H4PbI3N
_symmetry_space_group_name_H-M   'P 1'
_cell_length_a   4.82979500
_cell_length_b   10.55387700
_cell_length_c   17.42170600
_cell_angle_alpha   90.00000000
_cell_angle_beta   90.00000000
_cell_angle_gamma   90.00000000
_symmetry_Int_Tables_number   1
_chemical_formula_structural   H4PbI3N
_chemical_formula_sum   'H16 Pb4 I12 N4'
_cell_volume   888.03770645
_cell_formula_units_Z   4
loop_
 _symmetry_equiv_pos_site_id
 _symmetry_equiv_pos_as_xyz
  1  'x, y, z'
loop_
 _atom_site_type_symbol
 _atom_site_label
 _atom_site_symmetry_multiplicity
 _atom_site_fract_x
 _atom_site_fract_y
 _atom_site_fract_z
 _atom_site_occupancy
  H  H0  1  0.75000000  0.96456400  0.27265400  1
  H  H1  1  0.75000000  0.46456400  0.22734600  1
  H  H2  1  0.25000000  0.03543600  0.72734600  1
  H  H3  1  0.25000000  0.53543600  0.77265400  1
  H  H4  1  0.75000000  0.97772400  0.36959200  1
  H  H5  1  0.75000000  0.47772400  0.13040800  1
  H  H6  1  0.25000000  0.02227600  0.63040800  1
  H  H7  1  0.25000000  0.52227600  0.86959200  1
  H  H8  1  0.92221600  0.85669900  0.32641000  1
  H  H9  1  0.57778400  0.35669900  0.17359000  1
  H  H10  1  0.42221600  0.14330100  0.67359000  1
  H  H11  1  0.07778400  0.64330100  0.82641000  1
  H  H12  1  0.07778400  0.14330100  0.67359000  1
  H  H13  1  0.42221600  0.64330100  0.82641000  1
  H  H14  1  0.57778400  0.85669900  0.32641000  1
  H  H15  1  0.92221600  0.35669900  0.17359000  1
  Pb  Pb16  1  0.75000000  0.66862700  0.55872600  1
  Pb  Pb17  1  0.75000000  0.16862700  0.94127400  1
  Pb  Pb18  1  0.25000000  0.33137300  0.44127400  1
  Pb  Pb19  1  0.25000000  0.83137300  0.05872600  1
  I  I20  1  0.25000000  0.47722200  0.61623100  1
  I  I21  1  0.25000000  0.97722200  0.88376900  1
  I  I22  1  0.75000000  0.52277800  0.38376900  1
  I  I23  1  0.75000000  0.02277800  0.11623100  1
  I  I24  1  0.75000000  0.80777900  0.71471500  1
  I  I25  1  0.75000000  0.30777900  0.78528500  1
  I  I26  1  0.25000000  0.19222100  0.28528500  1
  I  I27  1  0.25000000  0.69222100  0.21471500  1
  I  I28  1  0.25000000  0.84214400  0.48791400  1
  I  I29  1  0.25000000  0.34214400  0.01208600  1
  I  I30  1  0.75000000  0.15785600  0.51208600  1
  I  I31  1  0.75000000  0.65785600  0.98791400  1
  N  N32  1  0.75000000  0.91478000  0.32399900  1
  N  N33  1  0.75000000  0.41478000  0.17600100  1
  N  N34  1  0.25000000  0.08522000  0.67600100  1
  N  N35  1  0.25000000  0.58522000  0.82399900  1
