# generated using pymatgen
data_NaTh3F13
_symmetry_space_group_name_H-M   'P 1'
_cell_length_a   8.37739758
_cell_length_b   8.37739758
_cell_length_c   16.87622400
_cell_angle_alpha   90.00000000
_cell_angle_beta   90.00000000
_cell_angle_gamma   119.99999668
_symmetry_Int_Tables_number   1
_chemical_formula_structural   NaTh3F13
_chemical_formula_sum   'Na4 Th12 F52'
_cell_volume   1025.70903559
_cell_formula_units_Z   4
loop_
 _symmetry_equiv_pos_site_id
 _symmetry_equiv_pos_as_xyz
  1  'x, y, z'
loop_
 _atom_site_type_symbol
 _atom_site_label
 _atom_site_symmetry_multiplicity
 _atom_site_fract_x
 _atom_site_fract_y
 _atom_site_fract_z
 _atom_site_occupancy
  Na  Na0  1  0.33333300  0.66666700  0.36980200  1
  Na  Na1  1  0.66666700  0.33333300  0.63019800  1
  Na  Na2  1  0.66666700  0.33333300  0.86980200  1
  Na  Na3  1  0.33333300  0.66666700  0.13019800  1
  Th  Th4  1  0.33250800  0.16625400  0.38667600  1
  Th  Th5  1  0.83374600  0.16625400  0.38667600  1
  Th  Th6  1  0.83374600  0.66749200  0.38667600  1
  Th  Th7  1  0.66749200  0.83374600  0.61332400  1
  Th  Th8  1  0.16625400  0.83374600  0.61332400  1
  Th  Th9  1  0.16625400  0.33250800  0.61332400  1
  Th  Th10  1  0.66749200  0.83374600  0.88667600  1
  Th  Th11  1  0.16625400  0.83374600  0.88667600  1
  Th  Th12  1  0.16625400  0.33250800  0.88667600  1
  Th  Th13  1  0.33250800  0.16625400  0.11332400  1
  Th  Th14  1  0.83374600  0.16625400  0.11332400  1
  Th  Th15  1  0.83374600  0.66749200  0.11332400  1
  F  F16  1  0.15714700  0.31429500  0.36077800  1
  F  F17  1  0.68570500  0.84285300  0.36077800  1
  F  F18  1  0.15714700  0.84285300  0.36077800  1
  F  F19  1  0.84285300  0.68570500  0.63922200  1
  F  F20  1  0.31429500  0.15714700  0.63922200  1
  F  F21  1  0.84285300  0.15714700  0.63922200  1
  F  F22  1  0.84285300  0.68570500  0.86077800  1
  F  F23  1  0.31429500  0.15714700  0.86077800  1
  F  F24  1  0.84285300  0.15714700  0.86077800  1
  F  F25  1  0.15714700  0.31429500  0.13922200  1
  F  F26  1  0.68570500  0.84285300  0.13922200  1
  F  F27  1  0.15714700  0.84285300  0.13922200  1
  F  F28  1  0.54088600  0.08177100  0.34053200  1
  F  F29  1  0.91822900  0.45911400  0.34053200  1
  F  F30  1  0.54088600  0.45911400  0.34053200  1
  F  F31  1  0.45911400  0.91822900  0.65946800  1
  F  F32  1  0.08177100  0.54088600  0.65946800  1
  F  F33  1  0.45911400  0.54088600  0.65946800  1
  F  F34  1  0.45911400  0.91822900  0.84053200  1
  F  F35  1  0.08177100  0.54088600  0.84053200  1
  F  F36  1  0.45911400  0.54088600  0.84053200  1
  F  F37  1  0.54088600  0.08177100  0.15946800  1
  F  F38  1  0.91822900  0.45911400  0.15946800  1
  F  F39  1  0.54088600  0.45911400  0.15946800  1
  F  F40  1  0.32693200  0.32693200  0.50000000  1
  F  F41  1  0.67306800  0.00000000  0.50000000  1
  F  F42  1  0.00000000  0.67306800  0.50000000  1
  F  F43  1  0.67306800  0.67306800  0.50000000  1
  F  F44  1  0.00000000  0.32693200  0.50000000  1
  F  F45  1  0.32693200  0.00000000  0.50000000  1
  F  F46  1  0.67306800  0.67306800  0.00000000  1
  F  F47  1  0.32693200  0.00000000  0.00000000  1
  F  F48  1  0.00000000  0.32693200  0.00000000  1
  F  F49  1  0.32693200  0.32693200  0.00000000  1
  F  F50  1  0.00000000  0.67306800  0.00000000  1
  F  F51  1  0.67306800  0.00000000  0.00000000  1
  F  F52  1  0.27618000  0.13809000  0.25000000  1
  F  F53  1  0.86191000  0.13809000  0.25000000  1
  F  F54  1  0.86191000  0.72382000  0.25000000  1
  F  F55  1  0.72382000  0.86191000  0.75000000  1
  F  F56  1  0.13809000  0.86191000  0.75000000  1
  F  F57  1  0.13809000  0.27618000  0.75000000  1
  F  F58  1  0.00000000  0.00000000  0.42165700  1
  F  F59  1  0.00000000  0.00000000  0.57834300  1
  F  F60  1  0.00000000  0.00000000  0.92165700  1
  F  F61  1  0.00000000  0.00000000  0.07834300  1
  F  F62  1  0.66666700  0.33333300  0.44829000  1
  F  F63  1  0.33333300  0.66666700  0.55171000  1
  F  F64  1  0.33333300  0.66666700  0.94829000  1
  F  F65  1  0.66666700  0.33333300  0.05171000  1
  F  F66  1  0.33333300  0.66666700  0.25000000  1
  F  F67  1  0.66666700  0.33333300  0.75000000  1
