# generated using pymatgen
data_Na5P3(H14O11)2
_symmetry_space_group_name_H-M   'P 1'
_cell_length_a   7.07768300
_cell_length_b   12.18232891
_cell_length_c   13.78798729
_cell_angle_alpha   79.25301331
_cell_angle_beta   78.08976381
_cell_angle_gamma   75.73314364
_symmetry_Int_Tables_number   1
_chemical_formula_structural   Na5P3(H14O11)2
_chemical_formula_sum   'Na10 P6 H56 O44'
_cell_volume   1115.78016979
_cell_formula_units_Z   2
loop_
 _symmetry_equiv_pos_site_id
 _symmetry_equiv_pos_as_xyz
  1  'x, y, z'
loop_
 _atom_site_type_symbol
 _atom_site_label
 _atom_site_symmetry_multiplicity
 _atom_site_fract_x
 _atom_site_fract_y
 _atom_site_fract_z
 _atom_site_occupancy
  Na  Na0  1  0.13609200  0.85697800  0.50447100  1
  Na  Na1  1  0.86390800  0.14302200  0.49552900  1
  Na  Na2  1  0.81461000  0.79090200  0.67777300  1
  Na  Na3  1  0.18539000  0.20909800  0.32222700  1
  Na  Na4  1  0.91122500  0.47588700  0.78890700  1
  Na  Na5  1  0.08877500  0.52411300  0.21109300  1
  Na  Na6  1  0.69135900  0.26168300  0.78462300  1
  Na  Na7  1  0.30864100  0.73831700  0.21537700  1
  Na  Na8  1  0.61868700  0.10113100  0.00255800  1
  Na  Na9  1  0.38131300  0.89886900  0.99744200  1
  P  P10  1  0.30513400  0.81496200  0.72530500  1
  P  P11  1  0.69486600  0.18503800  0.27469500  1
  P  P12  1  0.26208900  0.70413500  0.87433900  1
  P  P13  1  0.73791100  0.29586500  0.12566100  1
  P  P14  1  0.37000100  0.98303100  0.74044600  1
  P  P15  1  0.62999900  0.01696900  0.25955400  1
  H  H16  1  0.01199300  0.94238900  0.31862700  1
  H  H17  1  0.98800700  0.05761100  0.68137300  1
  H  H18  1  0.24151600  0.93991500  0.30262900  1
  H  H19  1  0.75848400  0.06008500  0.69737100  1
  H  H20  1  0.56838100  0.83700900  0.42319200  1
  H  H21  1  0.43161900  0.16299100  0.57680800  1
  H  H22  1  0.50868600  0.77330400  0.53490300  1
  H  H23  1  0.49131400  0.22669600  0.46509700  1
  H  H24  1  0.91150400  0.61894900  0.56686100  1
  H  H25  1  0.08849600  0.38105100  0.43313900  1
  H  H26  1  0.00417000  0.67186200  0.46060800  1
  H  H27  1  0.99583000  0.32813800  0.53939200  1
  H  H28  1  0.74827900  0.94828400  0.45742200  1
  H  H29  1  0.25172100  0.05171600  0.54257800  1
  H  H30  1  0.68013100  0.96874000  0.57342300  1
  H  H31  1  0.31986900  0.03126000  0.42657700  1
  H  H32  1  0.88502300  0.69607000  0.86717000  1
  H  H33  1  0.11497700  0.30393000  0.13283000  1
  H  H34  1  0.66345000  0.68626300  0.87046300  1
  H  H35  1  0.33655000  0.31373700  0.12953700  1
  H  H36  1  0.63077300  0.61600100  0.65996700  1
  H  H37  1  0.36922700  0.38399900  0.34003300  1
  H  H38  1  0.69436600  0.48982700  0.62962800  1
  H  H39  1  0.30563400  0.51017300  0.37037200  1
  H  H40  1  0.24723700  0.55959500  0.73811700  1
  H  H41  1  0.75276300  0.44040500  0.26188300  1
  H  H42  1  0.18426800  0.58153700  0.62786400  1
  H  H43  1  0.81573200  0.41846300  0.37213600  1
  H  H44  1  0.50566100  0.47705600  0.86928500  1
  H  H45  1  0.49433900  0.52294400  0.13071500  1
  H  H46  1  0.59943300  0.37397200  0.94725400  1
  H  H47  1  0.40056700  0.62602800  0.05274600  1
  H  H48  1  0.05577900  0.35843600  0.97697100  1
  H  H49  1  0.94422100  0.64156400  0.02302900  1
  H  H50  1  0.17736700  0.45442000  0.91531000  1
  H  H51  1  0.82263300  0.54558000  0.08469000  1
  H  H52  1  0.17565000  0.27820800  0.67890400  1
  H  H53  1  0.82435000  0.72179200  0.32109600  1
  H  H54  1  0.00665800  0.22075700  0.68298800  1
  H  H55  1  0.99334200  0.77924300  0.31701200  1
  H  H56  1  0.54849400  0.32540200  0.59472000  1
  H  H57  1  0.45150600  0.67459800  0.40528000  1
  H  H58  1  0.42948300  0.42728900  0.65486200  1
  H  H59  1  0.57051700  0.57271100  0.34513800  1
  H  H60  1  0.35454700  0.13658600  0.85865400  1
  H  H61  1  0.64545300  0.86341400  0.14134600  1
  H  H62  1  0.30660100  0.26526300  0.88221600  1
  H  H63  1  0.69339900  0.73473700  0.11778400  1
  H  H64  1  0.93824900  0.19213400  0.95916000  1
  H  H65  1  0.06175100  0.80786600  0.04084000  1
  H  H66  1  0.03266200  0.10177200  0.88401500  1
  H  H67  1  0.96733800  0.89822800  0.11598500  1
  H  H68  1  0.17457800  0.12536600  0.08306100  1
  H  H69  1  0.82542200  0.87463400  0.91693900  1
  H  H70  1  0.32176900  0.05829200  0.15628000  1
  H  H71  1  0.67823100  0.94170800  0.84372000  1
  O  O72  1  0.29633500  0.58262700  0.84677700  1
  O  O73  1  0.70366500  0.41737300  0.15322300  1
  O  O74  1  0.41612700  0.71753900  0.93278800  1
  O  O75  1  0.58387300  0.28246100  0.06721200  1
  O  O76  1  0.04636700  0.74464100  0.92790000  1
  O  O77  1  0.95363300  0.25535900  0.07210000  1
  O  O78  1  0.49769000  0.75405300  0.66273200  1
  O  O79  1  0.50231000  0.24594700  0.33726800  1
  O  O80  1  0.11843400  0.83869000  0.67826200  1
  O  O81  1  0.88156600  0.16131000  0.32173800  1
  O  O82  1  0.28194300  0.06859700  0.65428700  1
  O  O83  1  0.71805700  0.93140300  0.34571300  1
  O  O84  1  0.59905700  0.96547100  0.72208400  1
  O  O85  1  0.40094300  0.03452900  0.27791600  1
  O  O86  1  0.27409100  0.01518400  0.84473700  1
  O  O87  1  0.72590900  0.98481600  0.15526300  1
  O  O88  1  0.14160200  0.89080600  0.32399900  1
  O  O89  1  0.85839800  0.10919400  0.67600100  1
  O  O90  1  0.48379400  0.78549000  0.46451600  1
  O  O91  1  0.51620600  0.21451000  0.53548400  1
  O  O92  1  0.00554200  0.66945700  0.53252000  1
  O  O93  1  0.99445800  0.33054300  0.46748000  1
  O  O94  1  0.79497800  0.95046300  0.52084600  1
  O  O95  1  0.20502200  0.04953700  0.47915400  1
  O  O96  1  0.80007100  0.66978500  0.83135100  1
  O  O97  1  0.19992900  0.33021500  0.16864900  1
  O  O98  1  0.74561100  0.55102300  0.64730800  1
  O  O99  1  0.25438900  0.44897700  0.35269200  1
  O  O100  1  0.21484400  0.52334800  0.68558100  1
  O  O101  1  0.78515600  0.47665200  0.31441900  1
  O  O102  1  0.62195700  0.41267300  0.87705000  1
  O  O103  1  0.37804300  0.58732700  0.12295000  1
  O  O104  1  0.12031200  0.39013100  0.91011200  1
  O  O105  1  0.87968800  0.60986900  0.08988800  1
  O  O106  1  0.03407500  0.29706700  0.67680100  1
  O  O107  1  0.96592500  0.70293300  0.32319900  1
  O  O108  1  0.56273500  0.37543900  0.64065600  1
  O  O109  1  0.43726500  0.62456100  0.35934400  1
  O  O110  1  0.41557400  0.19844300  0.86773400  1
  O  O111  1  0.58442600  0.80155700  0.13226600  1
  O  O112  1  0.90955200  0.15716600  0.90613400  1
  O  O113  1  0.09044800  0.84283400  0.09386600  1
  O  O114  1  0.29817600  0.06709600  0.08657300  1
  O  O115  1  0.70182400  0.93290400  0.91342700  1
