# generated using pymatgen
data_Cd2S3(NO6)2
_symmetry_space_group_name_H-M   'P 1'
_cell_length_a   10.59062100
_cell_length_b   10.59062100
_cell_length_c   10.59062100
_cell_angle_alpha   90.00000000
_cell_angle_beta   90.00000000
_cell_angle_gamma   90.00000000
_symmetry_Int_Tables_number   1
_chemical_formula_structural   Cd2S3(NO6)2
_chemical_formula_sum   'Cd8 S12 N8 O48'
_cell_volume   1187.85732316
_cell_formula_units_Z   4
loop_
 _symmetry_equiv_pos_site_id
 _symmetry_equiv_pos_as_xyz
  1  'x, y, z'
loop_
 _atom_site_type_symbol
 _atom_site_label
 _atom_site_symmetry_multiplicity
 _atom_site_fract_x
 _atom_site_fract_y
 _atom_site_fract_z
 _atom_site_occupancy
  Cd  Cd0  1  0.91889400  0.41889400  0.08110600  1
  Cd  Cd1  1  0.41889400  0.08110600  0.91889400  1
  Cd  Cd2  1  0.08110600  0.91889400  0.41889400  1
  Cd  Cd3  1  0.58110600  0.58110600  0.58110600  1
  Cd  Cd4  1  0.66118700  0.16118700  0.33881300  1
  Cd  Cd5  1  0.16118700  0.33881300  0.66118700  1
  Cd  Cd6  1  0.33881300  0.66118700  0.16118700  1
  Cd  Cd7  1  0.83881300  0.83881300  0.83881300  1
  S  S8  1  0.23945800  0.37515300  0.97531100  1
  S  S9  1  0.02468900  0.73945800  0.12484700  1
  S  S10  1  0.87515300  0.52468900  0.76054200  1
  S  S11  1  0.73945800  0.12484700  0.02468900  1
  S  S12  1  0.52468900  0.76054200  0.87515300  1
  S  S13  1  0.37515300  0.97531100  0.23945800  1
  S  S14  1  0.76054200  0.87515300  0.52468900  1
  S  S15  1  0.97531100  0.23945800  0.37515300  1
  S  S16  1  0.12484700  0.02468900  0.73945800  1
  S  S17  1  0.26054200  0.62484700  0.47531100  1
  S  S18  1  0.47531100  0.26054200  0.62484700  1
  S  S19  1  0.62484700  0.47531100  0.26054200  1
  N  N20  1  0.43491900  0.93491900  0.56508100  1
  N  N21  1  0.93491900  0.56508100  0.43491900  1
  N  N22  1  0.56508100  0.43491900  0.93491900  1
  N  N23  1  0.06508100  0.06508100  0.06508100  1
  N  N24  1  0.19891100  0.69891100  0.80108900  1
  N  N25  1  0.69891100  0.80108900  0.19891100  1
  N  N26  1  0.80108900  0.19891100  0.69891100  1
  N  N27  1  0.30108900  0.30108900  0.30108900  1
  O  O28  1  0.10513500  0.34289800  0.00023200  1
  O  O29  1  0.99976800  0.60513500  0.15710200  1
  O  O30  1  0.84289800  0.49976800  0.89486500  1
  O  O31  1  0.60513500  0.15710200  0.99976800  1
  O  O32  1  0.49976800  0.89486500  0.84289800  1
  O  O33  1  0.34289800  0.00023200  0.10513500  1
  O  O34  1  0.89486500  0.84289800  0.49976800  1
  O  O35  1  0.00023200  0.10513500  0.34289800  1
  O  O36  1  0.15710200  0.99976800  0.60513500  1
  O  O37  1  0.39486500  0.65710200  0.50023200  1
  O  O38  1  0.50023200  0.39486500  0.65710200  1
  O  O39  1  0.65710200  0.50023200  0.39486500  1
  O  O40  1  0.31588500  0.25954500  0.99458900  1
  O  O41  1  0.00541100  0.81588500  0.24045500  1
  O  O42  1  0.75954500  0.50541100  0.68411500  1
  O  O43  1  0.81588500  0.24045500  0.00541100  1
  O  O44  1  0.50541100  0.68411500  0.75954500  1
  O  O45  1  0.25954500  0.99458900  0.31588500  1
  O  O46  1  0.68411500  0.75954500  0.50541100  1
  O  O47  1  0.99458900  0.31588500  0.25954500  1
  O  O48  1  0.24045500  0.00541100  0.81588500  1
  O  O49  1  0.18411500  0.74045500  0.49458900  1
  O  O50  1  0.49458900  0.18411500  0.74045500  1
  O  O51  1  0.74045500  0.49458900  0.18411500  1
  O  O52  1  0.25274400  0.41852100  0.84160600  1
  O  O53  1  0.15839400  0.75274400  0.08147900  1
  O  O54  1  0.91852100  0.65839400  0.74725600  1
  O  O55  1  0.75274400  0.08147900  0.15839400  1
  O  O56  1  0.65839400  0.74725600  0.91852100  1
  O  O57  1  0.41852100  0.84160600  0.25274400  1
  O  O58  1  0.74725600  0.91852100  0.65839400  1
  O  O59  1  0.84160600  0.25274400  0.41852100  1
  O  O60  1  0.08147900  0.15839400  0.75274400  1
  O  O61  1  0.24725600  0.58147900  0.34160600  1
  O  O62  1  0.34160600  0.24725600  0.58147900  1
  O  O63  1  0.58147900  0.34160600  0.24725600  1
  O  O64  1  0.28431000  0.47424900  0.06180600  1
  O  O65  1  0.93819400  0.78431000  0.02575100  1
  O  O66  1  0.97424900  0.43819400  0.71569000  1
  O  O67  1  0.78431000  0.02575100  0.93819400  1
  O  O68  1  0.43819400  0.71569000  0.97424900  1
  O  O69  1  0.47424900  0.06180600  0.28431000  1
  O  O70  1  0.71569000  0.97424900  0.43819400  1
  O  O71  1  0.06180600  0.28431000  0.47424900  1
  O  O72  1  0.02575100  0.93819400  0.78431000  1
  O  O73  1  0.21569000  0.52575100  0.56180600  1
  O  O74  1  0.56180600  0.21569000  0.52575100  1
  O  O75  1  0.52575100  0.56180600  0.21569000  1
