# generated using pymatgen
data_KSb2PO8
_symmetry_space_group_name_H-M   'P 1'
_cell_length_a   7.22248251
_cell_length_b   7.22248251
_cell_length_c   15.26076210
_cell_angle_alpha   84.82029101
_cell_angle_beta   84.82029101
_cell_angle_gamma   59.71804252
_symmetry_Int_Tables_number   1
_chemical_formula_structural   KSb2PO8
_chemical_formula_sum   'K4 Sb8 P4 O32'
_cell_volume   683.71159798
_cell_formula_units_Z   4
loop_
 _symmetry_equiv_pos_site_id
 _symmetry_equiv_pos_as_xyz
  1  'x, y, z'
loop_
 _atom_site_type_symbol
 _atom_site_label
 _atom_site_symmetry_multiplicity
 _atom_site_fract_x
 _atom_site_fract_y
 _atom_site_fract_z
 _atom_site_occupancy
  K  K0  1  0.09107900  0.84837500  0.88799700  1
  K  K1  1  0.84837500  0.09107900  0.38799700  1
  K  K2  1  0.90793900  0.14874800  0.11853400  1
  K  K3  1  0.14874800  0.90793900  0.61853400  1
  Sb  Sb4  1  0.62201700  0.87658300  0.74823500  1
  Sb  Sb5  1  0.87658300  0.62201700  0.24823500  1
  Sb  Sb6  1  0.37935400  0.12525600  0.25481500  1
  Sb  Sb7  1  0.12525600  0.37935400  0.75481500  1
  Sb  Sb8  1  0.54638100  0.80998400  0.06470900  1
  Sb  Sb9  1  0.80998400  0.54638100  0.56470900  1
  Sb  Sb10  1  0.45558500  0.19288800  0.93834000  1
  Sb  Sb11  1  0.19288800  0.45558500  0.43834000  1
  P  P12  1  0.28724500  0.51322000  0.10748900  1
  P  P13  1  0.51322000  0.28724500  0.60748900  1
  P  P14  1  0.71374600  0.48942800  0.89528800  1
  P  P15  1  0.48942800  0.71374600  0.39528800  1
  O  O16  1  0.93974600  0.69577600  0.74887500  1
  O  O17  1  0.69577600  0.93974600  0.24887500  1
  O  O18  1  0.06141500  0.30517200  0.25471500  1
  O  O19  1  0.30517200  0.06141500  0.75471500  1
  O  O20  1  0.25903600  0.41386900  0.85519900  1
  O  O21  1  0.41386900  0.25903600  0.35519900  1
  O  O22  1  0.75022600  0.58659200  0.14514900  1
  O  O23  1  0.58659200  0.75022600  0.64514900  1
  O  O24  1  0.33253000  0.00329400  0.97411200  1
  O  O25  1  0.00329400  0.33253000  0.47411200  1
  O  O26  1  0.66794200  0.00200600  0.02961500  1
  O  O27  1  0.00200600  0.66794200  0.52961500  1
  O  O28  1  0.34218600  0.97978800  0.16061000  1
  O  O29  1  0.97978800  0.34218600  0.66061000  1
  O  O30  1  0.66197500  0.01743600  0.84391000  1
  O  O31  1  0.01743600  0.66197500  0.34391000  1
  O  O32  1  0.56213100  0.66027400  0.82676200  1
  O  O33  1  0.66027400  0.56213100  0.32676200  1
  O  O34  1  0.44168100  0.33717200  0.17378700  1
  O  O35  1  0.33717200  0.44168100  0.67378700  1
  O  O36  1  0.24468600  0.40819200  0.03329600  1
  O  O37  1  0.40819200  0.24468600  0.53329600  1
  O  O38  1  0.75303900  0.59702300  0.96917500  1
  O  O39  1  0.59702300  0.75303900  0.46917500  1
  O  O40  1  0.61653100  0.35581700  0.93911000  1
  O  O41  1  0.35581700  0.61653100  0.43911000  1
  O  O42  1  0.38062400  0.65079200  0.06426100  1
  O  O43  1  0.65079200  0.38062400  0.56426100  1
  O  O44  1  0.07352600  0.67416300  0.15568000  1
  O  O45  1  0.67416300  0.07352600  0.65568000  1
  O  O46  1  0.93029000  0.32796000  0.84901700  1
  O  O47  1  0.32796000  0.93029000  0.34901700  1
