# generated using pymatgen
data_Dy2VO5
_symmetry_space_group_name_H-M   'P 1'
_cell_length_a   7.06046800
_cell_length_b   6.79965100
_cell_length_c   9.38804447
_cell_angle_alpha   79.19419139
_cell_angle_beta   90.00000000
_cell_angle_gamma   90.00000000
_symmetry_Int_Tables_number   1
_chemical_formula_structural   Dy2VO5
_chemical_formula_sum   'Dy8 V4 O20'
_cell_volume   442.71614045
_cell_formula_units_Z   4
loop_
 _symmetry_equiv_pos_site_id
 _symmetry_equiv_pos_as_xyz
  1  'x, y, z'
loop_
 _atom_site_type_symbol
 _atom_site_label
 _atom_site_symmetry_multiplicity
 _atom_site_fract_x
 _atom_site_fract_y
 _atom_site_fract_z
 _atom_site_occupancy
  Dy  Dy0  1  0.64263500  0.98869900  0.84985500  1
  Dy  Dy1  1  0.14263500  0.51130100  0.15014500  1
  Dy  Dy2  1  0.35736500  0.01130100  0.15014500  1
  Dy  Dy3  1  0.85736500  0.48869900  0.84985500  1
  Dy  Dy4  1  0.62051600  0.76466800  0.52948200  1
  Dy  Dy5  1  0.12051600  0.73533200  0.47051800  1
  Dy  Dy6  1  0.37948400  0.23533200  0.47051800  1
  Dy  Dy7  1  0.87948400  0.26466800  0.52948200  1
  V  V8  1  0.09880700  0.98862400  0.80383300  1
  V  V9  1  0.59880700  0.51137600  0.19616700  1
  V  V10  1  0.90119300  0.01137600  0.19616700  1
  V  V11  1  0.40119300  0.48862400  0.80383300  1
  O  O12  1  0.38388800  0.92443800  0.39251800  1
  O  O13  1  0.88388800  0.57556200  0.60748200  1
  O  O14  1  0.61611200  0.07556200  0.60748200  1
  O  O15  1  0.11611200  0.42443800  0.39251800  1
  O  O16  1  0.91928100  0.19367200  0.77872000  1
  O  O17  1  0.41928100  0.30632800  0.22128000  1
  O  O18  1  0.08071900  0.80632800  0.22128000  1
  O  O19  1  0.58071900  0.69367200  0.77872000  1
  O  O20  1  0.14160900  0.02664600  0.60395500  1
  O  O21  1  0.64160900  0.47335400  0.39604500  1
  O  O22  1  0.85839100  0.97335400  0.39604500  1
  O  O23  1  0.35839100  0.52664600  0.60395500  1
  O  O24  1  0.92450900  0.80853600  0.87506600  1
  O  O25  1  0.42450900  0.69146400  0.12493400  1
  O  O26  1  0.07549100  0.19146400  0.12493400  1
  O  O27  1  0.57549100  0.30853600  0.87506600  1
  O  O28  1  0.31619100  0.00503500  0.89886300  1
  O  O29  1  0.81619100  0.49496500  0.10113700  1
  O  O30  1  0.68380900  0.99496500  0.10113700  1
  O  O31  1  0.18380900  0.50503500  0.89886300  1
