# generated using pymatgen
data_Mg3(SiO3)4
_symmetry_space_group_name_H-M   'P 1'
_cell_length_a   5.35925242
_cell_length_b   5.35925242
_cell_length_c   28.86776408
_cell_angle_alpha   88.48975015
_cell_angle_beta   88.48975015
_cell_angle_gamma   119.67405379
_symmetry_Int_Tables_number   1
_chemical_formula_structural   Mg3(SiO3)4
_chemical_formula_sum   'Mg6 Si8 O24'
_cell_volume   719.40094007
_cell_formula_units_Z   2
loop_
 _symmetry_equiv_pos_site_id
 _symmetry_equiv_pos_as_xyz
  1  'x, y, z'
loop_
 _atom_site_type_symbol
 _atom_site_label
 _atom_site_symmetry_multiplicity
 _atom_site_fract_x
 _atom_site_fract_y
 _atom_site_fract_z
 _atom_site_occupancy
  Mg  Mg0  1  0.02026900  0.01054600  0.49993000  1
  Mg  Mg1  1  0.01054600  0.02026900  0.99993000  1
  Mg  Mg2  1  0.31327700  0.65644800  0.50014200  1
  Mg  Mg3  1  0.65644800  0.31327700  0.00014200  1
  Mg  Mg4  1  0.66662700  0.33192500  0.50001900  1
  Mg  Mg5  1  0.33192500  0.66662700  0.00001900  1
  Si  Si6  1  0.02921200  0.36365300  0.40348000  1
  Si  Si7  1  0.36365300  0.02921200  0.90348000  1
  Si  Si8  1  0.30428400  0.30349300  0.59647500  1
  Si  Si9  1  0.30349300  0.30428400  0.09647500  1
  Si  Si10  1  0.36294600  0.02947600  0.40349000  1
  Si  Si11  1  0.02947600  0.36294600  0.90349000  1
  Si  Si12  1  0.97016200  0.63750100  0.59645800  1
  Si  Si13  1  0.63750100  0.97016200  0.09645800  1
  O  O14  1  0.67595900  0.69117700  0.47069600  1
  O  O15  1  0.69117700  0.67595900  0.97069600  1
  O  O16  1  0.65749000  0.97453700  0.52990800  1
  O  O17  1  0.97453700  0.65749000  0.02990800  1
  O  O18  1  0.01290800  0.35009600  0.46067000  1
  O  O19  1  0.35009600  0.01290800  0.96067000  1
  O  O20  1  0.32091200  0.31648000  0.53920700  1
  O  O21  1  0.31648000  0.32091200  0.03920700  1
  O  O22  1  0.34505400  0.01548300  0.46069100  1
  O  O23  1  0.01548300  0.34505400  0.96069100  1
  O  O24  1  0.98811500  0.65072600  0.53918000  1
  O  O25  1  0.65072600  0.98811500  0.03918000  1
  O  O26  1  0.70131200  0.20237700  0.38493000  1
  O  O27  1  0.20237700  0.70131200  0.88493000  1
  O  O28  1  0.63197200  0.46485700  0.61504400  1
  O  O29  1  0.46485700  0.63197200  0.11504400  1
  O  O30  1  0.20318600  0.70192500  0.38478400  1
  O  O31  1  0.70192500  0.20318600  0.88478400  1
  O  O32  1  0.13013800  0.96516100  0.61505700  1
  O  O33  1  0.96516100  0.13013800  0.11505700  1
  O  O34  1  0.20016200  0.20069500  0.38467800  1
  O  O35  1  0.20069500  0.20016200  0.88467800  1
  O  O36  1  0.13313300  0.46632800  0.61516100  1
  O  O37  1  0.46632800  0.13313300  0.11516100  1
