# generated using pymatgen
data_Mg(BH4)2
_symmetry_space_group_name_H-M   'P 1'
_cell_length_a   13.78881318
_cell_length_b   13.78881318
_cell_length_c   13.78881318
_cell_angle_alpha   109.47122063
_cell_angle_beta   109.47122063
_cell_angle_gamma   109.47122063
_symmetry_Int_Tables_number   1
_chemical_formula_structural   Mg(BH4)2
_chemical_formula_sum   'Mg12 B24 H96'
_cell_volume   2018.17476553
_cell_formula_units_Z   12
loop_
 _symmetry_equiv_pos_site_id
 _symmetry_equiv_pos_as_xyz
  1  'x, y, z'
loop_
 _atom_site_type_symbol
 _atom_site_label
 _atom_site_symmetry_multiplicity
 _atom_site_fract_x
 _atom_site_fract_y
 _atom_site_fract_z
 _atom_site_occupancy
  Mg  Mg0  1  0.37500000  0.25000000  0.62500000  1
  Mg  Mg1  1  0.12500000  0.75000000  0.87500000  1
  Mg  Mg2  1  0.25000000  0.62500000  0.37500000  1
  Mg  Mg3  1  0.75000000  0.87500000  0.12500000  1
  Mg  Mg4  1  0.62500000  0.37500000  0.25000000  1
  Mg  Mg5  1  0.87500000  0.12500000  0.75000000  1
  Mg  Mg6  1  0.62500000  0.75000000  0.37500000  1
  Mg  Mg7  1  0.87500000  0.25000000  0.12500000  1
  Mg  Mg8  1  0.75000000  0.37500000  0.62500000  1
  Mg  Mg9  1  0.25000000  0.12500000  0.87500000  1
  Mg  Mg10  1  0.37500000  0.62500000  0.75000000  1
  Mg  Mg11  1  0.12500000  0.87500000  0.25000000  1
  B  B12  1  0.37000100  0.43500000  0.68500000  1
  B  B13  1  0.25000000  0.68500000  0.81500000  1
  B  B14  1  0.25000000  0.06500000  0.43500000  1
  B  B15  1  0.12999900  0.81500000  0.06500000  1
  B  B16  1  0.43500000  0.68500000  0.37000100  1
  B  B17  1  0.68500000  0.81500000  0.25000000  1
  B  B18  1  0.06500000  0.43500000  0.25000000  1
  B  B19  1  0.81500000  0.06500000  0.12999900  1
  B  B20  1  0.68500000  0.37000100  0.43500000  1
  B  B21  1  0.81500000  0.25000000  0.68500000  1
  B  B22  1  0.43500000  0.25000000  0.06500000  1
  B  B23  1  0.06500000  0.12999900  0.81500000  1
  B  B24  1  0.62999900  0.56500000  0.31500000  1
  B  B25  1  0.75000000  0.31500000  0.18500000  1
  B  B26  1  0.75000000  0.93500000  0.56500000  1
  B  B27  1  0.87000100  0.18500000  0.93500000  1
  B  B28  1  0.56500000  0.31500000  0.62999900  1
  B  B29  1  0.31500000  0.18500000  0.75000000  1
  B  B30  1  0.93500000  0.56500000  0.75000000  1
  B  B31  1  0.18500000  0.93500000  0.87000100  1
  B  B32  1  0.31500000  0.62999900  0.56500000  1
  B  B33  1  0.18500000  0.75000000  0.31500000  1
  B  B34  1  0.56500000  0.75000000  0.93500000  1
  B  B35  1  0.93500000  0.87000100  0.18500000  1
  H  H36  1  0.30468700  0.35146200  0.58251300  1
  H  H37  1  0.26894900  0.72217500  0.91748700  1
  H  H38  1  0.23105100  0.14853800  0.45322600  1
  H  H39  1  0.19531300  0.77782500  0.04677400  1
  H  H40  1  0.35146200  0.58251300  0.30468700  1
  H  H41  1  0.72217500  0.91748700  0.26894900  1
  H  H42  1  0.14853800  0.45322600  0.23105100  1
  H  H43  1  0.77782500  0.04677400  0.19531300  1
  H  H44  1  0.58251300  0.30468700  0.35146200  1
  H  H45  1  0.91748700  0.26894900  0.72217500  1
  H  H46  1  0.45322600  0.23105100  0.14853800  1
  H  H47  1  0.04677400  0.19531300  0.77782500  1
  H  H48  1  0.69531300  0.64853800  0.41748700  1
  H  H49  1  0.73105100  0.27782500  0.08251300  1
  H  H50  1  0.76894900  0.85146200  0.54677400  1
  H  H51  1  0.80468700  0.22217500  0.95322600  1
  H  H52  1  0.64853800  0.41748700  0.69531300  1
  H  H53  1  0.27782500  0.08251300  0.73105100  1
  H  H54  1  0.85146200  0.54677400  0.76894900  1
  H  H55  1  0.22217500  0.95322600  0.80468700  1
  H  H56  1  0.41748700  0.69531300  0.64853800  1
  H  H57  1  0.08251300  0.73105100  0.27782500  1
  H  H58  1  0.54677400  0.76894900  0.85146200  1
  H  H59  1  0.95322600  0.80468700  0.22217500  1
  H  H60  1  0.80468700  0.08251300  0.85146200  1
  H  H61  1  0.76894900  0.41748700  0.22217500  1
  H  H62  1  0.73105100  0.95322600  0.64853800  1
  H  H63  1  0.69531300  0.54677400  0.27782500  1
  H  H64  1  0.85146200  0.80468700  0.08251300  1
  H  H65  1  0.22217500  0.76894900  0.41748700  1
  H  H66  1  0.64853800  0.73105100  0.95322600  1
  H  H67  1  0.27782500  0.69531300  0.54677400  1
  H  H68  1  0.08251300  0.85146200  0.80468700  1
  H  H69  1  0.41748700  0.22217500  0.76894900  1
  H  H70  1  0.95322600  0.64853800  0.73105100  1
  H  H71  1  0.54677400  0.27782500  0.69531300  1
  H  H72  1  0.19531300  0.91748700  0.14853800  1
  H  H73  1  0.23105100  0.58251300  0.77782500  1
  H  H74  1  0.26894900  0.04677400  0.35146200  1
  H  H75  1  0.30468700  0.45322600  0.72217500  1
  H  H76  1  0.14853800  0.19531300  0.91748700  1
  H  H77  1  0.77782500  0.23105100  0.58251300  1
  H  H78  1  0.35146200  0.26894900  0.04677400  1
  H  H79  1  0.72217500  0.30468700  0.45322600  1
  H  H80  1  0.91748700  0.14853800  0.19531300  1
  H  H81  1  0.58251300  0.77782500  0.23105100  1
  H  H82  1  0.04677400  0.35146200  0.26894900  1
  H  H83  1  0.45322600  0.72217500  0.30468700  1
  H  H84  1  0.43501900  0.41774100  0.75434400  1
  H  H85  1  0.16339800  0.68067500  0.74565600  1
  H  H86  1  0.33660200  0.08225900  0.51727800  1
  H  H87  1  0.06498100  0.81932500  0.98272200  1
  H  H88  1  0.41774100  0.75434400  0.43501900  1
  H  H89  1  0.68067500  0.74565600  0.16339800  1
  H  H90  1  0.08225900  0.51727800  0.33660200  1
  H  H91  1  0.81932500  0.98272200  0.06498100  1
  H  H92  1  0.75434400  0.43501900  0.41774100  1
  H  H93  1  0.74565600  0.16339800  0.68067500  1
  H  H94  1  0.51727800  0.33660200  0.08225900  1
  H  H95  1  0.98272200  0.06498100  0.81932500  1
  H  H96  1  0.56498100  0.58225900  0.24565600  1
  H  H97  1  0.83660200  0.31932500  0.25434400  1
  H  H98  1  0.66339800  0.91774100  0.48272200  1
  H  H99  1  0.93501900  0.18067500  0.01727800  1
  H  H100  1  0.58225900  0.24565600  0.56498100  1
  H  H101  1  0.31932500  0.25434400  0.83660200  1
  H  H102  1  0.91774100  0.48272200  0.66339800  1
  H  H103  1  0.18067500  0.01727800  0.93501900  1
  H  H104  1  0.24565600  0.56498100  0.58225900  1
  H  H105  1  0.25434400  0.83660200  0.31932500  1
  H  H106  1  0.48272200  0.66339800  0.91774100  1
  H  H107  1  0.01727800  0.93501900  0.18067500  1
  H  H108  1  0.93501900  0.25434400  0.91774100  1
  H  H109  1  0.66339800  0.24565600  0.18067500  1
  H  H110  1  0.83660200  0.01727800  0.58225900  1
  H  H111  1  0.56498100  0.48272200  0.31932500  1
  H  H112  1  0.91774100  0.93501900  0.25434400  1
  H  H113  1  0.18067500  0.66339800  0.24565600  1
  H  H114  1  0.58225900  0.83660200  0.01727800  1
  H  H115  1  0.31932500  0.56498100  0.48272200  1
  H  H116  1  0.25434400  0.91774100  0.93501900  1
  H  H117  1  0.24565600  0.18067500  0.66339800  1
  H  H118  1  0.01727800  0.58225900  0.83660200  1
  H  H119  1  0.48272200  0.31932500  0.56498100  1
  H  H120  1  0.06498100  0.74565600  0.08225900  1
  H  H121  1  0.33660200  0.75434400  0.81932500  1
  H  H122  1  0.16339800  0.98272200  0.41774100  1
  H  H123  1  0.43501900  0.51727800  0.68067500  1
  H  H124  1  0.08225900  0.06498100  0.74565600  1
  H  H125  1  0.81932500  0.33660200  0.75434400  1
  H  H126  1  0.41774100  0.16339800  0.98272200  1
  H  H127  1  0.68067500  0.43501900  0.51727800  1
  H  H128  1  0.74565600  0.08225900  0.06498100  1
  H  H129  1  0.75434400  0.81932500  0.33660200  1
  H  H130  1  0.98272200  0.41774100  0.16339800  1
  H  H131  1  0.51727800  0.68067500  0.43501900  1
