# generated using pymatgen
data_Nd3RuO7
_symmetry_space_group_name_H-M   'P 1'
_cell_length_a   7.50389400
_cell_length_b   7.60297700
_cell_length_c   10.96906900
_cell_angle_alpha   90.00000000
_cell_angle_beta   90.00000000
_cell_angle_gamma   90.00000000
_symmetry_Int_Tables_number   1
_chemical_formula_structural   Nd3RuO7
_chemical_formula_sum   'Nd12 Ru4 O28'
_cell_volume   625.80659506
_cell_formula_units_Z   4
loop_
 _symmetry_equiv_pos_site_id
 _symmetry_equiv_pos_as_xyz
  1  'x, y, z'
loop_
 _atom_site_type_symbol
 _atom_site_label
 _atom_site_symmetry_multiplicity
 _atom_site_fract_x
 _atom_site_fract_y
 _atom_site_fract_z
 _atom_site_occupancy
  Nd  Nd0  1  0.00000000  0.50000000  0.00000000  1
  Nd  Nd1  1  0.00000000  0.00000000  0.00000000  1
  Nd  Nd2  1  0.50000000  0.50000000  0.50000000  1
  Nd  Nd3  1  0.50000000  0.00000000  0.50000000  1
  Nd  Nd4  1  0.30361400  0.25000000  0.21831200  1
  Nd  Nd5  1  0.69638600  0.75000000  0.78168800  1
  Nd  Nd6  1  0.30869100  0.25000000  0.77560300  1
  Nd  Nd7  1  0.69130900  0.75000000  0.22439700  1
  Nd  Nd8  1  0.80869100  0.25000000  0.72439700  1
  Nd  Nd9  1  0.19130900  0.75000000  0.27560300  1
  Nd  Nd10  1  0.80361400  0.25000000  0.28168800  1
  Nd  Nd11  1  0.19638600  0.75000000  0.71831200  1
  Ru  Ru12  1  0.50000000  0.50000000  0.00000000  1
  Ru  Ru13  1  0.50000000  0.00000000  0.00000000  1
  Ru  Ru14  1  0.00000000  0.50000000  0.50000000  1
  Ru  Ru15  1  0.00000000  0.00000000  0.50000000  1
  O  O16  1  0.41860500  0.25000000  0.99425600  1
  O  O17  1  0.58139500  0.75000000  0.00574400  1
  O  O18  1  0.91860500  0.25000000  0.50574400  1
  O  O19  1  0.08139500  0.75000000  0.49425600  1
  O  O20  1  0.01930900  0.25000000  0.13216800  1
  O  O21  1  0.98069100  0.75000000  0.86783200  1
  O  O22  1  0.03351200  0.25000000  0.86877700  1
  O  O23  1  0.96648800  0.75000000  0.13122300  1
  O  O24  1  0.53351200  0.25000000  0.63122300  1
  O  O25  1  0.46648800  0.75000000  0.36877700  1
  O  O26  1  0.51930900  0.25000000  0.36783200  1
  O  O27  1  0.48069100  0.75000000  0.63216800  1
  O  O28  1  0.29979100  0.53627300  0.11726300  1
  O  O29  1  0.70020900  0.03627300  0.88273700  1
  O  O30  1  0.70020900  0.46372700  0.88273700  1
  O  O31  1  0.29979100  0.96372700  0.11726300  1
  O  O32  1  0.33181600  0.54155600  0.86510100  1
  O  O33  1  0.66818400  0.04155600  0.13489900  1
  O  O34  1  0.66818400  0.45844400  0.13489900  1
  O  O35  1  0.33181600  0.95844400  0.86510100  1
  O  O36  1  0.83181600  0.54155600  0.63489900  1
  O  O37  1  0.16818400  0.04155600  0.36510100  1
  O  O38  1  0.16818400  0.45844400  0.36510100  1
  O  O39  1  0.83181600  0.95844400  0.63489900  1
  O  O40  1  0.79979100  0.53627300  0.38273700  1
  O  O41  1  0.20020900  0.03627300  0.61726300  1
  O  O42  1  0.20020900  0.46372700  0.61726300  1
  O  O43  1  0.79979100  0.96372700  0.38273700  1
