# generated using pymatgen
data_RuN5O6
_symmetry_space_group_name_H-M   'P 1'
_cell_length_a   14.18652800
_cell_length_b   11.45201700
_cell_length_c   11.55165945
_cell_angle_alpha   78.37937948
_cell_angle_beta   90.00000000
_cell_angle_gamma   90.00000000
_symmetry_Int_Tables_number   1
_chemical_formula_structural   RuN5O6
_chemical_formula_sum   'Ru8 N40 O48'
_cell_volume   1838.26522311
_cell_formula_units_Z   8
loop_
 _symmetry_equiv_pos_site_id
 _symmetry_equiv_pos_as_xyz
  1  'x, y, z'
loop_
 _atom_site_type_symbol
 _atom_site_label
 _atom_site_symmetry_multiplicity
 _atom_site_fract_x
 _atom_site_fract_y
 _atom_site_fract_z
 _atom_site_occupancy
  Ru  Ru0  1  0.31946300  0.80824100  0.56591400  1
  Ru  Ru1  1  0.81946300  0.19175900  0.93408600  1
  Ru  Ru2  1  0.68053700  0.19175900  0.43408600  1
  Ru  Ru3  1  0.18053700  0.80824100  0.06591400  1
  Ru  Ru4  1  0.42688800  0.18342700  0.99636800  1
  Ru  Ru5  1  0.92688800  0.81657300  0.50363200  1
  Ru  Ru6  1  0.57311200  0.81657300  0.00363200  1
  Ru  Ru7  1  0.07311200  0.18342700  0.49636800  1
  N  N8  1  0.39997300  0.92557900  0.43659000  1
  N  N9  1  0.89997300  0.07442100  0.06341000  1
  N  N10  1  0.60002700  0.07442100  0.56341000  1
  N  N11  1  0.10002700  0.92557900  0.93659000  1
  N  N12  1  0.39702200  0.63197500  0.35084300  1
  N  N13  1  0.89702200  0.36802500  0.14915700  1
  N  N14  1  0.60297800  0.36802500  0.64915700  1
  N  N15  1  0.10297800  0.63197500  0.85084300  1
  N  N16  1  0.46752000  0.37914800  0.09167700  1
  N  N17  1  0.96752000  0.62085200  0.40832300  1
  N  N18  1  0.53248000  0.62085200  0.90832300  1
  N  N19  1  0.03248000  0.37914800  0.59167700  1
  N  N20  1  0.27250100  0.19890200  0.12791100  1
  N  N21  1  0.77250100  0.80109800  0.37208900  1
  N  N22  1  0.72749900  0.80109800  0.87208900  1
  N  N23  1  0.22749900  0.19890200  0.62791100  1
  N  N24  1  0.50815800  0.67942600  0.58263500  1
  N  N25  1  0.00815800  0.32057400  0.91736500  1
  N  N26  1  0.49184200  0.32057400  0.41736500  1
  N  N27  1  0.99184200  0.67942600  0.08263500  1
  N  N28  1  0.33104300  0.33238900  0.93001500  1
  N  N29  1  0.83104300  0.66761100  0.56998500  1
  N  N30  1  0.66895700  0.66761100  0.06998500  1
  N  N31  1  0.16895700  0.33238900  0.43001500  1
  N  N32  1  0.34131800  0.87541700  0.67725000  1
  N  N33  1  0.84131800  0.12458300  0.82275000  1
  N  N34  1  0.65868200  0.12458300  0.32275000  1
  N  N35  1  0.15868200  0.87541700  0.17725000  1
  N  N36  1  0.42779100  0.68465400  0.57244300  1
  N  N37  1  0.92779100  0.31534600  0.92755700  1
  N  N38  1  0.57220900  0.31534600  0.42755700  1
  N  N39  1  0.07220900  0.68465400  0.07244300  1
  N  N40  1  0.36654300  0.08344000  0.92958600  1
  N  N41  1  0.86654300  0.91656000  0.57041400  1
  N  N42  1  0.63345700  0.91656000  0.07041400  1
  N  N43  1  0.13345700  0.08344000  0.42958600  1
  N  N44  1  0.51362800  0.23347600  0.89371100  1
  N  N45  1  0.01362800  0.76652400  0.60628900  1
  N  N46  1  0.48637200  0.76652400  0.10628900  1
  N  N47  1  0.98637200  0.23347600  0.39371100  1
  O  O48  1  0.20587300  0.78713500  0.51507300  1
  O  O49  1  0.70587300  0.21286500  0.98492700  1
  O  O50  1  0.79412700  0.21286500  0.48492700  1
  O  O51  1  0.29412700  0.78713500  0.01507300  1
  O  O52  1  0.47816500  0.10960800  0.12740500  1
  O  O53  1  0.97816500  0.89039200  0.37259500  1
  O  O54  1  0.52183500  0.89039200  0.87259500  1
  O  O55  1  0.02183500  0.10960800  0.62740500  1
  O  O56  1  0.45385900  0.87886300  0.37497300  1
  O  O57  1  0.95385900  0.12113700  0.12502700  1
  O  O58  1  0.54614100  0.12113700  0.62502700  1
  O  O59  1  0.04614100  0.87886300  0.87497300  1
  O  O60  1  0.38842300  0.03315600  0.42868400  1
  O  O61  1  0.88842300  0.96684400  0.07131600  1
  O  O62  1  0.61157700  0.96684400  0.57131600  1
  O  O63  1  0.11157700  0.03315600  0.92868400  1
  O  O64  1  0.32431200  0.65310700  0.29645900  1
  O  O65  1  0.82431200  0.34689300  0.20354100  1
  O  O66  1  0.67568800  0.34689300  0.70354100  1
  O  O67  1  0.17568800  0.65310700  0.79645900  1
  O  O68  1  0.47038700  0.58321600  0.33370800  1
  O  O69  1  0.97038700  0.41678400  0.16629200  1
  O  O70  1  0.52961300  0.41678400  0.66629200  1
  O  O71  1  0.02961300  0.58321600  0.83370800  1
  O  O72  1  0.41045800  0.45563300  0.10562300  1
  O  O73  1  0.91045800  0.54436700  0.39437700  1
  O  O74  1  0.58954200  0.54436700  0.89437700  1
  O  O75  1  0.08954200  0.45563300  0.60562300  1
  O  O76  1  0.54726600  0.36324800  0.13232600  1
  O  O77  1  0.04726600  0.63675200  0.36767400  1
  O  O78  1  0.45273400  0.63675200  0.86767400  1
  O  O79  1  0.95273400  0.36324800  0.63232600  1
  O  O80  1  0.26695000  0.09640800  0.18284900  1
  O  O81  1  0.76695000  0.90359200  0.31715100  1
  O  O82  1  0.73305000  0.90359200  0.81715100  1
  O  O83  1  0.23305000  0.09640800  0.68284900  1
  O  O84  1  0.23129500  0.28778900  0.14542400  1
  O  O85  1  0.73129500  0.71221100  0.35457600  1
  O  O86  1  0.76870500  0.71221100  0.85457600  1
  O  O87  1  0.26870500  0.28778900  0.64542400  1
  O  O88  1  0.59078500  0.66984200  0.59465300  1
  O  O89  1  0.09078500  0.33015800  0.90534700  1
  O  O90  1  0.40921500  0.33015800  0.40534700  1
  O  O91  1  0.90921500  0.66984200  0.09465300  1
  O  O92  1  0.29140200  0.40955100  0.95969800  1
  O  O93  1  0.79140200  0.59044900  0.54030200  1
  O  O94  1  0.70859800  0.59044900  0.04030200  1
  O  O95  1  0.20859800  0.40955100  0.45969800  1
