# generated using pymatgen
data_CuH9C4(NO2)3
_symmetry_space_group_name_H-M   'P 1'
_cell_length_a   8.97321800
_cell_length_b   9.24935200
_cell_length_c   11.47831300
_cell_angle_alpha   90.00000000
_cell_angle_beta   90.00000000
_cell_angle_gamma   90.00000000
_symmetry_Int_Tables_number   1
_chemical_formula_structural   CuH9C4(NO2)3
_chemical_formula_sum   'Cu4 H36 C16 N12 O24'
_cell_volume   952.65925228
_cell_formula_units_Z   4
loop_
 _symmetry_equiv_pos_site_id
 _symmetry_equiv_pos_as_xyz
  1  'x, y, z'
loop_
 _atom_site_type_symbol
 _atom_site_label
 _atom_site_symmetry_multiplicity
 _atom_site_fract_x
 _atom_site_fract_y
 _atom_site_fract_z
 _atom_site_occupancy
  Cu  Cu0  1  0.49753700  0.50136100  0.49848500  1
  Cu  Cu1  1  0.50246300  0.49863900  0.99848500  1
  Cu  Cu2  1  0.00246300  0.00136100  0.99848500  1
  Cu  Cu3  1  0.99753700  0.99863900  0.49848500  1
  H  H4  1  0.19084000  0.66484500  0.46261500  1
  H  H5  1  0.80916000  0.33515500  0.96261500  1
  H  H6  1  0.30916000  0.16484500  0.96261500  1
  H  H7  1  0.69084000  0.83515500  0.46261500  1
  H  H8  1  0.50876200  0.57713000  0.74768900  1
  H  H9  1  0.49123800  0.42287000  0.24768900  1
  H  H10  1  0.99123800  0.07713000  0.24768900  1
  H  H11  1  0.00876200  0.92287000  0.74768900  1
  H  H12  1  0.63196000  0.19355100  0.51942300  1
  H  H13  1  0.36804000  0.80644900  0.01942300  1
  H  H14  1  0.86804000  0.69355100  0.01942300  1
  H  H15  1  0.13196000  0.30644900  0.51942300  1
  H  H16  1  0.58363000  0.80232200  0.80174200  1
  H  H17  1  0.41637000  0.19767800  0.30174200  1
  H  H18  1  0.91637000  0.30232200  0.30174200  1
  H  H19  1  0.08363000  0.69767800  0.80174200  1
  H  H20  1  0.45202800  0.79833200  0.68604900  1
  H  H21  1  0.54797200  0.20166800  0.18604900  1
  H  H22  1  0.04797200  0.29833200  0.18604900  1
  H  H23  1  0.95202800  0.70166800  0.68604900  1
  H  H24  1  0.67280500  0.02288800  0.86735800  1
  H  H25  1  0.32719500  0.97711200  0.36735800  1
  H  H26  1  0.82719500  0.52288800  0.36735800  1
  H  H27  1  0.17280500  0.47711200  0.86735800  1
  H  H28  1  0.58130900  0.18441300  0.82467300  1
  H  H29  1  0.41869100  0.81558700  0.32467300  1
  H  H30  1  0.91869100  0.68441300  0.32467300  1
  H  H31  1  0.08130900  0.31558700  0.82467300  1
  H  H32  1  0.33984900  0.00840600  0.62614600  1
  H  H33  1  0.66015100  0.99159400  0.12614600  1
  H  H34  1  0.16015100  0.50840600  0.12614600  1
  H  H35  1  0.83984900  0.49159400  0.62614600  1
  H  H36  1  0.41228700  0.17848300  0.67211100  1
  H  H37  1  0.58771300  0.82151700  0.17211100  1
  H  H38  1  0.08771300  0.67848300  0.17211100  1
  H  H39  1  0.91228700  0.32151700  0.67211100  1
  C  C40  1  0.26064500  0.72039800  0.52879100  1
  C  C41  1  0.73935500  0.27960200  0.02879100  1
  C  C42  1  0.23935500  0.22039800  0.02879100  1
  C  C43  1  0.76064500  0.77960200  0.52879100  1
  C  C44  1  0.50650400  0.45846100  0.74757500  1
  C  C45  1  0.49349600  0.54153900  0.24757500  1
  C  C46  1  0.99349600  0.95846100  0.24757500  1
  C  C47  1  0.00650400  0.04153900  0.74757500  1
  C  C48  1  0.70433800  0.25706300  0.46022800  1
  C  C49  1  0.29566200  0.74293700  0.96022800  1
  C  C50  1  0.79566200  0.75706300  0.96022800  1
  C  C51  1  0.20433800  0.24293700  0.46022800  1
  C  C52  1  0.50668700  0.99968900  0.74631700  1
  C  C53  1  0.49331300  0.00031100  0.24631700  1
  C  C54  1  0.99331300  0.49968900  0.24631700  1
  C  C55  1  0.00668700  0.50031100  0.74631700  1
  N  N56  1  0.51546700  0.85568600  0.74372500  1
  N  N57  1  0.48453300  0.14431400  0.24372500  1
  N  N58  1  0.98453300  0.35568600  0.24372500  1
  N  N59  1  0.01546700  0.64431400  0.74372500  1
  N  N60  1  0.59516200  0.07511500  0.81784700  1
  N  N61  1  0.40483800  0.92488500  0.31784700  1
  N  N62  1  0.90483800  0.57511500  0.31784700  1
  N  N63  1  0.09516200  0.42488500  0.81784700  1
  N  N64  1  0.40942700  0.06849600  0.67727300  1
  N  N65  1  0.59057300  0.93150400  0.17727300  1
  N  N66  1  0.09057300  0.56849600  0.17727300  1
  N  N67  1  0.90942700  0.43150400  0.67727300  1
  O  O68  1  0.37685100  0.65347000  0.56708100  1
  O  O69  1  0.62314900  0.34653000  0.06708100  1
  O  O70  1  0.12314900  0.15347000  0.06708100  1
  O  O71  1  0.87685100  0.84653000  0.56708100  1
  O  O72  1  0.22447000  0.84354400  0.56381800  1
  O  O73  1  0.77553000  0.15645600  0.06381800  1
  O  O74  1  0.27553000  0.34354400  0.06381800  1
  O  O75  1  0.72447000  0.65645600  0.56381800  1
  O  O76  1  0.49857300  0.39112300  0.65110900  1
  O  O77  1  0.50142700  0.60887700  0.15110900  1
  O  O78  1  0.00142700  0.89112300  0.15110900  1
  O  O79  1  0.99857300  0.10887700  0.65110900  1
  O  O80  1  0.51189200  0.39076000  0.84403100  1
  O  O81  1  0.48810800  0.60924000  0.34403100  1
  O  O82  1  0.98810800  0.89076000  0.34403100  1
  O  O83  1  0.01189200  0.10924000  0.84403100  1
  O  O84  1  0.66482100  0.38813300  0.43700000  1
  O  O85  1  0.33517900  0.61186700  0.93700000  1
  O  O86  1  0.83517900  0.88813300  0.93700000  1
  O  O87  1  0.16482100  0.11186700  0.43700000  1
  O  O88  1  0.82024300  0.20067800  0.41951500  1
  O  O89  1  0.17975700  0.79932200  0.91951500  1
  O  O90  1  0.67975700  0.70067800  0.91951500  1
  O  O91  1  0.32024300  0.29932200  0.41951500  1
