# generated using pymatgen
data_FeP4(C2O5)2
_symmetry_space_group_name_H-M   'P 1'
_cell_length_a   13.13022600
_cell_length_b   9.49957600
_cell_length_c   13.64269153
_cell_angle_alpha   49.95554584
_cell_angle_beta   90.00000000
_cell_angle_gamma   90.00000000
_symmetry_Int_Tables_number   1
_chemical_formula_structural   FeP4(C2O5)2
_chemical_formula_sum   'Fe4 P16 C16 O40'
_cell_volume   1302.70921716
_cell_formula_units_Z   4
loop_
 _symmetry_equiv_pos_site_id
 _symmetry_equiv_pos_as_xyz
  1  'x, y, z'
loop_
 _atom_site_type_symbol
 _atom_site_label
 _atom_site_symmetry_multiplicity
 _atom_site_fract_x
 _atom_site_fract_y
 _atom_site_fract_z
 _atom_site_occupancy
  Fe  Fe0  1  0.32130600  0.59421600  0.80886000  1
  Fe  Fe1  1  0.17869400  0.59421600  0.30886000  1
  Fe  Fe2  1  0.67869400  0.40578400  0.19114000  1
  Fe  Fe3  1  0.82130600  0.40578400  0.69114000  1
  P  P4  1  0.41430300  0.81705200  0.76682700  1
  P  P5  1  0.08569700  0.81705200  0.26682700  1
  P  P6  1  0.58569700  0.18294800  0.23317300  1
  P  P7  1  0.91430300  0.18294800  0.73317300  1
  P  P8  1  0.51808000  0.16415500  0.56141300  1
  P  P9  1  0.98192000  0.16415500  0.06141300  1
  P  P10  1  0.48192000  0.83584500  0.43858700  1
  P  P11  1  0.01808000  0.83584500  0.93858700  1
  P  P12  1  0.41851200  0.11772800  0.77655800  1
  P  P13  1  0.08148800  0.11772800  0.27655800  1
  P  P14  1  0.58148800  0.88227200  0.22344200  1
  P  P15  1  0.91851200  0.88227200  0.72344200  1
  P  P16  1  0.60723400  0.91170300  0.82209500  1
  P  P17  1  0.89276600  0.91170300  0.32209500  1
  P  P18  1  0.39276600  0.08829700  0.17790500  1
  P  P19  1  0.10723400  0.08829700  0.67790500  1
  C  C20  1  0.24393400  0.41103100  0.84145600  1
  C  C21  1  0.25606600  0.41103100  0.34145600  1
  C  C22  1  0.75606600  0.58896900  0.15854400  1
  C  C23  1  0.74393400  0.58896900  0.65854400  1
  C  C24  1  0.25939800  0.75442100  0.65771200  1
  C  C25  1  0.24060200  0.75442100  0.15771200  1
  C  C26  1  0.74060200  0.24557900  0.34228800  1
  C  C27  1  0.75939800  0.24557900  0.84228800  1
  C  C28  1  0.27309400  0.55198800  0.94802100  1
  C  C29  1  0.22690600  0.55198800  0.44802100  1
  C  C30  1  0.72690600  0.44801200  0.05197900  1
  C  C31  1  0.77309400  0.44801200  0.55197900  1
  C  C32  1  0.43476300  0.48359100  0.81854400  1
  C  C33  1  0.06523700  0.48359100  0.31854400  1
  C  C34  1  0.56523700  0.51640900  0.18145600  1
  C  C35  1  0.93476300  0.51640900  0.68145600  1
  O  O36  1  0.44765000  0.97677200  0.61743500  1
  O  O37  1  0.05235000  0.97677200  0.11743500  1
  O  O38  1  0.55235000  0.02322800  0.38256500  1
  O  O39  1  0.94765000  0.02322800  0.88256500  1
  O  O40  1  0.24109900  0.52206500  0.03925600  1
  O  O41  1  0.25890100  0.52206500  0.53925600  1
  O  O42  1  0.75890100  0.47793500  0.96074400  1
  O  O43  1  0.74109900  0.47793500  0.46074400  1
  O  O44  1  0.21954200  0.85784500  0.55913500  1
  O  O45  1  0.28045800  0.85784500  0.05913500  1
  O  O46  1  0.78045800  0.14215500  0.44086500  1
  O  O47  1  0.71954200  0.14215500  0.94086500  1
  O  O48  1  0.36294900  0.93831400  0.79997800  1
  O  O49  1  0.13705100  0.93831400  0.29997800  1
  O  O50  1  0.63705100  0.06168600  0.20002200  1
  O  O51  1  0.86294900  0.06168600  0.70002200  1
  O  O52  1  0.45304400  0.24016800  0.62383100  1
  O  O53  1  0.04695600  0.24016800  0.12383100  1
  O  O54  1  0.54695600  0.75983200  0.37616900  1
  O  O55  1  0.95304400  0.75983200  0.87616900  1
  O  O56  1  0.19390900  0.29417800  0.86220000  1
  O  O57  1  0.30609100  0.29417800  0.36220000  1
  O  O58  1  0.80609100  0.70582200  0.13780000  1
  O  O59  1  0.69390900  0.70582200  0.63780000  1
  O  O60  1  0.52391100  0.76141000  0.83975200  1
  O  O61  1  0.97608900  0.76141000  0.33975200  1
  O  O62  1  0.47608900  0.23859000  0.16024800  1
  O  O63  1  0.02391100  0.23859000  0.66024800  1
  O  O64  1  0.50896600  0.41049400  0.82563700  1
  O  O65  1  0.99103400  0.41049400  0.32563700  1
  O  O66  1  0.49103400  0.58950600  0.17436300  1
  O  O67  1  0.00896600  0.58950600  0.67436300  1
  O  O68  1  0.52941700  0.02175400  0.84864500  1
  O  O69  1  0.97058300  0.02175400  0.34864500  1
  O  O70  1  0.47058300  0.97824600  0.15135500  1
  O  O71  1  0.02941700  0.97824600  0.65135500  1
  O  O72  1  0.61490900  0.06226900  0.66354500  1
  O  O73  1  0.88509100  0.06226900  0.16354500  1
  O  O74  1  0.38509100  0.93773100  0.33645500  1
  O  O75  1  0.11490900  0.93773100  0.83645500  1
