# generated using pymatgen
data_Ho4GaSbS9
_symmetry_space_group_name_H-M   'P 1'
_cell_length_a   9.86643224
_cell_length_b   9.86643224
_cell_length_c   13.50691100
_cell_angle_alpha   90.00000000
_cell_angle_beta   90.00000000
_cell_angle_gamma   90.93481094
_symmetry_Int_Tables_number   1
_chemical_formula_structural   Ho4GaSbS9
_chemical_formula_sum   'Ho16 Ga4 Sb4 S36'
_cell_volume   1314.67531054
_cell_formula_units_Z   4
loop_
 _symmetry_equiv_pos_site_id
 _symmetry_equiv_pos_as_xyz
  1  'x, y, z'
loop_
 _atom_site_type_symbol
 _atom_site_label
 _atom_site_symmetry_multiplicity
 _atom_site_fract_x
 _atom_site_fract_y
 _atom_site_fract_z
 _atom_site_occupancy
  Ho  Ho0  1  0.32024100  0.33795100  0.39938400  1
  Ho  Ho1  1  0.66204900  0.67975900  0.60061600  1
  Ho  Ho2  1  0.82024100  0.83795100  0.10061600  1
  Ho  Ho3  1  0.16204900  0.17975900  0.89938400  1
  Ho  Ho4  1  0.04298100  0.62559800  0.31657900  1
  Ho  Ho5  1  0.37440200  0.95701900  0.68342100  1
  Ho  Ho6  1  0.54298100  0.12559800  0.18342100  1
  Ho  Ho7  1  0.87440200  0.45701900  0.81657900  1
  Ho  Ho8  1  0.09157200  0.12781400  0.18753000  1
  Ho  Ho9  1  0.87218600  0.90842800  0.81247000  1
  Ho  Ho10  1  0.59157200  0.62781400  0.31247000  1
  Ho  Ho11  1  0.37218600  0.40842800  0.68753000  1
  Ho  Ho12  1  0.32956100  0.44925500  0.10374100  1
  Ho  Ho13  1  0.55074500  0.67043900  0.89625900  1
  Ho  Ho14  1  0.82956100  0.94925500  0.39625900  1
  Ho  Ho15  1  0.05074500  0.17043900  0.60374100  1
  Ga  Ga16  1  0.82389600  0.38714800  0.09131700  1
  Ga  Ga17  1  0.61285200  0.17610400  0.90868300  1
  Ga  Ga18  1  0.32389600  0.88714800  0.40868300  1
  Ga  Ga19  1  0.11285200  0.67610400  0.59131700  1
  Sb  Sb20  1  0.83177300  0.33049600  0.38681800  1
  Sb  Sb21  1  0.66950400  0.16822700  0.61318200  1
  Sb  Sb22  1  0.33177300  0.83049600  0.11318200  1
  Sb  Sb23  1  0.16950400  0.66822700  0.88681800  1
  S  S24  1  0.01552200  0.16326300  0.40102000  1
  S  S25  1  0.83673700  0.98447800  0.59898000  1
  S  S26  1  0.51552200  0.66326300  0.09898000  1
  S  S27  1  0.33673700  0.48447800  0.90102000  1
  S  S28  1  0.14774800  0.66156600  0.08192800  1
  S  S29  1  0.33843400  0.85225200  0.91807200  1
  S  S30  1  0.64774800  0.16156600  0.41807200  1
  S  S31  1  0.83843400  0.35225200  0.58192800  1
  S  S32  1  0.81883900  0.20382000  0.19705000  1
  S  S33  1  0.79618000  0.18116100  0.80295000  1
  S  S34  1  0.31883900  0.70382000  0.30295000  1
  S  S35  1  0.29618000  0.68116100  0.69705000  1
  S  S36  1  0.82189300  0.57836200  0.19059000  1
  S  S37  1  0.42163800  0.17810700  0.80941000  1
  S  S38  1  0.32189300  0.07836200  0.30941000  1
  S  S39  1  0.92163800  0.67810700  0.69059000  1
  S  S40  1  0.12469200  0.87530800  0.50000000  1
  S  S41  1  0.62469200  0.37530800  0.00000000  1
  S  S42  1  0.11636800  0.49202300  0.48799300  1
  S  S43  1  0.50797700  0.88363200  0.51200700  1
  S  S44  1  0.61636800  0.99202300  0.01200700  1
  S  S45  1  0.00797700  0.38363200  0.98799300  1
  S  S46  1  0.81132100  0.68137900  0.43149800  1
  S  S47  1  0.31862100  0.18867900  0.56850200  1
  S  S48  1  0.31132100  0.18137900  0.06850200  1
  S  S49  1  0.81862100  0.68867900  0.93149800  1
  S  S50  1  0.00317600  0.88153500  0.24826300  1
  S  S51  1  0.11846500  0.99682400  0.75173700  1
  S  S52  1  0.50317600  0.38153500  0.25173700  1
  S  S53  1  0.61846500  0.49682400  0.74826300  1
  S  S54  1  0.49977000  0.50023000  0.50000000  1
  S  S55  1  0.99977000  0.00023000  0.00000000  1
  S  S56  1  0.14276300  0.39038600  0.24523700  1
  S  S57  1  0.60961400  0.85723700  0.75476300  1
  S  S58  1  0.64276300  0.89038600  0.25476300  1
  S  S59  1  0.10961400  0.35723700  0.74523700  1
