# generated using pymatgen
data_CdH8C2S2(N2Cl)2
_symmetry_space_group_name_H-M   'P 1'
_cell_length_a   13.21779300
_cell_length_b   6.13702900
_cell_length_c   7.23919100
_cell_angle_alpha   90.00000000
_cell_angle_beta   90.00000000
_cell_angle_gamma   90.00000000
_symmetry_Int_Tables_number   1
_chemical_formula_structural   CdH8C2S2(N2Cl)2
_chemical_formula_sum   'Cd2 H16 C4 S4 N8 Cl4'
_cell_volume   587.22854320
_cell_formula_units_Z   2
loop_
 _symmetry_equiv_pos_site_id
 _symmetry_equiv_pos_as_xyz
  1  'x, y, z'
loop_
 _atom_site_type_symbol
 _atom_site_label
 _atom_site_symmetry_multiplicity
 _atom_site_fract_x
 _atom_site_fract_y
 _atom_site_fract_z
 _atom_site_occupancy
  Cd  Cd0  1  0.50000000  0.27915600  0.49063300  1
  Cd  Cd1  1  0.00000000  0.72084400  0.99063300  1
  H  H2  1  0.08987800  0.38611600  0.56690300  1
  H  H3  1  0.91012200  0.38611600  0.56690300  1
  H  H4  1  0.41012200  0.61388400  0.06690300  1
  H  H5  1  0.58987800  0.61388400  0.06690300  1
  H  H6  1  0.12628900  0.11124700  0.57505900  1
  H  H7  1  0.87371100  0.11124700  0.57505900  1
  H  H8  1  0.37371100  0.88875300  0.07505900  1
  H  H9  1  0.62628900  0.88875300  0.07505900  1
  H  H10  1  0.20665800  0.65207000  0.55321100  1
  H  H11  1  0.79334200  0.65207000  0.55321100  1
  H  H12  1  0.29334200  0.34793000  0.05321100  1
  H  H13  1  0.70665800  0.34793000  0.05321100  1
  H  H14  1  0.33672800  0.60010000  0.57594700  1
  H  H15  1  0.66327200  0.60010000  0.57594700  1
  H  H16  1  0.16327200  0.39990000  0.07594700  1
  H  H17  1  0.83672800  0.39990000  0.07594700  1
  C  C18  1  0.24286600  0.33065800  0.57550100  1
  C  C19  1  0.75713400  0.33065800  0.57550100  1
  C  C20  1  0.25713400  0.66934200  0.07550100  1
  C  C21  1  0.74286600  0.66934200  0.07550100  1
  S  S22  1  0.33194700  0.12821500  0.60369500  1
  S  S23  1  0.66805300  0.12821500  0.60369500  1
  S  S24  1  0.16805300  0.87178500  0.10369500  1
  S  S25  1  0.83194700  0.87178500  0.10369500  1
  N  N26  1  0.14544400  0.27076900  0.56664900  1
  N  N27  1  0.85455600  0.27076900  0.56664900  1
  N  N28  1  0.35455600  0.72923100  0.06664900  1
  N  N29  1  0.64544400  0.72923100  0.06664900  1
  N  N30  1  0.26409100  0.54238100  0.56482700  1
  N  N31  1  0.73590900  0.54238100  0.56482700  1
  N  N32  1  0.23590900  0.45761900  0.06482700  1
  N  N33  1  0.76409100  0.45761900  0.06482700  1
  Cl  Cl34  1  0.50000000  0.25798500  0.13288600  1
  Cl  Cl35  1  0.00000000  0.74201500  0.63288600  1
  Cl  Cl36  1  0.50000000  0.68275600  0.57231600  1
  Cl  Cl37  1  0.00000000  0.31724400  0.07231600  1
