# generated using pymatgen
data_Gd4Mo4O11
_symmetry_space_group_name_H-M   'P 1'
_cell_length_a   5.76441600
_cell_length_b   10.92635600
_cell_length_c   16.18142900
_cell_angle_alpha   90.00000000
_cell_angle_beta   90.00000000
_cell_angle_gamma   90.00000000
_symmetry_Int_Tables_number   1
_chemical_formula_structural   Gd4Mo4O11
_chemical_formula_sum   'Gd16 Mo16 O44'
_cell_volume   1019.17211684
_cell_formula_units_Z   4
loop_
 _symmetry_equiv_pos_site_id
 _symmetry_equiv_pos_as_xyz
  1  'x, y, z'
loop_
 _atom_site_type_symbol
 _atom_site_label
 _atom_site_symmetry_multiplicity
 _atom_site_fract_x
 _atom_site_fract_y
 _atom_site_fract_z
 _atom_site_occupancy
  Gd  Gd0  1  0.50000000  0.81469700  0.22331600  1
  Gd  Gd1  1  0.50000000  0.18530300  0.77668400  1
  Gd  Gd2  1  0.50000000  0.31469700  0.27668400  1
  Gd  Gd3  1  0.50000000  0.68530300  0.72331600  1
  Gd  Gd4  1  0.50000000  0.58017500  0.40139400  1
  Gd  Gd5  1  0.50000000  0.41982500  0.59860600  1
  Gd  Gd6  1  0.50000000  0.08017500  0.09860600  1
  Gd  Gd7  1  0.50000000  0.91982500  0.90139400  1
  Gd  Gd8  1  0.00000000  0.59820400  0.26207700  1
  Gd  Gd9  1  0.00000000  0.40179600  0.73792300  1
  Gd  Gd10  1  0.00000000  0.09820400  0.23792300  1
  Gd  Gd11  1  0.00000000  0.90179600  0.76207700  1
  Gd  Gd12  1  0.00000000  0.38112900  0.42301400  1
  Gd  Gd13  1  0.00000000  0.61887100  0.57698600  1
  Gd  Gd14  1  0.00000000  0.88112900  0.07698600  1
  Gd  Gd15  1  0.00000000  0.11887100  0.92301400  1
  Mo  Mo16  1  0.27486200  0.86776700  0.41561800  1
  Mo  Mo17  1  0.27486200  0.13223300  0.58438200  1
  Mo  Mo18  1  0.72513800  0.36776700  0.08438200  1
  Mo  Mo19  1  0.72513800  0.63223300  0.91561800  1
  Mo  Mo20  1  0.72513800  0.13223300  0.58438200  1
  Mo  Mo21  1  0.72513800  0.86776700  0.41561800  1
  Mo  Mo22  1  0.27486200  0.63223300  0.91561800  1
  Mo  Mo23  1  0.27486200  0.36776700  0.08438200  1
  Mo  Mo24  1  0.50000000  0.09114300  0.43228400  1
  Mo  Mo25  1  0.50000000  0.90885700  0.56771600  1
  Mo  Mo26  1  0.50000000  0.59114300  0.06771600  1
  Mo  Mo27  1  0.50000000  0.40885700  0.93228400  1
  Mo  Mo28  1  0.00000000  0.08199600  0.44113100  1
  Mo  Mo29  1  0.00000000  0.91800400  0.55886900  1
  Mo  Mo30  1  0.00000000  0.58199600  0.05886900  1
  Mo  Mo31  1  0.00000000  0.41800400  0.94113100  1
  O  O32  1  0.26242200  0.72797400  0.32649700  1
  O  O33  1  0.26242200  0.27202600  0.67350300  1
  O  O34  1  0.73757800  0.22797400  0.17350300  1
  O  O35  1  0.73757800  0.77202600  0.82649700  1
  O  O36  1  0.73757800  0.27202600  0.67350300  1
  O  O37  1  0.73757800  0.72797400  0.32649700  1
  O  O38  1  0.26242200  0.77202600  0.82649700  1
  O  O39  1  0.26242200  0.22797400  0.17350300  1
  O  O40  1  0.24101900  0.68463400  0.13533800  1
  O  O41  1  0.24101900  0.31536600  0.86466200  1
  O  O42  1  0.75898100  0.18463400  0.36466200  1
  O  O43  1  0.75898100  0.81536600  0.63533800  1
  O  O44  1  0.75898100  0.31536600  0.86466200  1
  O  O45  1  0.75898100  0.68463400  0.13533800  1
  O  O46  1  0.24101900  0.81536600  0.63533800  1
  O  O47  1  0.24101900  0.18463400  0.36466200  1
  O  O48  1  0.24665800  0.96025600  0.17349500  1
  O  O49  1  0.24665800  0.03974400  0.82650500  1
  O  O50  1  0.75334200  0.46025600  0.32650500  1
  O  O51  1  0.75334200  0.53974400  0.67349500  1
  O  O52  1  0.75334200  0.03974400  0.82650500  1
  O  O53  1  0.75334200  0.96025600  0.17349500  1
  O  O54  1  0.24665800  0.53974400  0.67349500  1
  O  O55  1  0.24665800  0.46025600  0.32650500  1
  O  O56  1  0.50000000  0.96067500  0.33540900  1
  O  O57  1  0.50000000  0.03932500  0.66459100  1
  O  O58  1  0.50000000  0.46067500  0.16459100  1
  O  O59  1  0.50000000  0.53932500  0.83540900  1
  O  O60  1  0.50000000  0.75719300  0.48642600  1
  O  O61  1  0.50000000  0.24280700  0.51357400  1
  O  O62  1  0.50000000  0.25719300  0.01357400  1
  O  O63  1  0.50000000  0.74280700  0.98642600  1
  O  O64  1  0.00000000  0.95129500  0.34809800  1
  O  O65  1  0.00000000  0.04870500  0.65190200  1
  O  O66  1  0.00000000  0.45129500  0.15190200  1
  O  O67  1  0.00000000  0.54870500  0.84809800  1
  O  O68  1  0.00000000  0.77222500  0.47515300  1
  O  O69  1  0.00000000  0.22777500  0.52484700  1
  O  O70  1  0.00000000  0.27222500  0.02484700  1
  O  O71  1  0.00000000  0.72777500  0.97515300  1
  O  O72  1  0.24527800  0.00000000  0.00000000  1
  O  O73  1  0.75472200  0.50000000  0.50000000  1
  O  O74  1  0.75472200  0.00000000  0.00000000  1
  O  O75  1  0.24527800  0.50000000  0.50000000  1
