# generated using pymatgen
data_Na3NbHO2F7
_symmetry_space_group_name_H-M   'P 1'
_cell_length_a   6.82393800
_cell_length_b   14.32045600
_cell_length_c   15.24663400
_cell_angle_alpha   90.00000000
_cell_angle_beta   90.00000000
_cell_angle_gamma   90.00000000
_symmetry_Int_Tables_number   1
_chemical_formula_structural   Na3NbHO2F7
_chemical_formula_sum   'Na24 Nb8 H8 O16 F56'
_cell_volume   1489.93010218
_cell_formula_units_Z   8
loop_
 _symmetry_equiv_pos_site_id
 _symmetry_equiv_pos_as_xyz
  1  'x, y, z'
loop_
 _atom_site_type_symbol
 _atom_site_label
 _atom_site_symmetry_multiplicity
 _atom_site_fract_x
 _atom_site_fract_y
 _atom_site_fract_z
 _atom_site_occupancy
  Na  Na0  1  0.19822000  0.34234300  0.73474800  1
  Na  Na1  1  0.30178000  0.84234300  0.76525200  1
  Na  Na2  1  0.69822000  0.65765700  0.76525200  1
  Na  Na3  1  0.80178000  0.15765700  0.73474800  1
  Na  Na4  1  0.80178000  0.65765700  0.26525200  1
  Na  Na5  1  0.69822000  0.15765700  0.23474800  1
  Na  Na6  1  0.30178000  0.34234300  0.23474800  1
  Na  Na7  1  0.19822000  0.84234300  0.26525200  1
  Na  Na8  1  0.26226400  0.06691100  0.62687600  1
  Na  Na9  1  0.23773600  0.56691100  0.87312400  1
  Na  Na10  1  0.76226400  0.93308900  0.87312400  1
  Na  Na11  1  0.73773600  0.43308900  0.62687600  1
  Na  Na12  1  0.73773600  0.93308900  0.37312400  1
  Na  Na13  1  0.76226400  0.43308900  0.12687600  1
  Na  Na14  1  0.23773600  0.06691100  0.12687600  1
  Na  Na15  1  0.26226400  0.56691100  0.37312400  1
  Na  Na16  1  0.27866500  0.36146200  0.49839200  1
  Na  Na17  1  0.22133500  0.86146200  0.00160800  1
  Na  Na18  1  0.77866500  0.63853800  0.00160800  1
  Na  Na19  1  0.72133500  0.13853800  0.49839200  1
  Na  Na20  1  0.72133500  0.63853800  0.50160800  1
  Na  Na21  1  0.77866500  0.13853800  0.99839200  1
  Na  Na22  1  0.22133500  0.36146200  0.99839200  1
  Na  Na23  1  0.27866500  0.86146200  0.50160800  1
  Nb  Nb24  1  0.25133600  0.10377600  0.86851500  1
  Nb  Nb25  1  0.24866400  0.60377600  0.63148500  1
  Nb  Nb26  1  0.75133600  0.89622400  0.63148500  1
  Nb  Nb27  1  0.74866400  0.39622400  0.86851500  1
  Nb  Nb28  1  0.74866400  0.89622400  0.13148500  1
  Nb  Nb29  1  0.75133600  0.39622400  0.36851500  1
  Nb  Nb30  1  0.24866400  0.10377600  0.36851500  1
  Nb  Nb31  1  0.25133600  0.60377600  0.13148500  1
  H  H32  1  0.50000000  0.25000000  0.62218100  1
  H  H33  1  0.00000000  0.75000000  0.87781900  1
  H  H34  1  0.50000000  0.75000000  0.37781900  1
  H  H35  1  0.00000000  0.25000000  0.12218100  1
  H  H36  1  0.00000000  0.25000000  0.59779900  1
  H  H37  1  0.50000000  0.75000000  0.90220100  1
  H  H38  1  0.00000000  0.75000000  0.40220100  1
  H  H39  1  0.50000000  0.25000000  0.09779900  1
  O  O40  1  0.52705700  0.07494400  0.89989500  1
  O  O41  1  0.97294300  0.57494400  0.60010500  1
  O  O42  1  0.02705700  0.92505600  0.60010500  1
  O  O43  1  0.47294300  0.42505600  0.89989500  1
  O  O44  1  0.47294300  0.92505600  0.10010500  1
  O  O45  1  0.02705700  0.42505600  0.39989500  1
  O  O46  1  0.97294300  0.07494400  0.39989500  1
  O  O47  1  0.52705700  0.57494400  0.10010500  1
  O  O48  1  0.51220800  0.14260100  0.82744300  1
  O  O49  1  0.98779200  0.64260100  0.67255700  1
  O  O50  1  0.01220800  0.85739900  0.67255700  1
  O  O51  1  0.48779200  0.35739900  0.82744300  1
  O  O52  1  0.48779200  0.85739900  0.17255700  1
  O  O53  1  0.01220800  0.35739900  0.32744300  1
  O  O54  1  0.98779200  0.14260100  0.32744300  1
  O  O55  1  0.51220800  0.64260100  0.17255700  1
  F  F56  1  0.17481300  0.18457400  0.76453600  1
  F  F57  1  0.32518700  0.68457300  0.73546400  1
  F  F58  1  0.67481300  0.81542700  0.73546400  1
  F  F59  1  0.82518700  0.31542600  0.76453600  1
  F  F60  1  0.82518700  0.81542700  0.23546400  1
  F  F61  1  0.67481300  0.31542600  0.26453600  1
  F  F62  1  0.32518700  0.18457400  0.26453600  1
  F  F63  1  0.17481300  0.68457300  0.23546400  1
  F  F64  1  0.21106400  0.02002300  0.97375400  1
  F  F65  1  0.28893600  0.52002300  0.52624600  1
  F  F66  1  0.71106400  0.97997700  0.52624600  1
  F  F67  1  0.78893600  0.47997700  0.97375400  1
  F  F68  1  0.78893600  0.97997700  0.02624600  1
  F  F69  1  0.71106400  0.47997700  0.47375400  1
  F  F70  1  0.28893600  0.02002300  0.47375400  1
  F  F71  1  0.21106400  0.52002300  0.02624600  1
  F  F72  1  0.21093600  0.21031000  0.94685200  1
  F  F73  1  0.28906400  0.71031000  0.55314800  1
  F  F74  1  0.71093600  0.78969000  0.55314800  1
  F  F75  1  0.78906400  0.28969000  0.94685200  1
  F  F76  1  0.78906400  0.78969000  0.05314800  1
  F  F77  1  0.71093600  0.28969000  0.44685200  1
  F  F78  1  0.28906400  0.21031000  0.44685200  1
  F  F79  1  0.21093600  0.71031000  0.05314800  1
  F  F80  1  0.23996600  0.99929300  0.78305200  1
  F  F81  1  0.26003400  0.49929300  0.71694800  1
  F  F82  1  0.73996600  0.00070700  0.71694800  1
  F  F83  1  0.76003400  0.50070700  0.78305200  1
  F  F84  1  0.76003400  0.00070700  0.21694800  1
  F  F85  1  0.73996600  0.50070700  0.28305200  1
  F  F86  1  0.26003400  0.99929300  0.28305200  1
  F  F87  1  0.23996600  0.49929300  0.21694800  1
  F  F88  1  0.95102700  0.08974200  0.86837300  1
  F  F89  1  0.54897300  0.58974200  0.63162700  1
  F  F90  1  0.45102700  0.91025800  0.63162700  1
  F  F91  1  0.04897300  0.41025800  0.86837300  1
  F  F92  1  0.04897300  0.91025800  0.13162700  1
  F  F93  1  0.45102700  0.41025800  0.36837300  1
  F  F94  1  0.54897300  0.08974200  0.36837300  1
  F  F95  1  0.95102700  0.58974200  0.13162700  1
  F  F96  1  0.46870900  0.32907300  0.62163000  1
  F  F97  1  0.03129100  0.82907300  0.87837000  1
  F  F98  1  0.96870900  0.67092700  0.87837000  1
  F  F99  1  0.53129100  0.17092700  0.62163000  1
  F  F100  1  0.53129100  0.67092700  0.37837000  1
  F  F101  1  0.96870900  0.17092700  0.12163000  1
  F  F102  1  0.03129100  0.32907300  0.12163000  1
  F  F103  1  0.46870900  0.82907300  0.37837000  1
  F  F104  1  0.02427900  0.32980300  0.59948800  1
  F  F105  1  0.47572100  0.82980300  0.90051200  1
  F  F106  1  0.52427900  0.67019700  0.90051200  1
  F  F107  1  0.97572100  0.17019700  0.59948800  1
  F  F108  1  0.97572100  0.67019700  0.40051200  1
  F  F109  1  0.52427900  0.17019700  0.09948800  1
  F  F110  1  0.47572100  0.32980300  0.09948800  1
  F  F111  1  0.02427900  0.82980300  0.40051200  1
