# generated using pymatgen
data_K2Cd3S3O16
_symmetry_space_group_name_H-M   'P 1'
_cell_length_a   8.29331000
_cell_length_b   9.68261100
_cell_length_c   10.38602688
_cell_angle_alpha   90.00000000
_cell_angle_beta   113.53150390
_cell_angle_gamma   90.00000000
_symmetry_Int_Tables_number   1
_chemical_formula_structural   K2Cd3S3O16
_chemical_formula_sum   'K4 Cd6 S6 O32'
_cell_volume   764.65177859
_cell_formula_units_Z   2
loop_
 _symmetry_equiv_pos_site_id
 _symmetry_equiv_pos_as_xyz
  1  'x, y, z'
loop_
 _atom_site_type_symbol
 _atom_site_label
 _atom_site_symmetry_multiplicity
 _atom_site_fract_x
 _atom_site_fract_y
 _atom_site_fract_z
 _atom_site_occupancy
  K  K0  1  0.73640200  0.55416500  0.38348800  1
  K  K1  1  0.35291400  0.55416500  0.61651200  1
  K  K2  1  0.26359800  0.05416500  0.61651200  1
  K  K3  1  0.64708600  0.05416500  0.38348800  1
  Cd  Cd4  1  0.11598300  0.49136100  0.17653700  1
  Cd  Cd5  1  0.93944600  0.49136100  0.82346300  1
  Cd  Cd6  1  0.88401700  0.99136100  0.82346300  1
  Cd  Cd7  1  0.06055400  0.99136100  0.17653700  1
  Cd  Cd8  1  0.31526200  0.77642600  0.00000000  1
  Cd  Cd9  1  0.68473800  0.27642600  0.00000000  1
  S  S10  1  0.02698700  0.77193600  0.64194500  1
  S  S11  1  0.38504200  0.77193600  0.35805500  1
  S  S12  1  0.97301300  0.27193600  0.35805500  1
  S  S13  1  0.61495800  0.27193600  0.64194500  1
  S  S14  1  0.68865900  0.61960500  0.00000000  1
  S  S15  1  0.31134100  0.11960500  0.00000000  1
  O  O16  1  0.21150400  0.76718200  0.75032900  1
  O  O17  1  0.46117500  0.76718200  0.24967100  1
  O  O18  1  0.78849600  0.26718200  0.24967100  1
  O  O19  1  0.53882500  0.26718200  0.75032900  1
  O  O20  1  0.95002700  0.91253500  0.63961300  1
  O  O21  1  0.31041300  0.91253500  0.36038700  1
  O  O22  1  0.04997300  0.41253500  0.36038700  1
  O  O23  1  0.68958700  0.41253500  0.63961300  1
  O  O24  1  0.02900900  0.74322800  0.50269400  1
  O  O25  1  0.52631500  0.74322800  0.49730600  1
  O  O26  1  0.97099100  0.24322800  0.49730600  1
  O  O27  1  0.47368500  0.24322800  0.50269400  1
  O  O28  1  0.91462300  0.66739900  0.67283200  1
  O  O29  1  0.24179100  0.66739900  0.32716800  1
  O  O30  1  0.08537700  0.16739900  0.32716800  1
  O  O31  1  0.75820900  0.16739900  0.67283200  1
  O  O32  1  0.58790800  0.74626200  0.00000000  1
  O  O33  1  0.41209200  0.24626200  0.00000000  1
  O  O34  1  0.57997100  0.49685800  0.00000000  1
  O  O35  1  0.42002900  0.99685800  0.00000000  1
  O  O36  1  0.85513000  0.62111600  0.12934000  1
  O  O37  1  0.72579000  0.62111600  0.87066000  1
  O  O38  1  0.14487000  0.12111600  0.87066000  1
  O  O39  1  0.27421000  0.12111600  0.12934000  1
  O  O40  1  0.87882100  0.90519100  0.27724600  1
  O  O41  1  0.60157500  0.90519100  0.72275400  1
  O  O42  1  0.12117900  0.40519100  0.72275400  1
  O  O43  1  0.39842500  0.40519100  0.27724600  1
  O  O44  1  0.17675400  0.57706900  0.00000000  1
  O  O45  1  0.82324600  0.07706900  0.00000000  1
  O  O46  1  0.93799300  0.36095300  0.00000000  1
  O  O47  1  0.06200700  0.86095300  0.00000000  1
