# generated using pymatgen
data_RbNaB4H4O13
_symmetry_space_group_name_H-M   'P 1'
_cell_length_a   11.23690700
_cell_length_b   7.67799500
_cell_length_c   13.39259141
_cell_angle_alpha   83.81452892
_cell_angle_beta   90.00000000
_cell_angle_gamma   90.00000000
_symmetry_Int_Tables_number   1
_chemical_formula_structural   RbNaB4H4O13
_chemical_formula_sum   'Rb4 Na4 B16 H16 O52'
_cell_volume   1148.74469324
_cell_formula_units_Z   4
loop_
 _symmetry_equiv_pos_site_id
 _symmetry_equiv_pos_as_xyz
  1  'x, y, z'
loop_
 _atom_site_type_symbol
 _atom_site_label
 _atom_site_symmetry_multiplicity
 _atom_site_fract_x
 _atom_site_fract_y
 _atom_site_fract_z
 _atom_site_occupancy
  Rb  Rb0  1  0.60513700  0.96781400  0.63532600  1
  Rb  Rb1  1  0.10513700  0.03218600  0.86467400  1
  Rb  Rb2  1  0.39486300  0.03218600  0.36467400  1
  Rb  Rb3  1  0.89486300  0.96781400  0.13532600  1
  Na  Na4  1  0.59306700  0.90535700  0.92308200  1
  Na  Na5  1  0.09306700  0.09464300  0.57691800  1
  Na  Na6  1  0.40693300  0.09464300  0.07691800  1
  Na  Na7  1  0.90693300  0.90535700  0.42308200  1
  B  B8  1  0.59240900  0.35466700  0.40660300  1
  B  B9  1  0.09240900  0.64533300  0.09339700  1
  B  B10  1  0.40759100  0.64533300  0.59339700  1
  B  B11  1  0.90759100  0.35466700  0.90660300  1
  B  B12  1  0.82182000  0.61298400  0.29790100  1
  B  B13  1  0.32182000  0.38701600  0.20209900  1
  B  B14  1  0.17818000  0.38701600  0.70209900  1
  B  B15  1  0.67818000  0.61298400  0.79790100  1
  B  B16  1  0.60617400  0.63107700  0.28718500  1
  B  B17  1  0.10617400  0.36892300  0.21281500  1
  B  B18  1  0.39382600  0.36892300  0.71281500  1
  B  B19  1  0.89382600  0.63107700  0.78718500  1
  B  B20  1  0.70569100  0.35702400  0.24817200  1
  B  B21  1  0.20569100  0.64297600  0.25182800  1
  B  B22  1  0.29430900  0.64297600  0.75182800  1
  B  B23  1  0.79430900  0.35702400  0.74817200  1
  H  H24  1  0.56027800  0.30889800  0.76045200  1
  H  H25  1  0.06027800  0.69110200  0.73954800  1
  H  H26  1  0.43972200  0.69110200  0.23954800  1
  H  H27  1  0.93972200  0.30889800  0.26045200  1
  H  H28  1  0.50492400  0.34335900  0.53709800  1
  H  H29  1  0.00492400  0.65664100  0.96290200  1
  H  H30  1  0.49507600  0.65664100  0.46290200  1
  H  H31  1  0.99507600  0.34335900  0.03709800  1
  H  H32  1  0.77079300  0.30570600  0.60735300  1
  H  H33  1  0.27079300  0.69429400  0.89264700  1
  H  H34  1  0.22920700  0.69429400  0.39264700  1
  H  H35  1  0.72920700  0.30570600  0.10735300  1
  H  H36  1  0.99971500  0.61513700  0.31249100  1
  H  H37  1  0.49971500  0.38486300  0.18750900  1
  H  H38  1  0.00028500  0.38486300  0.68750900  1
  H  H39  1  0.50028500  0.61513700  0.81249100  1
  O  O40  1  0.61612800  0.49730500  0.21476500  1
  O  O41  1  0.11612800  0.50269500  0.28523500  1
  O  O42  1  0.38387200  0.50269500  0.78523500  1
  O  O43  1  0.88387200  0.49730500  0.71476500  1
  O  O44  1  0.81905500  0.44269200  0.27575900  1
  O  O45  1  0.31905500  0.55730800  0.22424100  1
  O  O46  1  0.18094500  0.55730800  0.72424100  1
  O  O47  1  0.68094500  0.44269200  0.77575900  1
  O  O48  1  0.65276400  0.26134500  0.34081600  1
  O  O49  1  0.15276400  0.73865500  0.15918400  1
  O  O50  1  0.34723600  0.73865500  0.65918400  1
  O  O51  1  0.84723600  0.26134500  0.84081600  1
  O  O52  1  0.57004600  0.53219600  0.38589800  1
  O  O53  1  0.07004600  0.46780400  0.11410200  1
  O  O54  1  0.42995400  0.46780400  0.61410200  1
  O  O55  1  0.92995400  0.53219600  0.88589800  1
  O  O56  1  0.72127100  0.71656700  0.29769900  1
  O  O57  1  0.22127100  0.28343300  0.20230100  1
  O  O58  1  0.27872900  0.28343300  0.70230100  1
  O  O59  1  0.77872900  0.71656700  0.79769900  1
  O  O60  1  0.51155600  0.75795000  0.25867400  1
  O  O61  1  0.01155600  0.24205000  0.24132600  1
  O  O62  1  0.48844400  0.24205000  0.74132600  1
  O  O63  1  0.98844400  0.75795000  0.75867400  1
  O  O64  1  0.54938900  0.26621400  0.49442700  1
  O  O65  1  0.04938900  0.73378600  0.00557300  1
  O  O66  1  0.45061100  0.73378600  0.50557300  1
  O  O67  1  0.95061100  0.26621400  0.99442700  1
  O  O68  1  0.72440700  0.23947000  0.17309400  1
  O  O69  1  0.22440700  0.76053000  0.32690600  1
  O  O70  1  0.27559300  0.76053000  0.82690600  1
  O  O71  1  0.77559300  0.23947000  0.67309400  1
  O  O72  1  0.92813900  0.69375600  0.31630800  1
  O  O73  1  0.42813900  0.30624400  0.18369200  1
  O  O74  1  0.07186100  0.30624400  0.68369200  1
  O  O75  1  0.57186100  0.69375600  0.81630800  1
  O  O76  1  0.69897300  0.96603000  0.40908800  1
  O  O77  1  0.19897300  0.03397000  0.09091200  1
  O  O78  1  0.30102700  0.03397000  0.59091200  1
  O  O79  1  0.80102700  0.96603000  0.90908800  1
  O  O80  1  0.54067500  0.30017800  0.96028300  1
  O  O81  1  0.04067500  0.69982200  0.53971700  1
  O  O82  1  0.45932500  0.69982200  0.03971700  1
  O  O83  1  0.95932500  0.30017800  0.46028300  1
  O  O84  1  0.64281300  0.65865200  0.06436000  1
  O  O85  1  0.14281300  0.34134800  0.43564000  1
  O  O86  1  0.35718700  0.34134800  0.93564000  1
  O  O87  1  0.85718700  0.65865200  0.56436000  1
  O  O88  1  0.56303200  0.88883400  0.10710100  1
  O  O89  1  0.06303200  0.11116600  0.39289900  1
  O  O90  1  0.43696800  0.11116600  0.89289900  1
  O  O91  1  0.93696800  0.88883400  0.60710100  1
