# generated using pymatgen
data_SiC
_symmetry_space_group_name_H-M   'P 1'
_cell_length_a   3.09819922
_cell_length_b   3.09819922
_cell_length_c   63.19012442
_cell_angle_alpha   88.59525918
_cell_angle_beta   88.59525918
_cell_angle_gamma   60.00001675
_symmetry_Int_Tables_number   1
_chemical_formula_structural   SiC
_chemical_formula_sum   'Si25 C25'
_cell_volume   525.07884755
_cell_formula_units_Z   25
loop_
 _symmetry_equiv_pos_site_id
 _symmetry_equiv_pos_as_xyz
  1  'x, y, z'
loop_
 _atom_site_type_symbol
 _atom_site_label
 _atom_site_symmetry_multiplicity
 _atom_site_fract_x
 _atom_site_fract_y
 _atom_site_fract_z
 _atom_site_occupancy
  Si  Si0  1  0.00001900  0.00001900  0.99994400  1
  Si  Si1  1  0.96002900  0.96002900  0.11991400  1
  Si  Si2  1  0.90686900  0.90686900  0.27939300  1
  Si  Si3  1  0.88005400  0.88005400  0.35983900  1
  Si  Si4  1  0.85317800  0.85317800  0.44046500  1
  Si  Si5  1  0.79996400  0.79996400  0.60010800  1
  Si  Si6  1  0.74668400  0.74668400  0.75994700  1
  Si  Si7  1  0.72002400  0.72002400  0.83992800  1
  Si  Si8  1  0.69334700  0.69334700  0.91995800  1
  Si  Si9  1  0.64001700  0.64001700  0.07995000  1
  Si  Si10  1  0.61340900  0.61340900  0.15977400  1
  Si  Si11  1  0.58683800  0.58683800  0.23948700  1
  Si  Si12  1  0.53326700  0.53326700  0.40020000  1
  Si  Si13  1  0.49320300  0.49320300  0.52039200  1
  Si  Si14  1  0.44000700  0.44000700  0.67998000  1
  Si  Si15  1  0.40001200  0.40001200  0.79996300  1
  Si  Si16  1  0.34669000  0.34669000  0.95993000  1
  Si  Si17  1  0.32001700  0.32001700  0.03995000  1
  Si  Si18  1  0.26678900  0.26678900  0.19963300  1
  Si  Si19  1  0.22681700  0.22681700  0.31955000  1
  Si  Si20  1  0.17317900  0.17317900  0.48046300  1
  Si  Si21  1  0.14659000  0.14659000  0.56022900  1
  Si  Si22  1  0.11999900  0.11999900  0.64000200  1
  Si  Si23  1  0.09333800  0.09333800  0.71998700  1
  Si  Si24  1  0.04002000  0.04002000  0.87993900  1
  C  C25  1  0.98996600  0.98996600  0.03010200  1
  C  C26  1  0.95000800  0.95000800  0.14997700  1
  C  C27  1  0.89683400  0.89683400  0.30949700  1
  C  C28  1  0.86995700  0.86995700  0.39012800  1
  C  C29  1  0.84314400  0.84314400  0.47056700  1
  C  C30  1  0.78994000  0.78994000  0.63018100  1
  C  C31  1  0.73667000  0.73667000  0.78999100  1
  C  C32  1  0.70999500  0.70999500  0.87001400  1
  C  C33  1  0.68333000  0.68333000  0.95000900  1
  C  C34  1  0.63001700  0.63001700  0.10994900  1
  C  C35  1  0.60342800  0.60342800  0.18971500  1
  C  C36  1  0.57683100  0.57683100  0.26950700  1
  C  C37  1  0.52315600  0.52315600  0.43053100  1
  C  C38  1  0.48318800  0.48318800  0.55043500  1
  C  C39  1  0.42997700  0.42997700  0.71006900  1
  C  C40  1  0.38995700  0.38995700  0.83013000  1
  C  C41  1  0.33667500  0.33667500  0.98997500  1
  C  C42  1  0.30999900  0.30999900  0.07000200  1
  C  C43  1  0.25677100  0.25677100  0.22968600  1
  C  C44  1  0.21671000  0.21671000  0.34986900  1
  C  C45  1  0.16318200  0.16318200  0.51045500  1
  C  C46  1  0.13660000  0.13660000  0.59019900  1
  C  C47  1  0.11000200  0.11000200  0.66999300  1
  C  C48  1  0.08333300  0.08333300  0.75000100  1
  C  C49  1  0.02996800  0.02996800  0.91009500  1
