# generated using pymatgen
data_CaTi2FeO6
_symmetry_space_group_name_H-M   'P 1'
_cell_length_a   7.57350700
_cell_length_b   7.57350700
_cell_length_c   7.62645800
_cell_angle_alpha   90.00000000
_cell_angle_beta   90.00000000
_cell_angle_gamma   90.00000000
_symmetry_Int_Tables_number   1
_chemical_formula_structural   CaTi2FeO6
_chemical_formula_sum   'Ca4 Ti8 Fe4 O24'
_cell_volume   437.43844110
_cell_formula_units_Z   4
loop_
 _symmetry_equiv_pos_site_id
 _symmetry_equiv_pos_as_xyz
  1  'x, y, z'
loop_
 _atom_site_type_symbol
 _atom_site_label
 _atom_site_symmetry_multiplicity
 _atom_site_fract_x
 _atom_site_fract_y
 _atom_site_fract_z
 _atom_site_occupancy
  Ca  Ca0  1  0.00000000  0.50000000  0.02806200  1
  Ca  Ca1  1  0.00000000  0.50000000  0.52806200  1
  Ca  Ca2  1  0.50000000  0.00000000  0.47193800  1
  Ca  Ca3  1  0.50000000  0.00000000  0.97193800  1
  Ti  Ti4  1  0.75000000  0.25000000  0.25000000  1
  Ti  Ti5  1  0.25000000  0.25000000  0.25000000  1
  Ti  Ti6  1  0.75000000  0.75000000  0.25000000  1
  Ti  Ti7  1  0.25000000  0.75000000  0.25000000  1
  Ti  Ti8  1  0.75000000  0.25000000  0.75000000  1
  Ti  Ti9  1  0.25000000  0.25000000  0.75000000  1
  Ti  Ti10  1  0.75000000  0.75000000  0.75000000  1
  Ti  Ti11  1  0.25000000  0.75000000  0.75000000  1
  Fe  Fe12  1  0.00000000  0.00000000  0.00000000  1
  Fe  Fe13  1  0.50000000  0.50000000  0.50000000  1
  Fe  Fe14  1  0.00000000  0.00000000  0.50000000  1
  Fe  Fe15  1  0.50000000  0.50000000  0.00000000  1
  O  O16  1  0.00000000  0.69474900  0.78682000  1
  O  O17  1  0.00000000  0.30525100  0.78682000  1
  O  O18  1  0.19474900  0.50000000  0.28682000  1
  O  O19  1  0.80525100  0.50000000  0.28682000  1
  O  O20  1  0.50000000  0.80525100  0.71318000  1
  O  O21  1  0.50000000  0.19474900  0.71318000  1
  O  O22  1  0.30525100  0.00000000  0.21318000  1
  O  O23  1  0.69474900  0.00000000  0.21318000  1
  O  O24  1  0.29317700  0.50000000  0.67967700  1
  O  O25  1  0.70682300  0.50000000  0.67967700  1
  O  O26  1  0.00000000  0.79317700  0.17967700  1
  O  O27  1  0.00000000  0.20682300  0.17967700  1
  O  O28  1  0.20682300  0.00000000  0.82032300  1
  O  O29  1  0.79317700  0.00000000  0.82032300  1
  O  O30  1  0.50000000  0.70682300  0.32032300  1
  O  O31  1  0.50000000  0.29317700  0.32032300  1
  O  O32  1  0.69337100  0.69337100  0.00000000  1
  O  O33  1  0.30662900  0.69337100  0.00000000  1
  O  O34  1  0.69337100  0.30662900  0.00000000  1
  O  O35  1  0.30662900  0.30662900  0.00000000  1
  O  O36  1  0.19337100  0.19337100  0.50000000  1
  O  O37  1  0.80662900  0.19337100  0.50000000  1
  O  O38  1  0.19337100  0.80662900  0.50000000  1
  O  O39  1  0.80662900  0.80662900  0.50000000  1
