# generated using pymatgen
data_CoH14C2(NO)12
_symmetry_space_group_name_H-M   'P 1'
_cell_length_a   7.36492800
_cell_length_b   7.49774616
_cell_length_c   9.35019314
_cell_angle_alpha   97.66190511
_cell_angle_beta   96.40011071
_cell_angle_gamma   119.03320262
_symmetry_Int_Tables_number   1
_chemical_formula_structural   CoH14C2(NO)12
_chemical_formula_sum   'Co1 H14 C2 N12 O12'
_cell_volume   438.06438542
_cell_formula_units_Z   1
loop_
 _symmetry_equiv_pos_site_id
 _symmetry_equiv_pos_as_xyz
  1  'x, y, z'
loop_
 _atom_site_type_symbol
 _atom_site_label
 _atom_site_symmetry_multiplicity
 _atom_site_fract_x
 _atom_site_fract_y
 _atom_site_fract_z
 _atom_site_occupancy
  Co  Co0  1  0.00000000  0.50000000  0.00000000  1
  H  H1  1  0.25816400  0.92783500  0.04269600  1
  H  H2  1  0.74183600  0.07216500  0.95730400  1
  H  H3  1  0.27956000  0.83299100  0.88396700  1
  H  H4  1  0.72044000  0.16700900  0.11603300  1
  H  H5  1  0.33384600  0.61596600  0.40100000  1
  H  H6  1  0.66615400  0.38403400  0.59900000  1
  H  H7  1  0.00106400  0.81348700  0.47250100  1
  H  H8  1  0.99893600  0.18651300  0.52749900  1
  H  H9  1  0.21841800  0.78951500  0.55250500  1
  H  H10  1  0.78158200  0.21048500  0.44749500  1
  H  H11  1  0.39261300  0.62862100  0.14817000  1
  H  H12  1  0.60738700  0.37137900  0.85183000  1
  H  H13  1  0.23275300  0.38452800  0.16148200  1
  H  H14  1  0.76724700  0.61547200  0.83851800  1
  C  C15  1  0.09718600  0.67328900  0.32836300  1
  C  C16  1  0.90281400  0.32671100  0.67163700  1
  N  N17  1  0.24571900  0.52835900  0.16766800  1
  N  N18  1  0.75428100  0.47164100  0.83233200  1
  N  N19  1  0.23044800  0.60064100  0.31023000  1
  N  N20  1  0.76955200  0.39935900  0.68977000  1
  N  N21  1  0.10338900  0.75974400  0.46330800  1
  N  N22  1  0.89661100  0.24025600  0.53669200  1
  N  N23  1  0.96395800  0.64437700  0.20138800  1
  N  N24  1  0.03604200  0.35562300  0.79861200  1
  N  N25  1  0.82886200  0.71925800  0.20622300  1
  N  N26  1  0.17113800  0.28074200  0.79377700  1
  N  N27  1  0.53717600  0.80331000  0.70920200  1
  N  N28  1  0.46282400  0.19669000  0.29079800  1
  O  O29  1  0.71369700  0.68506800  0.08548200  1
  O  O30  1  0.28630300  0.31493200  0.91451800  1
  O  O31  1  0.81772800  0.81423800  0.32281600  1
  O  O32  1  0.18227200  0.18576200  0.67718400  1
  O  O33  1  0.20519600  0.79822400  0.96654800  1
  O  O34  1  0.79480400  0.20177600  0.03345200  1
  O  O35  1  0.69339600  0.86663500  0.81433700  1
  O  O36  1  0.30660400  0.13336500  0.18566300  1
  O  O37  1  0.40521700  0.86743300  0.72176700  1
  O  O38  1  0.59478300  0.13256700  0.27823300  1
  O  O39  1  0.51165200  0.67908100  0.59412600  1
  O  O40  1  0.48834800  0.32091900  0.40587400  1
