# generated using pymatgen
data_SrCr2O10
_symmetry_space_group_name_H-M   'P 1'
_cell_length_a   14.99764500
_cell_length_b   7.27632700
_cell_length_c   8.94150334
_cell_angle_alpha   73.87981661
_cell_angle_beta   90.00000000
_cell_angle_gamma   90.00000000
_symmetry_Int_Tables_number   1
_chemical_formula_structural   SrCr2O10
_chemical_formula_sum   'Sr4 Cr8 O40'
_cell_volume   937.40055368
_cell_formula_units_Z   4
loop_
 _symmetry_equiv_pos_site_id
 _symmetry_equiv_pos_as_xyz
  1  'x, y, z'
loop_
 _atom_site_type_symbol
 _atom_site_label
 _atom_site_symmetry_multiplicity
 _atom_site_fract_x
 _atom_site_fract_y
 _atom_site_fract_z
 _atom_site_occupancy
  Sr  Sr0  1  0.38278400  0.31334100  0.80676200  1
  Sr  Sr1  1  0.88278400  0.18665900  0.19323800  1
  Sr  Sr2  1  0.61721600  0.68665900  0.19323800  1
  Sr  Sr3  1  0.11721600  0.81334100  0.80676200  1
  Cr  Cr4  1  0.62982800  0.09668200  0.78778500  1
  Cr  Cr5  1  0.12982800  0.40331800  0.21221500  1
  Cr  Cr6  1  0.37017200  0.90331800  0.21221500  1
  Cr  Cr7  1  0.87017200  0.59668200  0.78778500  1
  Cr  Cr8  1  0.35800000  0.90349800  0.59824300  1
  Cr  Cr9  1  0.85800000  0.59650200  0.40175700  1
  Cr  Cr10  1  0.64200000  0.09650200  0.40175700  1
  Cr  Cr11  1  0.14200000  0.40349800  0.59824300  1
  O  O12  1  0.26822000  0.84348700  0.17074900  1
  O  O13  1  0.76822000  0.65651300  0.82925100  1
  O  O14  1  0.73178000  0.15651300  0.82925100  1
  O  O15  1  0.23178000  0.34348700  0.17074900  1
  O  O16  1  0.43949900  0.72900700  0.21687000  1
  O  O17  1  0.93949900  0.77099300  0.78313000  1
  O  O18  1  0.56050100  0.27099300  0.78313000  1
  O  O19  1  0.06050100  0.22900700  0.21687000  1
  O  O20  1  0.40049900  0.09023800  0.07306500  1
  O  O21  1  0.90049900  0.40976200  0.92693500  1
  O  O22  1  0.59950100  0.90976200  0.92693500  1
  O  O23  1  0.09950100  0.59023800  0.07306500  1
  O  O24  1  0.37120400  0.95725500  0.39368900  1
  O  O25  1  0.87120400  0.54274500  0.60631100  1
  O  O26  1  0.62879600  0.04274500  0.60631100  1
  O  O27  1  0.12879600  0.45725500  0.39368900  1
  O  O28  1  0.25171300  0.90433900  0.63918700  1
  O  O29  1  0.75171300  0.59566100  0.36081300  1
  O  O30  1  0.74828700  0.09566100  0.36081300  1
  O  O31  1  0.24828700  0.40433900  0.63918700  1
  O  O32  1  0.40772400  0.07067500  0.65855600  1
  O  O33  1  0.90772400  0.42932500  0.34144400  1
  O  O34  1  0.59227600  0.92932500  0.34144400  1
  O  O35  1  0.09227600  0.57067500  0.65855600  1
  O  O36  1  0.39940800  0.69385300  0.68764100  1
  O  O37  1  0.89940800  0.80614700  0.31235900  1
  O  O38  1  0.60059200  0.30614700  0.31235900  1
  O  O39  1  0.10059200  0.19385300  0.68764100  1
  O  O40  1  0.46267500  0.46362900  0.50207100  1
  O  O41  1  0.96267500  0.03637100  0.49792900  1
  O  O42  1  0.53732500  0.53637100  0.49792900  1
  O  O43  1  0.03732500  0.96362900  0.50207100  1
  O  O44  1  0.22554000  0.99686700  0.95533000  1
  O  O45  1  0.72554000  0.50313300  0.04467000  1
  O  O46  1  0.77446000  0.00313300  0.04467000  1
  O  O47  1  0.27446000  0.49686700  0.95533000  1
  O  O48  1  0.47892100  0.45330000  0.05796300  1
  O  O49  1  0.97892100  0.04670000  0.94203700  1
  O  O50  1  0.52107900  0.54670000  0.94203700  1
  O  O51  1  0.02107900  0.95330000  0.05796300  1
