# generated using pymatgen
data_Na3GaP6(NO4)6
_symmetry_space_group_name_H-M   'P 1'
_cell_length_a   8.76826010
_cell_length_b   9.13539779
_cell_length_c   8.49320828
_cell_angle_alpha   77.36662645
_cell_angle_beta   79.70407714
_cell_angle_gamma   76.77964592
_symmetry_Int_Tables_number   1
_chemical_formula_structural   Na3GaP6(NO4)6
_chemical_formula_sum   'Na3 Ga1 P6 N6 O24'
_cell_volume   640.29474520
_cell_formula_units_Z   1
loop_
 _symmetry_equiv_pos_site_id
 _symmetry_equiv_pos_as_xyz
  1  'x, y, z'
loop_
 _atom_site_type_symbol
 _atom_site_label
 _atom_site_symmetry_multiplicity
 _atom_site_fract_x
 _atom_site_fract_y
 _atom_site_fract_z
 _atom_site_occupancy
  Na  Na0  1  0.74487000  0.79714500  0.67121900  1
  Na  Na1  1  0.25513000  0.20285500  0.32878100  1
  Na  Na2  1  0.50000000  0.50000000  0.50000000  1
  Ga  Ga3  1  0.00000000  0.00000000  0.00000000  1
  P  P4  1  0.35552100  0.97834200  0.79435700  1
  P  P5  1  0.64447900  0.02165800  0.20564300  1
  P  P6  1  0.07962900  0.75927000  0.77304100  1
  P  P7  1  0.92037100  0.24073000  0.22695900  1
  P  P8  1  0.72381500  0.29674800  0.95115700  1
  P  P9  1  0.27618500  0.70325200  0.04884300  1
  N  N10  1  0.21685700  0.63851500  0.88517200  1
  N  N11  1  0.78314300  0.36148500  0.11482800  1
  N  N12  1  0.41433100  0.81150700  0.93261900  1
  N  N13  1  0.58566900  0.18849300  0.06738100  1
  N  N14  1  0.32980000  0.89133400  0.62011800  1
  N  N15  1  0.67020000  0.10866600  0.37988200  1
  O  O16  1  0.65430300  0.42811000  0.83465800  1
  O  O17  1  0.34569700  0.57189000  0.16534200  1
  O  O18  1  0.86893900  0.18309400  0.89674400  1
  O  O19  1  0.13106100  0.81690600  0.10325600  1
  O  O20  1  0.03945200  0.70146300  0.63886200  1
  O  O21  1  0.96054800  0.29853700  0.36113800  1
  O  O22  1  0.95807500  0.88158200  0.84728300  1
  O  O23  1  0.04192500  0.11841800  0.15271700  1
  O  O24  1  0.48851700  0.05697500  0.72523200  1
  O  O25  1  0.51148300  0.94302500  0.27476800  1
  O  O26  1  0.19195800  0.05836700  0.85394800  1
  O  O27  1  0.80804200  0.94163300  0.14605200  1
  O  O28  1  0.31087500  0.53180100  0.81790200  1
  O  O29  1  0.68912500  0.46819900  0.18209800  1
  O  O30  1  0.78719200  0.57600100  0.49473200  1
  O  O31  1  0.21280800  0.42399900  0.50526800  1
  O  O32  1  0.42411700  0.77079400  0.59478500  1
  O  O33  1  0.57588300  0.22920600  0.40521500  1
  O  O34  1  0.56400400  0.74822600  0.91201100  1
  O  O35  1  0.43599600  0.25177400  0.08798900  1
  O  O36  1  0.13274800  0.37796900  0.63398600  1
  O  O37  1  0.86725200  0.62203100  0.36601400  1
  O  O38  1  0.76296200  0.02781000  0.47678600  1
  O  O39  1  0.23703800  0.97219000  0.52321400  1
