# generated using pymatgen
data_Ca2H2S2O9
_symmetry_space_group_name_H-M   'P 1'
_cell_length_a   7.04789602
_cell_length_b   7.04789602
_cell_length_c   12.83271800
_cell_angle_alpha   90.00000000
_cell_angle_beta   90.00000000
_cell_angle_gamma   120.00000017
_symmetry_Int_Tables_number   1
_chemical_formula_structural   Ca2H2S2O9
_chemical_formula_sum   'Ca6 H6 S6 O27'
_cell_volume   552.03708983
_cell_formula_units_Z   3
loop_
 _symmetry_equiv_pos_site_id
 _symmetry_equiv_pos_as_xyz
  1  'x, y, z'
loop_
 _atom_site_type_symbol
 _atom_site_label
 _atom_site_symmetry_multiplicity
 _atom_site_fract_x
 _atom_site_fract_y
 _atom_site_fract_z
 _atom_site_occupancy
  Ca  Ca0  1  0.81242200  0.14850700  0.32968100  1
  Ca  Ca1  1  0.85149300  0.66391500  0.66301500  1
  Ca  Ca2  1  0.33608500  0.18757800  0.99634800  1
  Ca  Ca3  1  0.34113100  0.22001000  0.49265300  1
  Ca  Ca4  1  0.77999000  0.12112100  0.82598700  1
  Ca  Ca5  1  0.87887900  0.65886900  0.15932000  1
  H  H6  1  0.18962400  0.55415800  0.06455600  1
  H  H7  1  0.44584200  0.63546600  0.39789000  1
  H  H8  1  0.36453400  0.81037600  0.73122300  1
  H  H9  1  0.35648500  0.76185500  0.12369400  1
  H  H10  1  0.23814500  0.59462900  0.45702800  1
  H  H11  1  0.40537100  0.64351500  0.79036100  1
  S  S12  1  0.78526700  0.11100800  0.07820200  1
  S  S13  1  0.88899200  0.67425900  0.41153600  1
  S  S14  1  0.32574100  0.21473300  0.74486900  1
  S  S15  1  0.33584100  0.20507400  0.24220400  1
  S  S16  1  0.79492600  0.13076700  0.57553800  1
  S  S17  1  0.86923300  0.66415900  0.90887200  1
  O  O18  1  0.59791400  0.05499700  0.00618600  1
  O  O19  1  0.94500300  0.54291700  0.33952000  1
  O  O20  1  0.45708300  0.40208600  0.67285300  1
  O  O21  1  0.80926300  0.28086800  0.15452900  1
  O  O22  1  0.71913200  0.52839500  0.48786300  1
  O  O23  1  0.47160500  0.19073700  0.82119600  1
  O  O24  1  0.74272300  0.91599700  0.14089400  1
  O  O25  1  0.08400300  0.82672600  0.47422800  1
  O  O26  1  0.17327400  0.25727700  0.80756100  1
  O  O27  1  0.98550100  0.19511400  0.01152100  1
  O  O28  1  0.80488600  0.79038700  0.34485500  1
  O  O29  1  0.20961300  0.01449900  0.67818800  1
  O  O30  1  0.19005300  0.25225400  0.30735000  1
  O  O31  1  0.74774600  0.93779900  0.64068400  1
  O  O32  1  0.06220100  0.80994700  0.97401700  1
  O  O33  1  0.48143700  0.39531800  0.17551000  1
  O  O34  1  0.60468200  0.08611900  0.50884400  1
  O  O35  1  0.91388100  0.51856300  0.84217700  1
  O  O36  1  0.46411100  0.14808200  0.31604900  1
  O  O37  1  0.85191800  0.31603000  0.64938300  1
  O  O38  1  0.68397000  0.53588900  0.98271600  1
  O  O39  1  0.20473100  0.01908200  0.16953900  1
  O  O40  1  0.98091800  0.18564900  0.50287300  1
  O  O41  1  0.81435100  0.79526900  0.83620600  1
  O  O42  1  0.21247200  0.63112500  0.13042700  1
  O  O43  1  0.36887500  0.58134700  0.46376100  1
  O  O44  1  0.41865300  0.78752800  0.79709400  1
