# generated using pymatgen
data_Ba(SO2)2
_symmetry_space_group_name_H-M   'P 1'
_cell_length_a   7.59988000
_cell_length_b   7.67817300
_cell_length_c   18.24775000
_cell_angle_alpha   90.00000000
_cell_angle_beta   90.00000000
_cell_angle_gamma   90.00000000
_symmetry_Int_Tables_number   1
_chemical_formula_structural   Ba(SO2)2
_chemical_formula_sum   'Ba8 S16 O32'
_cell_volume   1064.81448522
_cell_formula_units_Z   8
loop_
 _symmetry_equiv_pos_site_id
 _symmetry_equiv_pos_as_xyz
  1  'x, y, z'
loop_
 _atom_site_type_symbol
 _atom_site_label
 _atom_site_symmetry_multiplicity
 _atom_site_fract_x
 _atom_site_fract_y
 _atom_site_fract_z
 _atom_site_occupancy
  Ba  Ba0  1  0.79643200  0.51176500  0.14585500  1
  Ba  Ba1  1  0.70356800  0.01176500  0.35414500  1
  Ba  Ba2  1  0.70356800  0.48823500  0.64585500  1
  Ba  Ba3  1  0.79643200  0.98823500  0.85414500  1
  Ba  Ba4  1  0.20356800  0.48823500  0.85414500  1
  Ba  Ba5  1  0.29643200  0.98823500  0.64585500  1
  Ba  Ba6  1  0.29643200  0.51176500  0.35414500  1
  Ba  Ba7  1  0.20356800  0.01176500  0.14585500  1
  S  S8  1  0.35383500  0.58590600  0.04805000  1
  S  S9  1  0.14616500  0.08590600  0.45195000  1
  S  S10  1  0.14616500  0.41409400  0.54805000  1
  S  S11  1  0.35383500  0.91409400  0.95195000  1
  S  S12  1  0.64616500  0.41409400  0.95195000  1
  S  S13  1  0.85383500  0.91409400  0.54805000  1
  S  S14  1  0.85383500  0.58590600  0.45195000  1
  S  S15  1  0.64616500  0.08590600  0.04805000  1
  S  S16  1  0.27621300  0.51516000  0.15621700  1
  S  S17  1  0.22378700  0.01516000  0.34378300  1
  S  S18  1  0.22378700  0.48484000  0.65621700  1
  S  S19  1  0.27621300  0.98484000  0.84378300  1
  S  S20  1  0.72378700  0.48484000  0.84378300  1
  S  S21  1  0.77621300  0.98484000  0.65621700  1
  S  S22  1  0.77621300  0.51516000  0.34378300  1
  S  S23  1  0.72378700  0.01516000  0.15621700  1
  O  O24  1  0.19374500  0.66661800  0.19491600  1
  O  O25  1  0.30625500  0.16661800  0.30508400  1
  O  O26  1  0.30625500  0.33338200  0.69491600  1
  O  O27  1  0.19374500  0.83338200  0.80508400  1
  O  O28  1  0.80625500  0.33338200  0.80508400  1
  O  O29  1  0.69374500  0.83338200  0.69491600  1
  O  O30  1  0.69374500  0.66661800  0.30508400  1
  O  O31  1  0.80625500  0.16661800  0.19491600  1
  O  O32  1  0.14479300  0.37160800  0.15055100  1
  O  O33  1  0.35520700  0.87160800  0.34944900  1
  O  O34  1  0.35520700  0.62839200  0.65055100  1
  O  O35  1  0.14479300  0.12839200  0.84944900  1
  O  O36  1  0.85520700  0.62839200  0.84944900  1
  O  O37  1  0.64479300  0.12839200  0.65055100  1
  O  O38  1  0.64479300  0.37160800  0.34944900  1
  O  O39  1  0.85520700  0.87160800  0.15055100  1
  O  O40  1  0.43850400  0.46140500  0.19560700  1
  O  O41  1  0.06149600  0.96140500  0.30439300  1
  O  O42  1  0.06149600  0.53859500  0.69560700  1
  O  O43  1  0.43850400  0.03859500  0.80439300  1
  O  O44  1  0.56149600  0.53859500  0.80439300  1
  O  O45  1  0.93850400  0.03859500  0.69560700  1
  O  O46  1  0.93850400  0.46140500  0.30439300  1
  O  O47  1  0.56149600  0.96140500  0.19560700  1
  O  O48  1  0.77626600  0.50834000  0.00438100  1
  O  O49  1  0.72373400  0.00834000  0.49561900  1
  O  O50  1  0.72373400  0.49166000  0.50438100  1
  O  O51  1  0.77626600  0.99166000  0.99561900  1
  O  O52  1  0.22373400  0.49166000  0.99561900  1
  O  O53  1  0.27626600  0.99166000  0.50438100  1
  O  O54  1  0.27626600  0.50834000  0.49561900  1
  O  O55  1  0.22373400  0.00834000  0.00438100  1
