# generated using pymatgen
data_Ho5Sb2Pd
_symmetry_space_group_name_H-M   'P 1'
_cell_length_a   7.92654200
_cell_length_b   8.93420500
_cell_length_c   12.12185100
_cell_angle_alpha   90.00000000
_cell_angle_beta   90.00000000
_cell_angle_gamma   90.00000000
_symmetry_Int_Tables_number   1
_chemical_formula_structural   Ho5Sb2Pd
_chemical_formula_sum   'Ho20 Sb8 Pd4'
_cell_volume   858.43737909
_cell_formula_units_Z   4
loop_
 _symmetry_equiv_pos_site_id
 _symmetry_equiv_pos_as_xyz
  1  'x, y, z'
loop_
 _atom_site_type_symbol
 _atom_site_label
 _atom_site_symmetry_multiplicity
 _atom_site_fract_x
 _atom_site_fract_y
 _atom_site_fract_z
 _atom_site_occupancy
  Ho  Ho0  1  0.16816400  0.75000000  0.21447100  1
  Ho  Ho1  1  0.33183600  0.75000000  0.71447100  1
  Ho  Ho2  1  0.83183600  0.25000000  0.78552900  1
  Ho  Ho3  1  0.66816400  0.25000000  0.28552900  1
  Ho  Ho4  1  0.46108300  0.75000000  0.00089900  1
  Ho  Ho5  1  0.03891700  0.75000000  0.50089900  1
  Ho  Ho6  1  0.53891700  0.25000000  0.99910100  1
  Ho  Ho7  1  0.96108300  0.25000000  0.49910100  1
  Ho  Ho8  1  0.63782700  0.75000000  0.29789900  1
  Ho  Ho9  1  0.86217300  0.75000000  0.79789900  1
  Ho  Ho10  1  0.36217300  0.25000000  0.70210100  1
  Ho  Ho11  1  0.13782700  0.25000000  0.20210100  1
  Ho  Ho12  1  0.81818600  0.54859700  0.06705300  1
  Ho  Ho13  1  0.68181400  0.95140300  0.56705300  1
  Ho  Ho14  1  0.18181400  0.04859700  0.93294700  1
  Ho  Ho15  1  0.31818600  0.45140300  0.43294700  1
  Ho  Ho16  1  0.18181400  0.45140300  0.93294700  1
  Ho  Ho17  1  0.31818600  0.04859700  0.43294700  1
  Ho  Ho18  1  0.81818600  0.95140300  0.06705300  1
  Ho  Ho19  1  0.68181400  0.54859700  0.56705300  1
  Sb  Sb20  1  0.93450200  0.50800000  0.32653900  1
  Sb  Sb21  1  0.56549800  0.99200000  0.82653900  1
  Sb  Sb22  1  0.06549800  0.00800000  0.67346100  1
  Sb  Sb23  1  0.43450200  0.49200000  0.17346100  1
  Sb  Sb24  1  0.06549800  0.49200000  0.67346100  1
  Sb  Sb25  1  0.43450200  0.00800000  0.17346100  1
  Sb  Sb26  1  0.93450200  0.99200000  0.32653900  1
  Sb  Sb27  1  0.56549800  0.50800000  0.82653900  1
  Pd  Pd28  1  0.41494100  0.75000000  0.48367000  1
  Pd  Pd29  1  0.08505900  0.75000000  0.98367000  1
  Pd  Pd30  1  0.58505900  0.25000000  0.51633000  1
  Pd  Pd31  1  0.91494100  0.25000000  0.01633000  1
