# generated using pymatgen
data_Na5CuS4(NO6)2
_symmetry_space_group_name_H-M   'P 1'
_cell_length_a   11.39338700
_cell_length_b   11.39338700
_cell_length_c   5.50696600
_cell_angle_alpha   90.00000000
_cell_angle_beta   90.00000000
_cell_angle_gamma   90.00000000
_symmetry_Int_Tables_number   1
_chemical_formula_structural   Na5CuS4(NO6)2
_chemical_formula_sum   'Na10 Cu2 S8 N4 O24'
_cell_volume   714.85522168
_cell_formula_units_Z   2
loop_
 _symmetry_equiv_pos_site_id
 _symmetry_equiv_pos_as_xyz
  1  'x, y, z'
loop_
 _atom_site_type_symbol
 _atom_site_label
 _atom_site_symmetry_multiplicity
 _atom_site_fract_x
 _atom_site_fract_y
 _atom_site_fract_z
 _atom_site_occupancy
  Na  Na0  1  0.50993400  0.23301700  0.74289500  1
  Na  Na1  1  0.49006600  0.76698300  0.74289500  1
  Na  Na2  1  0.23301700  0.49006600  0.25710500  1
  Na  Na3  1  0.76698300  0.50993400  0.25710500  1
  Na  Na4  1  0.80289900  0.27208700  0.78186200  1
  Na  Na5  1  0.19710100  0.72791300  0.78186200  1
  Na  Na6  1  0.27208700  0.19710100  0.21813800  1
  Na  Na7  1  0.72791300  0.80289900  0.21813800  1
  Na  Na8  1  0.00000000  0.50000000  0.78967400  1
  Na  Na9  1  0.50000000  0.00000000  0.21032600  1
  Cu  Cu10  1  0.00000000  0.00000000  0.50000000  1
  Cu  Cu11  1  0.00000000  0.00000000  0.00000000  1
  S  S12  1  0.86217300  0.90566400  0.75053600  1
  S  S13  1  0.13782700  0.09433600  0.75053600  1
  S  S14  1  0.90566400  0.13782700  0.24946400  1
  S  S15  1  0.09433600  0.86217300  0.24946400  1
  S  S16  1  0.69387200  0.97609000  0.72281300  1
  S  S17  1  0.30612800  0.02391000  0.72281300  1
  S  S18  1  0.97609000  0.30612800  0.27718700  1
  S  S19  1  0.02391000  0.69387200  0.27718700  1
  N  N20  1  0.29970500  0.39327300  0.74425000  1
  N  N21  1  0.70029500  0.60672700  0.74425000  1
  N  N22  1  0.39327300  0.70029500  0.25575000  1
  N  N23  1  0.60672700  0.29970500  0.25575000  1
  O  O24  1  0.69139900  0.10391100  0.76443300  1
  O  O25  1  0.30860100  0.89608900  0.76443300  1
  O  O26  1  0.10391100  0.30860100  0.23556700  1
  O  O27  1  0.89608900  0.69139900  0.23556700  1
  O  O28  1  0.64973200  0.94480400  0.47820800  1
  O  O29  1  0.35026800  0.05519600  0.47820800  1
  O  O30  1  0.94480400  0.35026800  0.52179200  1
  O  O31  1  0.05519600  0.64973200  0.52179200  1
  O  O32  1  0.62261500  0.91376000  0.91061700  1
  O  O33  1  0.37738500  0.08624000  0.91061700  1
  O  O34  1  0.91376000  0.37738500  0.08938300  1
  O  O35  1  0.08624000  0.62261500  0.08938300  1
  O  O36  1  0.34615400  0.35235400  0.55244800  1
  O  O37  1  0.65384600  0.64764600  0.55244800  1
  O  O38  1  0.35235400  0.65384600  0.44755200  1
  O  O39  1  0.64764600  0.34615400  0.44755200  1
  O  O40  1  0.34068800  0.36389600  0.94986900  1
  O  O41  1  0.65931200  0.63610400  0.94986900  1
  O  O42  1  0.36389600  0.65931200  0.05013100  1
  O  O43  1  0.63610400  0.34068800  0.05013100  1
  O  O44  1  0.21503600  0.46414800  0.72934400  1
  O  O45  1  0.78496400  0.53585200  0.72934400  1
  O  O46  1  0.46414800  0.78496400  0.27065600  1
  O  O47  1  0.53585200  0.21503600  0.27065600  1
