# generated using pymatgen
data_Fe3C9SeSO9
_symmetry_space_group_name_H-M   'P 1'
_cell_length_a   7.37215000
_cell_length_b   9.67176677
_cell_length_c   14.57255697
_cell_angle_alpha   84.74604322
_cell_angle_beta   82.56023212
_cell_angle_gamma   68.52439262
_symmetry_Int_Tables_number   1
_chemical_formula_structural   Fe3C9SeSO9
_chemical_formula_sum   'Fe6 C18 Se2 S2 O18'
_cell_volume   957.67205862
_cell_formula_units_Z   2
loop_
 _symmetry_equiv_pos_site_id
 _symmetry_equiv_pos_as_xyz
  1  'x, y, z'
loop_
 _atom_site_type_symbol
 _atom_site_label
 _atom_site_symmetry_multiplicity
 _atom_site_fract_x
 _atom_site_fract_y
 _atom_site_fract_z
 _atom_site_occupancy
  Fe  Fe0  1  0.15698900  0.26331200  0.84898700  1
  Fe  Fe1  1  0.84301100  0.73668800  0.15101300  1
  Fe  Fe2  1  0.07587300  0.20280700  0.65590100  1
  Fe  Fe3  1  0.92412700  0.79719300  0.34409900  1
  Fe  Fe4  1  0.22931500  0.90949500  0.76246800  1
  Fe  Fe5  1  0.77068500  0.09050500  0.23753200  1
  C  C6  1  0.21800900  0.18556700  0.97043900  1
  C  C7  1  0.78199100  0.81443300  0.02956100  1
  C  C8  1  0.30792100  0.37765100  0.82904900  1
  C  C9  1  0.69207900  0.62234900  0.17095100  1
  C  C10  1  0.93318100  0.42129900  0.87417000  1
  C  C11  1  0.06681900  0.57870100  0.12583000  1
  C  C12  1  0.13377100  0.38654400  0.61512200  1
  C  C13  1  0.86622900  0.61345600  0.38487800  1
  C  C14  1  0.79462400  0.29139300  0.60611100  1
  C  C15  1  0.20537600  0.70860700  0.39388900  1
  C  C16  1  0.18716600  0.07797000  0.54674400  1
  C  C17  1  0.81283400  0.92203000  0.45325600  1
  C  C18  1  0.03854100  0.82339500  0.73596500  1
  C  C19  1  0.96145900  0.17660500  0.26403500  1
  C  C20  1  0.43301400  0.77538400  0.68246600  1
  C  C21  1  0.56698600  0.22461600  0.31753400  1
  C  C22  1  0.29784100  0.79788300  0.88908000  1
  C  C23  1  0.70215900  0.20211700  0.11092000  1
  Se  Se24  1  0.41390900  0.07635400  0.75271800  1
  Se  Se25  1  0.58609100  0.92364600  0.24728200  1
  S  S26  1  0.97260200  0.13097300  0.80452900  1
  S  S27  1  0.02739800  0.86902700  0.19547100  1
  O  O28  1  0.26416700  0.12555200  0.04078300  1
  O  O29  1  0.73583300  0.87444800  0.95921700  1
  O  O30  1  0.40457500  0.45064500  0.81298100  1
  O  O31  1  0.59542500  0.54935500  0.18701900  1
  O  O32  1  0.78895500  0.52265900  0.88802600  1
  O  O33  1  0.21104500  0.47734100  0.11197400  1
  O  O34  1  0.16756400  0.49197400  0.58988300  1
  O  O35  1  0.83243600  0.50802600  0.41011700  1
  O  O36  1  0.63362300  0.32583500  0.59296600  1
  O  O37  1  0.36637700  0.67416500  0.40703400  1
  O  O38  1  0.26077100  0.01401200  0.48053900  1
  O  O39  1  0.73922900  0.98598800  0.51946100  1
  O  O40  1  0.92727800  0.77216700  0.72183000  1
  O  O41  1  0.07272200  0.22783300  0.27817000  1
  O  O42  1  0.55694000  0.69679200  0.63422500  1
  O  O43  1  0.44306000  0.30320800  0.36577500  1
  O  O44  1  0.33546700  0.75901600  0.96310500  1
  O  O45  1  0.66453300  0.24098400  0.03689500  1
