# generated using pymatgen
data_B8PbO15
_symmetry_space_group_name_H-M   'P 1'
_cell_length_a   13.67152500
_cell_length_b   8.19315300
_cell_length_c   12.92267918
_cell_angle_alpha   50.91343127
_cell_angle_beta   90.00000000
_cell_angle_gamma   90.00000000
_symmetry_Int_Tables_number   1
_chemical_formula_structural   B8PbO15
_chemical_formula_sum   'B32 Pb4 O60'
_cell_volume   1123.54636213
_cell_formula_units_Z   4
loop_
 _symmetry_equiv_pos_site_id
 _symmetry_equiv_pos_as_xyz
  1  'x, y, z'
loop_
 _atom_site_type_symbol
 _atom_site_label
 _atom_site_symmetry_multiplicity
 _atom_site_fract_x
 _atom_site_fract_y
 _atom_site_fract_z
 _atom_site_occupancy
  B  B0  1  0.17887100  0.80533400  0.49036400  1
  B  B1  1  0.67887100  0.19466600  0.00963600  1
  B  B2  1  0.82112900  0.19466600  0.50963600  1
  B  B3  1  0.32112900  0.80533400  0.99036400  1
  B  B4  1  0.81394800  0.46149300  0.24493500  1
  B  B5  1  0.31394800  0.53850700  0.25506500  1
  B  B6  1  0.18605200  0.53850700  0.75506500  1
  B  B7  1  0.68605200  0.46149300  0.74493500  1
  B  B8  1  0.92420100  0.94985900  0.25700900  1
  B  B9  1  0.42420100  0.05014100  0.24299100  1
  B  B10  1  0.07579900  0.05014100  0.74299100  1
  B  B11  1  0.57579900  0.94985900  0.75700900  1
  B  B12  1  0.96857100  0.38964800  0.37122300  1
  B  B13  1  0.46857100  0.61035200  0.12877700  1
  B  B14  1  0.03142900  0.61035200  0.62877700  1
  B  B15  1  0.53142900  0.38964800  0.87122300  1
  B  B16  1  0.69587500  0.13222400  0.38159500  1
  B  B17  1  0.19587500  0.86777600  0.11840500  1
  B  B18  1  0.30412500  0.86777600  0.61840500  1
  B  B19  1  0.80412500  0.13222400  0.88159500  1
  B  B20  1  0.56556600  0.18306200  0.49996200  1
  B  B21  1  0.06556600  0.81693800  0.00003800  1
  B  B22  1  0.43443400  0.81693800  0.50003800  1
  B  B23  1  0.93443400  0.18306200  0.99996200  1
  B  B24  1  0.24753300  0.16629300  0.38961100  1
  B  B25  1  0.74753300  0.83370700  0.11038900  1
  B  B26  1  0.75246700  0.83370700  0.61038900  1
  B  B27  1  0.25246700  0.16629300  0.88961100  1
  B  B28  1  0.23826700  0.69445900  0.35495300  1
  B  B29  1  0.73826700  0.30554100  0.14504700  1
  B  B30  1  0.76173300  0.30554100  0.64504700  1
  B  B31  1  0.26173300  0.69445900  0.85495300  1
  Pb  Pb32  1  0.67678300  0.74856600  0.37923200  1
  Pb  Pb33  1  0.17678300  0.25143400  0.12076800  1
  Pb  Pb34  1  0.32321700  0.25143400  0.62076800  1
  Pb  Pb35  1  0.82321700  0.74856600  0.87923200  1
  O  O36  1  0.78304600  0.25169200  0.37766300  1
  O  O37  1  0.28304600  0.74830800  0.12233700  1
  O  O38  1  0.21695400  0.74830800  0.62233700  1
  O  O39  1  0.71695400  0.25169200  0.87766300  1
  O  O40  1  0.91777800  0.49447400  0.25349800  1
  O  O41  1  0.41777800  0.50552600  0.24650200  1
  O  O42  1  0.08222200  0.50552600  0.74650200  1
  O  O43  1  0.58222200  0.49447400  0.75349800  1
  O  O44  1  0.29715800  0.55007700  0.36233100  1
  O  O45  1  0.79715800  0.44992300  0.13766900  1
  O  O46  1  0.70284200  0.44992300  0.63766900  1
  O  O47  1  0.20284200  0.55007700  0.86233100  1
  O  O48  1  0.69336700  0.14764200  0.26292200  1
  O  O49  1  0.19336700  0.85235800  0.23707800  1
  O  O50  1  0.30663300  0.85235800  0.73707800  1
  O  O51  1  0.80663300  0.14764200  0.76292200  1
  O  O52  1  0.19426800  0.03006600  0.38302400  1
  O  O53  1  0.69426800  0.96993400  0.11697600  1
  O  O54  1  0.80573200  0.96993400  0.61697600  1
  O  O55  1  0.30573200  0.03006600  0.88302400  1
  O  O56  1  0.25528500  0.37007100  0.27512600  1
  O  O57  1  0.75528500  0.62992900  0.22487400  1
  O  O58  1  0.74471500  0.62992900  0.72487400  1
  O  O59  1  0.24471500  0.37007100  0.77512600  1
  O  O60  1  0.60563300  0.21538000  0.39299500  1
  O  O61  1  0.10563300  0.78462000  0.10700500  1
  O  O62  1  0.39436700  0.78462000  0.60700500  1
  O  O63  1  0.89436700  0.21538000  0.89299500  1
  O  O64  1  0.40079700  0.97656700  0.37096500  1
  O  O65  1  0.90079700  0.02343300  0.12903500  1
  O  O66  1  0.59920300  0.02343300  0.62903500  1
  O  O67  1  0.09920300  0.97656700  0.87096500  1
  O  O68  1  0.70819800  0.90639900  0.49254300  1
  O  O69  1  0.20819800  0.09360100  0.00745700  1
  O  O70  1  0.29180200  0.09360100  0.50745700  1
  O  O71  1  0.79180200  0.90639900  0.99254300  1
  O  O72  1  0.49123300  0.30223900  0.49237800  1
  O  O73  1  0.99123300  0.69776100  0.00762200  1
  O  O74  1  0.50876700  0.69776100  0.50762200  1
  O  O75  1  0.00876700  0.30223900  0.99237800  1
  O  O76  1  0.07420900  0.76089600  0.50754400  1
  O  O77  1  0.57420900  0.23910400  0.99245600  1
  O  O78  1  0.92579100  0.23910400  0.49245600  1
  O  O79  1  0.42579100  0.76089600  0.00754400  1
  O  O80  1  0.00373100  0.03833000  0.26889500  1
  O  O81  1  0.50373100  0.96167000  0.23110500  1
  O  O82  1  0.99626900  0.96167000  0.73110500  1
  O  O83  1  0.49626900  0.03833000  0.76889500  1
  O  O84  1  0.23210400  0.67530100  0.46770400  1
  O  O85  1  0.73210400  0.32469900  0.03229600  1
  O  O86  1  0.76789600  0.32469900  0.53229600  1
  O  O87  1  0.26789600  0.67530100  0.96770400  1
  O  O88  1  0.86580400  0.80538900  0.36157800  1
  O  O89  1  0.36580400  0.19461100  0.13842200  1
  O  O90  1  0.13419600  0.19461100  0.63842200  1
  O  O91  1  0.63419600  0.80538900  0.86157800  1
  O  O92  1  0.06566000  0.43658900  0.37119200  1
  O  O93  1  0.56566000  0.56341100  0.12880800  1
  O  O94  1  0.93434000  0.56341100  0.62880800  1
  O  O95  1  0.43434000  0.43658900  0.87119200  1
