# generated using pymatgen
data_Ba4Ge20Pt3
_symmetry_space_group_name_H-M   'P 1'
_cell_length_a   10.89578600
_cell_length_b   10.89578600
_cell_length_c   10.89578600
_cell_angle_alpha   90.00000000
_cell_angle_beta   90.00000000
_cell_angle_gamma   90.00000000
_symmetry_Int_Tables_number   1
_chemical_formula_structural   Ba4Ge20Pt3
_chemical_formula_sum   'Ba8 Ge40 Pt6'
_cell_volume   1293.52758459
_cell_formula_units_Z   2
loop_
 _symmetry_equiv_pos_site_id
 _symmetry_equiv_pos_as_xyz
  1  'x, y, z'
loop_
 _atom_site_type_symbol
 _atom_site_label
 _atom_site_symmetry_multiplicity
 _atom_site_fract_x
 _atom_site_fract_y
 _atom_site_fract_z
 _atom_site_occupancy
  Ba  Ba0  1  0.50000000  0.50000000  0.50000000  1
  Ba  Ba1  1  0.00000000  0.00000000  0.00000000  1
  Ba  Ba2  1  0.00000000  0.25000000  0.50000000  1
  Ba  Ba3  1  0.75000000  0.50000000  0.00000000  1
  Ba  Ba4  1  0.50000000  0.00000000  0.75000000  1
  Ba  Ba5  1  0.00000000  0.75000000  0.50000000  1
  Ba  Ba6  1  0.25000000  0.50000000  0.00000000  1
  Ba  Ba7  1  0.50000000  0.00000000  0.25000000  1
  Ge  Ge8  1  0.68326600  0.31673400  0.68326600  1
  Ge  Ge9  1  0.31673400  0.68326600  0.31673400  1
  Ge  Ge10  1  0.68326600  0.68326600  0.31673400  1
  Ge  Ge11  1  0.31673400  0.31673400  0.68326600  1
  Ge  Ge12  1  0.31673400  0.68326600  0.68326600  1
  Ge  Ge13  1  0.68326600  0.31673400  0.31673400  1
  Ge  Ge14  1  0.31673400  0.31673400  0.31673400  1
  Ge  Ge15  1  0.68326600  0.68326600  0.68326600  1
  Ge  Ge16  1  0.18326600  0.18326600  0.81673400  1
  Ge  Ge17  1  0.81673400  0.81673400  0.18326600  1
  Ge  Ge18  1  0.18326600  0.81673400  0.18326600  1
  Ge  Ge19  1  0.81673400  0.18326600  0.81673400  1
  Ge  Ge20  1  0.81673400  0.18326600  0.18326600  1
  Ge  Ge21  1  0.18326600  0.81673400  0.81673400  1
  Ge  Ge22  1  0.81673400  0.81673400  0.81673400  1
  Ge  Ge23  1  0.18326600  0.18326600  0.18326600  1
  Ge  Ge24  1  0.62001500  0.18448700  0.50000000  1
  Ge  Ge25  1  0.81551300  0.50000000  0.62001500  1
  Ge  Ge26  1  0.50000000  0.37998500  0.81551300  1
  Ge  Ge27  1  0.37998500  0.81551300  0.50000000  1
  Ge  Ge28  1  0.18448700  0.50000000  0.37998500  1
  Ge  Ge29  1  0.50000000  0.62001500  0.18448700  1
  Ge  Ge30  1  0.62001500  0.81551300  0.50000000  1
  Ge  Ge31  1  0.81551300  0.50000000  0.37998500  1
  Ge  Ge32  1  0.37998500  0.18448700  0.50000000  1
  Ge  Ge33  1  0.18448700  0.50000000  0.62001500  1
  Ge  Ge34  1  0.50000000  0.62001500  0.81551300  1
  Ge  Ge35  1  0.50000000  0.37998500  0.18448700  1
  Ge  Ge36  1  0.12001500  0.00000000  0.68448700  1
  Ge  Ge37  1  0.31551300  0.12001500  0.00000000  1
  Ge  Ge38  1  0.00000000  0.31551300  0.87998500  1
  Ge  Ge39  1  0.87998500  0.00000000  0.31551300  1
  Ge  Ge40  1  0.68448700  0.87998500  0.00000000  1
  Ge  Ge41  1  0.00000000  0.68448700  0.12001500  1
  Ge  Ge42  1  0.12001500  0.00000000  0.31551300  1
  Ge  Ge43  1  0.31551300  0.87998500  0.00000000  1
  Ge  Ge44  1  0.87998500  0.00000000  0.68448700  1
  Ge  Ge45  1  0.68448700  0.12001500  0.00000000  1
  Ge  Ge46  1  0.00000000  0.31551300  0.12001500  1
  Ge  Ge47  1  0.00000000  0.68448700  0.87998500  1
  Pt  Pt48  1  0.00000000  0.50000000  0.75000000  1
  Pt  Pt49  1  0.50000000  0.25000000  0.00000000  1
  Pt  Pt50  1  0.75000000  0.00000000  0.50000000  1
  Pt  Pt51  1  0.00000000  0.50000000  0.25000000  1
  Pt  Pt52  1  0.50000000  0.75000000  0.00000000  1
  Pt  Pt53  1  0.25000000  0.00000000  0.50000000  1
