# generated using pymatgen
data_MnFeNF6
_symmetry_space_group_name_H-M   'P 1'
_cell_length_a   7.63956900
_cell_length_b   10.35606300
_cell_length_c   12.60765300
_cell_angle_alpha   90.00000000
_cell_angle_beta   90.00000000
_cell_angle_gamma   90.00000000
_symmetry_Int_Tables_number   1
_chemical_formula_structural   MnFeNF6
_chemical_formula_sum   'Mn8 Fe8 N8 F48'
_cell_volume   997.46528266
_cell_formula_units_Z   8
loop_
 _symmetry_equiv_pos_site_id
 _symmetry_equiv_pos_as_xyz
  1  'x, y, z'
loop_
 _atom_site_type_symbol
 _atom_site_label
 _atom_site_symmetry_multiplicity
 _atom_site_fract_x
 _atom_site_fract_y
 _atom_site_fract_z
 _atom_site_occupancy
  Mn  Mn0  1  0.24841900  0.31412600  0.09631200  1
  Mn  Mn1  1  0.75158100  0.68587400  0.09631200  1
  Mn  Mn2  1  0.74841900  0.68587400  0.59631200  1
  Mn  Mn3  1  0.25158100  0.31412600  0.59631200  1
  Mn  Mn4  1  0.74928200  0.18561100  0.88089600  1
  Mn  Mn5  1  0.25071800  0.81438900  0.88089600  1
  Mn  Mn6  1  0.24928200  0.81438900  0.38089600  1
  Mn  Mn7  1  0.75071800  0.18561100  0.38089600  1
  Fe  Fe8  1  0.25123200  0.67691100  0.09850500  1
  Fe  Fe9  1  0.74876800  0.32308900  0.09850500  1
  Fe  Fe10  1  0.75123200  0.32308900  0.59850500  1
  Fe  Fe11  1  0.24876800  0.67691100  0.59850500  1
  Fe  Fe12  1  0.24989400  0.17662700  0.87882300  1
  Fe  Fe13  1  0.75010600  0.82337300  0.87882300  1
  Fe  Fe14  1  0.74989400  0.82337300  0.37882300  1
  Fe  Fe15  1  0.25010600  0.17662700  0.37882300  1
  N  N16  1  0.50000000  0.50000000  0.83870700  1
  N  N17  1  0.00000000  0.50000000  0.33870700  1
  N  N18  1  0.50000000  0.50000000  0.31005500  1
  N  N19  1  0.00000000  0.50000000  0.81005500  1
  N  N20  1  0.50000000  0.00000000  0.62989000  1
  N  N21  1  0.00000000  0.00000000  0.12989000  1
  N  N22  1  0.50000000  0.00000000  0.17143100  1
  N  N23  1  0.00000000  0.00000000  0.67143100  1
  F  F24  1  0.28134900  0.49713500  0.63792400  1
  F  F25  1  0.71865100  0.50286500  0.63792400  1
  F  F26  1  0.78134900  0.50286500  0.13792400  1
  F  F27  1  0.21865100  0.49713500  0.13792400  1
  F  F28  1  0.22312800  0.64342200  0.94550100  1
  F  F29  1  0.77687200  0.35657800  0.94550100  1
  F  F30  1  0.72312800  0.35657800  0.44550100  1
  F  F31  1  0.27687200  0.64342200  0.44550100  1
  F  F32  1  0.28061400  0.14325800  0.03152100  1
  F  F33  1  0.71938600  0.85674200  0.03152100  1
  F  F34  1  0.78061400  0.85674200  0.53152100  1
  F  F35  1  0.21938600  0.14325800  0.53152100  1
  F  F36  1  0.21612600  0.25179200  0.73850800  1
  F  F37  1  0.78387400  0.74820800  0.73850800  1
  F  F38  1  0.71612600  0.74820800  0.23850800  1
  F  F39  1  0.28387400  0.25179200  0.23850800  1
  F  F40  1  0.00043200  0.29079100  0.11363600  1
  F  F41  1  0.99956800  0.70920900  0.11363600  1
  F  F42  1  0.50043200  0.70920900  0.61363600  1
  F  F43  1  0.49956800  0.29079100  0.61363600  1
  F  F44  1  0.50145700  0.20785000  0.86250800  1
  F  F45  1  0.49854300  0.79215000  0.86250800  1
  F  F46  1  0.00145700  0.79215000  0.36250800  1
  F  F47  1  0.99854300  0.20785000  0.36250800  1
  F  F48  1  0.28005100  0.99693200  0.83817500  1
  F  F49  1  0.71994900  0.00306800  0.83817500  1
  F  F50  1  0.78005100  0.00306800  0.33817500  1
  F  F51  1  0.21994900  0.99693200  0.33817500  1
  F  F52  1  0.22122300  0.34977300  0.94872900  1
  F  F53  1  0.77877700  0.65022700  0.94872900  1
  F  F54  1  0.72122300  0.65022700  0.44872900  1
  F  F55  1  0.27877700  0.34977300  0.44872900  1
  F  F56  1  0.72031900  0.14981500  0.02842900  1
  F  F57  1  0.27968100  0.85018500  0.02842900  1
  F  F58  1  0.22031900  0.85018500  0.52842900  1
  F  F59  1  0.77968100  0.14981500  0.52842900  1
  F  F60  1  0.78594100  0.24843000  0.73884700  1
  F  F61  1  0.21405900  0.75157000  0.73884700  1
  F  F62  1  0.28594100  0.75157000  0.23884700  1
  F  F63  1  0.71405900  0.24843000  0.23884700  1
  F  F64  1  0.49624100  0.34802700  0.08680000  1
  F  F65  1  0.50375900  0.65197300  0.08680000  1
  F  F66  1  0.99624100  0.65197300  0.58680000  1
  F  F67  1  0.00375900  0.34802700  0.58680000  1
  F  F68  1  0.99729400  0.15241900  0.89154300  1
  F  F69  1  0.00270600  0.84758100  0.89154300  1
  F  F70  1  0.49729400  0.84758100  0.39154300  1
  F  F71  1  0.50270600  0.15241900  0.39154300  1
