# generated using pymatgen
data_Al2P3O13
_symmetry_space_group_name_H-M   'P 1'
_cell_length_a   10.61956300
_cell_length_b   7.48839700
_cell_length_c   7.82523715
_cell_angle_alpha   71.57793404
_cell_angle_beta   90.00000000
_cell_angle_gamma   90.00000000
_symmetry_Int_Tables_number   1
_chemical_formula_structural   Al2P3O13
_chemical_formula_sum   'Al4 P6 O26'
_cell_volume   590.40062291
_cell_formula_units_Z   2
loop_
 _symmetry_equiv_pos_site_id
 _symmetry_equiv_pos_as_xyz
  1  'x, y, z'
loop_
 _atom_site_type_symbol
 _atom_site_label
 _atom_site_symmetry_multiplicity
 _atom_site_fract_x
 _atom_site_fract_y
 _atom_site_fract_z
 _atom_site_occupancy
  Al  Al0  1  0.39563600  0.03887300  0.58922800  1
  Al  Al1  1  0.89563600  0.96112700  0.41077200  1
  Al  Al2  1  0.62977300  0.40565300  0.01448900  1
  Al  Al3  1  0.12977300  0.59434700  0.98551100  1
  P  P4  1  0.60429600  0.09189700  0.41307600  1
  P  P5  1  0.10429600  0.90810300  0.58692400  1
  P  P6  1  0.41940800  0.33553000  0.77048000  1
  P  P7  1  0.91940800  0.66447000  0.22952000  1
  P  P8  1  0.39607100  0.65020500  0.91568300  1
  P  P9  1  0.89607100  0.34979500  0.08431700  1
  O  O10  1  0.35039300  0.16343000  0.76523900  1
  O  O11  1  0.85039300  0.83657000  0.23476100  1
  O  O12  1  0.78498300  0.31022300  0.97862100  1
  O  O13  1  0.28498300  0.68977700  0.02137900  1
  O  O14  1  0.54545500  0.30972300  0.86263000  1
  O  O15  1  0.04545500  0.69027700  0.13737000  1
  O  O16  1  0.83821200  0.52413500  0.15851000  1
  O  O17  1  0.33821200  0.47586500  0.84149000  1
  O  O18  1  0.47944400  0.98992100  0.39283800  1
  O  O19  1  0.97944400  0.01007900  0.60716200  1
  O  O20  1  0.42871700  0.80888600  0.74868100  1
  O  O21  1  0.92871700  0.19111400  0.25131900  1
  O  O22  1  0.22701800  0.02440800  0.54510200  1
  O  O23  1  0.72701800  0.97559200  0.45489800  1
  O  O24  1  0.50699200  0.56810500  0.03574300  1
  O  O25  1  0.00699200  0.43189500  0.96425700  1
  O  O26  1  0.62566400  0.26447600  0.24505700  1
  O  O27  1  0.12566400  0.73552400  0.75494300  1
  O  O28  1  0.56462200  0.14883200  0.58166700  1
  O  O29  1  0.06462200  0.85116800  0.41833300  1
  O  O30  1  0.39669900  0.38384800  0.43525600  1
  O  O31  1  0.89669900  0.61615200  0.56474400  1
  O  O32  1  0.70921100  0.61773100  0.85093100  1
  O  O33  1  0.20921100  0.38226900  0.14906900  1
  O  O34  1  0.43150500  0.47677800  0.54833400  1
  O  O35  1  0.93150500  0.52322200  0.45166600  1
