# generated using pymatgen
data_PbC4O5
_symmetry_space_group_name_H-M   'P 1'
_cell_length_a   4.00976200
_cell_length_b   9.99734182
_cell_length_c   13.96139860
_cell_angle_alpha   97.32572938
_cell_angle_beta   90.00000000
_cell_angle_gamma   90.00000000
_symmetry_Int_Tables_number   1
_chemical_formula_structural   PbC4O5
_chemical_formula_sum   'Pb4 C16 O20'
_cell_volume   555.10161709
_cell_formula_units_Z   4
loop_
 _symmetry_equiv_pos_site_id
 _symmetry_equiv_pos_as_xyz
  1  'x, y, z'
loop_
 _atom_site_type_symbol
 _atom_site_label
 _atom_site_symmetry_multiplicity
 _atom_site_fract_x
 _atom_site_fract_y
 _atom_site_fract_z
 _atom_site_occupancy
  Pb  Pb0  1  0.76124800  0.53798400  0.71278500  1
  Pb  Pb1  1  0.26124800  0.96201600  0.78721500  1
  Pb  Pb2  1  0.23875200  0.46201600  0.28721500  1
  Pb  Pb3  1  0.73875200  0.03798400  0.21278500  1
  C  C4  1  0.31057500  0.79599800  0.51034200  1
  C  C5  1  0.81057500  0.70400200  0.98965800  1
  C  C6  1  0.68942500  0.20400200  0.48965800  1
  C  C7  1  0.18942500  0.29599800  0.01034200  1
  C  C8  1  0.20781600  0.85320800  0.44436000  1
  C  C9  1  0.70781600  0.64679200  0.05564000  1
  C  C10  1  0.79218400  0.14679200  0.55564000  1
  C  C11  1  0.29218400  0.35320800  0.94436000  1
  C  C12  1  0.43990500  0.71844000  0.58207400  1
  C  C13  1  0.93990500  0.78156000  0.91792600  1
  C  C14  1  0.56009500  0.28156000  0.41792600  1
  C  C15  1  0.06009500  0.21844000  0.08207400  1
  C  C16  1  0.42574300  0.41378300  0.86414000  1
  C  C17  1  0.92574300  0.08621700  0.63586000  1
  C  C18  1  0.57425700  0.58621700  0.13586000  1
  C  C19  1  0.07425700  0.91378300  0.36414000  1
  O  O20  1  0.26121100  0.42746500  0.64830100  1
  O  O21  1  0.76121100  0.07253500  0.85169900  1
  O  O22  1  0.73878900  0.57253500  0.35169900  1
  O  O23  1  0.23878900  0.92746500  0.14830200  1
  O  O24  1  0.33241900  0.73772800  0.66966200  1
  O  O25  1  0.83241900  0.76227200  0.83033800  1
  O  O26  1  0.66758100  0.26227200  0.33033800  1
  O  O27  1  0.16758100  0.23772800  0.16966200  1
  O  O28  1  0.65575500  0.62875200  0.55436300  1
  O  O29  1  0.15575500  0.87124800  0.94563700  1
  O  O30  1  0.34424500  0.37124800  0.44563700  1
  O  O31  1  0.84424500  0.12875200  0.05436300  1
  O  O32  1  0.66717200  0.35349600  0.81822800  1
  O  O33  1  0.16717200  0.14650400  0.68177200  1
  O  O34  1  0.33282800  0.64650400  0.18177200  1
  O  O35  1  0.83282800  0.85349600  0.31822800  1
  O  O36  1  0.30070900  0.52472200  0.84358600  1
  O  O37  1  0.80070900  0.97527800  0.65641400  1
  O  O38  1  0.69929100  0.47527800  0.15641400  1
  O  O39  1  0.19929100  0.02472200  0.34358600  1
