# generated using pymatgen
data_BaB12(H2O)6
_symmetry_space_group_name_H-M   'P 1'
_cell_length_a   7.88068529
_cell_length_b   7.88068529
_cell_length_c   13.86038200
_cell_angle_alpha   90.00000000
_cell_angle_beta   90.00000000
_cell_angle_gamma   99.42866613
_symmetry_Int_Tables_number   1
_chemical_formula_structural   BaB12(H2O)6
_chemical_formula_sum   'Ba2 B24 H24 O12'
_cell_volume   849.17265167
_cell_formula_units_Z   2
loop_
 _symmetry_equiv_pos_site_id
 _symmetry_equiv_pos_as_xyz
  1  'x, y, z'
loop_
 _atom_site_type_symbol
 _atom_site_label
 _atom_site_symmetry_multiplicity
 _atom_site_fract_x
 _atom_site_fract_y
 _atom_site_fract_z
 _atom_site_occupancy
  Ba  Ba0  1  0.76137300  0.76137300  0.25000000  1
  Ba  Ba1  1  0.23862700  0.23862700  0.75000000  1
  B  B2  1  0.33571900  0.33571900  0.97786300  1
  B  B3  1  0.66428100  0.66428100  0.02213700  1
  B  B4  1  0.33571900  0.33571900  0.52213700  1
  B  B5  1  0.66428100  0.66428100  0.47786300  1
  B  B6  1  0.39941300  0.39941300  0.09669800  1
  B  B7  1  0.60058700  0.60058700  0.90330200  1
  B  B8  1  0.39941300  0.39941300  0.40330200  1
  B  B9  1  0.60058700  0.60058700  0.59669800  1
  B  B10  1  0.62472400  0.47640900  0.09553100  1
  B  B11  1  0.52359100  0.37527600  0.90446900  1
  B  B12  1  0.62472400  0.47640900  0.40446900  1
  B  B13  1  0.52359100  0.37527600  0.59553100  1
  B  B14  1  0.37527600  0.52359100  0.90446900  1
  B  B15  1  0.47640900  0.62472400  0.09553100  1
  B  B16  1  0.37527600  0.52359100  0.59553100  1
  B  B17  1  0.47640900  0.62472400  0.40446900  1
  B  B18  1  0.29750900  0.53836700  0.02355800  1
  B  B19  1  0.46163300  0.70249100  0.97644200  1
  B  B20  1  0.29750900  0.53836700  0.47644200  1
  B  B21  1  0.46163300  0.70249100  0.52355800  1
  B  B22  1  0.70249100  0.46163300  0.97644200  1
  B  B23  1  0.53836700  0.29750900  0.02355800  1
  B  B24  1  0.70249100  0.46163300  0.52355800  1
  B  B25  1  0.53836700  0.29750900  0.47644200  1
  H  H26  1  0.21932900  0.21932900  0.96075800  1
  H  H27  1  0.78067100  0.78067100  0.03924200  1
  H  H28  1  0.21932900  0.21932900  0.53924200  1
  H  H29  1  0.78067100  0.78067100  0.46075800  1
  H  H30  1  0.33126200  0.33126200  0.16727800  1
  H  H31  1  0.66873800  0.66873800  0.83272200  1
  H  H32  1  0.33126200  0.33126200  0.33272200  1
  H  H33  1  0.66873800  0.66873800  0.66727800  1
  H  H34  1  0.71456300  0.45718500  0.16396900  1
  H  H35  1  0.54281500  0.28543700  0.83603100  1
  H  H36  1  0.71456300  0.45718500  0.33603100  1
  H  H37  1  0.54281500  0.28543700  0.66396900  1
  H  H38  1  0.28543700  0.54281500  0.83603100  1
  H  H39  1  0.45718500  0.71456300  0.16396900  1
  H  H40  1  0.28543700  0.54281500  0.66396900  1
  H  H41  1  0.45718500  0.71456300  0.33603100  1
  H  H42  1  0.15517900  0.56834200  0.03852600  1
  H  H43  1  0.43165800  0.84482100  0.96147400  1
  H  H44  1  0.15517900  0.56834200  0.46147400  1
  H  H45  1  0.43165800  0.84482100  0.53852600  1
  H  H46  1  0.84482100  0.43165800  0.96147400  1
  H  H47  1  0.56834200  0.15517900  0.03852600  1
  H  H48  1  0.84482100  0.43165800  0.53852600  1
  H  H49  1  0.56834200  0.15517900  0.46147400  1
  O  O50  1  0.85687900  0.20169300  0.25000000  1
  O  O51  1  0.79830700  0.14312100  0.75000000  1
  O  O52  1  0.14312100  0.79830700  0.75000000  1
  O  O53  1  0.20169300  0.85687900  0.25000000  1
  O  O54  1  0.83426900  0.11427900  0.32965700  1
  O  O55  1  0.88572100  0.16573100  0.67034300  1
  O  O56  1  0.83426900  0.11427900  0.17034300  1
  O  O57  1  0.88572100  0.16573100  0.82965700  1
  O  O58  1  0.16573100  0.88572100  0.67034300  1
  O  O59  1  0.11427900  0.83426900  0.32965700  1
  O  O60  1  0.16573100  0.88572100  0.82965700  1
  O  O61  1  0.11427900  0.83426900  0.17034300  1
