# generated using pymatgen
data_Cd3Pb2Se4(IO6)2
_symmetry_space_group_name_H-M   'P 1'
_cell_length_a   5.51473600
_cell_length_b   11.35540400
_cell_length_c   16.89537514
_cell_angle_alpha   60.85171029
_cell_angle_beta   90.00000000
_cell_angle_gamma   90.00000000
_symmetry_Int_Tables_number   1
_chemical_formula_structural   Cd3Pb2Se4(IO6)2
_chemical_formula_sum   'Cd6 Pb4 Se8 I4 O24'
_cell_volume   924.03720755
_cell_formula_units_Z   2
loop_
 _symmetry_equiv_pos_site_id
 _symmetry_equiv_pos_as_xyz
  1  'x, y, z'
loop_
 _atom_site_type_symbol
 _atom_site_label
 _atom_site_symmetry_multiplicity
 _atom_site_fract_x
 _atom_site_fract_y
 _atom_site_fract_z
 _atom_site_occupancy
  Cd  Cd0  1  0.69812300  0.50000000  0.25000000  1
  Cd  Cd1  1  0.30187700  0.50000000  0.75000000  1
  Cd  Cd2  1  0.78131600  0.50399000  0.90941500  1
  Cd  Cd3  1  0.78131600  0.49601000  0.59058500  1
  Cd  Cd4  1  0.21868400  0.49601000  0.09058500  1
  Cd  Cd5  1  0.21868400  0.50399000  0.40941500  1
  Pb  Pb6  1  0.25098300  0.20380300  0.00841200  1
  Pb  Pb7  1  0.25098300  0.79619700  0.49158800  1
  Pb  Pb8  1  0.74901700  0.79619700  0.99158800  1
  Pb  Pb9  1  0.74901700  0.20380300  0.50841200  1
  Se  Se10  1  0.74205200  0.29620700  0.13086800  1
  Se  Se11  1  0.74205200  0.70379300  0.36913200  1
  Se  Se12  1  0.25794800  0.70379300  0.86913200  1
  Se  Se13  1  0.25794800  0.29620700  0.63086800  1
  Se  Se14  1  0.74454600  0.26474800  0.84825100  1
  Se  Se15  1  0.74454600  0.73525200  0.65174900  1
  Se  Se16  1  0.25545400  0.73525200  0.15174900  1
  Se  Se17  1  0.25545400  0.26474800  0.34825100  1
  I  I18  1  0.74515700  0.99117300  0.10359500  1
  I  I19  1  0.74515700  0.00882700  0.39640500  1
  I  I20  1  0.25484300  0.00882700  0.89640500  1
  I  I21  1  0.25484300  0.99117300  0.60359500  1
  O  O22  1  0.81680200  0.42766700  0.14995100  1
  O  O23  1  0.81680200  0.57233300  0.35004900  1
  O  O24  1  0.18319800  0.57233300  0.85004900  1
  O  O25  1  0.18319800  0.42766700  0.64995100  1
  O  O26  1  0.95718600  0.34164500  0.04353000  1
  O  O27  1  0.95718600  0.65835500  0.45647000  1
  O  O28  1  0.04281400  0.65835500  0.95647000  1
  O  O29  1  0.04281400  0.34164500  0.54353000  1
  O  O30  1  0.48209300  0.35275500  0.06472600  1
  O  O31  1  0.48209300  0.64724500  0.43527400  1
  O  O32  1  0.51790700  0.64724500  0.93527400  1
  O  O33  1  0.51790700  0.35275500  0.56472600  1
  O  O34  1  0.53399100  0.34570600  0.88665000  1
  O  O35  1  0.53399100  0.65429400  0.61335000  1
  O  O36  1  0.46600900  0.65429400  0.11335000  1
  O  O37  1  0.46600900  0.34570600  0.38665000  1
  O  O38  1  0.00360700  0.34215300  0.86059800  1
  O  O39  1  0.00360700  0.65784700  0.63940200  1
  O  O40  1  0.99639300  0.65784700  0.13940200  1
  O  O41  1  0.99639300  0.34215300  0.36059800  1
  O  O42  1  0.66498300  0.34992000  0.73700600  1
  O  O43  1  0.66498300  0.65008000  0.76299400  1
  O  O44  1  0.33501700  0.65008000  0.26299400  1
  O  O45  1  0.33501700  0.34992000  0.23700600  1
