# generated using pymatgen
data_Pr5(SiN3)3
_symmetry_space_group_name_H-M   'P 1'
_cell_length_a   7.78838711
_cell_length_b   7.78838711
_cell_length_c   16.01169900
_cell_angle_alpha   90.00000000
_cell_angle_beta   90.00000000
_cell_angle_gamma   93.78336765
_symmetry_Int_Tables_number   1
_chemical_formula_structural   Pr5(SiN3)3
_chemical_formula_sum   'Pr20 Si12 N36'
_cell_volume   969.13654277
_cell_formula_units_Z   4
loop_
 _symmetry_equiv_pos_site_id
 _symmetry_equiv_pos_as_xyz
  1  'x, y, z'
loop_
 _atom_site_type_symbol
 _atom_site_label
 _atom_site_symmetry_multiplicity
 _atom_site_fract_x
 _atom_site_fract_y
 _atom_site_fract_z
 _atom_site_occupancy
  Pr  Pr0  1  0.01188000  0.98812000  0.33497200  1
  Pr  Pr1  1  0.98812000  0.01188000  0.66502800  1
  Pr  Pr2  1  0.48812000  0.51188000  0.83497200  1
  Pr  Pr3  1  0.51188000  0.48812000  0.16502800  1
  Pr  Pr4  1  0.95251500  0.46877300  0.36943900  1
  Pr  Pr5  1  0.46877300  0.95251500  0.63056100  1
  Pr  Pr6  1  0.96877300  0.45251500  0.86943900  1
  Pr  Pr7  1  0.45251500  0.96877300  0.13056100  1
  Pr  Pr8  1  0.04748500  0.53122700  0.63056100  1
  Pr  Pr9  1  0.53122700  0.04748500  0.36943900  1
  Pr  Pr10  1  0.03122700  0.54748500  0.13056100  1
  Pr  Pr11  1  0.54748500  0.03122700  0.86943900  1
  Pr  Pr12  1  0.99415400  0.00584600  0.11232200  1
  Pr  Pr13  1  0.00584600  0.99415400  0.88767800  1
  Pr  Pr14  1  0.50584600  0.49415400  0.61232200  1
  Pr  Pr15  1  0.49415400  0.50584600  0.38767800  1
  Pr  Pr16  1  0.79279800  0.79279800  0.50000000  1
  Pr  Pr17  1  0.29279800  0.29279800  0.00000000  1
  Pr  Pr18  1  0.20720200  0.20720200  0.50000000  1
  Pr  Pr19  1  0.70720200  0.70720200  0.00000000  1
  Si  Si20  1  0.74005600  0.25994400  0.51697700  1
  Si  Si21  1  0.25994400  0.74005600  0.48302300  1
  Si  Si22  1  0.75994400  0.24005600  0.01697700  1
  Si  Si23  1  0.24005600  0.75994400  0.98302300  1
  Si  Si24  1  0.27278500  0.72721500  0.27417600  1
  Si  Si25  1  0.72721500  0.27278500  0.72582400  1
  Si  Si26  1  0.22721500  0.77278500  0.77417600  1
  Si  Si27  1  0.77278500  0.22721500  0.22582400  1
  Si  Si28  1  0.21323500  0.28676500  0.25000000  1
  Si  Si29  1  0.28676500  0.21323500  0.75000000  1
  Si  Si30  1  0.78676500  0.71323500  0.75000000  1
  Si  Si31  1  0.71323500  0.78676500  0.25000000  1
  N  N32  1  0.15781900  0.84218100  0.20454200  1
  N  N33  1  0.84218100  0.15781900  0.79545800  1
  N  N34  1  0.34218100  0.65781900  0.70454200  1
  N  N35  1  0.65781900  0.34218100  0.29545800  1
  N  N36  1  0.22396000  0.77604000  0.37653800  1
  N  N37  1  0.77604000  0.22396000  0.62346200  1
  N  N38  1  0.27604000  0.72396000  0.87653800  1
  N  N39  1  0.72396000  0.27604000  0.12346200  1
  N  N40  1  0.74077100  0.00902700  0.24201700  1
  N  N41  1  0.00902700  0.74077100  0.75798300  1
  N  N42  1  0.50902700  0.24077100  0.74201700  1
  N  N43  1  0.24077100  0.50902700  0.25798300  1
  N  N44  1  0.25922900  0.99097300  0.75798300  1
  N  N45  1  0.99097300  0.25922900  0.24201700  1
  N  N46  1  0.49097300  0.75922900  0.25798300  1
  N  N47  1  0.75922900  0.49097300  0.74201700  1
  N  N48  1  0.79723300  0.72825400  0.34603400  1
  N  N49  1  0.72825400  0.79723300  0.65396600  1
  N  N50  1  0.22825400  0.29723300  0.84603400  1
  N  N51  1  0.29723300  0.22825400  0.15396600  1
  N  N52  1  0.20276700  0.27174600  0.65396600  1
  N  N53  1  0.27174600  0.20276700  0.34603400  1
  N  N54  1  0.77174600  0.70276700  0.15396600  1
  N  N55  1  0.70276700  0.77174600  0.84603400  1
  N  N56  1  0.77884200  0.48464900  0.50114600  1
  N  N57  1  0.48464900  0.77884200  0.49885400  1
  N  N58  1  0.98464900  0.27884200  0.00114600  1
  N  N59  1  0.27884200  0.98464900  0.99885400  1
  N  N60  1  0.22115800  0.51535100  0.49885400  1
  N  N61  1  0.51535100  0.22115800  0.50114600  1
  N  N62  1  0.01535100  0.72115800  0.99885400  1
  N  N63  1  0.72115800  0.01535100  0.00114600  1
  N  N64  1  0.86483400  0.13516600  0.45228300  1
  N  N65  1  0.13516600  0.86483400  0.54771700  1
  N  N66  1  0.63516600  0.36483400  0.95228300  1
  N  N67  1  0.36483400  0.63516600  0.04771700  1
