# generated using pymatgen
data_ZnS
_symmetry_space_group_name_H-M   'P 1'
_cell_length_a   3.87486876
_cell_length_b   3.87486876
_cell_length_c   56.55700154
_cell_angle_alpha   88.03687406
_cell_angle_beta   88.03687406
_cell_angle_gamma   59.99998705
_symmetry_Int_Tables_number   1
_chemical_formula_structural   ZnS
_chemical_formula_sum   'Zn18 S18'
_cell_volume   734.83683709
_cell_formula_units_Z   18
loop_
 _symmetry_equiv_pos_site_id
 _symmetry_equiv_pos_as_xyz
  1  'x, y, z'
loop_
 _atom_site_type_symbol
 _atom_site_label
 _atom_site_symmetry_multiplicity
 _atom_site_fract_x
 _atom_site_fract_y
 _atom_site_fract_z
 _atom_site_occupancy
  Zn  Zn0  1  0.99999300  0.99999300  0.00002100  1
  Zn  Zn1  1  0.94443800  0.94443800  0.16668600  1
  Zn  Zn2  1  0.88887900  0.88887900  0.33336300  1
  Zn  Zn3  1  0.85183800  0.85183800  0.44448700  1
  Zn  Zn4  1  0.75925600  0.75925600  0.72223300  1
  Zn  Zn5  1  0.72220900  0.72220900  0.83337400  1
  Zn  Zn6  1  0.62962900  0.62962900  0.11111400  1
  Zn  Zn7  1  0.57406300  0.57406300  0.27781000  1
  Zn  Zn8  1  0.49999200  0.49999200  0.50002500  1
  Zn  Zn9  1  0.46295300  0.46295300  0.61114000  1
  Zn  Zn10  1  0.40740500  0.40740500  0.77778600  1
  Zn  Zn11  1  0.35184500  0.35184500  0.94446600  1
  Zn  Zn12  1  0.31480700  0.31480700  0.05558000  1
  Zn  Zn13  1  0.25925300  0.25925300  0.22224100  1
  Zn  Zn14  1  0.20369200  0.20369200  0.38892400  1
  Zn  Zn15  1  0.14814300  0.14814300  0.55557100  1
  Zn  Zn16  1  0.11110200  0.11110200  0.66669300  1
  Zn  Zn17  1  0.03703000  0.03703000  0.88891100  1
  S  S18  1  0.98611100  0.98611100  0.04166600  1
  S  S19  1  0.93056500  0.93056500  0.20830400  1
  S  S20  1  0.87502400  0.87502400  0.37492900  1
  S  S21  1  0.83797900  0.83797900  0.48606300  1
  S  S22  1  0.74539700  0.74539700  0.76380900  1
  S  S23  1  0.70835100  0.70835100  0.87494800  1
  S  S24  1  0.61575000  0.61575000  0.15274900  1
  S  S25  1  0.56019900  0.56019900  0.31940300  1
  S  S26  1  0.48614000  0.48614000  0.54157900  1
  S  S27  1  0.44907500  0.44907500  0.65277400  1
  S  S28  1  0.39352700  0.39352700  0.81941900  1
  S  S29  1  0.33797900  0.33797900  0.98606300  1
  S  S30  1  0.30093100  0.30093100  0.09720600  1
  S  S31  1  0.24538500  0.24538500  0.26384400  1
  S  S32  1  0.18981900  0.18981900  0.43054400  1
  S  S33  1  0.13427800  0.13427800  0.59716700  1
  S  S34  1  0.09723400  0.09723400  0.70829900  1
  S  S35  1  0.02318000  0.02318000  0.93046100  1
