# generated using pymatgen
data_Ge2RuC4(Cl3O2)2
_symmetry_space_group_name_H-M   'P 1'
_cell_length_a   10.35020400
_cell_length_b   8.66073000
_cell_length_c   12.21208236
_cell_angle_alpha   50.08241964
_cell_angle_beta   90.00000000
_cell_angle_gamma   90.00000000
_symmetry_Int_Tables_number   1
_chemical_formula_structural   Ge2RuC4(Cl3O2)2
_chemical_formula_sum   'Ge4 Ru2 C8 Cl12 O8'
_cell_volume   839.59635785
_cell_formula_units_Z   2
loop_
 _symmetry_equiv_pos_site_id
 _symmetry_equiv_pos_as_xyz
  1  'x, y, z'
loop_
 _atom_site_type_symbol
 _atom_site_label
 _atom_site_symmetry_multiplicity
 _atom_site_fract_x
 _atom_site_fract_y
 _atom_site_fract_z
 _atom_site_occupancy
  Ge  Ge0  1  0.33082900  0.21870200  0.49454900  1
  Ge  Ge1  1  0.16917100  0.21870200  0.99454900  1
  Ge  Ge2  1  0.66917100  0.78129800  0.50545100  1
  Ge  Ge3  1  0.83082900  0.78129800  0.00545100  1
  Ru  Ru4  1  0.50000000  0.00000000  0.50000000  1
  Ru  Ru5  1  0.00000000  0.00000000  0.00000000  1
  C  C6  1  0.51741900  0.20286600  0.29053800  1
  C  C7  1  0.98258100  0.20286600  0.79053800  1
  C  C8  1  0.48258100  0.79713400  0.70946200  1
  C  C9  1  0.01741900  0.79713400  0.20946200  1
  C  C10  1  0.36594200  0.86305200  0.47457100  1
  C  C11  1  0.13405800  0.86305200  0.97457100  1
  C  C12  1  0.63405800  0.13694800  0.52542900  1
  C  C13  1  0.86594200  0.13694800  0.02542900  1
  Cl  Cl14  1  0.12956000  0.12710300  0.51938400  1
  Cl  Cl15  1  0.37044000  0.12710300  0.01938400  1
  Cl  Cl16  1  0.87044000  0.87289700  0.48061600  1
  Cl  Cl17  1  0.62956000  0.87289700  0.98061600  1
  Cl  Cl18  1  0.35427100  0.24317000  0.66105300  1
  Cl  Cl19  1  0.14572900  0.24317000  0.16105300  1
  Cl  Cl20  1  0.64572900  0.75683000  0.33894700  1
  Cl  Cl21  1  0.85427100  0.75683000  0.83894700  1
  Cl  Cl22  1  0.33232400  0.53423300  0.29907100  1
  Cl  Cl23  1  0.16767600  0.53423300  0.79907100  1
  Cl  Cl24  1  0.66767600  0.46576700  0.70092900  1
  Cl  Cl25  1  0.83232400  0.46576700  0.20092900  1
  O  O26  1  0.52699300  0.31972400  0.16864600  1
  O  O27  1  0.97300700  0.31972400  0.66864600  1
  O  O28  1  0.47300700  0.68027600  0.83135400  1
  O  O29  1  0.02699300  0.68027600  0.33135400  1
  O  O30  1  0.28874200  0.78445800  0.45833600  1
  O  O31  1  0.21125800  0.78445800  0.95833600  1
  O  O32  1  0.71125800  0.21554200  0.54166400  1
  O  O33  1  0.78874200  0.21554200  0.04166400  1
