# generated using pymatgen
data_YH24C9(N3O4)3
_symmetry_space_group_name_H-M   'P 1'
_cell_length_a   8.95510693
_cell_length_b   8.95510693
_cell_length_c   19.31714149
_cell_angle_alpha   76.42354010
_cell_angle_beta   76.42354010
_cell_angle_gamma   61.19813707
_symmetry_Int_Tables_number   1
_chemical_formula_structural   YH24C9(N3O4)3
_chemical_formula_sum   'Y2 H48 C18 N18 O24'
_cell_volume   1306.02107946
_cell_formula_units_Z   2
loop_
 _symmetry_equiv_pos_site_id
 _symmetry_equiv_pos_as_xyz
  1  'x, y, z'
loop_
 _atom_site_type_symbol
 _atom_site_label
 _atom_site_symmetry_multiplicity
 _atom_site_fract_x
 _atom_site_fract_y
 _atom_site_fract_z
 _atom_site_occupancy
  Y  Y0  1  0.13380300  0.86852100  0.50287900  1
  Y  Y1  1  0.86852100  0.13380300  0.00287900  1
  H  H2  1  0.28976300  0.24225100  0.44898400  1
  H  H3  1  0.24225100  0.28976300  0.94898400  1
  H  H4  1  0.34503300  0.18879500  0.55977000  1
  H  H5  1  0.18879500  0.34503300  0.05977000  1
  H  H6  1  0.94149300  0.77787800  0.79263100  1
  H  H7  1  0.77787800  0.94149300  0.29263100  1
  H  H8  1  0.78322400  0.83288700  0.63207300  1
  H  H9  1  0.83288700  0.78322400  0.13207300  1
  H  H10  1  0.68825300  0.53594700  0.48238600  1
  H  H11  1  0.53594700  0.68825300  0.98238600  1
  H  H12  1  0.76647000  0.49960600  0.58293100  1
  H  H13  1  0.49960600  0.76647000  0.08293100  1
  H  H14  1  0.23580800  0.38963200  0.33868900  1
  H  H15  1  0.38963200  0.23580800  0.83868900  1
  H  H16  1  0.28466300  0.55029300  0.35434700  1
  H  H17  1  0.55029300  0.28466300  0.85434700  1
  H  H18  1  0.07543600  0.56406200  0.38479000  1
  H  H19  1  0.56406200  0.07543600  0.88479000  1
  H  H20  1  0.47784300  0.24317900  0.64035900  1
  H  H21  1  0.24317900  0.47784300  0.14035900  1
  H  H22  1  0.25105100  0.35712700  0.66734300  1
  H  H23  1  0.35712700  0.25105100  0.16734300  1
  H  H24  1  0.36545800  0.46844000  0.61066800  1
  H  H25  1  0.46844000  0.36545800  0.11066800  1
  H  H26  1  0.24269500  0.64836100  0.79626800  1
  H  H27  1  0.64836100  0.24269500  0.29626800  1
  H  H28  1  0.18894800  0.86903600  0.76242400  1
  H  H29  1  0.86903600  0.18894800  0.26242400  1
  H  H30  1  0.27625300  0.71476100  0.70158100  1
  H  H31  1  0.71476100  0.27625300  0.20158100  1
  H  H32  1  0.57112500  0.84774500  0.72924000  1
  H  H33  1  0.84774500  0.57112500  0.22924000  1
  H  H34  1  0.66932300  0.91081300  0.77934600  1
  H  H35  1  0.91081300  0.66932300  0.27934600  1
  H  H36  1  0.74027300  0.68696500  0.77811600  1
  H  H37  1  0.68696500  0.74027300  0.27811600  1
  H  H38  1  0.66641500  0.48069600  0.37896000  1
  H  H39  1  0.48069600  0.66641500  0.87896000  1
  H  H40  1  0.67459400  0.28257500  0.42819300  1
  H  H41  1  0.28257500  0.67459400  0.92819300  1
  H  H42  1  0.86784200  0.28988300  0.38028700  1
  H  H43  1  0.28988300  0.86784200  0.88028700  1
  H  H44  1  0.93599100  0.34987500  0.67685200  1
  H  H45  1  0.34987500  0.93599100  0.17685200  1
  H  H46  1  0.00425800  0.15045000  0.64645200  1
  H  H47  1  0.15045000  0.00425800  0.14645200  1
  H  H48  1  0.79115900  0.25782700  0.69215200  1
  H  H49  1  0.25782700  0.79115900  0.19215200  1
  C  C50  1  0.21353100  0.47433600  0.37670700  1
  C  C51  1  0.47433600  0.21353100  0.87670700  1
  C  C52  1  0.27757500  0.42572100  0.49999900  1
  C  C53  1  0.42572100  0.27757500  0.99999900  1
  C  C54  1  0.35667400  0.34694900  0.62290400  1
  C  C55  1  0.34694900  0.35667400  0.12290400  1
  C  C56  1  0.19179400  0.75201800  0.75200700  1
  C  C57  1  0.75201800  0.19179400  0.25200700  1
  C  C58  1  0.97324600  0.79914300  0.68186100  1
  C  C59  1  0.79914300  0.97324600  0.18186100  1
  C  C60  1  0.69307700  0.81560600  0.74572300  1
  C  C61  1  0.81560600  0.69307700  0.24572300  1
  C  C62  1  0.74365600  0.36180900  0.41212100  1
  C  C63  1  0.36180900  0.74365600  0.91212100  1
  C  C64  1  0.84496800  0.29867000  0.52929500  1
  C  C65  1  0.29867000  0.84496800  0.02929500  1
  C  C66  1  0.89536100  0.27655400  0.65384900  1
  C  C67  1  0.27655400  0.89536100  0.15384900  1
  N  N68  1  0.27228100  0.36529200  0.44289600  1
  N  N69  1  0.36529200  0.27228100  0.94289600  1
  N  N70  1  0.33154100  0.30903900  0.55881400  1
  N  N71  1  0.30903900  0.33154100  0.05881400  1
  N  N72  1  0.02222200  0.77924400  0.74578400  1
  N  N73  1  0.77924400  0.02222200  0.24578400  1
  N  N74  1  0.81347300  0.82083600  0.68135500  1
  N  N75  1  0.82083600  0.81347300  0.18135500  1
  N  N76  1  0.76592500  0.41188400  0.47366200  1
  N  N77  1  0.41188400  0.76592500  0.97366200  1
  N  N78  1  0.84006200  0.37022500  0.58507300  1
  N  N79  1  0.37022500  0.84006200  0.08507300  1
  N  N80  1  0.41402400  0.84934800  0.56625900  1
  N  N81  1  0.84934800  0.41402400  0.06625900  1
  N  N82  1  0.85932200  0.87347500  0.44623700  1
  N  N83  1  0.87347500  0.85932200  0.94623700  1
  N  N84  1  0.31041900  0.96773100  0.36590300  1
  N  N85  1  0.96773100  0.31041900  0.86590300  1
  O  O86  1  0.23845600  0.58324500  0.49677100  1
  O  O87  1  0.58324500  0.23845600  0.99677100  1
  O  O88  1  0.07540800  0.79755400  0.62347600  1
  O  O89  1  0.79755400  0.07540800  0.12347600  1
  O  O90  1  0.91993800  0.13737900  0.52856700  1
  O  O91  1  0.13737900  0.91993800  0.02856700  1
  O  O92  1  0.42646200  0.72003100  0.54317700  1
  O  O93  1  0.72003100  0.42646200  0.04317700  1
  O  O94  1  0.28309700  0.99432000  0.55134700  1
  O  O95  1  0.99432000  0.28309700  0.05134700  1
  O  O96  1  0.97445400  0.91401800  0.40578300  1
  O  O97  1  0.91401800  0.97445400  0.90578300  1
  O  O98  1  0.87153900  0.83340000  0.51369900  1
  O  O99  1  0.83340000  0.87153900  0.01369900  1
  O  O100  1  0.34647600  0.80961600  0.39036100  1
  O  O101  1  0.80961600  0.34647600  0.89036100  1
  O  O102  1  0.19543700  0.07875400  0.40681600  1
  O  O103  1  0.07875400  0.19543700  0.90681600  1
  O  O104  1  0.51990600  0.83566000  0.60151800  1
  O  O105  1  0.83566000  0.51990600  0.10151800  1
  O  O106  1  0.74474900  0.87176100  0.42124100  1
  O  O107  1  0.87176100  0.74474900  0.92124100  1
  O  O108  1  0.38021300  0.01213600  0.30731400  1
  O  O109  1  0.01213600  0.38021300  0.80731400  1
