# generated using pymatgen
data_K4UC2O11
_symmetry_space_group_name_H-M   'P 1'
_cell_length_a   9.29461800
_cell_length_b   7.12462300
_cell_length_c   19.42248843
_cell_angle_alpha   70.34850579
_cell_angle_beta   90.00000000
_cell_angle_gamma   90.00000000
_symmetry_Int_Tables_number   1
_chemical_formula_structural   K4UC2O11
_chemical_formula_sum   'K16 U4 C8 O44'
_cell_volume   1211.25758843
_cell_formula_units_Z   4
loop_
 _symmetry_equiv_pos_site_id
 _symmetry_equiv_pos_as_xyz
  1  'x, y, z'
loop_
 _atom_site_type_symbol
 _atom_site_label
 _atom_site_symmetry_multiplicity
 _atom_site_fract_x
 _atom_site_fract_y
 _atom_site_fract_z
 _atom_site_occupancy
  K  K0  1  0.81920900  0.29528400  0.80237400  1
  K  K1  1  0.68079100  0.29528400  0.30237400  1
  K  K2  1  0.18079100  0.70471600  0.19762600  1
  K  K3  1  0.31920900  0.70471600  0.69762600  1
  K  K4  1  0.48189900  0.20706900  0.70293200  1
  K  K5  1  0.01810100  0.20706900  0.20293200  1
  K  K6  1  0.51810100  0.79293100  0.29706800  1
  K  K7  1  0.98189900  0.79293100  0.79706800  1
  K  K8  1  0.59088000  0.72043200  0.51595600  1
  K  K9  1  0.90912000  0.72043200  0.01595600  1
  K  K10  1  0.40912000  0.27956800  0.48404400  1
  K  K11  1  0.09088000  0.27956800  0.98404400  1
  K  K12  1  0.01201000  0.61759100  0.58359200  1
  K  K13  1  0.48799000  0.61759100  0.08359200  1
  K  K14  1  0.98799000  0.38240900  0.41640800  1
  K  K15  1  0.51201000  0.38240900  0.91640800  1
  U  U16  1  0.81982700  0.06250000  0.61265200  1
  U  U17  1  0.68017300  0.06250000  0.11265200  1
  U  U18  1  0.18017300  0.93750000  0.38734800  1
  U  U19  1  0.31982700  0.93750000  0.88734800  1
  C  C20  1  0.12838100  0.10261100  0.61033200  1
  C  C21  1  0.37161900  0.10261100  0.11033200  1
  C  C22  1  0.87161900  0.89738900  0.38966800  1
  C  C23  1  0.62838100  0.89738900  0.88966800  1
  C  C24  1  0.66492800  0.70092400  0.68972900  1
  C  C25  1  0.83507200  0.70092400  0.18972900  1
  C  C26  1  0.33507200  0.29907600  0.31027100  1
  C  C27  1  0.16492800  0.29907600  0.81027100  1
  O  O28  1  0.62985200  0.28850400  0.57413900  1
  O  O29  1  0.87014800  0.28850400  0.07413900  1
  O  O30  1  0.37014800  0.71149600  0.42586100  1
  O  O31  1  0.12985200  0.71149600  0.92586100  1
  O  O32  1  0.75203000  0.39440500  0.54307600  1
  O  O33  1  0.74797000  0.39440500  0.04307600  1
  O  O34  1  0.24797000  0.60559500  0.45692400  1
  O  O35  1  0.25203000  0.60559500  0.95692400  1
  O  O36  1  0.82070100  0.12531500  0.69791400  1
  O  O37  1  0.67929900  0.12531500  0.19791400  1
  O  O38  1  0.17929900  0.87468500  0.30208600  1
  O  O39  1  0.32070100  0.87468500  0.80208600  1
  O  O40  1  0.81603800  0.98668500  0.53043200  1
  O  O41  1  0.68396200  0.98668500  0.03043200  1
  O  O42  1  0.18396200  0.01331500  0.46956800  1
  O  O43  1  0.31603800  0.01331500  0.96956800  1
  O  O44  1  0.04116500  0.24755100  0.57386800  1
  O  O45  1  0.45883500  0.24755100  0.07386800  1
  O  O46  1  0.95883500  0.75244900  0.42613200  1
  O  O47  1  0.54116500  0.75244900  0.92613200  1
  O  O48  1  0.26320900  0.12260300  0.61440400  1
  O  O49  1  0.23679100  0.12260300  0.11440400  1
  O  O50  1  0.73679100  0.87739700  0.38559600  1
  O  O51  1  0.76320900  0.87739700  0.88559600  1
  O  O52  1  0.06277300  0.93081700  0.64381700  1
  O  O53  1  0.43722700  0.93081700  0.14381700  1
  O  O54  1  0.93722700  0.06918300  0.35618300  1
  O  O55  1  0.56277300  0.06918300  0.85618300  1
  O  O56  1  0.80698300  0.71123700  0.68801400  1
  O  O57  1  0.69301700  0.71123700  0.18801400  1
  O  O58  1  0.19301700  0.28876300  0.31198600  1
  O  O59  1  0.30698300  0.28876300  0.81198600  1
  O  O60  1  0.59713400  0.54463000  0.72456800  1
  O  O61  1  0.90286600  0.54463000  0.22456800  1
  O  O62  1  0.40286600  0.45537000  0.27543200  1
  O  O63  1  0.09713400  0.45537000  0.77543200  1
  O  O64  1  0.59902400  0.86825600  0.65088500  1
  O  O65  1  0.90097600  0.86825600  0.15088500  1
  O  O66  1  0.40097600  0.13174400  0.34911500  1
  O  O67  1  0.09902400  0.13174400  0.84911500  1
  O  O68  1  0.69147000  0.46801000  0.41044200  1
  O  O69  1  0.80853000  0.46801000  0.91044200  1
  O  O70  1  0.30853000  0.53199000  0.58955800  1
  O  O71  1  0.19147000  0.53199000  0.08955800  1
