# generated using pymatgen
data_K2Cd(C2O5)2
_symmetry_space_group_name_H-M   'P 1'
_cell_length_a   11.81226271
_cell_length_b   9.88210408
_cell_length_c   8.51481142
_cell_angle_alpha   79.51374620
_cell_angle_beta   55.34840638
_cell_angle_gamma   45.13784742
_symmetry_Int_Tables_number   1
_chemical_formula_structural   K2Cd(C2O5)2
_chemical_formula_sum   'K4 Cd2 C8 O20'
_cell_volume   537.08027067
_cell_formula_units_Z   2
loop_
 _symmetry_equiv_pos_site_id
 _symmetry_equiv_pos_as_xyz
  1  'x, y, z'
loop_
 _atom_site_type_symbol
 _atom_site_label
 _atom_site_symmetry_multiplicity
 _atom_site_fract_x
 _atom_site_fract_y
 _atom_site_fract_z
 _atom_site_occupancy
  K  K0  1  0.04971700  0.59035100  0.68283600  1
  K  K1  1  0.67709700  0.68283600  0.59035100  1
  K  K2  1  0.56716400  0.57290300  0.20028300  1
  K  K3  1  0.65964900  0.20028300  0.57290300  1
  Cd  Cd4  1  0.28429000  0.21571000  0.21571000  1
  Cd  Cd5  1  0.03429000  0.96571000  0.96571000  1
  C  C6  1  0.58031300  0.19383600  0.19073300  1
  C  C7  1  0.03511800  0.19073300  0.19383600  1
  C  C8  1  0.05926700  0.21488200  0.66968700  1
  C  C9  1  0.05616400  0.66968700  0.21488200  1
  C  C10  1  0.19479900  0.53792900  0.98474300  1
  C  C11  1  0.28252900  0.98474300  0.53792900  1
  C  C12  1  0.26525700  0.96747100  0.05520100  1
  C  C13  1  0.71207100  0.05520100  0.96747100  1
  O  O14  1  0.40219400  0.27539300  0.32072800  1
  O  O15  1  0.00168400  0.32072800  0.27539300  1
  O  O16  1  0.92927200  0.24831600  0.84780600  1
  O  O17  1  0.97460700  0.84780600  0.24831600  1
  O  O18  1  0.21456400  0.61712000  0.85092600  1
  O  O19  1  0.31739100  0.85092600  0.61712000  1
  O  O20  1  0.39907400  0.93260900  0.03543600  1
  O  O21  1  0.63288000  0.03543600  0.93260900  1
  O  O22  1  0.27981900  0.35704900  0.94991700  1
  O  O23  1  0.41321500  0.94991700  0.35704900  1
  O  O24  1  0.30008300  0.83678500  0.97018100  1
  O  O25  1  0.89295100  0.97018100  0.83678500  1
  O  O26  1  0.66099700  0.21404500  0.22206800  1
  O  O27  1  0.90289000  0.22206800  0.21404500  1
  O  O28  1  0.02793200  0.34711000  0.58900300  1
  O  O29  1  0.03595500  0.58900300  0.34711000  1
  O  O30  1  0.77381800  0.67898300  0.16003400  1
  O  O31  1  0.38716500  0.16003400  0.67898300  1
  O  O32  1  0.08996600  0.86283500  0.47618200  1
  O  O33  1  0.57101700  0.47618200  0.86283500  1
