# generated using pymatgen
data_Cu2H3ClO3
_symmetry_space_group_name_H-M   'P 1'
_cell_length_a   9.20038700
_cell_length_b   9.21422721
_cell_length_c   9.29966893
_cell_angle_alpha   96.34921757
_cell_angle_beta   97.11484011
_cell_angle_gamma   96.76497616
_symmetry_Int_Tables_number   1
_chemical_formula_structural   Cu2H3ClO3
_chemical_formula_sum   'Cu16 H24 Cl8 O24'
_cell_volume   770.56335397
_cell_formula_units_Z   8
loop_
 _symmetry_equiv_pos_site_id
 _symmetry_equiv_pos_as_xyz
  1  'x, y, z'
loop_
 _atom_site_type_symbol
 _atom_site_label
 _atom_site_symmetry_multiplicity
 _atom_site_fract_x
 _atom_site_fract_y
 _atom_site_fract_z
 _atom_site_occupancy
  Cu  Cu0  1  0.50000000  0.50000000  0.50000000  1
  Cu  Cu1  1  0.50000000  0.00000000  0.00000000  1
  Cu  Cu2  1  0.00000000  0.00000000  0.50000000  1
  Cu  Cu3  1  0.00000000  0.50000000  0.00000000  1
  Cu  Cu4  1  0.25014800  0.76084100  0.00142100  1
  Cu  Cu5  1  0.74985200  0.23915900  0.99857900  1
  Cu  Cu6  1  0.75262300  0.99939900  0.26225400  1
  Cu  Cu7  1  0.24737700  0.00060100  0.73774600  1
  Cu  Cu8  1  0.00182400  0.25246200  0.74937500  1
  Cu  Cu9  1  0.99817600  0.74753800  0.25062500  1
  Cu  Cu10  1  0.49299800  0.74833000  0.74597600  1
  Cu  Cu11  1  0.50700200  0.25167000  0.25402400  1
  Cu  Cu12  1  0.75382000  0.73770400  0.50573300  1
  Cu  Cu13  1  0.24618000  0.26229600  0.49426700  1
  Cu  Cu14  1  0.74810900  0.49736600  0.75777700  1
  Cu  Cu15  1  0.25189100  0.50263400  0.24222300  1
  H  H16  1  0.47427600  0.76597400  0.47328400  1
  H  H17  1  0.52572400  0.23402600  0.52671600  1
  H  H18  1  0.47693900  0.47831100  0.78917300  1
  H  H19  1  0.52306100  0.52168900  0.21082700  1
  H  H20  1  0.76887200  0.46064600  0.48192900  1
  H  H21  1  0.23112800  0.53935400  0.51807100  1
  H  H22  1  0.52609800  0.73035200  0.01934400  1
  H  H23  1  0.47390200  0.26964800  0.98065600  1
  H  H24  1  0.51595000  0.01781600  0.70024200  1
  H  H25  1  0.48405000  0.98218400  0.29975800  1
  H  H26  1  0.77119800  0.96334700  0.98764500  1
  H  H27  1  0.22880200  0.03665300  0.01235500  1
  H  H28  1  0.98189900  0.79864700  0.98714100  1
  H  H29  1  0.01810100  0.20135300  0.01285900  1
  H  H30  1  0.02994600  0.52704400  0.73802000  1
  H  H31  1  0.97005400  0.47295600  0.26198000  1
  H  H32  1  0.73039500  0.52129600  0.02928700  1
  H  H33  1  0.26960500  0.47870400  0.97071300  1
  H  H34  1  0.73415200  0.01812300  0.53468400  1
  H  H35  1  0.26584800  0.98187700  0.46531600  1
  H  H36  1  0.96696000  0.97497300  0.76068000  1
  H  H37  1  0.03304000  0.02502700  0.23932000  1
  H  H38  1  0.02149800  0.69707900  0.51346500  1
  H  H39  1  0.97850200  0.30292100  0.48653500  1
  Cl  Cl40  1  0.81700700  0.81855200  0.81562700  1
  Cl  Cl41  1  0.18299300  0.18144800  0.18437300  1
  Cl  Cl42  1  0.18423000  0.68314900  0.68474200  1
  Cl  Cl43  1  0.81577000  0.31685100  0.31525800  1
  Cl  Cl44  1  0.68272900  0.68781800  0.17607000  1
  Cl  Cl45  1  0.31727100  0.31218200  0.82393000  1
  Cl  Cl46  1  0.68171800  0.18562600  0.67624900  1
  Cl  Cl47  1  0.31828200  0.81437400  0.32375100  1
  O  O48  1  0.44922300  0.95218100  0.74817300  1
  O  O49  1  0.55077700  0.04781900  0.25182700  1
  O  O50  1  0.94605000  0.73154100  0.44408900  1
  O  O51  1  0.05395000  0.26845900  0.55591100  1
  O  O52  1  0.77706900  0.45258400  0.96435600  1
  O  O53  1  0.22293100  0.54741600  0.03564400  1
  O  O54  1  0.05409400  0.76177300  0.05734400  1
  O  O55  1  0.94590600  0.23822700  0.94265600  1
  O  O56  1  0.72508200  0.03389000  0.05149500  1
  O  O57  1  0.27491800  0.96611000  0.94850500  1
  O  O58  1  0.03786100  0.04277700  0.71737300  1
  O  O59  1  0.96213900  0.95722300  0.28262700  1
  O  O60  1  0.45687500  0.77843500  0.95452400  1
  O  O61  1  0.54312500  0.22156500  0.04547600  1
  O  O62  1  0.77852100  0.94895300  0.46789200  1
  O  O63  1  0.22147900  0.05104700  0.53210800  1
  O  O64  1  0.95972900  0.45952500  0.78171400  1
  O  O65  1  0.04027100  0.54047500  0.21828600  1
  O  O66  1  0.54741500  0.54903300  0.75086100  1
  O  O67  1  0.45258500  0.45096700  0.24913900  1
  O  O68  1  0.54296900  0.72109300  0.54262300  1
  O  O69  1  0.45703100  0.27890700  0.45737700  1
  O  O70  1  0.72332400  0.52888700  0.54802700  1
  O  O71  1  0.27667600  0.47111300  0.45197300  1
