# generated using pymatgen
data_KSO6
_symmetry_space_group_name_H-M   'P 1'
_cell_length_a   10.42109248
_cell_length_b   10.42109248
_cell_length_c   7.84668284
_cell_angle_alpha   88.16379052
_cell_angle_beta   88.16379052
_cell_angle_gamma   43.84023613
_symmetry_Int_Tables_number   1
_chemical_formula_structural   KSO6
_chemical_formula_sum   'K4 S4 O24'
_cell_volume   589.88471715
_cell_formula_units_Z   4
loop_
 _symmetry_equiv_pos_site_id
 _symmetry_equiv_pos_as_xyz
  1  'x, y, z'
loop_
 _atom_site_type_symbol
 _atom_site_label
 _atom_site_symmetry_multiplicity
 _atom_site_fract_x
 _atom_site_fract_y
 _atom_site_fract_z
 _atom_site_occupancy
  K  K0  1  0.30312600  0.06976400  0.63006700  1
  K  K1  1  0.93023600  0.69687400  0.86993300  1
  K  K2  1  0.69687400  0.93023600  0.36993300  1
  K  K3  1  0.06976400  0.30312600  0.13006700  1
  S  S4  1  0.78674800  0.51913400  0.65594600  1
  S  S5  1  0.48086600  0.21325200  0.84405400  1
  S  S6  1  0.21325200  0.48086600  0.34405400  1
  S  S7  1  0.51913400  0.78674800  0.15594600  1
  O  O8  1  0.87476100  0.40046600  0.44750200  1
  O  O9  1  0.59953400  0.12523900  0.05249800  1
  O  O10  1  0.12523900  0.59953400  0.55249800  1
  O  O11  1  0.40046600  0.87476100  0.94750200  1
  O  O12  1  0.96838900  0.22421400  0.45734800  1
  O  O13  1  0.77578600  0.03161100  0.04265200  1
  O  O14  1  0.03161100  0.77578600  0.54265200  1
  O  O15  1  0.22421400  0.96838900  0.95734800  1
  O  O16  1  0.66345300  0.50759500  0.71609700  1
  O  O17  1  0.49240500  0.33654700  0.78390300  1
  O  O18  1  0.33654700  0.49240500  0.28390300  1
  O  O19  1  0.50759500  0.66345300  0.21609700  1
  O  O20  1  0.95873900  0.41042100  0.75049200  1
  O  O21  1  0.58957900  0.04126100  0.74950800  1
  O  O22  1  0.04126100  0.58957900  0.24950800  1
  O  O23  1  0.41042100  0.95873900  0.25049200  1
  O  O24  1  0.34185200  0.77557700  0.54549600  1
  O  O25  1  0.22442300  0.65814800  0.95450400  1
  O  O26  1  0.65814800  0.22442300  0.45450400  1
  O  O27  1  0.77557700  0.34185200  0.04549600  1
  O  O28  1  0.70567200  0.69848800  0.59416500  1
  O  O29  1  0.30151200  0.29432800  0.90583500  1
  O  O30  1  0.29432800  0.30151200  0.40583500  1
  O  O31  1  0.69848800  0.70567200  0.09416500  1
