# generated using pymatgen
data_Pb3WO6
_symmetry_space_group_name_H-M   'P 1'
_cell_length_a   8.08731734
_cell_length_b   9.71452172
_cell_length_c   9.58218600
_cell_angle_alpha   90.00000000
_cell_angle_beta   90.00000000
_cell_angle_gamma   87.47266835
_symmetry_Int_Tables_number   1
_chemical_formula_structural   Pb3WO6
_chemical_formula_sum   'Pb12 W4 O24'
_cell_volume   752.08661873
_cell_formula_units_Z   4
loop_
 _symmetry_equiv_pos_site_id
 _symmetry_equiv_pos_as_xyz
  1  'x, y, z'
loop_
 _atom_site_type_symbol
 _atom_site_label
 _atom_site_symmetry_multiplicity
 _atom_site_fract_x
 _atom_site_fract_y
 _atom_site_fract_z
 _atom_site_occupancy
  Pb  Pb0  1  0.75255200  0.76361200  0.46661500  1
  Pb  Pb1  1  0.24744800  0.73638800  0.96661500  1
  Pb  Pb2  1  0.24744800  0.23638800  0.53338500  1
  Pb  Pb3  1  0.75255200  0.26361200  0.03338500  1
  Pb  Pb4  1  0.49661800  0.48771600  0.32298300  1
  Pb  Pb5  1  0.50338200  0.01228400  0.82298300  1
  Pb  Pb6  1  0.50338200  0.51228400  0.67701700  1
  Pb  Pb7  1  0.49661800  0.98771600  0.17701700  1
  Pb  Pb8  1  0.78076300  0.20068600  0.50794700  1
  Pb  Pb9  1  0.21923700  0.29931400  0.00794700  1
  Pb  Pb10  1  0.21923700  0.79931400  0.49205300  1
  Pb  Pb11  1  0.78076300  0.70068600  0.99205300  1
  W  W12  1  0.97281900  0.46198800  0.32602700  1
  W  W13  1  0.02718100  0.03801200  0.82602700  1
  W  W14  1  0.02718100  0.53801200  0.67397300  1
  W  W15  1  0.97281900  0.96198800  0.17397300  1
  O  O16  1  0.53183500  0.34024800  0.50880900  1
  O  O17  1  0.46816500  0.15975200  0.00880900  1
  O  O18  1  0.46816500  0.65975200  0.49119100  1
  O  O19  1  0.53183500  0.84024800  0.99119100  1
  O  O20  1  0.83901200  0.30814600  0.29925400  1
  O  O21  1  0.16098800  0.19185400  0.79925400  1
  O  O22  1  0.16098800  0.69185400  0.70074600  1
  O  O23  1  0.83901200  0.80814600  0.20074600  1
  O  O24  1  0.75408000  0.56400200  0.35457900  1
  O  O25  1  0.24592000  0.93599800  0.85457900  1
  O  O26  1  0.24592000  0.43599800  0.64542100  1
  O  O27  1  0.75408000  0.06400200  0.14542100  1
  O  O28  1  0.18225200  0.36223200  0.33562000  1
  O  O29  1  0.81774800  0.13776800  0.83562000  1
  O  O30  1  0.81774800  0.63776800  0.66438000  1
  O  O31  1  0.18225200  0.86223200  0.16438000  1
  O  O32  1  0.04854700  0.61722000  0.44548400  1
  O  O33  1  0.95145300  0.88278000  0.94548400  1
  O  O34  1  0.95145300  0.38278000  0.55451600  1
  O  O35  1  0.04854700  0.11722000  0.05451600  1
  O  O36  1  0.00216000  0.48240100  0.85075100  1
  O  O37  1  0.99784000  0.01759900  0.35075100  1
  O  O38  1  0.99784000  0.51759900  0.14924900  1
  O  O39  1  0.00216000  0.98240100  0.64924900  1
