# generated using pymatgen
data_CaIn2(PO4)3
_symmetry_space_group_name_H-M   'P 1'
_cell_length_a   20.66550700
_cell_length_b   6.67053100
_cell_length_c   9.32649351
_cell_angle_alpha   45.95277742
_cell_angle_beta   90.00000000
_cell_angle_gamma   90.00000000
_symmetry_Int_Tables_number   1
_chemical_formula_structural   CaIn2(PO4)3
_chemical_formula_sum   'Ca4 In8 P12 O48'
_cell_volume   924.08731526
_cell_formula_units_Z   4
loop_
 _symmetry_equiv_pos_site_id
 _symmetry_equiv_pos_as_xyz
  1  'x, y, z'
loop_
 _atom_site_type_symbol
 _atom_site_label
 _atom_site_symmetry_multiplicity
 _atom_site_fract_x
 _atom_site_fract_y
 _atom_site_fract_z
 _atom_site_occupancy
  Ca  Ca0  1  0.92549800  0.28810200  0.07641400  1
  Ca  Ca1  1  0.57450200  0.28810200  0.57641400  1
  Ca  Ca2  1  0.07450200  0.71189800  0.92358600  1
  Ca  Ca3  1  0.42549800  0.71189800  0.42358600  1
  In  In4  1  0.59676800  0.18402700  0.21809700  1
  In  In5  1  0.90323200  0.18402700  0.71809700  1
  In  In6  1  0.40323200  0.81597300  0.78190300  1
  In  In7  1  0.09676800  0.81597300  0.28190300  1
  In  In8  1  0.71279200  0.83787900  0.60427200  1
  In  In9  1  0.78720800  0.83787900  0.10427200  1
  In  In10  1  0.28720800  0.16212100  0.39572800  1
  In  In11  1  0.21279200  0.16212100  0.89572800  1
  P  P12  1  0.55210000  0.67003300  0.70861100  1
  P  P13  1  0.94790000  0.67003300  0.20861100  1
  P  P14  1  0.44790000  0.32996700  0.29138900  1
  P  P15  1  0.05210000  0.32996700  0.79138900  1
  P  P16  1  0.75603900  0.34119100  0.10357700  1
  P  P17  1  0.74396100  0.34119100  0.60357700  1
  P  P18  1  0.24396100  0.65880900  0.89642300  1
  P  P19  1  0.25603900  0.65880900  0.39642300  1
  P  P20  1  0.61560500  0.80539700  0.11225300  1
  P  P21  1  0.88439500  0.80539700  0.61225300  1
  P  P22  1  0.38439500  0.19460300  0.88774700  1
  P  P23  1  0.11560500  0.19460300  0.38774700  1
  O  O24  1  0.60668200  0.89594200  0.55859500  1
  O  O25  1  0.89331800  0.89594200  0.05859500  1
  O  O26  1  0.39331800  0.10405800  0.44140500  1
  O  O27  1  0.10668200  0.10405800  0.94140500  1
  O  O28  1  0.52185600  0.56846400  0.61883300  1
  O  O29  1  0.97814400  0.56846400  0.11883300  1
  O  O30  1  0.47814400  0.43153600  0.38116700  1
  O  O31  1  0.02185600  0.43153600  0.88116700  1
  O  O32  1  0.58432300  0.43366600  0.90961500  1
  O  O33  1  0.91567700  0.43366600  0.40961500  1
  O  O34  1  0.41567700  0.56633400  0.09038500  1
  O  O35  1  0.08432300  0.56633400  0.59038500  1
  O  O36  1  0.50513200  0.83870500  0.72242600  1
  O  O37  1  0.99486800  0.83870500  0.22242600  1
  O  O38  1  0.49486800  0.16129500  0.27757400  1
  O  O39  1  0.00513200  0.16129500  0.77757400  1
  O  O40  1  0.70432400  0.13481600  0.27291500  1
  O  O41  1  0.79567600  0.13481600  0.77291500  1
  O  O42  1  0.29567600  0.86518400  0.72708500  1
  O  O43  1  0.20432400  0.86518400  0.22708500  1
  O  O44  1  0.71532500  0.56230300  0.91725400  1
  O  O45  1  0.78467500  0.56230300  0.41725400  1
  O  O46  1  0.28467500  0.43769700  0.08274600  1
  O  O47  1  0.21532500  0.43769700  0.58274600  1
  O  O48  1  0.80326400  0.17912000  0.08506200  1
  O  O49  1  0.69673600  0.17912000  0.58506200  1
  O  O50  1  0.19673600  0.82088000  0.91493800  1
  O  O51  1  0.30326400  0.82088000  0.41493800  1
  O  O52  1  0.79975800  0.47633600  0.15115800  1
  O  O53  1  0.70024200  0.47633600  0.65115800  1
  O  O54  1  0.20024200  0.52366400  0.84884200  1
  O  O55  1  0.29975800  0.52366400  0.34884200  1
  O  O56  1  0.59618900  0.81772700  0.26764200  1
  O  O57  1  0.90381100  0.81772700  0.76764200  1
  O  O58  1  0.40381100  0.18227300  0.73235800  1
  O  O59  1  0.09618900  0.18227300  0.23235800  1
  O  O60  1  0.60746300  0.49093400  0.23265700  1
  O  O61  1  0.89253700  0.49093400  0.73265700  1
  O  O62  1  0.39253700  0.50906600  0.76734300  1
  O  O63  1  0.10746300  0.50906600  0.26734300  1
  O  O64  1  0.68601200  0.90485600  0.04506000  1
  O  O65  1  0.81398800  0.90485600  0.54506000  1
  O  O66  1  0.31398800  0.09514400  0.95494000  1
  O  O67  1  0.18601200  0.09514400  0.45494000  1
  O  O68  1  0.57484200  0.98381200  0.92237800  1
  O  O69  1  0.92515800  0.98381200  0.42237800  1
  O  O70  1  0.42515800  0.01618800  0.07762200  1
  O  O71  1  0.07484200  0.01618800  0.57762200  1
