# generated using pymatgen
data_H19C6N3ClO2
_symmetry_space_group_name_H-M   'P 1'
_cell_length_a   8.26278353
_cell_length_b   9.02820257
_cell_length_c   8.98812968
_cell_angle_alpha   70.15015458
_cell_angle_beta   80.40275225
_cell_angle_gamma   81.28004540
_symmetry_Int_Tables_number   1
_chemical_formula_structural   H19C6N3ClO2
_chemical_formula_sum   'H38 C12 N6 Cl2 O4'
_cell_volume   618.56287652
_cell_formula_units_Z   2
loop_
 _symmetry_equiv_pos_site_id
 _symmetry_equiv_pos_as_xyz
  1  'x, y, z'
loop_
 _atom_site_type_symbol
 _atom_site_label
 _atom_site_symmetry_multiplicity
 _atom_site_fract_x
 _atom_site_fract_y
 _atom_site_fract_z
 _atom_site_occupancy
  H  H0  1  0.58495500  0.34853400  0.62276200  1
  H  H1  1  0.41504500  0.65146600  0.37723800  1
  H  H2  1  0.48107600  0.69159100  0.98585800  1
  H  H3  1  0.51892400  0.30840900  0.01414200  1
  H  H4  1  0.41229800  0.64457200  0.85965200  1
  H  H5  1  0.58770200  0.35542800  0.14034800  1
  H  H6  1  0.65872000  0.39218300  0.44242300  1
  H  H7  1  0.34128000  0.60781700  0.55757700  1
  H  H8  1  0.80723100  0.59574700  0.87596000  1
  H  H9  1  0.19276900  0.40425300  0.12404000  1
  H  H10  1  0.79309600  0.49944400  0.73646800  1
  H  H11  1  0.20690400  0.50055600  0.26353200  1
  H  H12  1  0.99203600  0.53262300  0.76682800  1
  H  H13  1  0.00796400  0.46737700  0.23317200  1
  H  H14  1  0.88945000  0.84908100  0.38856700  1
  H  H15  1  0.11055000  0.15091900  0.61143300  1
  H  H16  1  0.01117000  0.66554300  0.46212700  1
  H  H17  1  0.98883000  0.33445700  0.53787300  1
  H  H18  1  0.79793900  0.66842900  0.44091700  1
  H  H19  1  0.20206100  0.33157100  0.55908300  1
  H  H20  1  0.61266800  0.02537100  0.83667400  1
  H  H21  1  0.38733200  0.97462900  0.16332600  1
  H  H22  1  0.72569100  0.93742800  0.00364000  1
  H  H23  1  0.27430900  0.06257200  0.99636000  1
  H  H24  1  0.79105000  0.10933500  0.84632900  1
  H  H25  1  0.20895000  0.89066500  0.15367100  1
  H  H26  1  0.07183900  0.76645500  0.77758800  1
  H  H27  1  0.92816100  0.23354500  0.22241200  1
  H  H28  1  0.05602500  0.91232600  0.87273200  1
  H  H29  1  0.94397500  0.08767400  0.12726800  1
  H  H30  1  0.97032700  0.72968400  0.97658300  1
  H  H31  1  0.02967300  0.27031600  0.02341700  1
  H  H32  1  0.70014800  0.10303600  0.56743200  1
  H  H33  1  0.29985200  0.89696400  0.43256800  1
  H  H34  1  0.57573400  0.83028700  0.51889800  1
  H  H35  1  0.42426600  0.16971300  0.48110200  1
  H  H36  1  0.62018000  0.00072700  0.35076500  1
  H  H37  1  0.37982000  0.99927300  0.64923500  1
  C  C38  1  0.58436600  0.95811800  0.48059600  1
  C  C39  1  0.41563400  0.04188200  0.51940400  1
  C  C40  1  0.86189900  0.58188400  0.76131600  1
  C  C41  1  0.13810100  0.41811600  0.23868400  1
  C  C42  1  0.88716600  0.72851100  0.47237000  1
  C  C43  1  0.11283400  0.27148900  0.52763000  1
  C  C44  1  0.73596800  0.99798800  0.87423300  1
  C  C45  1  0.26403200  0.00201200  0.12576700  1
  C  C46  1  0.99185300  0.82029200  0.85907000  1
  C  C47  1  0.00814700  0.17970800  0.14093000  1
  C  C48  1  0.79487200  0.87109500  0.66586800  1
  C  C49  1  0.20512700  0.12890500  0.33413200  1
  N  N50  1  0.70412300  0.98753700  0.56685900  1
  N  N51  1  0.29587700  0.01246300  0.43314100  1
  N  N52  1  0.84620200  0.73400700  0.63480900  1
  N  N53  1  0.15379800  0.26599300  0.36519100  1
  N  N54  1  0.83703600  0.89255500  0.79567200  1
  N  N55  1  0.16296400  0.10744500  0.20432800  1
  Cl  Cl56  1  0.61950800  0.57164100  0.21472700  1
  Cl  Cl57  1  0.38049200  0.42835900  0.78527300  1
  O  O58  1  0.67298500  0.31341600  0.54900400  1
  O  O59  1  0.32701500  0.68658400  0.45099600  1
  O  O60  1  0.42720000  0.73744100  0.88841300  1
  O  O61  1  0.57280100  0.26255900  0.11158700  1
