# generated using pymatgen
data_Sr2(FeO2)3
_symmetry_space_group_name_H-M   'P 1'
_cell_length_a   5.64193800
_cell_length_b   5.64193800
_cell_length_c   19.43262600
_cell_angle_alpha   90.00000000
_cell_angle_beta   90.00000000
_cell_angle_gamma   90.00000000
_symmetry_Int_Tables_number   1
_chemical_formula_structural   Sr2(FeO2)3
_chemical_formula_sum   'Sr8 Fe12 O24'
_cell_volume   618.56894264
_cell_formula_units_Z   4
loop_
 _symmetry_equiv_pos_site_id
 _symmetry_equiv_pos_as_xyz
  1  'x, y, z'
loop_
 _atom_site_type_symbol
 _atom_site_label
 _atom_site_symmetry_multiplicity
 _atom_site_fract_x
 _atom_site_fract_y
 _atom_site_fract_z
 _atom_site_occupancy
  Sr  Sr0  1  0.73803400  0.73803400  0.41157700  1
  Sr  Sr1  1  0.26196600  0.26196600  0.41157700  1
  Sr  Sr2  1  0.76196600  0.23803400  0.91157700  1
  Sr  Sr3  1  0.23803400  0.76196600  0.91157700  1
  Sr  Sr4  1  0.26196600  0.26196600  0.58842300  1
  Sr  Sr5  1  0.73803400  0.73803400  0.58842300  1
  Sr  Sr6  1  0.23803400  0.76196600  0.08842300  1
  Sr  Sr7  1  0.76196600  0.23803400  0.08842300  1
  Fe  Fe8  1  0.24634400  0.75365600  0.50000000  1
  Fe  Fe9  1  0.75365600  0.24634400  0.50000000  1
  Fe  Fe10  1  0.25365600  0.25365600  0.00000000  1
  Fe  Fe11  1  0.74634400  0.74634400  0.00000000  1
  Fe  Fe12  1  0.17611900  0.82388100  0.29514100  1
  Fe  Fe13  1  0.82388100  0.17611900  0.29514100  1
  Fe  Fe14  1  0.32388100  0.32388100  0.79514100  1
  Fe  Fe15  1  0.67611900  0.67611900  0.79514100  1
  Fe  Fe16  1  0.82388100  0.17611900  0.70485900  1
  Fe  Fe17  1  0.17611900  0.82388100  0.70485900  1
  Fe  Fe18  1  0.67611900  0.67611900  0.20485900  1
  Fe  Fe19  1  0.32388100  0.32388100  0.20485900  1
  O  O20  1  0.00000000  0.00000000  0.50000000  1
  O  O21  1  0.50000000  0.50000000  0.00000000  1
  O  O22  1  0.00000000  0.50000000  0.50000000  1
  O  O23  1  0.50000000  0.00000000  0.00000000  1
  O  O24  1  0.50000000  0.00000000  0.50000000  1
  O  O25  1  0.00000000  0.50000000  0.00000000  1
  O  O26  1  0.50000000  0.50000000  0.50000000  1
  O  O27  1  0.00000000  0.00000000  0.00000000  1
  O  O28  1  0.25645200  0.74354800  0.38709400  1
  O  O29  1  0.74354800  0.25645200  0.38709400  1
  O  O30  1  0.24354800  0.24354800  0.88709400  1
  O  O31  1  0.75645200  0.75645200  0.88709400  1
  O  O32  1  0.74354800  0.25645200  0.61290600  1
  O  O33  1  0.25645200  0.74354800  0.61290600  1
  O  O34  1  0.75645200  0.75645200  0.11290600  1
  O  O35  1  0.24354800  0.24354800  0.11290600  1
  O  O36  1  0.81893700  0.81893700  0.28600600  1
  O  O37  1  0.18106300  0.18106300  0.28600600  1
  O  O38  1  0.68106300  0.31893700  0.78600600  1
  O  O39  1  0.31893700  0.68106300  0.78600600  1
  O  O40  1  0.18106300  0.18106300  0.71399400  1
  O  O41  1  0.81893700  0.81893700  0.71399400  1
  O  O42  1  0.31893700  0.68106300  0.21399400  1
  O  O43  1  0.68106300  0.31893700  0.21399400  1
