# generated using pymatgen
data_Cu(CO3)2
_symmetry_space_group_name_H-M   'P 1'
_cell_length_a   8.35312800
_cell_length_b   7.87695000
_cell_length_c   10.75353474
_cell_angle_alpha   76.77054980
_cell_angle_beta   90.00000000
_cell_angle_gamma   90.00000000
_symmetry_Int_Tables_number   1
_chemical_formula_structural   Cu(CO3)2
_chemical_formula_sum   'Cu4 C8 O24'
_cell_volume   688.77472768
_cell_formula_units_Z   4
loop_
 _symmetry_equiv_pos_site_id
 _symmetry_equiv_pos_as_xyz
  1  'x, y, z'
loop_
 _atom_site_type_symbol
 _atom_site_label
 _atom_site_symmetry_multiplicity
 _atom_site_fract_x
 _atom_site_fract_y
 _atom_site_fract_z
 _atom_site_occupancy
  Cu  Cu0  1  0.50000000  0.00000000  0.50000000  1
  Cu  Cu1  1  0.00000000  0.00000000  0.00000000  1
  Cu  Cu2  1  0.00000000  0.50000000  0.50000000  1
  Cu  Cu3  1  0.50000000  0.50000000  0.00000000  1
  C  C4  1  0.67501900  0.90905900  0.82078700  1
  C  C5  1  0.17501900  0.09094100  0.67921300  1
  C  C6  1  0.32498100  0.09094100  0.17921300  1
  C  C7  1  0.82498100  0.90905900  0.32078700  1
  C  C8  1  0.14054600  0.67065700  0.94881100  1
  C  C9  1  0.64054600  0.32934300  0.55118900  1
  C  C10  1  0.85945400  0.32934300  0.05118900  1
  C  C11  1  0.35945400  0.67065700  0.44881100  1
  O  O12  1  0.59572200  0.91827100  0.72914800  1
  O  O13  1  0.09572200  0.08172900  0.77085200  1
  O  O14  1  0.40427800  0.08172900  0.27085200  1
  O  O15  1  0.90427800  0.91827100  0.22914800  1
  O  O16  1  0.75464700  0.90299000  0.91173800  1
  O  O17  1  0.25464700  0.09701000  0.58826200  1
  O  O18  1  0.24535300  0.09701000  0.08826200  1
  O  O19  1  0.74535300  0.90299000  0.41173800  1
  O  O20  1  0.15896200  0.55420300  0.89997100  1
  O  O21  1  0.65896200  0.44579700  0.60002900  1
  O  O22  1  0.84103800  0.44579700  0.10002900  1
  O  O23  1  0.34103800  0.55420300  0.39997100  1
  O  O24  1  0.11979200  0.78943500  0.99715600  1
  O  O25  1  0.61979200  0.21056500  0.50284400  1
  O  O26  1  0.88020800  0.21056500  0.00284400  1
  O  O27  1  0.38020800  0.78943500  0.49715600  1
  O  O28  1  0.04456000  0.65373300  0.60031300  1
  O  O29  1  0.54456000  0.34626700  0.89968700  1
  O  O30  1  0.95544000  0.34626700  0.39968700  1
  O  O31  1  0.45544000  0.65373300  0.10031300  1
  O  O32  1  0.59805800  0.52246200  0.84477000  1
  O  O33  1  0.09805800  0.47753800  0.65523000  1
  O  O34  1  0.40194200  0.47753800  0.15523000  1
  O  O35  1  0.90194200  0.52246200  0.34477000  1
