# generated using pymatgen
data_PrH2C2Cl2O9
_symmetry_space_group_name_H-M   'P 1'
_cell_length_a   7.32006600
_cell_length_b   8.33498900
_cell_length_c   15.72065036
_cell_angle_alpha   90.00000000
_cell_angle_beta   113.48118055
_cell_angle_gamma   90.00000000
_symmetry_Int_Tables_number   1
_chemical_formula_structural   PrH2C2Cl2O9
_chemical_formula_sum   'Pr4 H8 C8 Cl8 O36'
_cell_volume   879.73185977
_cell_formula_units_Z   4
loop_
 _symmetry_equiv_pos_site_id
 _symmetry_equiv_pos_as_xyz
  1  'x, y, z'
loop_
 _atom_site_type_symbol
 _atom_site_label
 _atom_site_symmetry_multiplicity
 _atom_site_fract_x
 _atom_site_fract_y
 _atom_site_fract_z
 _atom_site_occupancy
  Pr  Pr0  1  0.34301500  0.25531400  0.09377100  1
  Pr  Pr1  1  0.65698500  0.75531400  0.40622900  1
  Pr  Pr2  1  0.65698500  0.74468600  0.90622900  1
  Pr  Pr3  1  0.34301500  0.24468600  0.59377100  1
  H  H4  1  0.05810600  0.07447800  0.91281500  1
  H  H5  1  0.94189400  0.57447800  0.58718500  1
  H  H6  1  0.94189400  0.92552200  0.08718500  1
  H  H7  1  0.05810600  0.42552200  0.41281500  1
  H  H8  1  0.27108300  0.04916800  0.91480600  1
  H  H9  1  0.72891700  0.54916800  0.58519400  1
  H  H10  1  0.72891700  0.95083200  0.08519400  1
  H  H11  1  0.27108300  0.45083200  0.41480600  1
  C  C12  1  0.64961000  0.44697900  0.28238500  1
  C  C13  1  0.35039000  0.94697900  0.21761500  1
  C  C14  1  0.35039000  0.55302100  0.71761500  1
  C  C15  1  0.64961000  0.05302100  0.78238500  1
  C  C16  1  0.44304500  0.44267600  0.28969100  1
  C  C17  1  0.55695500  0.94267600  0.21030900  1
  C  C18  1  0.55695500  0.55732400  0.71030900  1
  C  C19  1  0.44304500  0.05732400  0.78969100  1
  Cl  Cl20  1  0.96499500  0.18523700  0.27520500  1
  Cl  Cl21  1  0.03500500  0.68523700  0.22479500  1
  Cl  Cl22  1  0.03500500  0.81476300  0.72479500  1
  Cl  Cl23  1  0.96499500  0.31476300  0.77520500  1
  Cl  Cl24  1  0.24937500  0.62965000  0.00096900  1
  Cl  Cl25  1  0.75062500  0.12965000  0.49903100  1
  Cl  Cl26  1  0.75062500  0.37035000  0.99903100  1
  Cl  Cl27  1  0.24937500  0.87035000  0.50096900  1
  O  O28  1  0.31526400  0.60480300  0.10068400  1
  O  O29  1  0.68473600  0.10480300  0.39931600  1
  O  O30  1  0.68473600  0.39519700  0.89931600  1
  O  O31  1  0.31526400  0.89519700  0.60068400  1
  O  O32  1  0.24652200  0.47075900  0.95903900  1
  O  O33  1  0.75347800  0.97075900  0.54096100  1
  O  O34  1  0.75347800  0.52924100  0.04096100  1
  O  O35  1  0.24652200  0.02924100  0.45903900  1
  O  O36  1  0.19992000  0.08831100  0.95285300  1
  O  O37  1  0.80008000  0.58831100  0.54714700  1
  O  O38  1  0.80008000  0.91168900  0.04714700  1
  O  O39  1  0.19992000  0.41168900  0.45285300  1
  O  O40  1  0.38613000  0.73609000  0.98183700  1
  O  O41  1  0.61387000  0.23609000  0.51816300  1
  O  O42  1  0.61387000  0.26391000  0.01816300  1
  O  O43  1  0.38613000  0.76391000  0.48183700  1
  O  O44  1  0.21379900  0.02486000  0.15555700  1
  O  O45  1  0.78620100  0.52486000  0.34444300  1
  O  O46  1  0.78620100  0.97514000  0.84444300  1
  O  O47  1  0.21379900  0.47514000  0.65555700  1
  O  O48  1  0.56989000  0.02538500  0.14492700  1
  O  O49  1  0.43011000  0.52538500  0.35507300  1
  O  O50  1  0.43011000  0.97461500  0.85507300  1
  O  O51  1  0.56989000  0.47461500  0.64492700  1
  O  O52  1  0.05177000  0.70075400  0.96314500  1
  O  O53  1  0.94823000  0.20075400  0.53685500  1
  O  O54  1  0.94823000  0.29924600  0.03685500  1
  O  O55  1  0.05177000  0.79924600  0.46314500  1
  O  O56  1  0.65952000  0.36629000  0.21588100  1
  O  O57  1  0.34048000  0.86629000  0.28411900  1
  O  O58  1  0.34048000  0.63371000  0.78411900  1
  O  O59  1  0.65952000  0.13371000  0.71588100  1
  O  O60  1  0.31108700  0.35529900  0.23267200  1
  O  O61  1  0.68891300  0.85529900  0.26732800  1
  O  O62  1  0.68891300  0.64470100  0.76732800  1
  O  O63  1  0.31108700  0.14470100  0.73267200  1
