# generated using pymatgen
data_SrU2Se5
_symmetry_space_group_name_H-M   'P 1'
_cell_length_a   7.74248000
_cell_length_b   8.21560400
_cell_length_c   12.86298200
_cell_angle_alpha   90.00000000
_cell_angle_beta   90.00000000
_cell_angle_gamma   90.00000000
_symmetry_Int_Tables_number   1
_chemical_formula_structural   SrU2Se5
_chemical_formula_sum   'Sr4 U8 Se20'
_cell_volume   818.20334709
_cell_formula_units_Z   4
loop_
 _symmetry_equiv_pos_site_id
 _symmetry_equiv_pos_as_xyz
  1  'x, y, z'
loop_
 _atom_site_type_symbol
 _atom_site_label
 _atom_site_symmetry_multiplicity
 _atom_site_fract_x
 _atom_site_fract_y
 _atom_site_fract_z
 _atom_site_occupancy
  Sr  Sr0  1  0.41915600  0.75000000  0.00620300  1
  Sr  Sr1  1  0.08084400  0.75000000  0.50620300  1
  Sr  Sr2  1  0.58084400  0.25000000  0.99379700  1
  Sr  Sr3  1  0.91915600  0.25000000  0.49379700  1
  U  U4  1  0.98804900  0.99948400  0.18201100  1
  U  U5  1  0.51195100  0.50051600  0.68201100  1
  U  U6  1  0.01195100  0.49948400  0.81798900  1
  U  U7  1  0.48804900  0.00051600  0.31798900  1
  U  U8  1  0.01195100  0.00051600  0.81798900  1
  U  U9  1  0.48804900  0.49948400  0.31798900  1
  U  U10  1  0.98804900  0.50051600  0.18201100  1
  U  U11  1  0.51195100  0.99948400  0.68201100  1
  Se  Se12  1  0.66925700  0.54837900  0.88053800  1
  Se  Se13  1  0.83074300  0.95162100  0.38053800  1
  Se  Se14  1  0.33074300  0.04837900  0.11946200  1
  Se  Se15  1  0.16925700  0.45162100  0.61946200  1
  Se  Se16  1  0.33074300  0.45162100  0.11946200  1
  Se  Se17  1  0.16925700  0.04837900  0.61946200  1
  Se  Se18  1  0.66925700  0.95162100  0.88053800  1
  Se  Se19  1  0.83074300  0.54837900  0.38053800  1
  Se  Se20  1  0.67801100  0.75000000  0.18514300  1
  Se  Se21  1  0.82198900  0.75000000  0.68514300  1
  Se  Se22  1  0.32198900  0.25000000  0.81485700  1
  Se  Se23  1  0.17801100  0.25000000  0.31485700  1
  Se  Se24  1  0.01939200  0.75000000  0.00149400  1
  Se  Se25  1  0.48060800  0.75000000  0.50149400  1
  Se  Se26  1  0.98060800  0.25000000  0.99850600  1
  Se  Se27  1  0.51939200  0.25000000  0.49850600  1
  Se  Se28  1  0.29129400  0.75000000  0.78288100  1
  Se  Se29  1  0.20870600  0.75000000  0.28288100  1
  Se  Se30  1  0.70870600  0.25000000  0.21711900  1
  Se  Se31  1  0.79129400  0.25000000  0.71711900  1
