# generated using pymatgen
data_VH17C4S4(O5F3)4
_symmetry_space_group_name_H-M   'P 1'
_cell_length_a   8.99888000
_cell_length_b   9.01979687
_cell_length_c   9.93805839
_cell_angle_alpha   109.78552594
_cell_angle_beta   103.37098377
_cell_angle_gamma   87.80687333
_symmetry_Int_Tables_number   1
_chemical_formula_structural   VH17C4S4(O5F3)4
_chemical_formula_sum   'V1 H17 C4 S4 O20 F12'
_cell_volume   737.75260890
_cell_formula_units_Z   1
loop_
 _symmetry_equiv_pos_site_id
 _symmetry_equiv_pos_as_xyz
  1  'x, y, z'
loop_
 _atom_site_type_symbol
 _atom_site_label
 _atom_site_symmetry_multiplicity
 _atom_site_fract_x
 _atom_site_fract_y
 _atom_site_fract_z
 _atom_site_occupancy
  V  V0  1  0.00000000  0.00000000  0.00000000  1
  H  H1  1  0.18599900  0.24578900  0.18642800  1
  H  H2  1  0.81400100  0.75421100  0.81357200  1
  H  H3  1  0.98683000  0.68470100  0.84074400  1
  H  H4  1  0.01317000  0.31529900  0.15925600  1
  H  H5  1  0.17680700  0.11246100  0.86527500  1
  H  H6  1  0.82319300  0.88753900  0.13472500  1
  H  H7  1  0.76597300  0.06315000  0.14694700  1
  H  H8  1  0.23402700  0.93685000  0.85305300  1
  H  H9  1  0.87687600  0.17548900  0.83378100  1
  H  H10  1  0.12312400  0.82451100  0.16621900  1
  H  H11  1  0.73585400  0.06067200  0.83365500  1
  H  H12  1  0.26414600  0.93932800  0.16634500  1
  H  H13  1  0.50000000  0.50000000  0.00000000  1
  H  H14  1  0.52466000  0.71566700  0.10900200  1
  H  H15  1  0.47534000  0.28433300  0.89099800  1
  H  H16  1  0.64854100  0.34760700  0.98075700  1
  H  H17  1  0.35145900  0.65239300  0.01924300  1
  C  C18  1  0.42673200  0.78590600  0.54604100  1
  C  C19  1  0.57326800  0.21409400  0.45395900  1
  C  C20  1  0.07648500  0.29716100  0.57656600  1
  C  C21  1  0.92351500  0.70283900  0.42343400  1
  S  S22  1  0.49182500  0.15633200  0.25157900  1
  S  S23  1  0.50817500  0.84366800  0.74842100  1
  S  S24  1  0.08581600  0.36300800  0.77883700  1
  S  S25  1  0.91418400  0.63699200  0.22116300  1
  O  O26  1  0.92630400  0.78107900  0.85499400  1
  O  O27  1  0.07369600  0.21892100  0.14500600  1
  O  O28  1  0.15562900  0.01407400  0.88422100  1
  O  O29  1  0.84437100  0.98592600  0.11577900  1
  O  O30  1  0.84425400  0.10436000  0.88105100  1
  O  O31  1  0.15574600  0.89564000  0.11894900  1
  O  O32  1  0.63080000  0.73555500  0.76384700  1
  O  O33  1  0.36920000  0.26444500  0.23615300  1
  O  O34  1  0.56066200  0.00948200  0.79084800  1
  O  O35  1  0.43933800  0.99051800  0.20915200  1
  O  O36  1  0.93545800  0.31408700  0.78613500  1
  O  O37  1  0.06454200  0.68591300  0.21386500  1
  O  O38  1  0.37907100  0.82159900  0.80600600  1
  O  O39  1  0.62092900  0.17840100  0.19399400  1
  O  O40  1  0.88382000  0.46664800  0.16853700  1
  O  O41  1  0.11618000  0.53335200  0.83146300  1
  O  O42  1  0.78647800  0.72266700  0.16406000  1
  O  O43  1  0.21352200  0.27733300  0.83594000  1
  O  O44  1  0.53975600  0.36635300  0.97366900  1
  O  O45  1  0.46024400  0.63364700  0.02633100  1
  F  F46  1  0.69686900  0.12877300  0.48035600  1
  F  F47  1  0.30313100  0.87122700  0.51964400  1
  F  F48  1  0.61605300  0.36865900  0.51001400  1
  F  F49  1  0.38394700  0.63134100  0.48998600  1
  F  F50  1  0.46914100  0.18636100  0.52273700  1
  F  F51  1  0.53085900  0.81363900  0.47726300  1
  F  F52  1  0.95112300  0.35112400  0.50640900  1
  F  F53  1  0.04887700  0.64887600  0.49359100  1
  F  F54  1  0.06944400  0.13788100  0.52149200  1
  F  F55  1  0.93055600  0.86211900  0.47850800  1
  F  F56  1  0.79813700  0.64846300  0.44784100  1
  F  F57  1  0.20186300  0.35153700  0.55215900  1
