# generated using pymatgen
data_IrN5Cl3
_symmetry_space_group_name_H-M   'P 1'
_cell_length_a   6.27202200
_cell_length_b   7.38105800
_cell_length_c   17.17548900
_cell_angle_alpha   90.00000000
_cell_angle_beta   90.00000000
_cell_angle_gamma   90.00000000
_symmetry_Int_Tables_number   1
_chemical_formula_structural   IrN5Cl3
_chemical_formula_sum   'Ir4 N20 Cl12'
_cell_volume   795.12480423
_cell_formula_units_Z   4
loop_
 _symmetry_equiv_pos_site_id
 _symmetry_equiv_pos_as_xyz
  1  'x, y, z'
loop_
 _atom_site_type_symbol
 _atom_site_label
 _atom_site_symmetry_multiplicity
 _atom_site_fract_x
 _atom_site_fract_y
 _atom_site_fract_z
 _atom_site_occupancy
  Ir  Ir0  1  0.25000000  0.33702600  0.64671400  1
  Ir  Ir1  1  0.25000000  0.16297400  0.14671400  1
  Ir  Ir2  1  0.75000000  0.66297400  0.35328600  1
  Ir  Ir3  1  0.75000000  0.83702600  0.85328600  1
  N  N4  1  0.25000000  0.15439800  0.71076300  1
  N  N5  1  0.25000000  0.34560200  0.21076300  1
  N  N6  1  0.75000000  0.84560200  0.28923700  1
  N  N7  1  0.75000000  0.65439800  0.78923700  1
  N  N8  1  0.25000000  0.54201300  0.69886100  1
  N  N9  1  0.25000000  0.95798700  0.19886100  1
  N  N10  1  0.75000000  0.45798700  0.30113900  1
  N  N11  1  0.75000000  0.04201300  0.80113900  1
  N  N12  1  0.02490600  0.32896700  0.57630300  1
  N  N13  1  0.47509400  0.17103300  0.07630300  1
  N  N14  1  0.52490600  0.67103300  0.42369700  1
  N  N15  1  0.97509400  0.82896700  0.92369700  1
  N  N16  1  0.97509400  0.67103300  0.42369700  1
  N  N17  1  0.52490600  0.82896700  0.92369700  1
  N  N18  1  0.47509400  0.32896700  0.57630300  1
  N  N19  1  0.02490600  0.17103300  0.07630300  1
  N  N20  1  0.25000000  0.14628200  0.42570900  1
  N  N21  1  0.25000000  0.35371800  0.92570900  1
  N  N22  1  0.75000000  0.85371800  0.57429100  1
  N  N23  1  0.75000000  0.64628200  0.07429100  1
  Cl  Cl24  1  0.25000000  0.69054600  0.43561100  1
  Cl  Cl25  1  0.25000000  0.80945400  0.93561100  1
  Cl  Cl26  1  0.75000000  0.30945400  0.56438900  1
  Cl  Cl27  1  0.75000000  0.19054600  0.06438900  1
  Cl  Cl28  1  0.02706400  0.34150200  0.87052600  1
  Cl  Cl29  1  0.47293600  0.15849800  0.37052600  1
  Cl  Cl30  1  0.52706400  0.65849800  0.12947400  1
  Cl  Cl31  1  0.97293600  0.84150200  0.62947400  1
  Cl  Cl32  1  0.97293600  0.65849800  0.12947400  1
  Cl  Cl33  1  0.52706400  0.84150200  0.62947400  1
  Cl  Cl34  1  0.47293600  0.34150200  0.87052600  1
  Cl  Cl35  1  0.02706400  0.15849800  0.37052600  1
