# generated using pymatgen
data_Cd2P2H10CCl2O11
_symmetry_space_group_name_H-M   'P 1'
_cell_length_a   5.72242500
_cell_length_b   9.68166768
_cell_length_c   12.53528136
_cell_angle_alpha   78.18544650
_cell_angle_beta   82.17441713
_cell_angle_gamma   75.11358387
_symmetry_Int_Tables_number   1
_chemical_formula_structural   Cd2P2H10CCl2O11
_chemical_formula_sum   'Cd4 P4 H20 C2 Cl4 O22'
_cell_volume   654.39172665
_cell_formula_units_Z   2
loop_
 _symmetry_equiv_pos_site_id
 _symmetry_equiv_pos_as_xyz
  1  'x, y, z'
loop_
 _atom_site_type_symbol
 _atom_site_label
 _atom_site_symmetry_multiplicity
 _atom_site_fract_x
 _atom_site_fract_y
 _atom_site_fract_z
 _atom_site_occupancy
  Cd  Cd0  1  0.63909300  0.06865300  0.75060300  1
  Cd  Cd1  1  0.36090700  0.93134700  0.24939700  1
  Cd  Cd2  1  0.24752800  0.59673300  0.58114300  1
  Cd  Cd3  1  0.75247200  0.40326700  0.41885700  1
  P  P4  1  0.64596400  0.74010800  0.68216400  1
  P  P5  1  0.35403600  0.25989200  0.31783600  1
  P  P6  1  0.80875900  0.39648300  0.68667700  1
  P  P7  1  0.19124100  0.60351700  0.31332300  1
  H  H8  1  0.11724100  0.19855000  0.82694900  1
  H  H9  1  0.88275900  0.80145000  0.17305100  1
  H  H10  1  0.27398600  0.15086200  0.93076900  1
  H  H11  1  0.72601400  0.84913800  0.06923100  1
  H  H12  1  0.95247000  0.90925800  0.92373900  1
  H  H13  1  0.04753000  0.09074200  0.07626100  1
  H  H14  1  0.76302900  0.04437800  0.96407600  1
  H  H15  1  0.23697100  0.95562200  0.03592400  1
  H  H16  1  0.11876300  0.05233100  0.62550200  1
  H  H17  1  0.88123700  0.94766900  0.37449800  1
  H  H18  1  0.00661000  0.91754300  0.61887200  1
  H  H19  1  0.99339000  0.08245700  0.38112800  1
  H  H20  1  0.26299000  0.24862400  0.62397100  1
  H  H21  1  0.73701000  0.75137600  0.37602900  1
  H  H22  1  0.44158400  0.16946500  0.53646000  1
  H  H23  1  0.55841600  0.83053500  0.46354000  1
  H  H24  1  0.28680800  0.73023400  0.98764500  1
  H  H25  1  0.71319200  0.26976600  0.01235500  1
  H  H26  1  0.36935200  0.83288200  0.88093400  1
  H  H27  1  0.63064800  0.16711800  0.11906600  1
  C  C28  1  0.66853400  0.55008700  0.76348400  1
  C  C29  1  0.33146600  0.44991300  0.23651600  1
  Cl  Cl30  1  0.82942400  0.52628100  0.88143900  1
  Cl  Cl31  1  0.17057600  0.47371900  0.11856100  1
  Cl  Cl32  1  0.36485800  0.53287500  0.81271000  1
  Cl  Cl33  1  0.63514200  0.46712500  0.18729000  1
  O  O34  1  0.28410600  0.16929100  0.85036300  1
  O  O35  1  0.71589400  0.83070900  0.14963700  1
  O  O36  1  0.77682700  0.96078000  0.92667500  1
  O  O37  1  0.22317300  0.03922000  0.07332500  1
  O  O38  1  0.96727900  0.02070100  0.62620200  1
  O  O39  1  0.03272100  0.97929900  0.37379800  1
  O  O40  1  0.36515800  0.15096400  0.61314900  1
  O  O41  1  0.63484200  0.84903600  0.38685100  1
  O  O42  1  0.25385900  0.83044300  0.94943500  1
  O  O43  1  0.74614100  0.16955700  0.05056500  1
  O  O44  1  0.55223400  0.84256400  0.76487600  1
  O  O45  1  0.44776600  0.15743600  0.23512400  1
  O  O46  1  0.90118000  0.74805300  0.62981200  1
  O  O47  1  0.09882000  0.25194700  0.37018800  1
  O  O48  1  0.46667700  0.75620200  0.59627400  1
  O  O49  1  0.53332300  0.24379800  0.40372600  1
  O  O50  1  0.63434200  0.41952400  0.59681800  1
  O  O51  1  0.36565800  0.58047600  0.40318200  1
  O  O52  1  0.06435500  0.41136500  0.63930100  1
  O  O53  1  0.93564500  0.58863500  0.36069900  1
  O  O54  1  0.81769300  0.25513700  0.76925800  1
  O  O55  1  0.18230700  0.74486300  0.23074200  1
