# generated using pymatgen
data_NaLi2(RuO2)6
_symmetry_space_group_name_H-M   'P 1'
_cell_length_a   5.62418863
_cell_length_b   9.51069038
_cell_length_c   9.87308851
_cell_angle_alpha   118.68144393
_cell_angle_beta   105.97454205
_cell_angle_gamma   90.67268446
_symmetry_Int_Tables_number   1
_chemical_formula_structural   NaLi2(RuO2)6
_chemical_formula_sum   'Na2 Li4 Ru12 O24'
_cell_volume   438.89723700
_cell_formula_units_Z   2
loop_
 _symmetry_equiv_pos_site_id
 _symmetry_equiv_pos_as_xyz
  1  'x, y, z'
loop_
 _atom_site_type_symbol
 _atom_site_label
 _atom_site_symmetry_multiplicity
 _atom_site_fract_x
 _atom_site_fract_y
 _atom_site_fract_z
 _atom_site_occupancy
  Na  Na0  1  0.75262300  0.98489400  0.00111000  1
  Na  Na1  1  0.24737700  0.01510600  0.99889000  1
  Li  Li2  1  0.96439700  0.32891400  0.66481300  1
  Li  Li3  1  0.03560300  0.67108600  0.33518700  1
  Li  Li4  1  0.47363200  0.33864800  0.66804100  1
  Li  Li5  1  0.52636800  0.66135200  0.33195900  1
  Ru  Ru6  1  0.82637800  0.33536100  0.35835100  1
  Ru  Ru7  1  0.17362200  0.66463900  0.64164900  1
  Ru  Ru8  1  0.28190700  0.34474900  0.36139100  1
  Ru  Ru9  1  0.71809300  0.65525100  0.63860900  1
  Ru  Ru10  1  0.86038500  0.36267000  0.01882200  1
  Ru  Ru11  1  0.13961500  0.63733000  0.98117800  1
  Ru  Ru12  1  0.40604200  0.35594400  0.02028000  1
  Ru  Ru13  1  0.59395800  0.64405600  0.97972000  1
  Ru  Ru14  1  0.52318500  0.98542000  0.34003200  1
  Ru  Ru15  1  0.47681500  0.01458000  0.65996800  1
  Ru  Ru16  1  0.06777100  0.97603200  0.34016900  1
  Ru  Ru17  1  0.93222900  0.02396800  0.65983100  1
  O  O18  1  0.18007400  0.12016800  0.59431700  1
  O  O19  1  0.81992600  0.87983200  0.40568300  1
  O  O20  1  0.66574000  0.14257700  0.59378100  1
  O  O21  1  0.33426000  0.85742300  0.40621900  1
  O  O22  1  0.42194200  0.82807300  0.09817300  1
  O  O23  1  0.57805800  0.17192700  0.90182700  1
  O  O24  1  0.92857600  0.79650200  0.09772900  1
  O  O25  1  0.07142400  0.20349800  0.90227100  1
  O  O26  1  0.74466300  0.89733300  0.72273900  1
  O  O27  1  0.25533700  0.10266700  0.27726100  1
  O  O28  1  0.21675100  0.90256300  0.69864200  1
  O  O29  1  0.78324900  0.09743700  0.30135800  1
  O  O30  1  0.47937100  0.29822400  0.20291500  1
  O  O31  1  0.52062900  0.70177600  0.79708500  1
  O  O32  1  0.95931400  0.27638600  0.17425400  1
  O  O33  1  0.04068600  0.72361400  0.82574600  1
  O  O34  1  0.14360900  0.41270400  0.55165700  1
  O  O35  1  0.85639100  0.58729600  0.44834300  1
  O  O36  1  0.63707400  0.40111700  0.52578700  1
  O  O37  1  0.36292600  0.59888300  0.47421300  1
  O  O38  1  0.31399700  0.44860100  0.86339700  1
  O  O39  1  0.68600300  0.55139900  0.13660300  1
  O  O40  1  0.80802500  0.47378400  0.87488400  1
  O  O41  1  0.19197500  0.52621600  0.12511600  1
