# generated using pymatgen
data_CdP14Pb
_symmetry_space_group_name_H-M   'P 1'
_cell_length_a   9.85634200
_cell_length_b   11.68303700
_cell_length_c   13.18178800
_cell_angle_alpha   90.00000000
_cell_angle_beta   90.00000000
_cell_angle_gamma   90.00000000
_symmetry_Int_Tables_number   1
_chemical_formula_structural   CdP14Pb
_chemical_formula_sum   'Cd4 P56 Pb4'
_cell_volume   1517.90936080
_cell_formula_units_Z   4
loop_
 _symmetry_equiv_pos_site_id
 _symmetry_equiv_pos_as_xyz
  1  'x, y, z'
loop_
 _atom_site_type_symbol
 _atom_site_label
 _atom_site_symmetry_multiplicity
 _atom_site_fract_x
 _atom_site_fract_y
 _atom_site_fract_z
 _atom_site_occupancy
  Cd  Cd0  1  0.25000000  0.40723500  0.78478600  1
  Cd  Cd1  1  0.25000000  0.09276500  0.28478600  1
  Cd  Cd2  1  0.75000000  0.59276500  0.21521400  1
  Cd  Cd3  1  0.75000000  0.90723500  0.71521400  1
  P  P4  1  0.75000000  0.17403400  0.99261400  1
  P  P5  1  0.75000000  0.32596600  0.49261400  1
  P  P6  1  0.25000000  0.82596600  0.00738600  1
  P  P7  1  0.25000000  0.67403400  0.50738600  1
  P  P8  1  0.09521900  0.11852700  0.01722200  1
  P  P9  1  0.40478100  0.38147300  0.51722200  1
  P  P10  1  0.59521900  0.88147300  0.98277800  1
  P  P11  1  0.90478100  0.61852700  0.48277800  1
  P  P12  1  0.90478100  0.88147300  0.98277800  1
  P  P13  1  0.59521900  0.61852700  0.48277800  1
  P  P14  1  0.40478100  0.11852700  0.01722200  1
  P  P15  1  0.09521900  0.38147300  0.51722200  1
  P  P16  1  0.25000000  0.27862500  0.95721500  1
  P  P17  1  0.25000000  0.22137500  0.45721500  1
  P  P18  1  0.75000000  0.72137500  0.04278500  1
  P  P19  1  0.75000000  0.77862500  0.54278500  1
  P  P20  1  0.58829200  0.07084800  0.92565100  1
  P  P21  1  0.91170800  0.42915200  0.42565100  1
  P  P22  1  0.08829200  0.92915200  0.07434900  1
  P  P23  1  0.41170800  0.57084800  0.57434900  1
  P  P24  1  0.41170800  0.92915200  0.07434900  1
  P  P25  1  0.08829200  0.57084800  0.57434900  1
  P  P26  1  0.91170800  0.07084800  0.92565100  1
  P  P27  1  0.58829200  0.42915200  0.42565100  1
  P  P28  1  0.25000000  0.09515700  0.57850700  1
  P  P29  1  0.25000000  0.40484300  0.07850700  1
  P  P30  1  0.75000000  0.90484300  0.42149300  1
  P  P31  1  0.75000000  0.59515700  0.92149300  1
  P  P32  1  0.58579300  0.06615800  0.58800800  1
  P  P33  1  0.91420700  0.43384200  0.08800800  1
  P  P34  1  0.08579300  0.93384200  0.41199200  1
  P  P35  1  0.41420700  0.56615800  0.91199200  1
  P  P36  1  0.41420700  0.93384200  0.41199200  1
  P  P37  1  0.08579300  0.56615800  0.91199200  1
  P  P38  1  0.91420700  0.06615800  0.58800800  1
  P  P39  1  0.58579300  0.43384200  0.08800800  1
  P  P40  1  0.75000000  0.13847700  0.67573000  1
  P  P41  1  0.75000000  0.36152300  0.17573000  1
  P  P42  1  0.25000000  0.86152300  0.32427000  1
  P  P43  1  0.25000000  0.63847700  0.82427000  1
  P  P44  1  0.07843700  0.13962700  0.68233600  1
  P  P45  1  0.42156300  0.36037300  0.18233600  1
  P  P46  1  0.57843700  0.86037300  0.31766400  1
  P  P47  1  0.92156300  0.63962700  0.81766400  1
  P  P48  1  0.92156300  0.86037300  0.31766400  1
  P  P49  1  0.57843700  0.63962700  0.81766400  1
  P  P50  1  0.42156300  0.13962700  0.68233600  1
  P  P51  1  0.07843700  0.36037300  0.18233600  1
  P  P52  1  0.04570500  0.32601900  0.67359500  1
  P  P53  1  0.45429500  0.17398100  0.17359500  1
  P  P54  1  0.54570500  0.67398100  0.32640500  1
  P  P55  1  0.95429500  0.82601900  0.82640500  1
  P  P56  1  0.95429500  0.67398100  0.32640500  1
  P  P57  1  0.54570500  0.82601900  0.82640500  1
  P  P58  1  0.45429500  0.32601900  0.67359500  1
  P  P59  1  0.04570500  0.17398100  0.17359500  1
  Pb  Pb60  1  0.75000000  0.38488000  0.70008100  1
  Pb  Pb61  1  0.75000000  0.11512000  0.20008100  1
  Pb  Pb62  1  0.25000000  0.61512000  0.29991900  1
  Pb  Pb63  1  0.25000000  0.88488000  0.79991900  1
