# generated using pymatgen
data_P3H2CN2Cl11
_symmetry_space_group_name_H-M   'P 1'
_cell_length_a   13.25861700
_cell_length_b   11.05465900
_cell_length_c   13.74877340
_cell_angle_alpha   83.93444795
_cell_angle_beta   90.00000000
_cell_angle_gamma   90.00000000
_symmetry_Int_Tables_number   1
_chemical_formula_structural   P3H2CN2Cl11
_chemical_formula_sum   'P12 H8 C4 N8 Cl44'
_cell_volume   2003.86918963
_cell_formula_units_Z   4
loop_
 _symmetry_equiv_pos_site_id
 _symmetry_equiv_pos_as_xyz
  1  'x, y, z'
loop_
 _atom_site_type_symbol
 _atom_site_label
 _atom_site_symmetry_multiplicity
 _atom_site_fract_x
 _atom_site_fract_y
 _atom_site_fract_z
 _atom_site_occupancy
  P  P0  1  0.81115700  0.06369200  0.92877200  1
  P  P1  1  0.31115700  0.93630800  0.57122800  1
  P  P2  1  0.18884300  0.93630800  0.07122800  1
  P  P3  1  0.68884300  0.06369200  0.42877200  1
  P  P4  1  0.89566000  0.29962200  0.97517000  1
  P  P5  1  0.39566000  0.70037800  0.52483000  1
  P  P6  1  0.10434000  0.70037800  0.02483000  1
  P  P7  1  0.60434000  0.29962200  0.47517000  1
  P  P8  1  0.73720700  0.49447500  0.91596300  1
  P  P9  1  0.23720700  0.50552500  0.58403700  1
  P  P10  1  0.26279300  0.50552500  0.08403700  1
  P  P11  1  0.76279300  0.49447500  0.41596300  1
  H  H12  1  0.95773100  0.05751000  0.63094100  1
  H  H13  1  0.45773100  0.94249000  0.86905900  1
  H  H14  1  0.04226900  0.94249000  0.36905900  1
  H  H15  1  0.54226900  0.05751000  0.13094100  1
  H  H16  1  0.00653900  0.18155500  0.54424900  1
  H  H17  1  0.50653900  0.81844500  0.95575100  1
  H  H18  1  0.99346100  0.81844500  0.45575100  1
  H  H19  1  0.49346100  0.18155500  0.04424900  1
  C  C20  1  0.98018200  0.15367700  0.61881800  1
  C  C21  1  0.48018200  0.84632300  0.88118200  1
  C  C22  1  0.01981800  0.84632300  0.38118200  1
  C  C23  1  0.51981800  0.15367700  0.11881800  1
  N  N24  1  0.88440700  0.17264000  0.93317300  1
  N  N25  1  0.38440700  0.82736000  0.56682700  1
  N  N26  1  0.11559300  0.82736000  0.06682700  1
  N  N27  1  0.61559300  0.17264000  0.43317300  1
  N  N28  1  0.80401600  0.38925400  0.96347200  1
  N  N29  1  0.30401600  0.61074600  0.53652800  1
  N  N30  1  0.19598400  0.61074600  0.03652800  1
  N  N31  1  0.69598400  0.38925400  0.46347200  1
  Cl  Cl32  1  0.93366700  0.79617500  0.65304500  1
  Cl  Cl33  1  0.43366700  0.20382500  0.84695500  1
  Cl  Cl34  1  0.06633300  0.20382500  0.34695500  1
  Cl  Cl35  1  0.56633300  0.79617500  0.15304500  1
  Cl  Cl36  1  0.80200400  0.95730100  0.05526600  1
  Cl  Cl37  1  0.30200400  0.04269900  0.44473400  1
  Cl  Cl38  1  0.19799600  0.04269900  0.94473400  1
  Cl  Cl39  1  0.69799600  0.95730100  0.55526600  1
  Cl  Cl40  1  0.86034000  0.95783800  0.83035300  1
  Cl  Cl41  1  0.36034000  0.04216200  0.66964700  1
  Cl  Cl42  1  0.13966000  0.04216200  0.16964700  1
  Cl  Cl43  1  0.63966000  0.95783800  0.33035300  1
  Cl  Cl44  1  0.66941900  0.11090300  0.89242500  1
  Cl  Cl45  1  0.16941900  0.88909700  0.60757500  1
  Cl  Cl46  1  0.33058100  0.88909700  0.10757500  1
  Cl  Cl47  1  0.83058100  0.11090300  0.39242500  1
  Cl  Cl48  1  0.93320600  0.27299900  0.11702000  1
  Cl  Cl49  1  0.43320600  0.72700100  0.38298000  1
  Cl  Cl50  1  0.06679400  0.72700100  0.88298000  1
  Cl  Cl51  1  0.56679400  0.27299900  0.61702000  1
  Cl  Cl52  1  0.01911200  0.37579700  0.91012400  1
  Cl  Cl53  1  0.51911200  0.62420300  0.58987600  1
  Cl  Cl54  1  0.98088800  0.62420300  0.08987600  1
  Cl  Cl55  1  0.48088800  0.37579700  0.41012400  1
  Cl  Cl56  1  0.69004000  0.60262100  0.01429300  1
  Cl  Cl57  1  0.19004000  0.39737900  0.48570700  1
  Cl  Cl58  1  0.30996000  0.39737900  0.98570700  1
  Cl  Cl59  1  0.80996000  0.60262100  0.51429300  1
  Cl  Cl60  1  0.80607800  0.60120700  0.80941800  1
  Cl  Cl61  1  0.30607800  0.39879300  0.69058200  1
  Cl  Cl62  1  0.19392200  0.39879300  0.19058200  1
  Cl  Cl63  1  0.69392200  0.60120700  0.30941800  1
  Cl  Cl64  1  0.61135100  0.43139900  0.85989000  1
  Cl  Cl65  1  0.11135100  0.56860100  0.64011000  1
  Cl  Cl66  1  0.38864900  0.56860100  0.14011000  1
  Cl  Cl67  1  0.88864900  0.43139900  0.35989000  1
  Cl  Cl68  1  0.87281300  0.24377200  0.64140400  1
  Cl  Cl69  1  0.37281300  0.75622800  0.85859600  1
  Cl  Cl70  1  0.12718700  0.75622800  0.35859600  1
  Cl  Cl71  1  0.62718700  0.24377200  0.14140400  1
  Cl  Cl72  1  0.08025300  0.17675300  0.70075500  1
  Cl  Cl73  1  0.58025300  0.82324700  0.79924500  1
  Cl  Cl74  1  0.91974700  0.82324700  0.29924500  1
  Cl  Cl75  1  0.41974700  0.17675300  0.20075500  1
