# generated using pymatgen
data_NaB6NO10
_symmetry_space_group_name_H-M   'P 1'
_cell_length_a   12.46692600
_cell_length_b   12.46692600
_cell_length_c   12.46692600
_cell_angle_alpha   90.00000000
_cell_angle_beta   90.00000000
_cell_angle_gamma   90.00000000
_symmetry_Int_Tables_number   1
_chemical_formula_structural   NaB6NO10
_chemical_formula_sum   'Na8 B48 N8 O80'
_cell_volume   1937.66254718
_cell_formula_units_Z   8
loop_
 _symmetry_equiv_pos_site_id
 _symmetry_equiv_pos_as_xyz
  1  'x, y, z'
loop_
 _atom_site_type_symbol
 _atom_site_label
 _atom_site_symmetry_multiplicity
 _atom_site_fract_x
 _atom_site_fract_y
 _atom_site_fract_z
 _atom_site_occupancy
  Na  Na0  1  0.35550800  0.64449200  0.14449200  1
  Na  Na1  1  0.64449200  0.14449200  0.35550800  1
  Na  Na2  1  0.14449200  0.35550800  0.64449200  1
  Na  Na3  1  0.85550800  0.85550800  0.85550800  1
  Na  Na4  1  0.64449200  0.35550800  0.85550800  1
  Na  Na5  1  0.35550800  0.85550800  0.64449200  1
  Na  Na6  1  0.85550800  0.64449200  0.35550800  1
  Na  Na7  1  0.14449200  0.14449200  0.14449200  1
  B  B8  1  0.30351100  0.67091800  0.85893400  1
  B  B9  1  0.69648900  0.17091800  0.64106600  1
  B  B10  1  0.19648900  0.32908200  0.35893400  1
  B  B11  1  0.80351100  0.82908200  0.14106600  1
  B  B12  1  0.85893400  0.30351100  0.67091800  1
  B  B13  1  0.64106600  0.69648900  0.17091800  1
  B  B14  1  0.35893400  0.19648900  0.32908200  1
  B  B15  1  0.14106600  0.80351100  0.82908200  1
  B  B16  1  0.67091800  0.85893400  0.30351100  1
  B  B17  1  0.17091800  0.64106600  0.69648900  1
  B  B18  1  0.32908200  0.35893400  0.19648900  1
  B  B19  1  0.82908200  0.14106600  0.80351100  1
  B  B20  1  0.69648900  0.32908200  0.14106600  1
  B  B21  1  0.30351100  0.82908200  0.35893400  1
  B  B22  1  0.80351100  0.67091800  0.64106600  1
  B  B23  1  0.19648900  0.17091800  0.85893400  1
  B  B24  1  0.14106600  0.69648900  0.32908200  1
  B  B25  1  0.35893400  0.30351100  0.82908200  1
  B  B26  1  0.64106600  0.80351100  0.67091800  1
  B  B27  1  0.85893400  0.19648900  0.17091800  1
  B  B28  1  0.32908200  0.14106600  0.69648900  1
  B  B29  1  0.82908200  0.35893400  0.30351100  1
  B  B30  1  0.67091800  0.64106600  0.80351100  1
  B  B31  1  0.17091800  0.85893400  0.19648900  1
  B  B32  1  0.22250100  0.78002800  0.00822300  1
  B  B33  1  0.77749900  0.28002800  0.49177700  1
  B  B34  1  0.27749900  0.21997200  0.50822300  1
  B  B35  1  0.72250100  0.71997200  0.99177700  1
  B  B36  1  0.00822300  0.22250100  0.78002800  1
  B  B37  1  0.49177700  0.77749900  0.28002800  1
  B  B38  1  0.50822300  0.27749900  0.21997200  1
  B  B39  1  0.99177700  0.72250100  0.71997200  1
  B  B40  1  0.78002800  0.00822300  0.22250100  1
  B  B41  1  0.28002800  0.49177700  0.77749900  1
  B  B42  1  0.21997200  0.50822300  0.27749900  1
  B  B43  1  0.71997200  0.99177700  0.72250100  1
  B  B44  1  0.77749900  0.21997200  0.99177700  1
  B  B45  1  0.22250100  0.71997200  0.50822300  1
  B  B46  1  0.72250100  0.78002800  0.49177700  1
  B  B47  1  0.27749900  0.28002800  0.00822300  1
  B  B48  1  0.99177700  0.77749900  0.21997200  1
  B  B49  1  0.50822300  0.22250100  0.71997200  1
  B  B50  1  0.49177700  0.72250100  0.78002800  1
  B  B51  1  0.00822300  0.27749900  0.28002800  1
  B  B52  1  0.21997200  0.99177700  0.77749900  1
  B  B53  1  0.71997200  0.50822300  0.22250100  1
  B  B54  1  0.78002800  0.49177700  0.72250100  1
  B  B55  1  0.28002800  0.00822300  0.27749900  1
  N  N56  1  0.00000000  0.50000000  0.00000000  1
  N  N57  1  0.00000000  0.00000000  0.50000000  1
  N  N58  1  0.50000000  0.50000000  0.50000000  1
  N  N59  1  0.50000000  0.00000000  0.00000000  1
  N  N60  1  0.50000000  0.50000000  0.00000000  1
  N  N61  1  0.50000000  0.00000000  0.50000000  1
  N  N62  1  0.00000000  0.50000000  0.50000000  1
  N  N63  1  0.00000000  0.00000000  0.00000000  1
  O  O64  1  0.19585300  0.69585300  0.80414700  1
  O  O65  1  0.80414700  0.19585300  0.69585300  1
  O  O66  1  0.30414700  0.30414700  0.30414700  1
  O  O67  1  0.69585300  0.80414700  0.19585300  1
  O  O68  1  0.80414700  0.30414700  0.19585300  1
  O  O69  1  0.19585300  0.80414700  0.30414700  1
  O  O70  1  0.69585300  0.69585300  0.69585300  1
  O  O71  1  0.30414700  0.19585300  0.80414700  1
  O  O72  1  0.32499000  0.55713400  0.85255400  1
  O  O73  1  0.67501000  0.05713400  0.64744600  1
  O  O74  1  0.17501000  0.44286600  0.35255400  1
  O  O75  1  0.82499000  0.94286600  0.14744600  1
  O  O76  1  0.85255400  0.32499000  0.55713400  1
  O  O77  1  0.64744600  0.67501000  0.05713400  1
  O  O78  1  0.35255400  0.17501000  0.44286600  1
  O  O79  1  0.14744600  0.82499000  0.94286600  1
  O  O80  1  0.55713400  0.85255400  0.32499000  1
  O  O81  1  0.05713400  0.64744600  0.67501000  1
  O  O82  1  0.44286600  0.35255400  0.17501000  1
  O  O83  1  0.94286600  0.14744600  0.82499000  1
  O  O84  1  0.67501000  0.44286600  0.14744600  1
  O  O85  1  0.32499000  0.94286600  0.35255400  1
  O  O86  1  0.82499000  0.55713400  0.64744600  1
  O  O87  1  0.17501000  0.05713400  0.85255400  1
  O  O88  1  0.14744600  0.67501000  0.44286600  1
  O  O89  1  0.35255400  0.32499000  0.94286600  1
  O  O90  1  0.64744600  0.82499000  0.55713400  1
  O  O91  1  0.85255400  0.17501000  0.05713400  1
  O  O92  1  0.44286600  0.14744600  0.67501000  1
  O  O93  1  0.94286600  0.35255400  0.32499000  1
  O  O94  1  0.55713400  0.64744600  0.82499000  1
  O  O95  1  0.05713400  0.85255400  0.17501000  1
  O  O96  1  0.29596900  0.70482900  0.97071700  1
  O  O97  1  0.70403100  0.20482900  0.52928300  1
  O  O98  1  0.20403100  0.29517100  0.47071700  1
  O  O99  1  0.79596900  0.79517100  0.02928300  1
  O  O100  1  0.97071700  0.29596900  0.70482900  1
  O  O101  1  0.52928300  0.70403100  0.20482900  1
  O  O102  1  0.47071700  0.20403100  0.29517100  1
  O  O103  1  0.02928300  0.79596900  0.79517100  1
  O  O104  1  0.70482900  0.97071700  0.29596900  1
  O  O105  1  0.20482900  0.52928300  0.70403100  1
  O  O106  1  0.29517100  0.47071700  0.20403100  1
  O  O107  1  0.79517100  0.02928300  0.79596900  1
  O  O108  1  0.70403100  0.29517100  0.02928300  1
  O  O109  1  0.29596900  0.79517100  0.47071700  1
  O  O110  1  0.79596900  0.70482900  0.52928300  1
  O  O111  1  0.20403100  0.20482900  0.97071700  1
  O  O112  1  0.02928300  0.70403100  0.29517100  1
  O  O113  1  0.47071700  0.29596900  0.79517100  1
  O  O114  1  0.52928300  0.79596900  0.70482900  1
  O  O115  1  0.97071700  0.20403100  0.20482900  1
  O  O116  1  0.29517100  0.02928300  0.70403100  1
  O  O117  1  0.79517100  0.47071700  0.29596900  1
  O  O118  1  0.70482900  0.52928300  0.79596900  1
  O  O119  1  0.20482900  0.97071700  0.20403100  1
  O  O120  1  0.23427600  0.80272600  0.11530400  1
  O  O121  1  0.76572400  0.30272600  0.38469600  1
  O  O122  1  0.26572400  0.19727400  0.61530400  1
  O  O123  1  0.73427600  0.69727400  0.88469600  1
  O  O124  1  0.11530400  0.23427600  0.80272600  1
  O  O125  1  0.38469600  0.76572400  0.30272600  1
  O  O126  1  0.61530400  0.26572400  0.19727400  1
  O  O127  1  0.88469600  0.73427600  0.69727400  1
  O  O128  1  0.80272600  0.11530400  0.23427600  1
  O  O129  1  0.30272600  0.38469600  0.76572400  1
  O  O130  1  0.19727400  0.61530400  0.26572400  1
  O  O131  1  0.69727400  0.88469600  0.73427600  1
  O  O132  1  0.76572400  0.19727400  0.88469600  1
  O  O133  1  0.23427600  0.69727400  0.61530400  1
  O  O134  1  0.73427600  0.80272600  0.38469600  1
  O  O135  1  0.26572400  0.30272600  0.11530400  1
  O  O136  1  0.88469600  0.76572400  0.19727400  1
  O  O137  1  0.61530400  0.23427600  0.69727400  1
  O  O138  1  0.38469600  0.73427600  0.80272600  1
  O  O139  1  0.11530400  0.26572400  0.30272600  1
  O  O140  1  0.19727400  0.88469600  0.76572400  1
  O  O141  1  0.69727400  0.61530400  0.23427600  1
  O  O142  1  0.80272600  0.38469600  0.73427600  1
  O  O143  1  0.30272600  0.11530400  0.26572400  1
