# generated using pymatgen
data_Yb5Sn4
_symmetry_space_group_name_H-M   'P 1'
_cell_length_a   7.97394500
_cell_length_b   8.42037600
_cell_length_c   16.42755400
_cell_angle_alpha   90.00000000
_cell_angle_beta   90.00000000
_cell_angle_gamma   90.00000000
_symmetry_Int_Tables_number   1
_chemical_formula_structural   Yb5Sn4
_chemical_formula_sum   'Yb20 Sn16'
_cell_volume   1103.00536287
_cell_formula_units_Z   4
loop_
 _symmetry_equiv_pos_site_id
 _symmetry_equiv_pos_as_xyz
  1  'x, y, z'
loop_
 _atom_site_type_symbol
 _atom_site_label
 _atom_site_symmetry_multiplicity
 _atom_site_fract_x
 _atom_site_fract_y
 _atom_site_fract_z
 _atom_site_occupancy
  Yb  Yb0  1  0.64623000  0.17887800  0.62403300  1
  Yb  Yb1  1  0.14623000  0.32112200  0.87596700  1
  Yb  Yb2  1  0.35377000  0.82112200  0.12403300  1
  Yb  Yb3  1  0.85377000  0.67887800  0.37596700  1
  Yb  Yb4  1  0.35377000  0.82112200  0.37596700  1
  Yb  Yb5  1  0.85377000  0.67887800  0.12403300  1
  Yb  Yb6  1  0.64623000  0.17887800  0.87596700  1
  Yb  Yb7  1  0.14623000  0.32112200  0.62403300  1
  Yb  Yb8  1  0.48278200  0.68224500  0.59868200  1
  Yb  Yb9  1  0.98278200  0.81775500  0.90131800  1
  Yb  Yb10  1  0.51721800  0.31775500  0.09868200  1
  Yb  Yb11  1  0.01721800  0.18224500  0.40131800  1
  Yb  Yb12  1  0.51721800  0.31775500  0.40131800  1
  Yb  Yb13  1  0.01721800  0.18224500  0.09868200  1
  Yb  Yb14  1  0.48278200  0.68224500  0.90131800  1
  Yb  Yb15  1  0.98278200  0.81775500  0.59868200  1
  Yb  Yb16  1  0.81665400  0.49897900  0.75000000  1
  Yb  Yb17  1  0.31665400  0.00102100  0.75000000  1
  Yb  Yb18  1  0.18334600  0.50102100  0.25000000  1
  Yb  Yb19  1  0.68334600  0.99897900  0.25000000  1
  Sn  Sn20  1  0.67830800  0.97362700  0.46420200  1
  Sn  Sn21  1  0.17830800  0.52637300  0.03579800  1
  Sn  Sn22  1  0.32169200  0.02637300  0.96420200  1
  Sn  Sn23  1  0.82169200  0.47362700  0.53579800  1
  Sn  Sn24  1  0.32169200  0.02637300  0.53579800  1
  Sn  Sn25  1  0.82169200  0.47362700  0.96420200  1
  Sn  Sn26  1  0.67830800  0.97362700  0.03579800  1
  Sn  Sn27  1  0.17830800  0.52637300  0.46420200  1
  Sn  Sn28  1  0.44105400  0.39100300  0.75000000  1
  Sn  Sn29  1  0.94105400  0.10899700  0.75000000  1
  Sn  Sn30  1  0.55894600  0.60899700  0.25000000  1
  Sn  Sn31  1  0.05894600  0.89100300  0.25000000  1
  Sn  Sn32  1  0.69077400  0.86148900  0.75000000  1
  Sn  Sn33  1  0.19077400  0.63851100  0.75000000  1
  Sn  Sn34  1  0.30922600  0.13851100  0.25000000  1
  Sn  Sn35  1  0.80922600  0.36148900  0.25000000  1
