# generated using pymatgen
data_P2O9
_symmetry_space_group_name_H-M   'P 1'
_cell_length_a   13.57889700
_cell_length_b   7.87765700
_cell_length_c   8.42237320
_cell_angle_alpha   69.13796728
_cell_angle_beta   90.00000000
_cell_angle_gamma   90.00000000
_symmetry_Int_Tables_number   1
_chemical_formula_structural   P2O9
_chemical_formula_sum   'P8 O36'
_cell_volume   841.87530768
_cell_formula_units_Z   4
loop_
 _symmetry_equiv_pos_site_id
 _symmetry_equiv_pos_as_xyz
  1  'x, y, z'
loop_
 _atom_site_type_symbol
 _atom_site_label
 _atom_site_symmetry_multiplicity
 _atom_site_fract_x
 _atom_site_fract_y
 _atom_site_fract_z
 _atom_site_occupancy
  P  P0  1  0.13655000  0.64521700  0.42565400  1
  P  P1  1  0.63655000  0.35478300  0.07434600  1
  P  P2  1  0.86345000  0.35478300  0.57434600  1
  P  P3  1  0.36345000  0.64521700  0.92565400  1
  P  P4  1  0.10210000  0.23949800  0.06464600  1
  P  P5  1  0.60210000  0.76050200  0.43535400  1
  P  P6  1  0.89790000  0.76050200  0.93535400  1
  P  P7  1  0.39790000  0.23949800  0.56464600  1
  O  O8  1  0.07240600  0.79410400  0.45121600  1
  O  O9  1  0.57240600  0.20589600  0.04878400  1
  O  O10  1  0.92759400  0.20589600  0.54878400  1
  O  O11  1  0.42759400  0.79410400  0.95121600  1
  O  O12  1  0.24343600  0.71527300  0.41310200  1
  O  O13  1  0.74343500  0.28472700  0.08689800  1
  O  O14  1  0.75656400  0.28472700  0.58689800  1
  O  O15  1  0.25656400  0.71527300  0.91310200  1
  O  O16  1  0.12806900  0.45877300  0.56867900  1
  O  O17  1  0.62806900  0.54122700  0.93132100  1
  O  O18  1  0.87193100  0.54122700  0.43132100  1
  O  O19  1  0.37193100  0.45877300  0.06867900  1
  O  O20  1  0.10600000  0.61393500  0.26201900  1
  O  O21  1  0.60600000  0.38606500  0.23798100  1
  O  O22  1  0.89400000  0.38606500  0.73798100  1
  O  O23  1  0.39400000  0.61393500  0.76201900  1
  O  O24  1  0.16804600  0.08720300  0.04920100  1
  O  O25  1  0.66804600  0.91279700  0.45079900  1
  O  O26  1  0.83195400  0.91279700  0.95079900  1
  O  O27  1  0.33195400  0.08720300  0.54920100  1
  O  O28  1  0.99269500  0.19352200  0.05374400  1
  O  O29  1  0.49269500  0.80647800  0.44625600  1
  O  O30  1  0.00730500  0.80647800  0.94625600  1
  O  O31  1  0.50730500  0.19352200  0.55374400  1
  O  O32  1  0.11950600  0.25868500  0.23801500  1
  O  O33  1  0.61950600  0.74131500  0.26198500  1
  O  O34  1  0.88049400  0.74131500  0.76198500  1
  O  O35  1  0.38049400  0.25868500  0.73801500  1
  O  O36  1  0.12781500  0.41777000  0.91944800  1
  O  O37  1  0.62781500  0.58223000  0.58055200  1
  O  O38  1  0.87218500  0.58223000  0.08055200  1
  O  O39  1  0.37218500  0.41777000  0.41944800  1
  O  O40  1  0.13891800  0.01796700  0.63643300  1
  O  O41  1  0.63891800  0.98203300  0.86356700  1
  O  O42  1  0.86108200  0.98203300  0.36356700  1
  O  O43  1  0.36108200  0.01796700  0.13643300  1
