# generated using pymatgen
data_K2FeP4O15
_symmetry_space_group_name_H-M   'P 1'
_cell_length_a   5.22259100
_cell_length_b   13.90379200
_cell_length_c   19.95847000
_cell_angle_alpha   90.00000000
_cell_angle_beta   90.00000000
_cell_angle_gamma   90.00000000
_symmetry_Int_Tables_number   1
_chemical_formula_structural   K2FeP4O15
_chemical_formula_sum   'K8 Fe4 P16 O60'
_cell_volume   1449.26072740
_cell_formula_units_Z   4
loop_
 _symmetry_equiv_pos_site_id
 _symmetry_equiv_pos_as_xyz
  1  'x, y, z'
loop_
 _atom_site_type_symbol
 _atom_site_label
 _atom_site_symmetry_multiplicity
 _atom_site_fract_x
 _atom_site_fract_y
 _atom_site_fract_z
 _atom_site_occupancy
  K  K0  1  0.01656000  0.73945700  0.77842500  1
  K  K1  1  0.98344000  0.23945700  0.22157500  1
  K  K2  1  0.01656000  0.23945700  0.72157500  1
  K  K3  1  0.98344000  0.73945700  0.27842500  1
  K  K4  1  0.22921400  0.91396600  0.06750800  1
  K  K5  1  0.77078600  0.41396600  0.93249200  1
  K  K6  1  0.22921400  0.41396600  0.43249200  1
  K  K7  1  0.77078600  0.91396600  0.56750800  1
  Fe  Fe8  1  0.06851300  0.00782400  0.85938200  1
  Fe  Fe9  1  0.93148700  0.50782400  0.14061800  1
  Fe  Fe10  1  0.06851300  0.50782400  0.64061800  1
  Fe  Fe11  1  0.93148700  0.00782400  0.35938200  1
  P  P12  1  0.43425600  0.15223800  0.35058800  1
  P  P13  1  0.56574400  0.65223800  0.64941200  1
  P  P14  1  0.43425600  0.65223800  0.14941200  1
  P  P15  1  0.56574400  0.15223800  0.85058800  1
  P  P16  1  0.18953500  0.13336300  0.48348900  1
  P  P17  1  0.81046500  0.63336300  0.51651100  1
  P  P18  1  0.18953500  0.63336300  0.01651100  1
  P  P19  1  0.81046500  0.13336300  0.98348900  1
  P  P20  1  0.24260200  0.96806700  0.69917300  1
  P  P21  1  0.75739800  0.46806700  0.30082700  1
  P  P22  1  0.24260200  0.46806700  0.80082700  1
  P  P23  1  0.75739800  0.96806700  0.19917300  1
  P  P24  1  0.42976200  0.85904700  0.40113400  1
  P  P25  1  0.57023800  0.35904700  0.59886600  1
  P  P26  1  0.42976200  0.35904700  0.09886600  1
  P  P27  1  0.57023800  0.85904700  0.90113400  1
  O  O28  1  0.42502000  0.14638300  0.43128000  1
  O  O29  1  0.57498000  0.64638300  0.56872000  1
  O  O30  1  0.42502000  0.64638300  0.06872000  1
  O  O31  1  0.57498000  0.14638300  0.93128000  1
  O  O32  1  0.22577400  0.08484400  0.32214900  1
  O  O33  1  0.77422600  0.58484400  0.67785100  1
  O  O34  1  0.22577400  0.58484400  0.17785100  1
  O  O35  1  0.77422600  0.08484400  0.82214900  1
  O  O36  1  0.37358300  0.25401100  0.32755800  1
  O  O37  1  0.62641700  0.75401100  0.67244200  1
  O  O38  1  0.37358300  0.75401100  0.17244200  1
  O  O39  1  0.62641700  0.25401100  0.82755800  1
  O  O40  1  0.70502200  0.11976900  0.33200400  1
  O  O41  1  0.29497800  0.61976900  0.66799600  1
  O  O42  1  0.70502200  0.61976900  0.16799600  1
  O  O43  1  0.29497800  0.11976900  0.83200400  1
  O  O44  1  0.07272500  0.23218100  0.49670100  1
  O  O45  1  0.92727500  0.73218100  0.50329900  1
  O  O46  1  0.07272500  0.73218100  0.00329900  1
  O  O47  1  0.92727500  0.23218100  0.99670100  1
  O  O48  1  0.30729400  0.09526200  0.54809200  1
  O  O49  1  0.69270600  0.59526200  0.45190800  1
  O  O50  1  0.30729400  0.59526200  0.95190800  1
  O  O51  1  0.69270600  0.09526200  0.04809200  1
  O  O52  1  0.00129200  0.06121200  0.45242800  1
  O  O53  1  0.99870800  0.56121200  0.54757200  1
  O  O54  1  0.00129200  0.56121200  0.04757200  1
  O  O55  1  0.99870800  0.06121200  0.95242800  1
  O  O56  1  0.08847500  0.05721700  0.67739800  1
  O  O57  1  0.91152500  0.55721700  0.32260200  1
  O  O58  1  0.08847500  0.55721700  0.82260200  1
  O  O59  1  0.91152500  0.05721700  0.17739800  1
  O  O60  1  0.53048900  0.99105900  0.69297600  1
  O  O61  1  0.46951100  0.49105900  0.30702400  1
  O  O62  1  0.53048900  0.49105900  0.80702400  1
  O  O63  1  0.46951100  0.99105900  0.19297600  1
  O  O64  1  0.19673300  0.88204600  0.65185900  1
  O  O65  1  0.80326700  0.38204600  0.34814100  1
  O  O66  1  0.19673300  0.38204600  0.84814100  1
  O  O67  1  0.80326700  0.88204600  0.15185900  1
  O  O68  1  0.16146400  0.94118800  0.77142600  1
  O  O69  1  0.83853600  0.44118800  0.22857400  1
  O  O70  1  0.16146400  0.44118800  0.72857400  1
  O  O71  1  0.83853600  0.94118800  0.27142600  1
  O  O72  1  0.41052900  0.82890200  0.47548000  1
  O  O73  1  0.58947100  0.32890200  0.52452000  1
  O  O74  1  0.41052900  0.32890200  0.02452000  1
  O  O75  1  0.58947100  0.82890200  0.97548000  1
  O  O76  1  0.63217900  0.93956900  0.39809100  1
  O  O77  1  0.36782100  0.43956900  0.60190900  1
  O  O78  1  0.63217900  0.43956900  0.10190900  1
  O  O79  1  0.36782100  0.93956900  0.89809100  1
  O  O80  1  0.16899800  0.89632200  0.37524500  1
  O  O81  1  0.83100200  0.39632200  0.62475500  1
  O  O82  1  0.16899800  0.39632200  0.12475500  1
  O  O83  1  0.83100200  0.89632200  0.87524500  1
  O  O84  1  0.50360300  0.76867400  0.36113600  1
  O  O85  1  0.49639700  0.26867400  0.63886400  1
  O  O86  1  0.50360300  0.26867400  0.13886400  1
  O  O87  1  0.49639700  0.76867400  0.86113600  1
