# generated using pymatgen
data_RhN5O7
_symmetry_space_group_name_H-M   'P 1'
_cell_length_a   9.28611900
_cell_length_b   6.48403000
_cell_length_c   14.33206731
_cell_angle_alpha   76.95517866
_cell_angle_beta   90.00000000
_cell_angle_gamma   90.00000000
_symmetry_Int_Tables_number   1
_chemical_formula_structural   RhN5O7
_chemical_formula_sum   'Rh4 N20 O28'
_cell_volume   840.68530712
_cell_formula_units_Z   4
loop_
 _symmetry_equiv_pos_site_id
 _symmetry_equiv_pos_as_xyz
  1  'x, y, z'
loop_
 _atom_site_type_symbol
 _atom_site_label
 _atom_site_symmetry_multiplicity
 _atom_site_fract_x
 _atom_site_fract_y
 _atom_site_fract_z
 _atom_site_occupancy
  Rh  Rh0  1  0.33427400  0.02037900  0.49602100  1
  Rh  Rh1  1  0.83427400  0.97962100  0.00397900  1
  Rh  Rh2  1  0.66572600  0.97962100  0.50397900  1
  Rh  Rh3  1  0.16572600  0.02037900  0.99602100  1
  N  N4  1  0.22652400  0.33422100  0.46003300  1
  N  N5  1  0.72652400  0.66577900  0.03996700  1
  N  N6  1  0.77347600  0.66577900  0.53996700  1
  N  N7  1  0.27347600  0.33422100  0.96003300  1
  N  N8  1  0.18811100  0.90495200  0.62039100  1
  N  N9  1  0.68811100  0.09504800  0.87960900  1
  N  N10  1  0.81188900  0.09504800  0.37960900  1
  N  N11  1  0.31188900  0.90495200  0.12039100  1
  N  N12  1  0.41792600  0.23844200  0.64205400  1
  N  N13  1  0.91792600  0.76155800  0.85794600  1
  N  N14  1  0.58207400  0.76155800  0.35794600  1
  N  N15  1  0.08207400  0.23844200  0.14205400  1
  N  N16  1  0.23236200  0.90931500  0.42634600  1
  N  N17  1  0.73236200  0.09068500  0.07365400  1
  N  N18  1  0.76763800  0.09068500  0.57365400  1
  N  N19  1  0.26763800  0.90931500  0.92634600  1
  N  N20  1  0.47037700  0.38662500  0.22410600  1
  N  N21  1  0.97037700  0.61337500  0.27589400  1
  N  N22  1  0.52962300  0.61337500  0.77589400  1
  N  N23  1  0.02962300  0.38662500  0.72410600  1
  O  O24  1  0.51124700  0.15450600  0.43423300  1
  O  O25  1  0.01124700  0.84549400  0.06576700  1
  O  O26  1  0.48875300  0.84549400  0.56576700  1
  O  O27  1  0.98875300  0.15450600  0.93423300  1
  O  O28  1  0.21997100  0.41311600  0.37425500  1
  O  O29  1  0.71997100  0.58688400  0.12574500  1
  O  O30  1  0.78002900  0.58688400  0.62574500  1
  O  O31  1  0.28002900  0.41311600  0.87425500  1
  O  O32  1  0.18393700  0.40966900  0.52622300  1
  O  O33  1  0.68393700  0.59033100  0.97377700  1
  O  O34  1  0.81606300  0.59033100  0.47377700  1
  O  O35  1  0.31606300  0.40966900  0.02622300  1
  O  O36  1  0.07091500  0.99288400  0.61609700  1
  O  O37  1  0.57091500  0.00711600  0.88390300  1
  O  O38  1  0.92908500  0.00711600  0.38390300  1
  O  O39  1  0.42908500  0.99288400  0.11609700  1
  O  O40  1  0.23378000  0.75939400  0.68277500  1
  O  O41  1  0.73378000  0.24060600  0.81722500  1
  O  O42  1  0.76622000  0.24060600  0.31722500  1
  O  O43  1  0.26622000  0.75939400  0.18277500  1
  O  O44  1  0.51364900  0.36181100  0.61055400  1
  O  O45  1  0.01364900  0.63818900  0.88944600  1
  O  O46  1  0.48635100  0.63818900  0.38944600  1
  O  O47  1  0.98635100  0.36181100  0.11055400  1
  O  O48  1  0.35857300  0.18460700  0.71849600  1
  O  O49  1  0.85857300  0.81539300  0.78150400  1
  O  O50  1  0.64142700  0.81539300  0.28150400  1
  O  O51  1  0.14142700  0.18460700  0.21849600  1
