# generated using pymatgen
data_Rb2Y(NO3)5
_symmetry_space_group_name_H-M   'P 1'
_cell_length_a   11.34918876
_cell_length_b   11.34918876
_cell_length_c   9.47622200
_cell_angle_alpha   90.00000000
_cell_angle_beta   90.00000000
_cell_angle_gamma   120.00000444
_symmetry_Int_Tables_number   1
_chemical_formula_structural   Rb2Y(NO3)5
_chemical_formula_sum   'Rb6 Y3 N15 O45'
_cell_volume   1057.04987051
_cell_formula_units_Z   3
loop_
 _symmetry_equiv_pos_site_id
 _symmetry_equiv_pos_as_xyz
  1  'x, y, z'
loop_
 _atom_site_type_symbol
 _atom_site_label
 _atom_site_symmetry_multiplicity
 _atom_site_fract_x
 _atom_site_fract_y
 _atom_site_fract_z
 _atom_site_occupancy
  Rb  Rb0  1  0.87136500  0.66649500  0.37249900  1
  Rb  Rb1  1  0.33350500  0.20487000  0.70583200  1
  Rb  Rb2  1  0.79513000  0.12863500  0.03916500  1
  Rb  Rb3  1  0.60626800  0.93951600  0.53977300  1
  Rb  Rb4  1  0.06048400  0.66675100  0.87310700  1
  Rb  Rb5  1  0.33324900  0.39373200  0.20644000  1
  Y  Y6  1  0.33249200  0.99324000  0.20467400  1
  Y  Y7  1  0.00676000  0.33925200  0.53800700  1
  Y  Y8  1  0.66074800  0.66750800  0.87134100  1
  N  N9  1  0.66181800  0.41421000  0.93765600  1
  N  N10  1  0.58579000  0.24760700  0.27099000  1
  N  N11  1  0.75239300  0.33818200  0.60432300  1
  N  N12  1  0.08092700  0.99621400  0.13872100  1
  N  N13  1  0.00378600  0.08471200  0.47205400  1
  N  N14  1  0.91528800  0.91907300  0.80538700  1
  N  N15  1  0.23072200  0.92105300  0.49491200  1
  N  N16  1  0.07894700  0.30966900  0.82824500  1
  N  N17  1  0.69033100  0.76927800  0.16157800  1
  N  N18  1  0.58894800  0.56455500  0.58114900  1
  N  N19  1  0.43544500  0.02439400  0.91448300  1
  N  N20  1  0.97560600  0.41105200  0.24781600  1
  N  N21  1  0.33289900  0.74349300  0.20052400  1
  N  N22  1  0.25650700  0.58940700  0.53385800  1
  N  N23  1  0.41059300  0.66710100  0.86719100  1
  O  O24  1  0.86627500  0.44975500  0.61381700  1
  O  O25  1  0.55024500  0.41652100  0.94715100  1
  O  O26  1  0.58347900  0.13372500  0.28048400  1
  O  O27  1  0.47187000  0.23917300  0.23492900  1
  O  O28  1  0.76082700  0.23269700  0.56826300  1
  O  O29  1  0.76730300  0.52813000  0.90159600  1
  O  O30  1  0.68918400  0.35806000  0.29263600  1
  O  O31  1  0.64194000  0.33112400  0.62596900  1
  O  O32  1  0.66887600  0.31081600  0.95930300  1
  O  O33  1  0.08430300  0.88518100  0.12991900  1
  O  O34  1  0.11481900  0.19912300  0.46325300  1
  O  O35  1  0.80087700  0.91569700  0.79658600  1
  O  O36  1  0.19354000  0.10185300  0.17674200  1
  O  O37  1  0.89814700  0.09168700  0.51007600  1
  O  O38  1  0.90831300  0.80646000  0.84340900  1
  O  O39  1  0.02505900  0.02281900  0.78088600  1
  O  O40  1  0.97718100  0.00224000  0.11421900  1
  O  O41  1  0.99776000  0.97494100  0.44755300  1
  O  O42  1  0.17306700  0.83931900  0.39138300  1
  O  O43  1  0.16068100  0.33374900  0.72471600  1
  O  O44  1  0.66625100  0.82693300  0.05805000  1
  O  O45  1  0.33836900  0.03506800  0.46240700  1
  O  O46  1  0.96493200  0.30330100  0.79574000  1
  O  O47  1  0.69669900  0.66163100  0.12907400  1
  O  O48  1  0.18708300  0.89479200  0.61660600  1
  O  O49  1  0.10520800  0.29229100  0.94994000  1
  O  O50  1  0.70770900  0.81291700  0.28327300  1
  O  O51  1  0.70287400  0.67245500  0.61333800  1
  O  O52  1  0.32754500  0.03041900  0.94667100  1
  O  O53  1  0.96958100  0.29712600  0.28000500  1
  O  O54  1  0.50635900  0.50826000  0.68428800  1
  O  O55  1  0.49174000  0.99809900  0.01762200  1
  O  O56  1  0.00190100  0.49364100  0.35095500  1
  O  O57  1  0.56355400  0.51933700  0.45995100  1
  O  O58  1  0.48066300  0.04421800  0.79328400  1
  O  O59  1  0.95578200  0.43644600  0.12661700  1
  O  O60  1  0.51573500  0.75448100  0.79728600  1
  O  O61  1  0.24551900  0.76125400  0.13061900  1
  O  O62  1  0.23874600  0.48426500  0.46395300  1
  O  O63  1  0.15389100  0.57300400  0.60721700  1
  O  O64  1  0.42699600  0.58088600  0.94055100  1
  O  O65  1  0.41911400  0.84610900  0.27388400  1
  O  O66  1  0.33371700  0.63590000  0.19689300  1
  O  O67  1  0.36410000  0.69781800  0.53022700  1
  O  O68  1  0.30218200  0.66628300  0.86356000  1
