# generated using pymatgen
data_V5H28C8N13O17
_symmetry_space_group_name_H-M   'P 1'
_cell_length_a   10.74074100
_cell_length_b   11.18226214
_cell_length_c   13.36996928
_cell_angle_alpha   85.33584793
_cell_angle_beta   67.08396927
_cell_angle_gamma   88.41727945
_symmetry_Int_Tables_number   1
_chemical_formula_structural   V5H28C8N13O17
_chemical_formula_sum   'V10 H56 C16 N26 O34'
_cell_volume   1474.16210100
_cell_formula_units_Z   2
loop_
 _symmetry_equiv_pos_site_id
 _symmetry_equiv_pos_as_xyz
  1  'x, y, z'
loop_
 _atom_site_type_symbol
 _atom_site_label
 _atom_site_symmetry_multiplicity
 _atom_site_fract_x
 _atom_site_fract_y
 _atom_site_fract_z
 _atom_site_occupancy
  V  V0  1  0.54898100  0.37947200  0.55400800  1
  V  V1  1  0.45101900  0.62052800  0.44599200  1
  V  V2  1  0.73755300  0.61383000  0.46310200  1
  V  V3  1  0.26244700  0.38617000  0.53689800  1
  V  V4  1  0.69268000  0.45372900  0.29813600  1
  V  V5  1  0.30732000  0.54627100  0.70186400  1
  V  V6  1  0.49863200  0.22784700  0.38643500  1
  V  V7  1  0.50136800  0.77215300  0.61356500  1
  V  V8  1  0.59562200  0.54103700  0.71777900  1
  V  V9  1  0.40437800  0.45896300  0.28222100  1
  H  H10  1  0.33080400  0.12258400  0.13594100  1
  H  H11  1  0.66919600  0.87741600  0.86405900  1
  H  H12  1  0.41806600  0.11022800  0.22303600  1
  H  H13  1  0.58193400  0.88977200  0.77696400  1
  H  H14  1  0.42348900  0.92445800  0.31246500  1
  H  H15  1  0.57651100  0.07554200  0.68753500  1
  H  H16  1  0.36785000  0.79447600  0.27850200  1
  H  H17  1  0.63215000  0.20552400  0.72149800  1
  H  H18  1  0.05004700  0.72055400  0.28322300  1
  H  H19  1  0.94995300  0.27944600  0.71677700  1
  H  H20  1  0.08719400  0.86081700  0.30886100  1
  H  H21  1  0.91280600  0.13918300  0.69113900  1
  H  H22  1  0.01455300  0.68097800  0.14031600  1
  H  H23  1  0.98544700  0.31902200  0.85968400  1
  H  H24  1  0.12873200  0.61049300  0.02544800  1
  H  H25  1  0.87126800  0.38950700  0.97455200  1
  H  H26  1  0.12809400  0.57024500  0.15742900  1
  H  H27  1  0.87190600  0.42975500  0.84257100  1
  H  H28  1  0.40480900  0.66474800  0.98282300  1
  H  H29  1  0.59519100  0.33525200  0.01717700  1
  H  H30  1  0.30655900  0.73017500  0.91148800  1
  H  H31  1  0.69344100  0.26982500  0.08851200  1
  H  H32  1  0.39162200  0.82420900  0.96710300  1
  H  H33  1  0.60837800  0.17579100  0.03289700  1
  H  H34  1  0.76245500  0.94493700  0.27383200  1
  H  H35  1  0.23754500  0.05506300  0.72616800  1
  H  H36  1  0.71117600  0.79333600  0.30288800  1
  H  H37  1  0.28882400  0.20666400  0.69711200  1
  H  H38  1  0.83024900  0.03173500  0.09634900  1
  H  H39  1  0.16975100  0.96826500  0.90365100  1
  H  H40  1  0.80687600  0.94512300  0.99607400  1
  H  H41  1  0.19312400  0.05487700  0.00392600  1
  H  H42  1  0.68719200  0.68908400  0.17968300  1
  H  H43  1  0.31280800  0.31091600  0.82031700  1
  H  H44  1  0.69342700  0.59692800  0.93586400  1
  H  H45  1  0.30657300  0.40307200  0.06413600  1
  H  H46  1  0.64948800  0.56449000  0.07810900  1
  H  H47  1  0.35051200  0.43551000  0.92189100  1
  H  H48  1  0.20842500  0.24611600  0.36906500  1
  H  H49  1  0.79157500  0.75388400  0.63093500  1
  H  H50  1  0.12763500  0.10716700  0.37068700  1
  H  H51  1  0.87236500  0.89283300  0.62931300  1
  H  H52  1  0.90082200  0.40720600  0.41938100  1
  H  H53  1  0.09917800  0.59279400  0.58061900  1
  H  H54  1  0.07523400  0.41697000  0.40056200  1
  H  H55  1  0.92476600  0.58303000  0.59943800  1
  H  H56  1  0.80717400  0.22973900  0.42899900  1
  H  H57  1  0.19282600  0.77026100  0.57100100  1
  H  H58  1  0.75143300  0.92180100  0.46143800  1
  H  H59  1  0.24856700  0.07819900  0.53856200  1
  H  H60  1  0.68415100  0.06682000  0.47353300  1
  H  H61  1  0.31584900  0.93318000  0.52646700  1
  H  H62  1  0.81188000  0.19865600  0.21240900  1
  H  H63  1  0.18812000  0.80134400  0.78759100  1
  H  H64  1  0.96611100  0.16775200  0.14657700  1
  H  H65  1  0.03388900  0.83224800  0.85342300  1
  C  C66  1  0.34642500  0.95218600  0.19326500  1
  C  C67  1  0.65357500  0.04781400  0.80673500  1
  C  C68  1  0.21085900  0.81196600  0.15846100  1
  C  C69  1  0.78914100  0.18803400  0.84153900  1
  C  C70  1  0.11710400  0.64514600  0.10285800  1
  C  C71  1  0.88289600  0.35485400  0.89714200  1
  C  C72  1  0.33713800  0.73945400  0.97975200  1
  C  C73  1  0.66286200  0.26054600  0.02024800  1
  C  C74  1  0.76018700  0.86069400  0.14479400  1
  C  C75  1  0.23981300  0.13930600  0.85520600  1
  C  C76  1  0.74005200  0.72892100  0.01202200  1
  C  C77  1  0.25994800  0.27107900  0.98797800  1
  C  C78  1  0.00821500  0.25123900  0.39639300  1
  C  C79  1  0.99178500  0.74876100  0.60360700  1
  C  C80  1  0.89235900  0.05856300  0.41342900  1
  C  C81  1  0.10764100  0.94143700  0.58657100  1
  N  N82  1  0.37719900  0.07026600  0.17724700  1
  N  N83  1  0.62280100  0.92973400  0.82275300  1
  N  N84  1  0.37997100  0.88532300  0.26800900  1
  N  N85  1  0.62002900  0.11467700  0.73199100  1
  N  N86  1  0.29202100  0.90893000  0.12976600  1
  N  N87  1  0.70797900  0.09107000  0.87023400  1
  N  N88  1  0.11633500  0.79119100  0.25993300  1
  N  N89  1  0.88366500  0.20880900  0.74006700  1
  N  N90  1  0.21796600  0.73876800  0.08103900  1
  N  N91  1  0.78203400  0.26123200  0.91896100  1
  N  N92  1  0.74561200  0.86617900  0.24803700  1
  N  N93  1  0.25438800  0.13382100  0.75196300  1
  N  N94  1  0.80452700  0.95369000  0.07237000  1
  N  N95  1  0.19547300  0.04631000  0.92763000  1
  N  N96  1  0.72694400  0.75425300  0.11724800  1
  N  N97  1  0.27305600  0.24574700  0.88275200  1
  N  N98  1  0.69101600  0.62142400  0.00849300  1
  N  N99  1  0.30898400  0.37857600  0.99150700  1
  N  N100  1  0.12643500  0.19810300  0.37468100  1
  N  N101  1  0.87356500  0.80189700  0.62531900  1
  N  N102  1  0.99333900  0.36852500  0.40424500  1
  N  N103  1  0.00666100  0.63147500  0.59575500  1
  N  N104  1  0.89598300  0.18419100  0.41165600  1
  N  N105  1  0.10401700  0.81580900  0.58834400  1
  N  N106  1  0.76668600  0.01303200  0.44602400  1
  N  N107  1  0.23331400  0.98696800  0.55397600  1
  O  O108  1  0.52024900  0.56716300  0.56766500  1
  O  O109  1  0.47975100  0.43283700  0.43233500  1
  O  O110  1  0.71962700  0.43881900  0.43981100  1
  O  O111  1  0.28037300  0.56118100  0.56018900  1
  O  O112  1  0.56455000  0.23446200  0.51196300  1
  O  O113  1  0.43545000  0.76553800  0.48803700  1
  O  O114  1  0.60341900  0.37716300  0.66070800  1
  O  O115  1  0.39658100  0.62283700  0.33929200  1
  O  O116  1  0.89386900  0.63699900  0.37648000  1
  O  O117  1  0.10613100  0.36300100  0.62352000  1
  O  O118  1  0.64224100  0.62222400  0.35728800  1
  O  O119  1  0.35775900  0.37777600  0.64271200  1
  O  O120  1  0.67565100  0.76593700  0.50063800  1
  O  O121  1  0.32434900  0.23406300  0.49936200  1
  O  O122  1  0.75713700  0.56843100  0.59156800  1
  O  O123  1  0.24286300  0.43156900  0.40843200  1
  O  O124  1  0.84664100  0.48102500  0.21149500  1
  O  O125  1  0.15335900  0.51897500  0.78850500  1
  O  O126  1  0.67581500  0.28967100  0.30173200  1
  O  O127  1  0.32418500  0.71032900  0.69826800  1
  O  O128  1  0.59114000  0.49058500  0.21467700  1
  O  O129  1  0.40886000  0.50941500  0.78532300  1
  O  O130  1  0.50989400  0.08484500  0.36414300  1
  O  O131  1  0.49010600  0.91515500  0.63585700  1
  O  O132  1  0.43438700  0.29366400  0.28552500  1
  O  O133  1  0.56561300  0.70633600  0.71447500  1
  O  O134  1  0.64869200  0.51686000  0.81691400  1
  O  O135  1  0.35130800  0.48314000  0.18308600  1
  O  O136  1  0.79266600  0.80262900  0.93132500  1
  O  O137  1  0.20733400  0.19737100  0.06867500  1
  O  O138  1  0.99711500  0.99707500  0.38654300  1
  O  O139  1  0.00288500  0.00292500  0.61345700  1
  O  O140  1  0.87418500  0.13672300  0.17075600  1
  O  O141  1  0.12581500  0.86327700  0.82924400  1
