# generated using pymatgen
data_Rb3IrBr6O
_symmetry_space_group_name_H-M   'P 1'
_cell_length_a   7.42741900
_cell_length_b   12.97686400
_cell_length_c   15.38270800
_cell_angle_alpha   90.00000000
_cell_angle_beta   90.00000000
_cell_angle_gamma   90.00000000
_symmetry_Int_Tables_number   1
_chemical_formula_structural   Rb3IrBr6O
_chemical_formula_sum   'Rb12 Ir4 Br24 O4'
_cell_volume   1482.65625339
_cell_formula_units_Z   4
loop_
 _symmetry_equiv_pos_site_id
 _symmetry_equiv_pos_as_xyz
  1  'x, y, z'
loop_
 _atom_site_type_symbol
 _atom_site_label
 _atom_site_symmetry_multiplicity
 _atom_site_fract_x
 _atom_site_fract_y
 _atom_site_fract_z
 _atom_site_occupancy
  Rb  Rb0  1  0.25000000  0.11063800  0.46463600  1
  Rb  Rb1  1  0.25000000  0.61063800  0.03536400  1
  Rb  Rb2  1  0.75000000  0.88936200  0.53536400  1
  Rb  Rb3  1  0.75000000  0.38936200  0.96463600  1
  Rb  Rb4  1  0.75000000  0.05836700  0.85438400  1
  Rb  Rb5  1  0.75000000  0.55836700  0.64561600  1
  Rb  Rb6  1  0.25000000  0.94163300  0.14561600  1
  Rb  Rb7  1  0.25000000  0.44163300  0.35438400  1
  Rb  Rb8  1  0.25000000  0.32803500  0.72629500  1
  Rb  Rb9  1  0.25000000  0.82803500  0.77370500  1
  Rb  Rb10  1  0.75000000  0.67196500  0.27370500  1
  Rb  Rb11  1  0.75000000  0.17196500  0.22629500  1
  Ir  Ir12  1  0.25000000  0.27397700  0.09680300  1
  Ir  Ir13  1  0.25000000  0.77397700  0.40319700  1
  Ir  Ir14  1  0.75000000  0.72602300  0.90319700  1
  Ir  Ir15  1  0.75000000  0.22602300  0.59680300  1
  Br  Br16  1  0.25000000  0.36217500  0.95188200  1
  Br  Br17  1  0.25000000  0.86217500  0.54811800  1
  Br  Br18  1  0.75000000  0.63782500  0.04811800  1
  Br  Br19  1  0.75000000  0.13782500  0.45188200  1
  Br  Br20  1  0.25000000  0.18597800  0.24452200  1
  Br  Br21  1  0.25000000  0.68597800  0.25547800  1
  Br  Br22  1  0.75000000  0.81402200  0.75547800  1
  Br  Br23  1  0.75000000  0.31402200  0.74452200  1
  Br  Br24  1  0.01507100  0.39659100  0.15286800  1
  Br  Br25  1  0.48492900  0.89659100  0.34713200  1
  Br  Br26  1  0.51507100  0.60340900  0.84713200  1
  Br  Br27  1  0.98492900  0.10340900  0.65286800  1
  Br  Br28  1  0.98492900  0.60340900  0.84713200  1
  Br  Br29  1  0.51507100  0.10340900  0.65286800  1
  Br  Br30  1  0.48492900  0.39659100  0.15286800  1
  Br  Br31  1  0.01507100  0.89659100  0.34713200  1
  Br  Br32  1  0.01457800  0.15302400  0.04142300  1
  Br  Br33  1  0.48542200  0.65302400  0.45857700  1
  Br  Br34  1  0.51457800  0.84697600  0.95857700  1
  Br  Br35  1  0.98542200  0.34697600  0.54142300  1
  Br  Br36  1  0.98542200  0.84697600  0.95857700  1
  Br  Br37  1  0.51457800  0.34697600  0.54142300  1
  Br  Br38  1  0.48542200  0.15302400  0.04142300  1
  Br  Br39  1  0.01457800  0.65302400  0.45857700  1
  O  O40  1  0.25000000  0.06161500  0.84459400  1
  O  O41  1  0.25000000  0.56161500  0.65540600  1
  O  O42  1  0.75000000  0.93838500  0.15540600  1
  O  O43  1  0.75000000  0.43838500  0.34459400  1
