# generated using pymatgen
data_V6O13
_symmetry_space_group_name_H-M   'P 1'
_cell_length_a   3.75509800
_cell_length_b   10.25899300
_cell_length_c   12.16820865
_cell_angle_alpha   79.15948663
_cell_angle_beta   90.00000000
_cell_angle_gamma   90.00000000
_symmetry_Int_Tables_number   1
_chemical_formula_structural   V6O13
_chemical_formula_sum   'V12 O26'
_cell_volume   460.39698641
_cell_formula_units_Z   2
loop_
 _symmetry_equiv_pos_site_id
 _symmetry_equiv_pos_as_xyz
  1  'x, y, z'
loop_
 _atom_site_type_symbol
 _atom_site_label
 _atom_site_symmetry_multiplicity
 _atom_site_fract_x
 _atom_site_fract_y
 _atom_site_fract_z
 _atom_site_occupancy
  V  V0  1  0.46704000  0.00351200  0.85139600  1
  V  V1  1  0.96704000  0.99648800  0.64860400  1
  V  V2  1  0.53296000  0.99648800  0.14860400  1
  V  V3  1  0.03296000  0.00351200  0.35139600  1
  V  V4  1  0.49793000  0.63577200  0.91315800  1
  V  V5  1  0.99793000  0.36422800  0.58684200  1
  V  V6  1  0.50207000  0.36422800  0.08684200  1
  V  V7  1  0.00207000  0.63577200  0.41315800  1
  V  V8  1  0.50157000  0.63359100  0.21484000  1
  V  V9  1  0.00157000  0.36640900  0.28516000  1
  V  V10  1  0.49843000  0.36640900  0.78516000  1
  V  V11  1  0.99843000  0.63359100  0.71484000  1
  O  O12  1  0.48944600  0.99989000  0.68334000  1
  O  O13  1  0.98944600  0.00011000  0.81666000  1
  O  O14  1  0.51055400  0.00011000  0.31666000  1
  O  O15  1  0.01055400  0.99989000  0.18334000  1
  O  O16  1  0.50158600  0.61362500  0.38146200  1
  O  O17  1  0.00158600  0.38637500  0.11853800  1
  O  O18  1  0.49841400  0.38637500  0.61853800  1
  O  O19  1  0.99841400  0.61362500  0.88146200  1
  O  O20  1  0.49859500  0.58839000  0.75413300  1
  O  O21  1  0.99859500  0.41161000  0.74586700  1
  O  O22  1  0.50140500  0.41161000  0.24586700  1
  O  O23  1  0.00140500  0.58839000  0.25413300  1
  O  O24  1  0.50000000  0.00000000  0.00000000  1
  O  O25  1  0.00000000  0.00000000  0.50000000  1
  O  O26  1  0.49326000  0.80168800  0.88610900  1
  O  O27  1  0.99326000  0.19831200  0.61389100  1
  O  O28  1  0.50674000  0.19831200  0.11389100  1
  O  O29  1  0.00674000  0.80168800  0.38610900  1
  O  O30  1  0.50794600  0.80163000  0.17761100  1
  O  O31  1  0.00794600  0.19837000  0.32238900  1
  O  O32  1  0.49205400  0.19837000  0.82238900  1
  O  O33  1  0.99205400  0.80163000  0.67761100  1
  O  O34  1  0.50035400  0.59124500  0.06027600  1
  O  O35  1  0.00035400  0.40875500  0.43972400  1
  O  O36  1  0.49964600  0.40875500  0.93972400  1
  O  O37  1  0.99964600  0.59124500  0.56027600  1
