# generated using pymatgen
data_V2Ag(PO5)2
_symmetry_space_group_name_H-M   'P 1'
_cell_length_a   5.30821666
_cell_length_b   8.21994400
_cell_length_c   17.26434924
_cell_angle_alpha   90.00000000
_cell_angle_beta   91.69809459
_cell_angle_gamma   90.00000000
_symmetry_Int_Tables_number   1
_chemical_formula_structural   V2Ag(PO5)2
_chemical_formula_sum   'V8 Ag4 P8 O40'
_cell_volume   752.96874350
_cell_formula_units_Z   4
loop_
 _symmetry_equiv_pos_site_id
 _symmetry_equiv_pos_as_xyz
  1  'x, y, z'
loop_
 _atom_site_type_symbol
 _atom_site_label
 _atom_site_symmetry_multiplicity
 _atom_site_fract_x
 _atom_site_fract_y
 _atom_site_fract_z
 _atom_site_occupancy
  V  V0  1  0.14490300  0.63247100  0.57065900  1
  V  V1  1  0.85509700  0.13247100  0.92934100  1
  V  V2  1  0.85509700  0.36752900  0.42934100  1
  V  V3  1  0.14490300  0.86752900  0.07065900  1
  V  V4  1  0.46584500  0.46778800  0.85312200  1
  V  V5  1  0.53415500  0.96778800  0.64687800  1
  V  V6  1  0.53415500  0.53221200  0.14687800  1
  V  V7  1  0.46584500  0.03221200  0.35312200  1
  Ag  Ag8  1  0.06620400  0.28758300  0.68722300  1
  Ag  Ag9  1  0.93379600  0.78758300  0.81277700  1
  Ag  Ag10  1  0.93379600  0.71241700  0.31277700  1
  Ag  Ag11  1  0.06620400  0.21241700  0.18722300  1
  P  P12  1  0.36716700  0.23512000  0.51597100  1
  P  P13  1  0.63283300  0.73512000  0.98402900  1
  P  P14  1  0.63283300  0.76488000  0.48402900  1
  P  P15  1  0.36716700  0.26488000  0.01597100  1
  P  P16  1  0.35672900  0.07777500  0.81723300  1
  P  P17  1  0.64327100  0.57777500  0.68276700  1
  P  P18  1  0.64327100  0.92222500  0.18276700  1
  P  P19  1  0.35672900  0.42222500  0.31723300  1
  O  O20  1  0.18379900  0.81332000  0.61089100  1
  O  O21  1  0.81620100  0.31332000  0.88910900  1
  O  O22  1  0.81620100  0.18668000  0.38910900  1
  O  O23  1  0.18379900  0.68668000  0.11089100  1
  O  O24  1  0.86282800  0.64694700  0.48742200  1
  O  O25  1  0.13717200  0.14694700  0.01257800  1
  O  O26  1  0.13717200  0.35305300  0.51257800  1
  O  O27  1  0.86282800  0.85305300  0.98742200  1
  O  O28  1  0.88299600  0.53021100  0.63977700  1
  O  O29  1  0.11700400  0.03021100  0.86022300  1
  O  O30  1  0.11700400  0.46978900  0.36022300  1
  O  O31  1  0.88299600  0.96978900  0.13977700  1
  O  O32  1  0.38310100  0.67302200  0.48623700  1
  O  O33  1  0.61689900  0.17302200  0.01376300  1
  O  O34  1  0.61689900  0.32697800  0.51376300  1
  O  O35  1  0.38310100  0.82697800  0.98623700  1
  O  O36  1  0.39939700  0.52043300  0.64150500  1
  O  O37  1  0.60060300  0.02043300  0.85849500  1
  O  O38  1  0.60060300  0.47956700  0.35849500  1
  O  O39  1  0.39939700  0.97956700  0.14150500  1
  O  O40  1  0.22514000  0.57842000  0.82426200  1
  O  O41  1  0.77486000  0.07842000  0.67573800  1
  O  O42  1  0.77486000  0.42158000  0.17573800  1
  O  O43  1  0.22514000  0.92158000  0.32426200  1
  O  O44  1  0.35562400  0.26542200  0.80300400  1
  O  O45  1  0.64437600  0.76542200  0.69699600  1
  O  O46  1  0.64437600  0.73457800  0.19699600  1
  O  O47  1  0.35562400  0.23457800  0.30300400  1
  O  O48  1  0.67264000  0.49711400  0.76451300  1
  O  O49  1  0.32736000  0.99711400  0.73548700  1
  O  O50  1  0.32736000  0.50288600  0.23548700  1
  O  O51  1  0.67264000  0.00288600  0.26451300  1
  O  O52  1  0.65475600  0.63750500  0.90679500  1
  O  O53  1  0.34524400  0.13750500  0.59320500  1
  O  O54  1  0.34524400  0.36249500  0.09320500  1
  O  O55  1  0.65475600  0.86249500  0.40679500  1
  O  O56  1  0.34247200  0.38962100  0.94822600  1
  O  O57  1  0.65752800  0.88962100  0.55177400  1
  O  O58  1  0.65752800  0.61037900  0.05177400  1
  O  O59  1  0.34247200  0.11037900  0.44822600  1
