# generated using pymatgen
data_DyGa3
_symmetry_space_group_name_H-M   'P 1'
_cell_length_a   6.19342442
_cell_length_b   6.19342442
_cell_length_c   23.52493600
_cell_angle_alpha   90.00000000
_cell_angle_beta   90.00000000
_cell_angle_gamma   120.00000444
_symmetry_Int_Tables_number   1
_chemical_formula_structural   DyGa3
_chemical_formula_sum   'Dy10 Ga30'
_cell_volume   781.48518001
_cell_formula_units_Z   10
loop_
 _symmetry_equiv_pos_site_id
 _symmetry_equiv_pos_as_xyz
  1  'x, y, z'
loop_
 _atom_site_type_symbol
 _atom_site_label
 _atom_site_symmetry_multiplicity
 _atom_site_fract_x
 _atom_site_fract_y
 _atom_site_fract_z
 _atom_site_occupancy
  Dy  Dy0  1  0.00000000  0.00000000  0.25000000  1
  Dy  Dy1  1  0.00000000  0.00000000  0.75000000  1
  Dy  Dy2  1  0.33333300  0.66666700  0.35096900  1
  Dy  Dy3  1  0.66666700  0.33333300  0.64903100  1
  Dy  Dy4  1  0.66666700  0.33333300  0.85096900  1
  Dy  Dy5  1  0.33333300  0.66666700  0.14903100  1
  Dy  Dy6  1  0.33333300  0.66666700  0.54458100  1
  Dy  Dy7  1  0.66666700  0.33333300  0.45541900  1
  Dy  Dy8  1  0.66666700  0.33333300  0.04458100  1
  Dy  Dy9  1  0.33333300  0.66666700  0.95541900  1
  Ga  Ga10  1  0.51755800  0.48244200  0.25000000  1
  Ga  Ga11  1  0.51755800  0.03511600  0.25000000  1
  Ga  Ga12  1  0.96488400  0.48244200  0.25000000  1
  Ga  Ga13  1  0.48244200  0.51755800  0.75000000  1
  Ga  Ga14  1  0.48244200  0.96488400  0.75000000  1
  Ga  Ga15  1  0.03511600  0.51755800  0.75000000  1
  Ga  Ga16  1  0.82974100  0.17025900  0.35124600  1
  Ga  Ga17  1  0.82974100  0.65948100  0.35124600  1
  Ga  Ga18  1  0.34051900  0.17025900  0.35124600  1
  Ga  Ga19  1  0.17025900  0.82974100  0.64875400  1
  Ga  Ga20  1  0.17025900  0.34051900  0.64875400  1
  Ga  Ga21  1  0.65948100  0.82974100  0.64875400  1
  Ga  Ga22  1  0.17025900  0.82974100  0.85124600  1
  Ga  Ga23  1  0.17025900  0.34051900  0.85124600  1
  Ga  Ga24  1  0.65948100  0.82974100  0.85124600  1
  Ga  Ga25  1  0.82974100  0.17025900  0.14875400  1
  Ga  Ga26  1  0.82974100  0.65948100  0.14875400  1
  Ga  Ga27  1  0.34051900  0.17025900  0.14875400  1
  Ga  Ga28  1  0.14565000  0.85435000  0.44902400  1
  Ga  Ga29  1  0.14565000  0.29130100  0.44902400  1
  Ga  Ga30  1  0.70869900  0.85435000  0.44902400  1
  Ga  Ga31  1  0.85435000  0.14565000  0.55097600  1
  Ga  Ga32  1  0.85435000  0.70869900  0.55097600  1
  Ga  Ga33  1  0.29130100  0.14565000  0.55097600  1
  Ga  Ga34  1  0.85435000  0.14565000  0.94902400  1
  Ga  Ga35  1  0.85435000  0.70869900  0.94902400  1
  Ga  Ga36  1  0.29130100  0.14565000  0.94902400  1
  Ga  Ga37  1  0.14565000  0.85435000  0.05097600  1
  Ga  Ga38  1  0.14565000  0.29130100  0.05097600  1
  Ga  Ga39  1  0.70869900  0.85435000  0.05097600  1
