# generated using pymatgen
data_Ba4MgC4(N4F)2
_symmetry_space_group_name_H-M   'P 1'
_cell_length_a   8.63993600
_cell_length_b   8.49184900
_cell_length_c   8.55688570
_cell_angle_alpha   70.93471868
_cell_angle_beta   90.00000000
_cell_angle_gamma   90.00000000
_symmetry_Int_Tables_number   1
_chemical_formula_structural   Ba4MgC4(N4F)2
_chemical_formula_sum   'Ba8 Mg2 C8 N16 F4'
_cell_volume   593.37314588
_cell_formula_units_Z   2
loop_
 _symmetry_equiv_pos_site_id
 _symmetry_equiv_pos_as_xyz
  1  'x, y, z'
loop_
 _atom_site_type_symbol
 _atom_site_label
 _atom_site_symmetry_multiplicity
 _atom_site_fract_x
 _atom_site_fract_y
 _atom_site_fract_z
 _atom_site_occupancy
  Ba  Ba0  1  0.16722700  0.21097900  0.41277300  1
  Ba  Ba1  1  0.66722700  0.78902100  0.08722700  1
  Ba  Ba2  1  0.83277300  0.78902100  0.58722700  1
  Ba  Ba3  1  0.33277300  0.21097900  0.91277300  1
  Ba  Ba4  1  0.67118800  0.24385100  0.25690600  1
  Ba  Ba5  1  0.17118800  0.75614900  0.24309400  1
  Ba  Ba6  1  0.32881200  0.75614900  0.74309400  1
  Ba  Ba7  1  0.82881200  0.24385100  0.75690600  1
  Mg  Mg8  1  0.00000000  0.50000000  0.00000000  1
  Mg  Mg9  1  0.50000000  0.50000000  0.50000000  1
  C  C10  1  0.85463800  0.50521300  0.35433000  1
  C  C11  1  0.35463800  0.49478700  0.14567000  1
  C  C12  1  0.14536200  0.49478700  0.64567000  1
  C  C13  1  0.64536200  0.50521300  0.85433000  1
  C  C14  1  0.94499900  0.07654200  0.15965900  1
  C  C15  1  0.44499900  0.92345800  0.34034100  1
  C  C16  1  0.05500100  0.92345800  0.84034100  1
  C  C17  1  0.55500100  0.07654200  0.65965900  1
  N  N18  1  0.95567300  0.49896900  0.25420200  1
  N  N19  1  0.45567300  0.50103100  0.24579800  1
  N  N20  1  0.04432700  0.50103100  0.74579800  1
  N  N21  1  0.54432700  0.49896900  0.75420200  1
  N  N22  1  0.25152800  0.48944100  0.04710100  1
  N  N23  1  0.75152800  0.51055900  0.45289900  1
  N  N24  1  0.74847200  0.51055900  0.95289900  1
  N  N25  1  0.24847200  0.48944100  0.54710100  1
  N  N26  1  0.99914900  0.21720600  0.08952200  1
  N  N27  1  0.49914900  0.78279400  0.41047800  1
  N  N28  1  0.00085100  0.78279400  0.91047800  1
  N  N29  1  0.50085100  0.21720600  0.58952200  1
  N  N30  1  0.38741500  0.06187300  0.26676200  1
  N  N31  1  0.88741500  0.93812700  0.23323800  1
  N  N32  1  0.61258500  0.93812700  0.73323800  1
  N  N33  1  0.11258500  0.06187300  0.76676200  1
  F  F34  1  0.86920000  0.12967900  0.49769400  1
  F  F35  1  0.36920000  0.87032100  0.00230600  1
  F  F36  1  0.13080000  0.87032100  0.50230600  1
  F  F37  1  0.63080000  0.12967900  0.99769400  1
