# generated using pymatgen
data_Sb4Au(Xe2F11)2
_symmetry_space_group_name_H-M   'P 1'
_cell_length_a   9.87795700
_cell_length_b   9.87795700
_cell_length_c   28.77237500
_cell_angle_alpha   90.00000000
_cell_angle_beta   90.00000000
_cell_angle_gamma   90.00000000
_symmetry_Int_Tables_number   1
_chemical_formula_structural   Sb4Au(Xe2F11)2
_chemical_formula_sum   'Sb16 Au4 Xe16 F88'
_cell_volume   2807.43671072
_cell_formula_units_Z   4
loop_
 _symmetry_equiv_pos_site_id
 _symmetry_equiv_pos_as_xyz
  1  'x, y, z'
loop_
 _atom_site_type_symbol
 _atom_site_label
 _atom_site_symmetry_multiplicity
 _atom_site_fract_x
 _atom_site_fract_y
 _atom_site_fract_z
 _atom_site_occupancy
  Sb  Sb0  1  0.64624900  0.72951500  0.23896900  1
  Sb  Sb1  1  0.35375100  0.27048500  0.73896900  1
  Sb  Sb2  1  0.22951500  0.85375100  0.48896900  1
  Sb  Sb3  1  0.77048500  0.14624900  0.98896900  1
  Sb  Sb4  1  0.27048500  0.35375100  0.26103100  1
  Sb  Sb5  1  0.72951500  0.64624900  0.76103100  1
  Sb  Sb6  1  0.85375100  0.22951500  0.51103100  1
  Sb  Sb7  1  0.14624900  0.77048500  0.01103100  1
  Sb  Sb8  1  0.48481100  0.96243500  0.13802500  1
  Sb  Sb9  1  0.51518900  0.03756500  0.63802500  1
  Sb  Sb10  1  0.46243500  0.01518900  0.38802500  1
  Sb  Sb11  1  0.53756500  0.98481100  0.88802500  1
  Sb  Sb12  1  0.03756500  0.51518900  0.36197500  1
  Sb  Sb13  1  0.96243500  0.48481100  0.86197500  1
  Sb  Sb14  1  0.01518900  0.46243500  0.61197500  1
  Sb  Sb15  1  0.98481100  0.53756500  0.11197500  1
  Au  Au16  1  0.95140600  0.04859400  0.25000000  1
  Au  Au17  1  0.04859400  0.95140600  0.75000000  1
  Au  Au18  1  0.54859400  0.54859400  0.50000000  1
  Au  Au19  1  0.45140600  0.45140600  0.00000000  1
  Xe  Xe20  1  0.14971000  0.85029000  0.25000000  1
  Xe  Xe21  1  0.85029000  0.14971000  0.75000000  1
  Xe  Xe22  1  0.35029000  0.35029000  0.50000000  1
  Xe  Xe23  1  0.64971000  0.64971000  0.00000000  1
  Xe  Xe24  1  0.74987900  0.25012100  0.25000000  1
  Xe  Xe25  1  0.25012100  0.74987900  0.75000000  1
  Xe  Xe26  1  0.75012100  0.75012100  0.50000000  1
  Xe  Xe27  1  0.24987900  0.24987900  0.00000000  1
  Xe  Xe28  1  0.94494000  0.03315700  0.34852200  1
  Xe  Xe29  1  0.05506000  0.96684300  0.84852200  1
  Xe  Xe30  1  0.53315700  0.55506000  0.59852200  1
  Xe  Xe31  1  0.46684300  0.44494000  0.09852200  1
  Xe  Xe32  1  0.96684300  0.05506000  0.15147800  1
  Xe  Xe33  1  0.03315700  0.94494000  0.65147800  1
  Xe  Xe34  1  0.55506000  0.53315700  0.40147800  1
  Xe  Xe35  1  0.44494000  0.46684300  0.90147800  1
  F  F36  1  0.46036200  0.75642800  0.25179600  1
  F  F37  1  0.53963800  0.24357200  0.75179600  1
  F  F38  1  0.25642800  0.03963800  0.50179600  1
  F  F39  1  0.74357200  0.96036200  0.00179600  1
  F  F40  1  0.24357200  0.53963800  0.24820400  1
  F  F41  1  0.75642800  0.46036200  0.74820400  1
  F  F42  1  0.03963800  0.25642800  0.49820400  1
  F  F43  1  0.96036200  0.74357200  0.99820400  1
  F  F44  1  0.37065600  0.80747400  0.14038000  1
  F  F45  1  0.62934400  0.19252600  0.64038000  1
  F  F46  1  0.30747400  0.12934400  0.39038000  1
  F  F47  1  0.69252600  0.87065600  0.89038000  1
  F  F48  1  0.19252600  0.62934400  0.35962000  1
  F  F49  1  0.80747400  0.37065600  0.85962000  1
  F  F50  1  0.12934400  0.30747400  0.60962000  1
  F  F51  1  0.87065600  0.69252600  0.10962000  1
  F  F52  1  0.36996300  0.06523100  0.09861000  1
  F  F53  1  0.63003700  0.93476900  0.59861000  1
  F  F54  1  0.56523100  0.13003700  0.34861000  1
  F  F55  1  0.43476900  0.86996300  0.84861000  1
  F  F56  1  0.93476900  0.63003700  0.40139000  1
  F  F57  1  0.06523100  0.36996300  0.90139000  1
  F  F58  1  0.13003700  0.56523100  0.65139000  1
  F  F59  1  0.86996300  0.43476900  0.15139000  1
  F  F60  1  0.61656000  0.10328500  0.14303100  1
  F  F61  1  0.38344000  0.89671500  0.64303100  1
  F  F62  1  0.60328500  0.88344000  0.39303100  1
  F  F63  1  0.39671500  0.11656000  0.89303100  1
  F  F64  1  0.89671500  0.38344000  0.35696900  1
  F  F65  1  0.10328500  0.61656000  0.85696900  1
  F  F66  1  0.88344000  0.60328500  0.60696900  1
  F  F67  1  0.11656000  0.39671500  0.10696900  1
  F  F68  1  0.58775800  0.88172400  0.08986500  1
  F  F69  1  0.41224200  0.11827600  0.58986500  1
  F  F70  1  0.38172400  0.91224200  0.33986500  1
  F  F71  1  0.61827600  0.08775800  0.83986500  1
  F  F72  1  0.11827600  0.41224200  0.41013500  1
  F  F73  1  0.88172400  0.58775800  0.91013500  1
  F  F74  1  0.91224200  0.38172400  0.66013500  1
  F  F75  1  0.08775800  0.61827600  0.16013500  1
  F  F76  1  0.67261500  0.61704700  0.29169700  1
  F  F77  1  0.32738500  0.38295300  0.79169700  1
  F  F78  1  0.11704700  0.82738500  0.54169700  1
  F  F79  1  0.88295300  0.17261500  0.04169700  1
  F  F80  1  0.38295300  0.32738500  0.20830300  1
  F  F81  1  0.61704700  0.67261500  0.70830300  1
  F  F82  1  0.82738500  0.11704700  0.45830300  1
  F  F83  1  0.17261500  0.88295300  0.95830300  1
  F  F84  1  0.60566300  0.58084900  0.19918500  1
  F  F85  1  0.39433700  0.41915100  0.69918500  1
  F  F86  1  0.08084900  0.89433700  0.44918500  1
  F  F87  1  0.91915100  0.10566300  0.94918500  1
  F  F88  1  0.41915100  0.39433700  0.30081500  1
  F  F89  1  0.58084900  0.60566300  0.80081500  1
  F  F90  1  0.89433700  0.08084900  0.55081500  1
  F  F91  1  0.10566300  0.91915100  0.05081500  1
  F  F92  1  0.82950500  0.72505200  0.21919700  1
  F  F93  1  0.17049500  0.27494800  0.71919700  1
  F  F94  1  0.22505200  0.67049500  0.46919700  1
  F  F95  1  0.77494800  0.32950500  0.96919700  1
  F  F96  1  0.27494800  0.17049500  0.28080300  1
  F  F97  1  0.72505200  0.82950500  0.78080300  1
  F  F98  1  0.67049500  0.22505200  0.53080300  1
  F  F99  1  0.32950500  0.77494800  0.03080300  1
  F  F100  1  0.61691400  0.85491000  0.18216600  1
  F  F101  1  0.38308600  0.14509000  0.68216600  1
  F  F102  1  0.35491000  0.88308600  0.43216600  1
  F  F103  1  0.64509000  0.11691400  0.93216600  1
  F  F104  1  0.14509000  0.38308600  0.31783400  1
  F  F105  1  0.85491000  0.61691400  0.81783400  1
  F  F106  1  0.88308600  0.35491000  0.56783400  1
  F  F107  1  0.11691400  0.64509000  0.06783400  1
  F  F108  1  0.69167700  0.89314300  0.27154400  1
  F  F109  1  0.30832300  0.10685700  0.77154400  1
  F  F110  1  0.39314300  0.80832300  0.52154400  1
  F  F111  1  0.60685700  0.19167700  0.02154400  1
  F  F112  1  0.10685700  0.30832300  0.22845600  1
  F  F113  1  0.89314300  0.69167700  0.72845600  1
  F  F114  1  0.80832300  0.39314300  0.47845600  1
  F  F115  1  0.19167700  0.60685700  0.97845600  1
  F  F116  1  0.40240000  0.02647500  0.19350000  1
  F  F117  1  0.59760000  0.97352500  0.69350000  1
  F  F118  1  0.52647500  0.09760000  0.44350000  1
  F  F119  1  0.47352500  0.90240000  0.94350000  1
  F  F120  1  0.97352500  0.59760000  0.30650000  1
  F  F121  1  0.02647500  0.40240000  0.80650000  1
  F  F122  1  0.09760000  0.52647500  0.55650000  1
  F  F123  1  0.90240000  0.47352500  0.05650000  1
