# generated using pymatgen
data_K2GeB4O11
_symmetry_space_group_name_H-M   'P 1'
_cell_length_a   7.01303002
_cell_length_b   7.01303002
_cell_length_c   12.02950039
_cell_angle_alpha   89.28656575
_cell_angle_beta   89.28656575
_cell_angle_gamma   121.57322021
_symmetry_Int_Tables_number   1
_chemical_formula_structural   K2GeB4O11
_chemical_formula_sum   'K4 Ge2 B8 O22'
_cell_volume   503.89819520
_cell_formula_units_Z   2
loop_
 _symmetry_equiv_pos_site_id
 _symmetry_equiv_pos_as_xyz
  1  'x, y, z'
loop_
 _atom_site_type_symbol
 _atom_site_label
 _atom_site_symmetry_multiplicity
 _atom_site_fract_x
 _atom_site_fract_y
 _atom_site_fract_z
 _atom_site_occupancy
  K  K0  1  0.44019300  0.52731000  0.89070300  1
  K  K1  1  0.52731000  0.44019300  0.39070300  1
  K  K2  1  0.30847000  0.81331200  0.61879900  1
  K  K3  1  0.81331200  0.30847000  0.11879900  1
  Ge  Ge4  1  0.82331900  0.23900400  0.79542400  1
  Ge  Ge5  1  0.23900400  0.82331900  0.29542400  1
  B  B6  1  0.92199700  0.29831100  0.55812900  1
  B  B7  1  0.29831100  0.92199700  0.05812900  1
  B  B8  1  0.03449300  0.36169400  0.36004800  1
  B  B9  1  0.36169400  0.03449300  0.86004800  1
  B  B10  1  0.93043100  0.96530700  0.34576600  1
  B  B11  1  0.96530700  0.93043100  0.84576600  1
  B  B12  1  0.66204600  0.06585200  0.40924400  1
  B  B13  1  0.06585200  0.66204600  0.90924400  1
  O  O14  1  0.41918000  0.98072000  0.40299400  1
  O  O15  1  0.98072000  0.41918000  0.90299400  1
  O  O16  1  0.08685800  0.42967300  0.47985500  1
  O  O17  1  0.42967300  0.08685800  0.97985500  1
  O  O18  1  0.97605700  0.36570400  0.66841000  1
  O  O19  1  0.36570400  0.97605700  0.16841000  1
  O  O20  1  0.18017700  0.54917800  0.28320300  1
  O  O21  1  0.54917800  0.18017700  0.78320300  1
  O  O22  1  0.09412600  0.18698800  0.33751800  1
  O  O23  1  0.18698800  0.09412600  0.83751800  1
  O  O24  1  0.97515100  0.79741100  0.32296700  1
  O  O25  1  0.79741100  0.97515100  0.82296700  1
  O  O26  1  0.71190700  0.89082400  0.37682700  1
  O  O27  1  0.89082400  0.71190700  0.87682700  1
  O  O28  1  0.71775300  0.11836500  0.53104700  1
  O  O29  1  0.11836500  0.71775300  0.03104700  1
  O  O30  1  0.79660800  0.26873600  0.34159200  1
  O  O31  1  0.26873600  0.79660800  0.84159200  1
  O  O32  1  0.52306300  0.55425400  0.13699300  1
  O  O33  1  0.55425400  0.52306300  0.63699300  1
  O  O34  1  0.74287700  0.67653100  0.60643000  1
  O  O35  1  0.67653100  0.74287700  0.10643000  1
