# generated using pymatgen
data_MgUS2O21
_symmetry_space_group_name_H-M   'P 1'
_cell_length_a   6.89364940
_cell_length_b   6.89364940
_cell_length_c   20.60028713
_cell_angle_alpha   78.85821903
_cell_angle_beta   78.85821903
_cell_angle_gamma   69.16036930
_symmetry_Int_Tables_number   1
_chemical_formula_structural   MgUS2O21
_chemical_formula_sum   'Mg2 U2 S4 O42'
_cell_volume   889.37408692
_cell_formula_units_Z   2
loop_
 _symmetry_equiv_pos_site_id
 _symmetry_equiv_pos_as_xyz
  1  'x, y, z'
loop_
 _atom_site_type_symbol
 _atom_site_label
 _atom_site_symmetry_multiplicity
 _atom_site_fract_x
 _atom_site_fract_y
 _atom_site_fract_z
 _atom_site_occupancy
  Mg  Mg0  1  0.50000000  0.50000000  0.00000000  1
  Mg  Mg1  1  0.50000000  0.50000000  0.50000000  1
  U  U2  1  0.21429400  0.78570600  0.25000000  1
  U  U3  1  0.78570600  0.21429400  0.75000000  1
  S  S4  1  0.04717800  0.31679400  0.29340000  1
  S  S5  1  0.68320600  0.95282200  0.20660000  1
  S  S6  1  0.95282200  0.68320600  0.70660000  1
  S  S7  1  0.31679400  0.04717800  0.79340000  1
  O  O8  1  0.82328500  0.39963700  0.32265400  1
  O  O9  1  0.60036300  0.17671500  0.17734600  1
  O  O10  1  0.17671500  0.60036300  0.67734600  1
  O  O11  1  0.39963700  0.82328500  0.82265400  1
  O  O12  1  0.11303900  0.49272900  0.25103400  1
  O  O13  1  0.50727100  0.88696100  0.24896600  1
  O  O14  1  0.88696100  0.50727100  0.74896600  1
  O  O15  1  0.49272900  0.11303900  0.75103400  1
  O  O16  1  0.08027200  0.16202900  0.24781400  1
  O  O17  1  0.83797100  0.91972800  0.25218600  1
  O  O18  1  0.91972800  0.83797100  0.75218600  1
  O  O19  1  0.16202900  0.08027200  0.74781400  1
  O  O20  1  0.16965900  0.22550100  0.34947900  1
  O  O21  1  0.77449900  0.83034100  0.15052100  1
  O  O22  1  0.83034100  0.77449900  0.65052100  1
  O  O23  1  0.22550100  0.16965900  0.84947900  1
  O  O24  1  0.18120000  0.74217800  0.34028700  1
  O  O25  1  0.25782200  0.81880000  0.15971300  1
  O  O26  1  0.81880000  0.25782200  0.65971300  1
  O  O27  1  0.74217800  0.18120000  0.84028700  1
  O  O28  1  0.51287000  0.48713000  0.25000000  1
  O  O29  1  0.48713000  0.51287000  0.75000000  1
  O  O30  1  0.60905200  0.19543400  0.52136900  1
  O  O31  1  0.80456600  0.39094800  0.97863100  1
  O  O32  1  0.39094800  0.80456600  0.47863100  1
  O  O33  1  0.19543400  0.60905200  0.02136900  1
  O  O34  1  0.22994100  0.43422800  0.46174800  1
  O  O35  1  0.56577200  0.77005900  0.03825200  1
  O  O36  1  0.77005900  0.56577200  0.53825200  1
  O  O37  1  0.43422800  0.22994100  0.96174800  1
  O  O38  1  0.44787000  0.18772900  0.57872600  1
  O  O39  1  0.81227100  0.55213000  0.92127400  1
  O  O40  1  0.55213000  0.81227100  0.42127400  1
  O  O41  1  0.18772900  0.44787000  0.07872600  1
  O  O42  1  0.56482800  0.98931700  0.39927200  1
  O  O43  1  0.01068300  0.43517200  0.10072800  1
  O  O44  1  0.43517200  0.01068300  0.60072800  1
  O  O45  1  0.98931700  0.56482800  0.89927200  1
  O  O46  1  0.17019500  0.28053800  0.47409700  1
  O  O47  1  0.71946200  0.82980500  0.02590300  1
  O  O48  1  0.82980500  0.71946200  0.52590300  1
  O  O49  1  0.28053800  0.17019500  0.97409700  1
