# generated using pymatgen
data_NiPO4
_symmetry_space_group_name_H-M   'P 1'
_cell_length_a   7.34402400
_cell_length_b   9.00880400
_cell_length_c   9.87268900
_cell_angle_alpha   90.00000000
_cell_angle_beta   90.00000000
_cell_angle_gamma   90.00000000
_symmetry_Int_Tables_number   1
_chemical_formula_structural   NiPO4
_chemical_formula_sum   'Ni8 P8 O32'
_cell_volume   653.18572100
_cell_formula_units_Z   8
loop_
 _symmetry_equiv_pos_site_id
 _symmetry_equiv_pos_as_xyz
  1  'x, y, z'
loop_
 _atom_site_type_symbol
 _atom_site_label
 _atom_site_symmetry_multiplicity
 _atom_site_fract_x
 _atom_site_fract_y
 _atom_site_fract_z
 _atom_site_occupancy
  Ni  Ni0  1  0.84093600  0.59413300  0.59208500  1
  Ni  Ni1  1  0.15906400  0.40586700  0.09208500  1
  Ni  Ni2  1  0.84093600  0.90586700  0.09208500  1
  Ni  Ni3  1  0.15906400  0.09413300  0.59208500  1
  Ni  Ni4  1  0.15285000  0.40485300  0.42550100  1
  Ni  Ni5  1  0.84715000  0.59514700  0.92550100  1
  Ni  Ni6  1  0.15285000  0.09514700  0.92550100  1
  Ni  Ni7  1  0.84715000  0.90485300  0.42550100  1
  P  P8  1  0.25818900  0.74882400  0.51137000  1
  P  P9  1  0.74181100  0.25117600  0.01137000  1
  P  P10  1  0.25818900  0.75117600  0.01137000  1
  P  P11  1  0.74181100  0.24882400  0.51137000  1
  P  P12  1  0.83749800  0.58663400  0.25720400  1
  P  P13  1  0.16250200  0.41336600  0.75720400  1
  P  P14  1  0.83749800  0.91336600  0.75720400  1
  P  P15  1  0.16250200  0.08663400  0.25720400  1
  O  O16  1  0.61467600  0.53113200  0.69436100  1
  O  O17  1  0.38532400  0.46886800  0.19436100  1
  O  O18  1  0.61467600  0.96886800  0.19436100  1
  O  O19  1  0.38532400  0.03113200  0.69436100  1
  O  O20  1  0.38324800  0.46793100  0.32936800  1
  O  O21  1  0.61675200  0.53206900  0.82936800  1
  O  O22  1  0.38324800  0.03206900  0.82936800  1
  O  O23  1  0.61675200  0.96793100  0.32936800  1
  O  O24  1  0.14068500  0.61154700  0.51698400  1
  O  O25  1  0.85931500  0.38845300  0.01698400  1
  O  O26  1  0.14068500  0.88845300  0.01698400  1
  O  O27  1  0.85931500  0.11154700  0.51698400  1
  O  O28  1  0.45681400  0.74700400  0.51830700  1
  O  O29  1  0.54318600  0.25299600  0.01830700  1
  O  O30  1  0.45681400  0.75299600  0.01830700  1
  O  O31  1  0.54318600  0.24700400  0.51830700  1
  O  O32  1  0.85339000  0.38902200  0.49851500  1
  O  O33  1  0.14661000  0.61097800  0.99851500  1
  O  O34  1  0.85339000  0.11097800  0.99851500  1
  O  O35  1  0.14661000  0.88902200  0.49851500  1
  O  O36  1  0.81995600  0.68419700  0.38592200  1
  O  O37  1  0.18004400  0.31580300  0.88592200  1
  O  O38  1  0.81995600  0.81580300  0.88592200  1
  O  O39  1  0.18004400  0.18419700  0.38592200  1
  O  O40  1  0.82397500  0.81568600  0.62797600  1
  O  O41  1  0.17602500  0.18431400  0.12797600  1
  O  O42  1  0.82397500  0.68431400  0.12797600  1
  O  O43  1  0.17602500  0.31568600  0.62797600  1
  O  O44  1  0.98283100  0.50944500  0.75780700  1
  O  O45  1  0.01716900  0.49055500  0.25780700  1
  O  O46  1  0.98283100  0.99055500  0.25780700  1
  O  O47  1  0.01716900  0.00944500  0.75780700  1
