# generated using pymatgen
data_Na4Sn2Ge5O17
_symmetry_space_group_name_H-M   'P 1'
_cell_length_a   5.45799700
_cell_length_b   7.09419200
_cell_length_c   21.29366140
_cell_angle_alpha   73.88779840
_cell_angle_beta   90.00000000
_cell_angle_gamma   90.00000000
_symmetry_Int_Tables_number   1
_chemical_formula_structural   Na4Sn2Ge5O17
_chemical_formula_sum   'Na8 Sn4 Ge10 O34'
_cell_volume   792.10625159
_cell_formula_units_Z   2
loop_
 _symmetry_equiv_pos_site_id
 _symmetry_equiv_pos_as_xyz
  1  'x, y, z'
loop_
 _atom_site_type_symbol
 _atom_site_label
 _atom_site_symmetry_multiplicity
 _atom_site_fract_x
 _atom_site_fract_y
 _atom_site_fract_z
 _atom_site_occupancy
  Na  Na0  1  0.99971100  0.74608600  0.70943000  1
  Na  Na1  1  0.99971100  0.25391400  0.79057000  1
  Na  Na2  1  0.00028900  0.25391400  0.29057000  1
  Na  Na3  1  0.00028900  0.74608600  0.20943000  1
  Na  Na4  1  0.24468000  0.60996700  0.52797200  1
  Na  Na5  1  0.24468000  0.39003300  0.97202800  1
  Na  Na6  1  0.75532000  0.39003300  0.47202800  1
  Na  Na7  1  0.75532000  0.60996700  0.02797200  1
  Sn  Sn8  1  0.23934600  0.88551100  0.91109200  1
  Sn  Sn9  1  0.23934600  0.11448900  0.58890800  1
  Sn  Sn10  1  0.76065400  0.11448900  0.08890800  1
  Sn  Sn11  1  0.76065400  0.88551100  0.41109200  1
  Ge  Ge12  1  0.50395900  0.00000000  0.75000000  1
  Ge  Ge13  1  0.49604100  0.00000000  0.25000000  1
  Ge  Ge14  1  0.71525400  0.81389500  0.57634900  1
  Ge  Ge15  1  0.71525400  0.18610500  0.92365100  1
  Ge  Ge16  1  0.28474600  0.18610500  0.42365100  1
  Ge  Ge17  1  0.28474600  0.81389500  0.07634900  1
  Ge  Ge18  1  0.74831200  0.65132200  0.86549500  1
  Ge  Ge19  1  0.74831200  0.34867800  0.63450500  1
  Ge  Ge20  1  0.25168800  0.34867800  0.13450500  1
  Ge  Ge21  1  0.25168800  0.65132200  0.36549500  1
  O  O22  1  0.30710500  0.50000000  0.75000000  1
  O  O23  1  0.69289500  0.50000000  0.25000000  1
  O  O24  1  0.05916500  0.65502500  0.88749700  1
  O  O25  1  0.05916500  0.34497500  0.61250300  1
  O  O26  1  0.94083500  0.34497500  0.11250300  1
  O  O27  1  0.94083500  0.65502500  0.38749700  1
  O  O28  1  0.32052500  0.96564600  0.68681800  1
  O  O29  1  0.32052500  0.03435400  0.81318200  1
  O  O30  1  0.67947500  0.03435400  0.31318200  1
  O  O31  1  0.67947500  0.96564600  0.18681800  1
  O  O32  1  0.40389000  0.88326400  0.56323800  1
  O  O33  1  0.40389000  0.11673600  0.93676200  1
  O  O34  1  0.59611000  0.11673600  0.43676200  1
  O  O35  1  0.59611000  0.88326400  0.06323800  1
  O  O36  1  0.54051900  0.69076900  0.92390900  1
  O  O37  1  0.54051900  0.30923100  0.57609100  1
  O  O38  1  0.45948100  0.30923100  0.07609100  1
  O  O39  1  0.45948100  0.69076900  0.42390900  1
  O  O40  1  0.70992000  0.59074600  0.64423800  1
  O  O41  1  0.70992000  0.40925400  0.85576200  1
  O  O42  1  0.29008000  0.40925400  0.35576200  1
  O  O43  1  0.29008000  0.59074600  0.14423800  1
  O  O44  1  0.70762900  0.79741000  0.78196100  1
  O  O45  1  0.70762900  0.20259000  0.71803900  1
  O  O46  1  0.29237100  0.20259000  0.21803900  1
  O  O47  1  0.29237100  0.79741000  0.28196100  1
  O  O48  1  0.83902400  0.74498500  0.50890600  1
  O  O49  1  0.83902400  0.25501500  0.99109400  1
  O  O50  1  0.16097600  0.25501500  0.49109400  1
  O  O51  1  0.16097600  0.74498500  0.00890600  1
  O  O52  1  0.90468600  0.96587200  0.60804100  1
  O  O53  1  0.90468600  0.03412800  0.89195900  1
  O  O54  1  0.09531400  0.03412800  0.39195900  1
  O  O55  1  0.09531400  0.96587200  0.10804100  1
