# generated using pymatgen
data_Cd2BO4
_symmetry_space_group_name_H-M   'P 1'
_cell_length_a   10.00194764
_cell_length_b   10.00194764
_cell_length_c   10.00194764
_cell_angle_alpha   60.00000000
_cell_angle_beta   60.00000000
_cell_angle_gamma   60.00000000
_symmetry_Int_Tables_number   1
_chemical_formula_structural   Cd2BO4
_chemical_formula_sum   'Cd16 B8 O32'
_cell_volume   707.52001810
_cell_formula_units_Z   8
loop_
 _symmetry_equiv_pos_site_id
 _symmetry_equiv_pos_as_xyz
  1  'x, y, z'
loop_
 _atom_site_type_symbol
 _atom_site_label
 _atom_site_symmetry_multiplicity
 _atom_site_fract_x
 _atom_site_fract_y
 _atom_site_fract_z
 _atom_site_occupancy
  Cd  Cd0  1  0.04540000  0.45460000  0.04540000  1
  Cd  Cd1  1  0.45460000  0.04540000  0.45460000  1
  Cd  Cd2  1  0.20460000  0.79540000  0.20460000  1
  Cd  Cd3  1  0.79540000  0.20460000  0.79540000  1
  Cd  Cd4  1  0.04540000  0.04540000  0.45460000  1
  Cd  Cd5  1  0.45460000  0.45460000  0.04540000  1
  Cd  Cd6  1  0.20460000  0.20460000  0.79540000  1
  Cd  Cd7  1  0.79540000  0.79540000  0.20460000  1
  Cd  Cd8  1  0.45460000  0.04540000  0.04540000  1
  Cd  Cd9  1  0.04540000  0.45460000  0.45460000  1
  Cd  Cd10  1  0.79540000  0.20460000  0.20460000  1
  Cd  Cd11  1  0.20460000  0.79540000  0.79540000  1
  Cd  Cd12  1  0.12500000  0.62500000  0.62500000  1
  Cd  Cd13  1  0.62500000  0.12500000  0.62500000  1
  Cd  Cd14  1  0.62500000  0.62500000  0.12500000  1
  Cd  Cd15  1  0.62500000  0.62500000  0.62500000  1
  B  B16  1  0.44268800  0.85243700  0.85243700  1
  B  B17  1  0.85243700  0.44268800  0.85243700  1
  B  B18  1  0.85243700  0.85243700  0.44268800  1
  B  B19  1  0.85243700  0.85243700  0.85243700  1
  B  B20  1  0.80731200  0.39756300  0.39756300  1
  B  B21  1  0.39756300  0.80731200  0.39756300  1
  B  B22  1  0.39756300  0.39756300  0.80731200  1
  B  B23  1  0.39756300  0.39756300  0.39756300  1
  O  O24  1  0.99487900  0.71745600  0.84742500  1
  O  O25  1  0.71745600  0.99487900  0.44024100  1
  O  O26  1  0.84742500  0.44024100  0.99487900  1
  O  O27  1  0.44024100  0.84742500  0.71745600  1
  O  O28  1  0.25512100  0.53254400  0.40257500  1
  O  O29  1  0.53254400  0.25512100  0.80975900  1
  O  O30  1  0.40257500  0.80975900  0.25512100  1
  O  O31  1  0.80975900  0.40257500  0.53254400  1
  O  O32  1  0.84742500  0.99487900  0.71745600  1
  O  O33  1  0.44024100  0.71745600  0.99487900  1
  O  O34  1  0.99487900  0.84742500  0.44024100  1
  O  O35  1  0.71745600  0.44024100  0.84742500  1
  O  O36  1  0.40257500  0.25512100  0.53254400  1
  O  O37  1  0.80975900  0.53254400  0.25512100  1
  O  O38  1  0.25512100  0.40257500  0.80975900  1
  O  O39  1  0.53254400  0.80975900  0.40257500  1
  O  O40  1  0.71745600  0.84742500  0.99487900  1
  O  O41  1  0.99487900  0.44024100  0.71745600  1
  O  O42  1  0.44024100  0.99487900  0.84742500  1
  O  O43  1  0.84742500  0.71745600  0.44024100  1
  O  O44  1  0.53254400  0.40257500  0.25512100  1
  O  O45  1  0.25512100  0.80975900  0.53254400  1
  O  O46  1  0.80975900  0.25512100  0.40257500  1
  O  O47  1  0.40257500  0.53254400  0.80975900  1
  O  O48  1  0.53201500  0.15599500  0.15599500  1
  O  O49  1  0.15599500  0.53201500  0.15599500  1
  O  O50  1  0.15599500  0.15599500  0.53201500  1
  O  O51  1  0.15599500  0.15599500  0.15599500  1
  O  O52  1  0.71798500  0.09400500  0.09400500  1
  O  O53  1  0.09400500  0.71798500  0.09400500  1
  O  O54  1  0.09400500  0.09400500  0.71798500  1
  O  O55  1  0.09400500  0.09400500  0.09400500  1
