# generated using pymatgen
data_Tb2ZrSe5
_symmetry_space_group_name_H-M   'P 1'
_cell_length_a   7.65040700
_cell_length_b   8.15044500
_cell_length_c   12.19530100
_cell_angle_alpha   90.00000000
_cell_angle_beta   90.00000000
_cell_angle_gamma   90.00000000
_symmetry_Int_Tables_number   1
_chemical_formula_structural   Tb2ZrSe5
_chemical_formula_sum   'Tb8 Zr4 Se20'
_cell_volume   760.42849958
_cell_formula_units_Z   4
loop_
 _symmetry_equiv_pos_site_id
 _symmetry_equiv_pos_as_xyz
  1  'x, y, z'
loop_
 _atom_site_type_symbol
 _atom_site_label
 _atom_site_symmetry_multiplicity
 _atom_site_fract_x
 _atom_site_fract_y
 _atom_site_fract_z
 _atom_site_occupancy
  Tb  Tb0  1  0.97489400  0.00394500  0.17913800  1
  Tb  Tb1  1  0.52510600  0.49605500  0.67913800  1
  Tb  Tb2  1  0.02510600  0.50394500  0.82086200  1
  Tb  Tb3  1  0.47489400  0.99605500  0.32086200  1
  Tb  Tb4  1  0.02510600  0.99605500  0.82086200  1
  Tb  Tb5  1  0.47489400  0.50394500  0.32086200  1
  Tb  Tb6  1  0.97489400  0.49605500  0.17913800  1
  Tb  Tb7  1  0.52510600  0.00394500  0.67913800  1
  Zr  Zr8  1  0.42158800  0.75000000  0.00640400  1
  Zr  Zr9  1  0.07841200  0.75000000  0.50640400  1
  Zr  Zr10  1  0.57841200  0.25000000  0.99359600  1
  Zr  Zr11  1  0.92158800  0.25000000  0.49359600  1
  Se  Se12  1  0.83597600  0.96209600  0.40633300  1
  Se  Se13  1  0.66402400  0.53790400  0.90633300  1
  Se  Se14  1  0.16402400  0.46209600  0.59366700  1
  Se  Se15  1  0.33597600  0.03790400  0.09366700  1
  Se  Se16  1  0.16402400  0.03790400  0.59366700  1
  Se  Se17  1  0.33597600  0.46209600  0.09366700  1
  Se  Se18  1  0.83597600  0.53790400  0.40633300  1
  Se  Se19  1  0.66402400  0.96209600  0.90633300  1
  Se  Se20  1  0.66862300  0.75000000  0.18236100  1
  Se  Se21  1  0.83137700  0.75000000  0.68236100  1
  Se  Se22  1  0.33137700  0.25000000  0.81763900  1
  Se  Se23  1  0.16862300  0.25000000  0.31763900  1
  Se  Se24  1  0.44906500  0.75000000  0.50295500  1
  Se  Se25  1  0.05093500  0.75000000  0.00295500  1
  Se  Se26  1  0.55093500  0.25000000  0.49704500  1
  Se  Se27  1  0.94906500  0.25000000  0.99704500  1
  Se  Se28  1  0.18789100  0.75000000  0.29132700  1
  Se  Se29  1  0.31210900  0.75000000  0.79132700  1
  Se  Se30  1  0.81210900  0.25000000  0.70867300  1
  Se  Se31  1  0.68789100  0.25000000  0.20867300  1
