# generated using pymatgen
data_CsFeO2
_symmetry_space_group_name_H-M   'P 1'
_cell_length_a   6.04604100
_cell_length_b   12.13424200
_cell_length_c   17.14885900
_cell_angle_alpha   90.00000000
_cell_angle_beta   90.00000000
_cell_angle_gamma   90.00000000
_symmetry_Int_Tables_number   1
_chemical_formula_structural   CsFeO2
_chemical_formula_sum   'Cs16 Fe16 O32'
_cell_volume   1258.11102904
_cell_formula_units_Z   16
loop_
 _symmetry_equiv_pos_site_id
 _symmetry_equiv_pos_as_xyz
  1  'x, y, z'
loop_
 _atom_site_type_symbol
 _atom_site_label
 _atom_site_symmetry_multiplicity
 _atom_site_fract_x
 _atom_site_fract_y
 _atom_site_fract_z
 _atom_site_occupancy
  Cs  Cs0  1  0.25015900  0.00472500  0.43733500  1
  Cs  Cs1  1  0.75015900  0.49527500  0.56266500  1
  Cs  Cs2  1  0.74984100  0.50472500  0.06266500  1
  Cs  Cs3  1  0.24984100  0.99527500  0.93733500  1
  Cs  Cs4  1  0.74984100  0.99527500  0.56266500  1
  Cs  Cs5  1  0.24984100  0.50472500  0.43733500  1
  Cs  Cs6  1  0.25015900  0.49527500  0.93733500  1
  Cs  Cs7  1  0.75015900  0.00472500  0.06266500  1
  Cs  Cs8  1  0.78908000  0.25506700  0.18701400  1
  Cs  Cs9  1  0.28908000  0.24493300  0.81298600  1
  Cs  Cs10  1  0.21092000  0.75506700  0.31298600  1
  Cs  Cs11  1  0.71092000  0.74493300  0.68701400  1
  Cs  Cs12  1  0.21092000  0.74493300  0.81298600  1
  Cs  Cs13  1  0.71092000  0.75506700  0.18701400  1
  Cs  Cs14  1  0.78908000  0.24493300  0.68701400  1
  Cs  Cs15  1  0.28908000  0.25506700  0.31298600  1
  Fe  Fe16  1  0.75846300  0.00258500  0.31179200  1
  Fe  Fe17  1  0.25846300  0.49741500  0.68820800  1
  Fe  Fe18  1  0.24153700  0.50258500  0.18820800  1
  Fe  Fe19  1  0.74153700  0.99741500  0.81179200  1
  Fe  Fe20  1  0.24153700  0.99741500  0.68820800  1
  Fe  Fe21  1  0.74153700  0.50258500  0.31179200  1
  Fe  Fe22  1  0.75846300  0.49741500  0.81179200  1
  Fe  Fe23  1  0.25846300  0.00258500  0.18820800  1
  Fe  Fe24  1  0.27531600  0.25554600  0.06229100  1
  Fe  Fe25  1  0.77531600  0.24445400  0.93770900  1
  Fe  Fe26  1  0.72468400  0.75554600  0.43770900  1
  Fe  Fe27  1  0.22468400  0.74445400  0.56229100  1
  Fe  Fe28  1  0.72468400  0.74445400  0.93770900  1
  Fe  Fe29  1  0.22468400  0.75554600  0.06229100  1
  Fe  Fe30  1  0.27531600  0.24445400  0.56229100  1
  Fe  Fe31  1  0.77531600  0.25554600  0.43770900  1
  O  O32  1  0.79875100  0.14160100  0.36177400  1
  O  O33  1  0.29875200  0.35839900  0.63822600  1
  O  O34  1  0.20124800  0.64160100  0.13822600  1
  O  O35  1  0.70124900  0.85839900  0.86177400  1
  O  O36  1  0.20124800  0.85839900  0.63822600  1
  O  O37  1  0.70124900  0.64160100  0.36177400  1
  O  O38  1  0.79875100  0.35839900  0.86177400  1
  O  O39  1  0.29875200  0.14160100  0.13822600  1
  O  O40  1  0.68860800  0.11114500  0.88648200  1
  O  O41  1  0.18860800  0.38885500  0.11351800  1
  O  O42  1  0.31139200  0.61114500  0.61351800  1
  O  O43  1  0.81139200  0.88885500  0.38648200  1
  O  O44  1  0.31139200  0.88885500  0.11351800  1
  O  O45  1  0.81139200  0.61114500  0.88648200  1
  O  O46  1  0.68860800  0.38885500  0.38648200  1
  O  O47  1  0.18860800  0.11114500  0.61351800  1
  O  O48  1  0.55522500  0.22048600  0.51366000  1
  O  O49  1  0.05522500  0.27951400  0.48634000  1
  O  O50  1  0.44477500  0.72048600  0.98634000  1
  O  O51  1  0.94477500  0.77951400  0.01366000  1
  O  O52  1  0.44477500  0.77951400  0.48634000  1
  O  O53  1  0.94477500  0.72048600  0.51366000  1
  O  O54  1  0.55522500  0.27951400  0.01366000  1
  O  O55  1  0.05522500  0.22048600  0.98634000  1
  O  O56  1  0.46359800  0.98915800  0.27263000  1
  O  O57  1  0.96359800  0.51084200  0.72737000  1
  O  O58  1  0.53640200  0.48915800  0.22737000  1
  O  O59  1  0.03640200  0.01084200  0.77263000  1
  O  O60  1  0.53640200  0.01084200  0.72737000  1
  O  O61  1  0.03640200  0.48915800  0.27263000  1
  O  O62  1  0.46359800  0.51084200  0.77263000  1
  O  O63  1  0.96359800  0.98915800  0.22737000  1
