# generated using pymatgen
data_AlCu6H18SClO19
_symmetry_space_group_name_H-M   'P 1'
_cell_length_a   8.37324427
_cell_length_b   8.37259430
_cell_length_c   14.46318511
_cell_angle_alpha   90.02620602
_cell_angle_beta   89.94759095
_cell_angle_gamma   120.00256979
_symmetry_Int_Tables_number   1
_chemical_formula_structural   AlCu6H18SClO19
_chemical_formula_sum   'Al2 Cu12 H36 S2 Cl2 O38'
_cell_volume   878.08580572
_cell_formula_units_Z   2
loop_
 _symmetry_equiv_pos_site_id
 _symmetry_equiv_pos_as_xyz
  1  'x, y, z'
loop_
 _atom_site_type_symbol
 _atom_site_label
 _atom_site_symmetry_multiplicity
 _atom_site_fract_x
 _atom_site_fract_y
 _atom_site_fract_z
 _atom_site_occupancy
  Al  Al0  1  0.33334600  0.66668100  0.50141700  1
  Al  Al1  1  0.66666500  0.33331900  0.00141700  1
  Cu  Cu2  1  0.75958300  0.96048300  0.49944000  1
  Cu  Cu3  1  0.20086100  0.24038400  0.49934100  1
  Cu  Cu4  1  0.03949500  0.79914700  0.49937300  1
  Cu  Cu5  1  0.79910000  0.03951700  0.99944000  1
  Cu  Cu6  1  0.96047700  0.75961600  0.99934100  1
  Cu  Cu7  1  0.24034800  0.20085300  0.99937300  1
  Cu  Cu8  1  0.46692600  0.09654700  0.48101700  1
  Cu  Cu9  1  0.62965000  0.53305700  0.48097100  1
  Cu  Cu10  1  0.90368400  0.37042100  0.48111300  1
  Cu  Cu11  1  0.37037900  0.90345300  0.98101700  1
  Cu  Cu12  1  0.09659300  0.46694300  0.98097100  1
  Cu  Cu13  1  0.53326300  0.62957900  0.98111300  1
  H  H14  1  0.20602700  0.77310100  0.24352400  1
  H  H15  1  0.56714000  0.79406100  0.24354700  1
  H  H16  1  0.22699300  0.43326000  0.24364100  1
  H  H17  1  0.43292600  0.22689900  0.74352400  1
  H  H18  1  0.77307900  0.20593900  0.74354700  1
  H  H19  1  0.79373300  0.56674000  0.74364100  1
  H  H20  1  0.99621100  0.63266600  0.24353900  1
  H  H21  1  0.63659500  0.00389000  0.24350800  1
  H  H22  1  0.36690400  0.36327600  0.24332700  1
  H  H23  1  0.36354500  0.36733400  0.74353900  1
  H  H24  1  0.63270600  0.99611000  0.74350800  1
  H  H25  1  0.00362800  0.63672400  0.74332700  1
  H  H26  1  0.20406000  0.03767700  0.36805400  1
  H  H27  1  0.83388800  0.79611600  0.36811300  1
  H  H28  1  0.96239700  0.16624300  0.36813200  1
  H  H29  1  0.16638200  0.96232300  0.86805400  1
  H  H30  1  0.03777200  0.20388400  0.86811300  1
  H  H31  1  0.79615500  0.83375700  0.86813200  1
  H  H32  1  0.46060100  0.87961500  0.35850400  1
  H  H33  1  0.41940000  0.53952700  0.35845600  1
  H  H34  1  0.12049000  0.58077400  0.35844200  1
  H  H35  1  0.58098600  0.12038500  0.85850400  1
  H  H36  1  0.87987300  0.46047300  0.85845600  1
  H  H37  1  0.53971700  0.41922600  0.85844200  1
  H  H38  1  0.85065100  0.53071800  0.61217100  1
  H  H39  1  0.67968600  0.14905600  0.61221700  1
  H  H40  1  0.46911800  0.32013200  0.61212200  1
  H  H41  1  0.31993200  0.46928200  0.11217100  1
  H  H42  1  0.53062900  0.85094400  0.11221700  1
  H  H43  1  0.14898500  0.67986800  0.11212200  1
  H  H44  1  0.57608200  0.75217500  0.63562600  1
  H  H45  1  0.17573000  0.42348500  0.63559300  1
  H  H46  1  0.24745700  0.82438800  0.63555100  1
  H  H47  1  0.82390700  0.24782500  0.13562600  1
  H  H48  1  0.75224400  0.57651500  0.13559300  1
  H  H49  1  0.42306900  0.17561200  0.13555100  1
  S  S50  1  0.99998300  0.99993200  0.71812700  1
  S  S51  1  0.00005100  0.00006800  0.21812700  1
  Cl  Cl52  1  0.66704200  0.33338300  0.33656200  1
  Cl  Cl53  1  0.33365800  0.66661700  0.83656200  1
  O  O54  1  0.11666700  0.64281300  0.23253800  1
  O  O55  1  0.52626200  0.88342500  0.23259800  1
  O  O56  1  0.35714900  0.47386200  0.23254900  1
  O  O57  1  0.47385500  0.35718700  0.73253800  1
  O  O58  1  0.64283800  0.11657500  0.73259800  1
  O  O59  1  0.88328700  0.52613800  0.73254900  1
  O  O60  1  0.21595800  0.03612600  0.43721800  1
  O  O61  1  0.82033800  0.78414400  0.43729000  1
  O  O62  1  0.96395100  0.17971400  0.43731100  1
  O  O63  1  0.17983200  0.96387400  0.93721800  1
  O  O64  1  0.03619400  0.21585600  0.93729000  1
  O  O65  1  0.78423700  0.82028600  0.93731100  1
  O  O66  1  0.46826300  0.88342400  0.42625600  1
  O  O67  1  0.41539600  0.53187600  0.42620700  1
  O  O68  1  0.11678100  0.58475400  0.42624500  1
  O  O69  1  0.58483900  0.11657600  0.92625600  1
  O  O70  1  0.88352000  0.46812400  0.92620700  1
  O  O71  1  0.53202700  0.41524600  0.92624500  1
  O  O72  1  0.84806800  0.54816700  0.54444200  1
  O  O73  1  0.69995800  0.15188800  0.54447900  1
  O  O74  1  0.45170800  0.29997600  0.54443200  1
  O  O75  1  0.29990100  0.45183300  0.04444200  1
  O  O76  1  0.54807000  0.84811200  0.04447900  1
  O  O77  1  0.15173200  0.70002400  0.04443200  1
  O  O78  1  0.05122100  0.18880400  0.75271800  1
  O  O79  1  0.13769000  0.94873600  0.75255000  1
  O  O80  1  0.81117600  0.86225700  0.75276500  1
  O  O81  1  0.86241700  0.81119600  0.25271800  1
  O  O82  1  0.18895400  0.05126400  0.25255000  1
  O  O83  1  0.94891900  0.13774300  0.25276500  1
  O  O84  1  0.55805600  0.75320700  0.56898900  1
  O  O85  1  0.19489600  0.44175800  0.56896900  1
  O  O86  1  0.24655900  0.80493500  0.56895900  1
  O  O87  1  0.80484900  0.24679300  0.06898900  1
  O  O88  1  0.75313800  0.55824200  0.06896900  1
  O  O89  1  0.44162400  0.19506500  0.06895900  1
  O  O90  1  0.99991500  0.99996500  0.61515900  1
  O  O91  1  0.99995000  0.00003500  0.11515900  1
