# generated using pymatgen
data_NiC14S2N2O3
_symmetry_space_group_name_H-M   'P 1'
_cell_length_a   11.48154100
_cell_length_b   10.98315000
_cell_length_c   14.66180705
_cell_angle_alpha   50.92397524
_cell_angle_beta   90.00000000
_cell_angle_gamma   90.00000000
_symmetry_Int_Tables_number   1
_chemical_formula_structural   NiC14S2N2O3
_chemical_formula_sum   'Ni4 C56 S8 N8 O12'
_cell_volume   1435.32388691
_cell_formula_units_Z   4
loop_
 _symmetry_equiv_pos_site_id
 _symmetry_equiv_pos_as_xyz
  1  'x, y, z'
loop_
 _atom_site_type_symbol
 _atom_site_label
 _atom_site_symmetry_multiplicity
 _atom_site_fract_x
 _atom_site_fract_y
 _atom_site_fract_z
 _atom_site_occupancy
  Ni  Ni0  1  0.55433400  0.36286800  0.12027300  1
  Ni  Ni1  1  0.94566600  0.36286800  0.62027300  1
  Ni  Ni2  1  0.44566600  0.63713200  0.87972700  1
  Ni  Ni3  1  0.05433400  0.63713200  0.37972700  1
  C  C4  1  0.81559300  0.30959700  0.18141800  1
  C  C5  1  0.68440700  0.30959700  0.68141800  1
  C  C6  1  0.18440700  0.69040300  0.81858200  1
  C  C7  1  0.31559300  0.69040300  0.31858200  1
  C  C8  1  0.92643700  0.22371900  0.25113200  1
  C  C9  1  0.57356300  0.22371900  0.75113200  1
  C  C10  1  0.07356300  0.77628100  0.74886800  1
  C  C11  1  0.42643700  0.77628100  0.24886800  1
  C  C12  1  0.90558200  0.08071400  0.34784900  1
  C  C13  1  0.59441800  0.08071400  0.84784900  1
  C  C14  1  0.09441800  0.91928600  0.65215100  1
  C  C15  1  0.40558200  0.91928600  0.15215100  1
  C  C16  1  0.79976000  0.00990100  0.38784200  1
  C  C17  1  0.70024000  0.00990100  0.88784200  1
  C  C18  1  0.20024000  0.99009900  0.61215800  1
  C  C19  1  0.29976000  0.99009900  0.11215800  1
  C  C20  1  0.75654800  0.86250000  0.48536500  1
  C  C21  1  0.74345200  0.86250000  0.98536500  1
  C  C22  1  0.24345200  0.13750000  0.51463500  1
  C  C23  1  0.25654800  0.13750000  0.01463500  1
  C  C24  1  0.65529800  0.81146600  0.51259000  1
  C  C25  1  0.84470200  0.81146600  0.01259000  1
  C  C26  1  0.34470200  0.18853400  0.48741000  1
  C  C27  1  0.15529800  0.18853400  0.98741000  1
  C  C28  1  0.54916800  0.88511800  0.45549500  1
  C  C29  1  0.95083200  0.88511800  0.95549500  1
  C  C30  1  0.45083200  0.11488200  0.54450500  1
  C  C31  1  0.04916800  0.11488200  0.04450500  1
  C  C32  1  0.43410200  0.84668700  0.47665100  1
  C  C33  1  0.06589800  0.84668700  0.97665100  1
  C  C34  1  0.56589800  0.15331300  0.52334900  1
  C  C35  1  0.93410200  0.15331300  0.02334900  1
  C  C36  1  0.34638900  0.93439000  0.40861100  1
  C  C37  1  0.15361100  0.93439000  0.90861100  1
  C  C38  1  0.65361100  0.06561000  0.59138900  1
  C  C39  1  0.84638900  0.06561000  0.09138900  1
  C  C40  1  0.38582700  0.09689000  0.29937500  1
  C  C41  1  0.11417300  0.09689000  0.79937500  1
  C  C42  1  0.61417300  0.90311000  0.70062500  1
  C  C43  1  0.88582700  0.90311000  0.20062500  1
  C  C44  1  0.58114200  0.04805200  0.34585700  1
  C  C45  1  0.91885800  0.04805200  0.84585700  1
  C  C46  1  0.41885800  0.95194800  0.65414300  1
  C  C47  1  0.08114200  0.95194800  0.15414300  1
  C  C48  1  0.69370700  0.10361100  0.31460300  1
  C  C49  1  0.80629300  0.10361100  0.81460300  1
  C  C50  1  0.30629300  0.89638900  0.68539700  1
  C  C51  1  0.19370700  0.89638900  0.18539700  1
  C  C52  1  0.92639300  0.37374700  0.14726200  1
  C  C53  1  0.57360700  0.37374700  0.64726200  1
  C  C54  1  0.07360700  0.62625300  0.85273800  1
  C  C55  1  0.42639300  0.62625300  0.35273800  1
  C  C56  1  0.27083100  0.04607600  0.32406000  1
  C  C57  1  0.22916900  0.04607600  0.82406000  1
  C  C58  1  0.72916900  0.95392400  0.67594000  1
  C  C59  1  0.77083100  0.95392400  0.17594000  1
  S  S60  1  0.54232300  0.50752900  0.19074900  1
  S  S61  1  0.95767700  0.50752900  0.69074900  1
  S  S62  1  0.45767700  0.49247100  0.80925100  1
  S  S63  1  0.04232300  0.49247100  0.30925100  1
  S  S64  1  0.40343500  0.59124900  0.08208400  1
  S  S65  1  0.09656500  0.59124900  0.58208400  1
  S  S66  1  0.59656500  0.40875100  0.91791600  1
  S  S67  1  0.90343500  0.40875100  0.41791600  1
  N  N68  1  0.71335200  0.25611100  0.20826200  1
  N  N69  1  0.78664800  0.25611100  0.70826200  1
  N  N70  1  0.28664800  0.74388900  0.79173800  1
  N  N71  1  0.21335200  0.74388900  0.29173800  1
  N  N72  1  0.48878400  0.14769200  0.27269600  1
  N  N73  1  0.01121600  0.14769200  0.77269600  1
  N  N74  1  0.51121600  0.85230800  0.72730400  1
  N  N75  1  0.98878400  0.85230800  0.22730400  1
  O  O76  1  0.43629800  0.73824400  0.96232800  1
  O  O77  1  0.06370200  0.73824400  0.46232800  1
  O  O78  1  0.56370200  0.26175600  0.03767200  1
  O  O79  1  0.93629800  0.26175600  0.53767200  1
  O  O80  1  0.38840500  0.47010900  0.05979700  1
  O  O81  1  0.11159500  0.47010900  0.55979700  1
  O  O82  1  0.61159500  0.52989100  0.94020300  1
  O  O83  1  0.88840500  0.52989100  0.44020300  1
  O  O84  1  0.30064700  0.60703000  0.13081300  1
  O  O85  1  0.19935300  0.60703000  0.63081300  1
  O  O86  1  0.69935300  0.39297000  0.86918700  1
  O  O87  1  0.80064700  0.39297000  0.36918700  1
