# generated using pymatgen
data_CrN6(ClO)2
_symmetry_space_group_name_H-M   'P 1'
_cell_length_a   7.83585600
_cell_length_b   6.71862400
_cell_length_c   14.76101000
_cell_angle_alpha   90.00000000
_cell_angle_beta   90.00000000
_cell_angle_gamma   90.00000000
_symmetry_Int_Tables_number   1
_chemical_formula_structural   CrN6(ClO)2
_chemical_formula_sum   'Cr4 N24 Cl8 O8'
_cell_volume   777.11064452
_cell_formula_units_Z   4
loop_
 _symmetry_equiv_pos_site_id
 _symmetry_equiv_pos_as_xyz
  1  'x, y, z'
loop_
 _atom_site_type_symbol
 _atom_site_label
 _atom_site_symmetry_multiplicity
 _atom_site_fract_x
 _atom_site_fract_y
 _atom_site_fract_z
 _atom_site_occupancy
  Cr  Cr0  1  0.77828400  0.75000000  0.37143700  1
  Cr  Cr1  1  0.72171600  0.75000000  0.87143700  1
  Cr  Cr2  1  0.22171600  0.25000000  0.62856300  1
  Cr  Cr3  1  0.27828400  0.25000000  0.12856300  1
  N  N4  1  0.57548900  0.75000000  0.35793800  1
  N  N5  1  0.92451100  0.75000000  0.85793800  1
  N  N6  1  0.42451100  0.25000000  0.64206200  1
  N  N7  1  0.07548900  0.25000000  0.14206200  1
  N  N8  1  0.83237400  0.02138400  0.39530400  1
  N  N9  1  0.66762600  0.47861600  0.89530400  1
  N  N10  1  0.16762600  0.52138400  0.60469600  1
  N  N11  1  0.33237400  0.97861600  0.10469600  1
  N  N12  1  0.16762600  0.97861600  0.60469600  1
  N  N13  1  0.33237400  0.52138400  0.10469600  1
  N  N14  1  0.83237400  0.47861600  0.39530400  1
  N  N15  1  0.66762600  0.02138400  0.89530400  1
  N  N16  1  0.84172400  0.75000000  0.26065400  1
  N  N17  1  0.65827600  0.75000000  0.76065400  1
  N  N18  1  0.15827600  0.25000000  0.73934600  1
  N  N19  1  0.34172400  0.25000000  0.23934600  1
  N  N20  1  0.81489600  0.75000000  0.53108100  1
  N  N21  1  0.68510400  0.75000000  0.03108100  1
  N  N22  1  0.18510400  0.25000000  0.46891900  1
  N  N23  1  0.31489600  0.25000000  0.96891900  1
  N  N24  1  0.17493100  0.75000000  0.12078800  1
  N  N25  1  0.32506900  0.75000000  0.62078800  1
  N  N26  1  0.82506900  0.25000000  0.87921200  1
  N  N27  1  0.67493100  0.25000000  0.37921200  1
  Cl  Cl28  1  0.64951800  0.95297900  0.09222100  1
  Cl  Cl29  1  0.85048200  0.54702100  0.59222100  1
  Cl  Cl30  1  0.35048200  0.45297900  0.90777900  1
  Cl  Cl31  1  0.14951800  0.04702100  0.40777900  1
  Cl  Cl32  1  0.35048200  0.04702100  0.90777900  1
  Cl  Cl33  1  0.14951800  0.45297900  0.40777900  1
  Cl  Cl34  1  0.64951800  0.54702100  0.09222100  1
  Cl  Cl35  1  0.85048200  0.95297900  0.59222100  1
  O  O36  1  0.08243000  0.75000000  0.05562500  1
  O  O37  1  0.41757000  0.75000000  0.55562500  1
  O  O38  1  0.91757000  0.25000000  0.94437500  1
  O  O39  1  0.58243000  0.25000000  0.44437500  1
  O  O40  1  0.15175200  0.75000000  0.20170500  1
  O  O41  1  0.34824800  0.75000000  0.70170500  1
  O  O42  1  0.84824800  0.25000000  0.79829500  1
  O  O43  1  0.65175200  0.25000000  0.29829500  1
