# generated using pymatgen
data_MnAl2P2H10O13F2
_symmetry_space_group_name_H-M   'P 1'
_cell_length_a   6.09654100
_cell_length_b   9.92046482
_cell_length_c   10.00096360
_cell_angle_alpha   97.30618195
_cell_angle_beta   99.68767765
_cell_angle_gamma   92.80179011
_symmetry_Int_Tables_number   1
_chemical_formula_structural   MnAl2P2H10O13F2
_chemical_formula_sum   'Mn2 Al4 P4 H20 O26 F4'
_cell_volume   589.86708516
_cell_formula_units_Z   2
loop_
 _symmetry_equiv_pos_site_id
 _symmetry_equiv_pos_as_xyz
  1  'x, y, z'
loop_
 _atom_site_type_symbol
 _atom_site_label
 _atom_site_symmetry_multiplicity
 _atom_site_fract_x
 _atom_site_fract_y
 _atom_site_fract_z
 _atom_site_occupancy
  Mn  Mn0  1  0.34763400  0.41136300  0.59165100  1
  Mn  Mn1  1  0.65236600  0.58863700  0.40834900  1
  Al  Al2  1  0.00000000  0.50000000  0.00000000  1
  Al  Al3  1  0.50000000  0.00000000  0.00000000  1
  Al  Al4  1  0.18518800  0.71620600  0.79894500  1
  Al  Al5  1  0.81481200  0.28379400  0.20105500  1
  P  P6  1  0.71052100  0.73151100  0.89671400  1
  P  P7  1  0.28947900  0.26848900  0.10328600  1
  P  P8  1  0.91398800  0.43934300  0.67016300  1
  P  P9  1  0.08601200  0.56065700  0.32983700  1
  H  H10  1  0.50108600  0.14913900  0.80954800  1
  H  H11  1  0.49891400  0.85086100  0.19045200  1
  H  H12  1  0.70044900  0.05235700  0.79946200  1
  H  H13  1  0.29955100  0.94764300  0.20053800  1
  H  H14  1  0.11288700  0.90815600  0.66132200  1
  H  H15  1  0.88711300  0.09184400  0.33867800  1
  H  H16  1  0.09554300  0.76945200  0.54910700  1
  H  H17  1  0.90445700  0.23054800  0.45089300  1
  H  H18  1  0.51930500  0.20262700  0.43545700  1
  H  H19  1  0.48069500  0.79737300  0.56454300  1
  H  H20  1  0.28310700  0.22987700  0.36287400  1
  H  H21  1  0.71689300  0.77012300  0.63712600  1
  H  H22  1  0.36544300  0.35231000  0.86346500  1
  H  H23  1  0.63455700  0.64769000  0.13653500  1
  H  H24  1  0.60757100  0.36665900  0.82065100  1
  H  H25  1  0.39242900  0.63334100  0.17934900  1
  H  H26  1  0.07082800  0.08885300  0.84288700  1
  H  H27  1  0.92917200  0.91114700  0.15711300  1
  H  H28  1  0.98865500  0.15524500  0.71030800  1
  H  H29  1  0.01134500  0.84475500  0.28969200  1
  O  O30  1  0.48372700  0.68905000  0.80293600  1
  O  O31  1  0.51627300  0.31095000  0.19706400  1
  O  O32  1  0.88248900  0.74479200  0.80059700  1
  O  O33  1  0.11751100  0.25520800  0.19940300  1
  O  O34  1  0.70255600  0.86928100  0.98779400  1
  O  O35  1  0.29744400  0.13071900  0.01220600  1
  O  O36  1  0.77710600  0.62669900  0.99628200  1
  O  O37  1  0.22289400  0.37330100  0.00371800  1
  O  O38  1  0.87745800  0.42431600  0.81669000  1
  O  O39  1  0.12254200  0.57568400  0.18331000  1
  O  O40  1  0.00071100  0.30823700  0.60157100  1
  O  O41  1  0.99928900  0.69176300  0.39842900  1
  O  O42  1  0.69340700  0.47587200  0.58586000  1
  O  O43  1  0.30659300  0.52412800  0.41414000  1
  O  O44  1  0.10804900  0.55201600  0.67662200  1
  O  O45  1  0.89195100  0.44798400  0.32337800  1
  O  O46  1  0.54989000  0.05728600  0.82552000  1
  O  O47  1  0.45011000  0.94271400  0.17448000  1
  O  O48  1  0.17289700  0.81814900  0.64240200  1
  O  O49  1  0.82710300  0.18185100  0.35759800  1
  O  O50  1  0.37083700  0.22175300  0.45448000  1
  O  O51  1  0.62916300  0.77824700  0.54552000  1
  O  O52  1  0.45138500  0.32665300  0.78808200  1
  O  O53  1  0.54861500  0.67334700  0.21191800  1
  O  O54  1  0.97213300  0.07128800  0.75226700  1
  O  O55  1  0.02786700  0.92871200  0.24773300  1
  F  F56  1  0.26294800  0.88094000  0.90963000  1
  F  F57  1  0.73705200  0.11906000  0.09037000  1
  F  F58  1  0.19214500  0.62386900  0.94847200  1
  F  F59  1  0.80785500  0.37613100  0.05152800  1
