# generated using pymatgen
data_CaVSi4(H2O5)3
_symmetry_space_group_name_H-M   'P 1'
_cell_length_a   8.84761102
_cell_length_b   8.84761102
_cell_length_c   9.00369400
_cell_angle_alpha   90.00000000
_cell_angle_beta   90.00000000
_cell_angle_gamma   107.79001629
_symmetry_Int_Tables_number   1
_chemical_formula_structural   CaVSi4(H2O5)3
_chemical_formula_sum   'Ca2 V2 Si8 H12 O30'
_cell_volume   671.10894974
_cell_formula_units_Z   2
loop_
 _symmetry_equiv_pos_site_id
 _symmetry_equiv_pos_as_xyz
  1  'x, y, z'
loop_
 _atom_site_type_symbol
 _atom_site_label
 _atom_site_symmetry_multiplicity
 _atom_site_fract_x
 _atom_site_fract_y
 _atom_site_fract_z
 _atom_site_occupancy
  Ca  Ca0  1  0.24680700  0.24680700  0.74046700  1
  Ca  Ca1  1  0.75319300  0.75319300  0.24046700  1
  V  V2  1  0.95366700  0.95366700  0.57275200  1
  V  V3  1  0.04633300  0.04633300  0.07275200  1
  Si  Si4  1  0.30542800  0.89589400  0.60902000  1
  Si  Si5  1  0.89589400  0.30542800  0.60902000  1
  Si  Si6  1  0.69457200  0.10410600  0.10902000  1
  Si  Si7  1  0.10410600  0.69457200  0.10902000  1
  Si  Si8  1  0.35735100  0.94737900  0.95257700  1
  Si  Si9  1  0.94737900  0.35735100  0.95257700  1
  Si  Si10  1  0.64264900  0.05262100  0.45257700  1
  Si  Si11  1  0.05262100  0.64264900  0.45257700  1
  H  H12  1  0.56218200  0.41493300  0.75892600  1
  H  H13  1  0.41493300  0.56218200  0.75892600  1
  H  H14  1  0.43781800  0.58506700  0.25892600  1
  H  H15  1  0.58506700  0.43781800  0.25892600  1
  H  H16  1  0.57807600  0.25035700  0.70308000  1
  H  H17  1  0.25035700  0.57807600  0.70308000  1
  H  H18  1  0.42192400  0.74964300  0.20308000  1
  H  H19  1  0.74964300  0.42192400  0.20308000  1
  H  H20  1  0.64433300  0.64433300  0.88269300  1
  H  H21  1  0.35566700  0.35566700  0.38269300  1
  H  H22  1  0.65793300  0.65793300  0.67370600  1
  H  H23  1  0.34206700  0.34206700  0.17370600  1
  O  O24  1  0.17815200  0.99634000  0.59637500  1
  O  O25  1  0.99634000  0.17815200  0.59637500  1
  O  O26  1  0.82184800  0.00366000  0.09637500  1
  O  O27  1  0.00366000  0.82184800  0.09637500  1
  O  O28  1  0.23593100  0.05535100  0.96309900  1
  O  O29  1  0.05535100  0.23593100  0.96309900  1
  O  O30  1  0.76406900  0.94464900  0.46309900  1
  O  O31  1  0.94464900  0.76406900  0.46309900  1
  O  O32  1  0.46197800  0.96775700  0.50721100  1
  O  O33  1  0.96775700  0.46197800  0.50721100  1
  O  O34  1  0.53802200  0.03224400  0.00721100  1
  O  O35  1  0.03224300  0.53802200  0.00721100  1
  O  O36  1  0.21124700  0.71316800  0.55778900  1
  O  O37  1  0.71316800  0.21124700  0.55778900  1
  O  O38  1  0.78875300  0.28683200  0.05778900  1
  O  O39  1  0.28683200  0.78875300  0.05778900  1
  O  O40  1  0.36459200  0.89511500  0.77994000  1
  O  O41  1  0.89511500  0.36459200  0.77994000  1
  O  O42  1  0.63540800  0.10488500  0.27994000  1
  O  O43  1  0.10488500  0.63540800  0.27994000  1
  O  O44  1  0.89078300  0.89078300  0.73592900  1
  O  O45  1  0.10921700  0.10921700  0.23592900  1
  O  O46  1  0.51625400  0.29317700  0.77244300  1
  O  O47  1  0.29317700  0.51625400  0.77244300  1
  O  O48  1  0.48374600  0.70682300  0.27244300  1
  O  O49  1  0.70682300  0.48374600  0.27244300  1
  O  O50  1  0.59516100  0.59516100  0.75334500  1
  O  O51  1  0.40483900  0.40483900  0.25334500  1
  O  O52  1  0.32981100  0.32981100  0.50620900  1
  O  O53  1  0.67018900  0.67018900  0.00620900  1
