# generated using pymatgen
data_Ba5In3F19
_symmetry_space_group_name_H-M   'P 1'
_cell_length_a   15.25020692
_cell_length_b   15.25020692
_cell_length_c   15.79668311
_cell_angle_alpha   90.00000000
_cell_angle_beta   90.00000000
_cell_angle_gamma   90.00000000
_symmetry_Int_Tables_number   1
_chemical_formula_structural   Ba5In3F19
_chemical_formula_sum   'Ba40 In24 F152'
_cell_volume   3673.81581026
_cell_formula_units_Z   8
loop_
 _symmetry_equiv_pos_site_id
 _symmetry_equiv_pos_as_xyz
  1  'x, y, z'
loop_
 _atom_site_type_symbol
 _atom_site_label
 _atom_site_symmetry_multiplicity
 _atom_site_fract_x
 _atom_site_fract_y
 _atom_site_fract_z
 _atom_site_occupancy
  Ba  Ba0  1  0.27108981  0.93531649  0.25097200  1
  Ba  Ba1  1  0.72891019  0.06468351  0.75097200  1
  Ba  Ba2  1  0.93531649  0.72891019  0.50097200  1
  Ba  Ba3  1  0.06468351  0.27108981  0.00097200  1
  Ba  Ba4  1  0.73016603  0.05278118  0.24763436  1
  Ba  Ba5  1  0.26983397  0.94721882  0.74763436  1
  Ba  Ba6  1  0.05278118  0.26983397  0.49763436  1
  Ba  Ba7  1  0.94721882  0.73016603  0.99763436  1
  Ba  Ba8  1  0.07616730  0.72364800  0.25306162  1
  Ba  Ba9  1  0.92383270  0.27635200  0.75306162  1
  Ba  Ba10  1  0.72364800  0.92383270  0.50306162  1
  Ba  Ba11  1  0.27635200  0.07616730  0.00306162  1
  Ba  Ba12  1  0.91662107  0.28287725  0.23815157  1
  Ba  Ba13  1  0.08337893  0.71712275  0.73815157  1
  Ba  Ba14  1  0.28287725  0.08337893  0.48815157  1
  Ba  Ba15  1  0.71712275  0.91662107  0.98815157  1
  Ba  Ba16  1  0.78961139  0.54439602  0.26581000  1
  Ba  Ba17  1  0.21038861  0.45560398  0.76581000  1
  Ba  Ba18  1  0.54439602  0.21038861  0.51581000  1
  Ba  Ba19  1  0.45560398  0.78961139  0.01581000  1
  Ba  Ba20  1  0.21834028  0.43517091  0.26192535  1
  Ba  Ba21  1  0.78165972  0.56482909  0.76192535  1
  Ba  Ba22  1  0.43517091  0.78165972  0.51192535  1
  Ba  Ba23  1  0.56482909  0.21834028  0.01192535  1
  Ba  Ba24  1  0.60251541  0.77577522  0.26143546  1
  Ba  Ba25  1  0.39748459  0.22422478  0.76143546  1
  Ba  Ba26  1  0.77577522  0.39748459  0.51143546  1
  Ba  Ba27  1  0.22422478  0.60251541  0.01143546  1
  Ba  Ba28  1  0.41414893  0.21776723  0.26447989  1
  Ba  Ba29  1  0.58585107  0.78223277  0.76447989  1
  Ba  Ba30  1  0.21776723  0.58585107  0.51447989  1
  Ba  Ba31  1  0.78223277  0.41414893  0.01447989  1
  Ba  Ba32  1  0.00976401  0.97381839  0.38771626  1
  Ba  Ba33  1  0.99023599  0.02618161  0.88771626  1
  Ba  Ba34  1  0.97381839  0.99023599  0.63771626  1
  Ba  Ba35  1  0.02618161  0.00976401  0.13771626  1
  Ba  Ba36  1  0.46941957  0.51342744  0.37351061  1
  Ba  Ba37  1  0.53058043  0.48657256  0.87351061  1
  Ba  Ba38  1  0.51342744  0.53058043  0.62351061  1
  Ba  Ba39  1  0.48657256  0.46941957  0.12351061  1
  In  In40  1  0.50505954  0.97826794  0.37540570  1
  In  In41  1  0.49494046  0.02173206  0.87540570  1
  In  In42  1  0.97826794  0.49494046  0.62540570  1
  In  In43  1  0.02173206  0.50505954  0.12540570  1
  In  In44  1  0.01209592  0.50577467  0.38893628  1
  In  In45  1  0.98790408  0.49422533  0.88893628  1
  In  In46  1  0.50577467  0.98790408  0.63893628  1
  In  In47  1  0.49422533  0.01209592  0.13893628  1
  In  In48  1  0.37231636  0.68779088  0.23998324  1
  In  In49  1  0.62768364  0.31220912  0.73998324  1
  In  In50  1  0.68779088  0.62768364  0.48998324  1
  In  In51  1  0.31220912  0.37231636  0.98998324  1
  In  In52  1  0.65152066  0.33049471  0.26602321  1
  In  In53  1  0.34847934  0.66950529  0.76602321  1
  In  In54  1  0.33049471  0.34847934  0.51602321  1
  In  In55  1  0.66950529  0.65152066  0.01602321  1
  In  In56  1  0.84123754  0.83663368  0.24066160  1
  In  In57  1  0.15876246  0.16336632  0.74066160  1
  In  In58  1  0.83663368  0.15876246  0.49066160  1
  In  In59  1  0.16336632  0.84123754  0.99066160  1
  In  In60  1  0.14852283  0.17403161  0.27359208  1
  In  In61  1  0.85147717  0.82596839  0.77359208  1
  In  In62  1  0.17403161  0.85147717  0.52359208  1
  In  In63  1  0.82596839  0.14852283  0.02359208  1
  F  F64  1  0.09679241  0.90207832  0.25321920  1
  F  F65  1  0.90320759  0.09792168  0.75321920  1
  F  F66  1  0.90207832  0.90320759  0.50321920  1
  F  F67  1  0.09792168  0.09679241  0.00321920  1
  F  F68  1  0.40283183  0.39903497  0.25974501  1
  F  F69  1  0.59716817  0.60096503  0.75974501  1
  F  F70  1  0.39903497  0.59716817  0.50974501  1
  F  F71  1  0.60096503  0.40283183  0.00974501  1
  F  F72  1  0.57344520  0.85822800  0.41141971  1
  F  F73  1  0.42655480  0.14177200  0.91141971  1
  F  F74  1  0.85822800  0.42655480  0.66141971  1
  F  F75  1  0.14177200  0.57344520  0.16141971  1
  F  F76  1  0.40951014  0.12655738  0.11186486  1
  F  F77  1  0.59048986  0.87344262  0.61186486  1
  F  F78  1  0.12655738  0.59048986  0.36186486  1
  F  F79  1  0.87344262  0.40951014  0.86186486  1
  F  F80  1  0.24665528  0.26654027  0.23971844  1
  F  F81  1  0.75334472  0.73345973  0.73971844  1
  F  F82  1  0.26654027  0.75334472  0.48971844  1
  F  F83  1  0.73345973  0.24665528  0.98971844  1
  F  F84  1  0.89412951  0.96536244  0.25263739  1
  F  F85  1  0.10587049  0.03463756  0.75263739  1
  F  F86  1  0.96536244  0.10587049  0.50263739  1
  F  F87  1  0.03463756  0.89412951  0.00263739  1
  F  F88  1  0.56089335  0.28059697  0.35412265  1
  F  F89  1  0.43910665  0.71940303  0.85412265  1
  F  F90  1  0.28059697  0.43910665  0.60412265  1
  F  F91  1  0.71940303  0.56089335  0.10412265  1
  F  F92  1  0.93036650  0.80117153  0.33527417  1
  F  F93  1  0.06963350  0.19882847  0.83527417  1
  F  F94  1  0.80117153  0.06963350  0.58527417  1
  F  F95  1  0.19882847  0.93036650  0.08527417  1
  F  F96  1  0.74570547  0.87888798  0.33064271  1
  F  F97  1  0.25429453  0.12111202  0.83064271  1
  F  F98  1  0.87888798  0.25429453  0.58064271  1
  F  F99  1  0.12111202  0.74570547  0.08064271  1
  F  F100  1  0.25413073  0.75744724  0.25155242  1
  F  F101  1  0.74586927  0.24255276  0.75155242  1
  F  F102  1  0.75744724  0.74586927  0.50155242  1
  F  F103  1  0.24255276  0.25413073  0.00155242  1
  F  F104  1  0.08013114  0.28521445  0.32255943  1
  F  F105  1  0.91986886  0.71478555  0.82255943  1
  F  F106  1  0.28521445  0.91986886  0.57255943  1
  F  F107  1  0.71478555  0.08013114  0.07255943  1
  F  F108  1  0.75184349  0.89429805  0.15536842  1
  F  F109  1  0.24815651  0.10570195  0.65536842  1
  F  F110  1  0.89429805  0.24815651  0.40536842  1
  F  F111  1  0.10570195  0.75184349  0.90536842  1
  F  F112  1  0.57374878  0.11440334  0.18288611  1
  F  F113  1  0.42625122  0.88559666  0.68288611  1
  F  F114  1  0.11440334  0.42625122  0.43288611  1
  F  F115  1  0.88559666  0.57374878  0.93288611  1
  F  F116  1  0.43995421  0.70769074  0.35629759  1
  F  F117  1  0.56004579  0.29230926  0.85629759  1
  F  F118  1  0.70769074  0.56004579  0.60629759  1
  F  F119  1  0.29230926  0.43995421  0.10629759  1
  F  F120  1  0.77309417  0.71770717  0.23607733  1
  F  F121  1  0.22690583  0.28229283  0.73607733  1
  F  F122  1  0.71770717  0.22690583  0.48607733  1
  F  F123  1  0.28229283  0.77309417  0.98607733  1
  F  F124  1  0.49094549  0.61212807  0.22545479  1
  F  F125  1  0.50905451  0.38787193  0.72545479  1
  F  F126  1  0.61212807  0.50905451  0.47545479  1
  F  F127  1  0.38787193  0.49094549  0.97545479  1
  F  F128  1  0.43521328  0.79989530  0.19426392  1
  F  F129  1  0.56478672  0.20010470  0.69426392  1
  F  F130  1  0.79989530  0.56478672  0.44426392  1
  F  F131  1  0.20010470  0.43521328  0.94426392  1
  F  F132  1  0.02626820  0.10260198  0.28046216  1
  F  F133  1  0.97373180  0.89739802  0.78046216  1
  F  F134  1  0.10260198  0.97373180  0.53046216  1
  F  F135  1  0.89739802  0.02626820  0.03046216  1
  F  F136  1  0.74420422  0.37556111  0.17675998  1
  F  F137  1  0.25579578  0.62443889  0.67675998  1
  F  F138  1  0.37556111  0.25579578  0.42675998  1
  F  F139  1  0.62443889  0.74420422  0.92675998  1
  F  F140  1  0.59529470  0.45897376  0.25821214  1
  F  F141  1  0.40470530  0.54102624  0.75821214  1
  F  F142  1  0.45897376  0.40470530  0.50821214  1
  F  F143  1  0.54102624  0.59529470  0.00821214  1
  F  F144  1  0.04283969  0.46877614  0.25987130  1
  F  F145  1  0.95716031  0.53122386  0.75987130  1
  F  F146  1  0.46877614  0.95716031  0.50987130  1
  F  F147  1  0.53122386  0.04283969  0.00987130  1
  F  F148  1  0.62424810  0.04119204  0.40409874  1
  F  F149  1  0.37575190  0.95880796  0.90409874  1
  F  F150  1  0.04119204  0.37575190  0.65409874  1
  F  F151  1  0.95880796  0.62424810  0.15409874  1
  F  F152  1  0.18521163  0.07801659  0.18010479  1
  F  F153  1  0.81478837  0.92198341  0.68010479  1
  F  F154  1  0.07801659  0.81478837  0.43010479  1
  F  F155  1  0.92198341  0.18521163  0.93010479  1
  F  F156  1  0.65115558  0.64403417  0.36167903  1
  F  F157  1  0.34884442  0.35596583  0.86167903  1
  F  F158  1  0.64403417  0.34884442  0.61167903  1
  F  F159  1  0.35596583  0.65115558  0.11167903  1
  F  F160  1  0.55819612  0.29933046  0.17207319  1
  F  F161  1  0.44180388  0.70066954  0.67207319  1
  F  F162  1  0.29933046  0.44180388  0.42207319  1
  F  F163  1  0.70066954  0.55819612  0.92207319  1
  F  F164  1  0.06668538  0.21445605  0.16151874  1
  F  F165  1  0.93331462  0.78554395  0.66151874  1
  F  F166  1  0.21445605  0.93331462  0.41151874  1
  F  F167  1  0.78554395  0.06668538  0.91151874  1
  F  F168  1  0.94534158  0.61822423  0.34646769  1
  F  F169  1  0.05465842  0.38177577  0.84646769  1
  F  F170  1  0.61822423  0.05465842  0.59646769  1
  F  F171  1  0.38177577  0.94534158  0.09646769  1
  F  F172  1  0.13374904  0.13827802  0.40904329  1
  F  F173  1  0.86625096  0.86172198  0.90904329  1
  F  F174  1  0.13827802  0.86625096  0.65904329  1
  F  F175  1  0.86172198  0.13374904  0.15904329  1
  F  F176  1  0.31875575  0.57555209  0.29391590  1
  F  F177  1  0.68124425  0.42444791  0.79391590  1
  F  F178  1  0.57555209  0.68124425  0.54391590  1
  F  F179  1  0.42444791  0.31875575  0.04391590  1
  F  F180  1  0.94114603  0.81352234  0.15237537  1
  F  F181  1  0.05885397  0.18647766  0.65237537  1
  F  F182  1  0.81352234  0.05885397  0.40237537  1
  F  F183  1  0.18647766  0.94114603  0.90237537  1
  F  F184  1  0.39644078  0.89637323  0.36775219  1
  F  F185  1  0.60355922  0.10362677  0.86775219  1
  F  F186  1  0.89637323  0.60355922  0.61775219  1
  F  F187  1  0.10362677  0.39644078  0.11775219  1
  F  F188  1  0.57342177  0.95100181  0.25787914  1
  F  F189  1  0.42657823  0.04899819  0.75787914  1
  F  F190  1  0.95100181  0.42657823  0.50787914  1
  F  F191  1  0.04899819  0.57342177  0.00787914  1
  F  F192  1  0.45188545  0.10213533  0.40605408  1
  F  F193  1  0.54811455  0.89786467  0.90605408  1
  F  F194  1  0.10213533  0.54811455  0.65605408  1
  F  F195  1  0.89786467  0.45188545  0.15605408  1
  F  F196  1  0.02741358  0.57454670  0.50702869  1
  F  F197  1  0.97258642  0.42545330  0.00702869  1
  F  F198  1  0.57454670  0.97258642  0.75702869  1
  F  F199  1  0.42545330  0.02741358  0.25702869  1
  F  F200  1  0.73630477  0.22258077  0.27248487  1
  F  F201  1  0.26369523  0.77741923  0.77248487  1
  F  F202  1  0.22258077  0.26369523  0.52248487  1
  F  F203  1  0.77741923  0.73630477  0.02248487  1
  F  F204  1  0.27271197  0.11068625  0.31854345  1
  F  F205  1  0.72728803  0.88931375  0.81854345  1
  F  F206  1  0.11068625  0.72728803  0.56854345  1
  F  F207  1  0.88931375  0.27271197  0.06854345  1
  F  F208  1  0.72867240  0.39758156  0.35419104  1
  F  F209  1  0.27132760  0.60241844  0.85419104  1
  F  F210  1  0.39758156  0.27132760  0.60419104  1
  F  F211  1  0.60241844  0.72867240  0.10419104  1
  F  F212  1  0.90231075  0.43406074  0.34828083  1
  F  F213  1  0.09768925  0.56593926  0.84828083  1
  F  F214  1  0.43406074  0.09768925  0.59828083  1
  F  F215  1  0.56593926  0.90231075  0.09828083  1
