# generated using pymatgen
data_LaGaS3
_symmetry_space_group_name_H-M   'P 1'
_cell_length_a   6.10343200
_cell_length_b   10.49435700
_cell_length_c   22.15452400
_cell_angle_alpha   90.00000000
_cell_angle_beta   90.00000000
_cell_angle_gamma   90.00000000
_symmetry_Int_Tables_number   1
_chemical_formula_structural   LaGaS3
_chemical_formula_sum   'La12 Ga12 S36'
_cell_volume   1419.03258389
_cell_formula_units_Z   12
loop_
 _symmetry_equiv_pos_site_id
 _symmetry_equiv_pos_as_xyz
  1  'x, y, z'
loop_
 _atom_site_type_symbol
 _atom_site_label
 _atom_site_symmetry_multiplicity
 _atom_site_fract_x
 _atom_site_fract_y
 _atom_site_fract_z
 _atom_site_occupancy
  La  La0  1  0.73052600  0.52138900  0.24224700  1
  La  La1  1  0.23052600  0.47861100  0.75775300  1
  La  La2  1  0.23052600  0.97861100  0.74224700  1
  La  La3  1  0.73052600  0.02138900  0.25775300  1
  La  La4  1  0.74125200  0.79852100  0.05860000  1
  La  La5  1  0.24125200  0.20147900  0.94140000  1
  La  La6  1  0.24125200  0.70147900  0.55860000  1
  La  La7  1  0.74125200  0.29852100  0.44140000  1
  La  La8  1  0.23764500  0.74574500  0.91965100  1
  La  La9  1  0.73764500  0.25425500  0.08034900  1
  La  La10  1  0.73764500  0.75425500  0.41965100  1
  La  La11  1  0.23764500  0.24574500  0.58034900  1
  Ga  Ga12  1  0.22313200  0.72927600  0.23162900  1
  Ga  Ga13  1  0.72313200  0.27072400  0.76837100  1
  Ga  Ga14  1  0.72313200  0.77072400  0.73162900  1
  Ga  Ga15  1  0.22313200  0.22927600  0.26837100  1
  Ga  Ga16  1  0.34312100  0.52550800  0.09492500  1
  Ga  Ga17  1  0.84312100  0.47449200  0.90507500  1
  Ga  Ga18  1  0.84312100  0.97449200  0.59492500  1
  Ga  Ga19  1  0.34312100  0.02550800  0.40507500  1
  Ga  Ga20  1  0.18164100  0.52393200  0.37315900  1
  Ga  Ga21  1  0.68164100  0.47606800  0.62684100  1
  Ga  Ga22  1  0.68164100  0.97606800  0.87315900  1
  Ga  Ga23  1  0.18164100  0.02393200  0.12684100  1
  S  S24  1  0.22005100  0.52527300  0.19514000  1
  S  S25  1  0.72005100  0.47472700  0.80486000  1
  S  S26  1  0.72005100  0.97472700  0.69514000  1
  S  S27  1  0.22005100  0.02527300  0.30486000  1
  S  S28  1  0.72173100  0.53092700  0.10851000  1
  S  S29  1  0.22173100  0.46907300  0.89149000  1
  S  S30  1  0.22173100  0.96907300  0.60851000  1
  S  S31  1  0.72173100  0.03092700  0.39149000  1
  S  S32  1  0.76548000  0.67278900  0.94224100  1
  S  S33  1  0.26548000  0.32721100  0.05775900  1
  S  S34  1  0.26548000  0.82721100  0.44224100  1
  S  S35  1  0.76548000  0.17278900  0.55775900  1
  S  S36  1  0.26045200  0.71378200  0.04875300  1
  S  S37  1  0.76045200  0.28621800  0.95124700  1
  S  S38  1  0.76045200  0.78621800  0.54875300  1
  S  S39  1  0.26045200  0.21378200  0.45124700  1
  S  S40  1  0.00917300  0.53439800  0.46402700  1
  S  S41  1  0.50917300  0.46560200  0.53597300  1
  S  S42  1  0.50917300  0.96560200  0.96402700  1
  S  S43  1  0.00917300  0.03439800  0.03597300  1
  S  S44  1  0.01580400  0.68716900  0.31780000  1
  S  S45  1  0.51580400  0.31283100  0.68220000  1
  S  S46  1  0.51580400  0.81283100  0.81780000  1
  S  S47  1  0.01580400  0.18716900  0.18220000  1
  S  S48  1  0.99903000  0.85615000  0.17496400  1
  S  S49  1  0.49903000  0.14385000  0.82503600  1
  S  S50  1  0.49903000  0.64385000  0.67496400  1
  S  S51  1  0.99903000  0.35615000  0.32503600  1
  S  S52  1  0.54696000  0.51240400  0.37015200  1
  S  S53  1  0.04696000  0.48759600  0.62984800  1
  S  S54  1  0.04696000  0.98759600  0.87015200  1
  S  S55  1  0.54696000  0.01240400  0.12984800  1
  S  S56  1  0.55949200  0.77098600  0.26398300  1
  S  S57  1  0.05949200  0.22901400  0.73601700  1
  S  S58  1  0.05949200  0.72901400  0.76398300  1
  S  S59  1  0.55949200  0.27098600  0.23601700  1
