# generated using pymatgen
data_Er2H8S3O16
_symmetry_space_group_name_H-M   'P 1'
_cell_length_a   6.71694004
_cell_length_b   9.23546525
_cell_length_c   10.54025834
_cell_angle_alpha   93.20521818
_cell_angle_beta   107.20374745
_cell_angle_gamma   100.10003630
_symmetry_Int_Tables_number   1
_chemical_formula_structural   Er2H8S3O16
_chemical_formula_sum   'Er4 H16 S6 O32'
_cell_volume   610.86993447
_cell_formula_units_Z   2
loop_
 _symmetry_equiv_pos_site_id
 _symmetry_equiv_pos_as_xyz
  1  'x, y, z'
loop_
 _atom_site_type_symbol
 _atom_site_label
 _atom_site_symmetry_multiplicity
 _atom_site_fract_x
 _atom_site_fract_y
 _atom_site_fract_z
 _atom_site_occupancy
  Er  Er0  1  0.73459300  0.33012500  0.63330100  1
  Er  Er1  1  0.26540700  0.66987500  0.36669900  1
  Er  Er2  1  0.06641200  0.88084200  0.83589400  1
  Er  Er3  1  0.93358800  0.11915800  0.16410600  1
  H  H4  1  0.71631700  0.40359500  0.34961200  1
  H  H5  1  0.28368300  0.59640500  0.65038800  1
  H  H6  1  0.52529900  0.27057600  0.33834700  1
  H  H7  1  0.47470100  0.72942400  0.66165300  1
  H  H8  1  0.51913900  0.40993400  0.83356200  1
  H  H9  1  0.48086100  0.59006600  0.16643800  1
  H  H10  1  0.69953100  0.55091800  0.84308300  1
  H  H11  1  0.30046900  0.44908200  0.15691700  1
  H  H12  1  0.80296300  0.09588800  0.46459500  1
  H  H13  1  0.19703700  0.90411200  0.53540500  1
  H  H14  1  0.72334100  0.00776700  0.57259100  1
  H  H15  1  0.27665900  0.99223300  0.42740900  1
  H  H16  1  0.14411400  0.57045500  0.85961500  1
  H  H17  1  0.85588600  0.42954500  0.14038500  1
  H  H18  1  0.35539100  0.68289200  0.94347300  1
  H  H19  1  0.64460900  0.31710800  0.05652700  1
  S  S20  1  0.15878100  0.30816100  0.47585700  1
  S  S21  1  0.84121900  0.69183900  0.52414300  1
  S  S22  1  0.84328400  0.72335000  0.08707900  1
  S  S23  1  0.15671600  0.27665000  0.91292100  1
  S  S24  1  0.60486300  0.01390100  0.81381800  1
  S  S25  1  0.39513700  0.98609900  0.18618200  1
  O  O26  1  0.98072700  0.83192300  0.60738600  1
  O  O27  1  0.01927300  0.16807700  0.39261400  1
  O  O28  1  0.06312500  0.35798100  0.57536800  1
  O  O29  1  0.93687500  0.64201900  0.42463200  1
  O  O30  1  0.36981700  0.27663600  0.54329300  1
  O  O31  1  0.63018300  0.72336400  0.45670700  1
  O  O32  1  0.17308600  0.41900400  0.37932700  1
  O  O33  1  0.82691400  0.58099600  0.62067300  1
  O  O34  1  0.97107700  0.62115300  0.16472900  1
  O  O35  1  0.02892300  0.37884700  0.83527100  1
  O  O36  1  0.88126700  0.73085100  0.95408300  1
  O  O37  1  0.11873300  0.26914900  0.04591700  1
  O  O38  1  0.61486400  0.66550400  0.06323400  1
  O  O39  1  0.38513600  0.33449600  0.93676600  1
  O  O40  1  0.91662700  0.87245700  0.16515700  1
  O  O41  1  0.08337300  0.12754300  0.83484300  1
  O  O42  1  0.70259100  0.90726300  0.74959200  1
  O  O43  1  0.29740900  0.09273700  0.25040800  1
  O  O44  1  0.62687100  0.15637600  0.75934700  1
  O  O45  1  0.37312900  0.84362400  0.24065300  1
  O  O46  1  0.37812100  0.94803300  0.78763900  1
  O  O47  1  0.62187900  0.05196700  0.21236100  1
  O  O48  1  0.71846100  0.03553500  0.95990500  1
  O  O49  1  0.28153900  0.96446500  0.04009500  1
  O  O50  1  0.64231600  0.34331300  0.40111300  1
  O  O51  1  0.35768400  0.65668700  0.59888700  1
  O  O52  1  0.61362800  0.46033300  0.78574700  1
  O  O53  1  0.38637200  0.53966700  0.21425300  1
  O  O54  1  0.72345100  0.09876900  0.52950400  1
  O  O55  1  0.27654900  0.90123100  0.47049600  1
  O  O56  1  0.22366800  0.67355600  0.86742100  1
  O  O57  1  0.77633200  0.32644400  0.13257900  1
