# generated using pymatgen
data_Al2Si2O9
_symmetry_space_group_name_H-M   'P 1'
_cell_length_a   5.24289215
_cell_length_b   5.24289215
_cell_length_c   29.97935375
_cell_angle_alpha   90.76661302
_cell_angle_beta   90.76661302
_cell_angle_gamma   119.80969349
_symmetry_Int_Tables_number   1
_chemical_formula_structural   Al2Si2O9
_chemical_formula_sum   'Al8 Si8 O36'
_cell_volume   714.77562086
_cell_formula_units_Z   4
loop_
 _symmetry_equiv_pos_site_id
 _symmetry_equiv_pos_as_xyz
  1  'x, y, z'
loop_
 _atom_site_type_symbol
 _atom_site_label
 _atom_site_symmetry_multiplicity
 _atom_site_fract_x
 _atom_site_fract_y
 _atom_site_fract_z
 _atom_site_occupancy
  Al  Al0  1  0.09039900  0.39496100  0.50112100  1
  Al  Al1  1  0.39496100  0.09039900  0.00112100  1
  Al  Al2  1  0.72786800  0.75762500  0.50117300  1
  Al  Al3  1  0.75762500  0.72786800  0.00117300  1
  Al  Al4  1  0.10610800  0.07623800  0.75118100  1
  Al  Al5  1  0.07623800  0.10610800  0.25118100  1
  Al  Al6  1  0.74374000  0.43816700  0.75124900  1
  Al  Al7  1  0.43816700  0.74374000  0.25124900  1
  Si  Si8  1  0.78413800  0.10947600  0.59361100  1
  Si  Si9  1  0.10947600  0.78413800  0.09361100  1
  Si  Si10  1  0.44182700  0.45188300  0.59365200  1
  Si  Si11  1  0.45188300  0.44182700  0.09365200  1
  Si  Si12  1  0.07849200  0.75359800  0.84368700  1
  Si  Si13  1  0.75359800  0.07849200  0.34368700  1
  Si  Si14  1  0.42071800  0.41135400  0.84366200  1
  Si  Si15  1  0.41135400  0.42071800  0.34366200  1
  O  O16  1  0.41969300  0.46889900  0.53866200  1
  O  O17  1  0.46889900  0.41969300  0.03866200  1
  O  O18  1  0.80253400  0.08776600  0.53866100  1
  O  O19  1  0.08776600  0.80253400  0.03866100  1
  O  O20  1  0.61472100  0.28278700  0.60774600  1
  O  O21  1  0.28278700  0.61472100  0.10774600  1
  O  O22  1  0.61799600  0.78407600  0.61401700  1
  O  O23  1  0.78407600  0.61799600  0.11401700  1
  O  O24  1  0.11632000  0.28663800  0.61434200  1
  O  O25  1  0.28663800  0.11632000  0.11434200  1
  O  O26  1  0.42541200  0.37647400  0.78868000  1
  O  O27  1  0.37647400  0.42541200  0.28868000  1
  O  O28  1  0.04393400  0.75795000  0.78870600  1
  O  O29  1  0.75795000  0.04393400  0.28870600  1
  O  O30  1  0.25196300  0.58477500  0.85801200  1
  O  O31  1  0.58477500  0.25196300  0.35801200  1
  O  O32  1  0.75233600  0.58489200  0.86415100  1
  O  O33  1  0.58489200  0.75233600  0.36415100  1
  O  O34  1  0.25198700  0.08527100  0.86415100  1
  O  O35  1  0.08527100  0.25198700  0.36415100  1
  O  O36  1  0.03067700  0.69782100  0.52506000  1
  O  O37  1  0.69782100  0.03067700  0.02506000  1
  O  O38  1  0.42960800  0.14779800  0.71611900  1
  O  O39  1  0.14779800  0.42960800  0.21611900  1
  O  O40  1  0.81568800  0.76159400  0.71619000  1
  O  O41  1  0.76159400  0.81568800  0.21619000  1
  O  O42  1  0.04441000  0.37679300  0.72100100  1
  O  O43  1  0.37679300  0.04441000  0.22100100  1
  O  O44  1  0.80960000  0.14192700  0.77503500  1
  O  O45  1  0.14192700  0.80960000  0.27503500  1
  O  O46  1  0.67772800  0.39345200  0.96636500  1
  O  O47  1  0.39345200  0.67772800  0.46636500  1
  O  O48  1  0.06033400  0.01028600  0.96633100  1
  O  O49  1  0.01028600  0.06033400  0.46633100  1
  O  O50  1  0.44859800  0.78147100  0.97070600  1
  O  O51  1  0.78147100  0.44859800  0.47070600  1
