# generated using pymatgen
data_Bi2Pd(SeO3)4
_symmetry_space_group_name_H-M   'P 1'
_cell_length_a   7.30977000
_cell_length_b   8.24846100
_cell_length_c   10.93339437
_cell_angle_alpha   70.20615036
_cell_angle_beta   90.00000000
_cell_angle_gamma   90.00000000
_symmetry_Int_Tables_number   1
_chemical_formula_structural   Bi2Pd(SeO3)4
_chemical_formula_sum   'Bi4 Pd2 Se8 O24'
_cell_volume   620.27320992
_cell_formula_units_Z   2
loop_
 _symmetry_equiv_pos_site_id
 _symmetry_equiv_pos_as_xyz
  1  'x, y, z'
loop_
 _atom_site_type_symbol
 _atom_site_label
 _atom_site_symmetry_multiplicity
 _atom_site_fract_x
 _atom_site_fract_y
 _atom_site_fract_z
 _atom_site_occupancy
  Bi  Bi0  1  0.62251100  0.75601200  0.09312400  1
  Bi  Bi1  1  0.12251100  0.74398800  0.90687600  1
  Bi  Bi2  1  0.37748900  0.24398800  0.90687600  1
  Bi  Bi3  1  0.87748900  0.25601200  0.09312400  1
  Pd  Pd4  1  0.50000000  0.50000000  0.50000000  1
  Pd  Pd5  1  0.00000000  0.00000000  0.50000000  1
  Se  Se6  1  0.67317200  0.63773000  0.81385800  1
  Se  Se7  1  0.17317200  0.86227000  0.18614200  1
  Se  Se8  1  0.32682800  0.36227000  0.18614200  1
  Se  Se9  1  0.82682800  0.13773000  0.81385800  1
  Se  Se10  1  0.33236400  0.11190600  0.63478100  1
  Se  Se11  1  0.83236400  0.38809400  0.36521900  1
  Se  Se12  1  0.66763600  0.88809400  0.36521900  1
  Se  Se13  1  0.16763600  0.61190600  0.63478100  1
  O  O14  1  0.40326200  0.30573600  0.65703200  1
  O  O15  1  0.90326200  0.19426400  0.34296800  1
  O  O16  1  0.59673800  0.69426400  0.34296800  1
  O  O17  1  0.09673800  0.80573600  0.65703200  1
  O  O18  1  0.61773100  0.43045400  0.82286900  1
  O  O19  1  0.11773100  0.06954600  0.17713100  1
  O  O20  1  0.38226900  0.56954600  0.17713100  1
  O  O21  1  0.88226900  0.93045400  0.82286900  1
  O  O22  1  0.85496100  0.58132900  0.92786300  1
  O  O23  1  0.35496100  0.91867100  0.07213700  1
  O  O24  1  0.14503900  0.41867100  0.07213700  1
  O  O25  1  0.64503900  0.08132900  0.92786300  1
  O  O26  1  0.12112400  0.18166300  0.56174100  1
  O  O27  1  0.62112400  0.31833700  0.43825900  1
  O  O28  1  0.87887600  0.81833700  0.43825900  1
  O  O29  1  0.37887600  0.68166300  0.56174100  1
  O  O30  1  0.51137500  0.69602800  0.90669400  1
  O  O31  1  0.01137500  0.80397200  0.09330600  1
  O  O32  1  0.48862500  0.30397200  0.09330600  1
  O  O33  1  0.98862500  0.19602800  0.90669400  1
  O  O34  1  0.28463900  0.01850400  0.79741400  1
  O  O35  1  0.78463900  0.48149600  0.20258600  1
  O  O36  1  0.71536100  0.98149600  0.20258600  1
  O  O37  1  0.21536100  0.51850400  0.79741400  1
