# generated using pymatgen
data_Na2CaNi2P4(H5O6)4
_symmetry_space_group_name_H-M   'P 1'
_cell_length_a   8.17733561
_cell_length_b   8.17733561
_cell_length_c   17.45378156
_cell_angle_alpha   102.49711807
_cell_angle_beta   102.49711807
_cell_angle_gamma   94.37409125
_symmetry_Int_Tables_number   1
_chemical_formula_structural   Na2CaNi2P4(H5O6)4
_chemical_formula_sum   'Na4 Ca2 Ni4 P8 H40 O48'
_cell_volume   1103.14845508
_cell_formula_units_Z   2
loop_
 _symmetry_equiv_pos_site_id
 _symmetry_equiv_pos_as_xyz
  1  'x, y, z'
loop_
 _atom_site_type_symbol
 _atom_site_label
 _atom_site_symmetry_multiplicity
 _atom_site_fract_x
 _atom_site_fract_y
 _atom_site_fract_z
 _atom_site_occupancy
  Na  Na0  1  0.92894300  0.84180500  0.69996200  1
  Na  Na1  1  0.14184300  0.22898100  0.30003800  1
  Na  Na2  1  0.09180500  0.67894300  0.19996200  1
  Na  Na3  1  0.47898100  0.89184300  0.80003800  1
  Ca  Ca4  1  0.12661400  0.62661400  0.50000000  1
  Ca  Ca5  1  0.87661400  0.87661400  0.00000000  1
  Ni  Ni6  1  0.99819500  0.25487100  0.71374500  1
  Ni  Ni7  1  0.54112600  0.28445000  0.28625500  1
  Ni  Ni8  1  0.50487100  0.74819500  0.21374500  1
  Ni  Ni9  1  0.53445000  0.29112600  0.78625500  1
  P  P10  1  0.25430200  0.03661400  0.63984800  1
  P  P11  1  0.39676600  0.61445500  0.36015200  1
  P  P12  1  0.28661400  0.00430200  0.13984800  1
  P  P13  1  0.86445500  0.14676600  0.86015200  1
  P  P14  1  0.29518800  0.38645800  0.63587200  1
  P  P15  1  0.75058600  0.65931500  0.36412800  1
  P  P16  1  0.63645800  0.04518800  0.13587200  1
  P  P17  1  0.90931500  0.50058600  0.86412800  1
  H  H18  1  0.70149700  0.28568000  0.60111400  1
  H  H19  1  0.68456600  0.10038200  0.39888600  1
  H  H20  1  0.53568000  0.45149700  0.10111400  1
  H  H21  1  0.35038200  0.43456600  0.89888600  1
  H  H22  1  0.70032800  0.09436800  0.61271800  1
  H  H23  1  0.48165000  0.08761000  0.38728200  1
  H  H24  1  0.34436800  0.45032800  0.11271800  1
  H  H25  1  0.33761000  0.23165000  0.88728200  1
  H  H26  1  0.18764000  0.80019400  0.83296200  1
  H  H27  1  0.96723100  0.35467700  0.16703800  1
  H  H28  1  0.05019400  0.93764000  0.33296200  1
  H  H29  1  0.60467700  0.71723100  0.66703800  1
  H  H30  1  0.15244300  0.63570700  0.76458400  1
  H  H31  1  0.87112200  0.38785900  0.23541600  1
  H  H32  1  0.88570700  0.90244300  0.26458400  1
  H  H33  1  0.63785900  0.62112200  0.73541600  1
  H  H34  1  0.81746900  0.54704800  0.56670900  1
  H  H35  1  0.98033900  0.25076000  0.43329100  1
  H  H36  1  0.79704800  0.56746900  0.06670900  1
  H  H37  1  0.50076000  0.73033900  0.93329100  1
  H  H38  1  0.99564800  0.52151300  0.61933800  1
  H  H39  1  0.90217500  0.37631100  0.38066200  1
  H  H40  1  0.77151300  0.74564800  0.11933800  1
  H  H41  1  0.62631100  0.65217500  0.88066200  1
  H  H42  1  0.61195600  0.81976200  0.52475300  1
  H  H43  1  0.29500900  0.08720300  0.47524700  1
  H  H44  1  0.06976200  0.36195600  0.02475300  1
  H  H45  1  0.33720300  0.04500900  0.97524700  1
  H  H46  1  0.48628600  0.87315600  0.57908900  1
  H  H47  1  0.29406700  0.90719700  0.42091100  1
  H  H48  1  0.12315600  0.23628600  0.07908900  1
  H  H49  1  0.15719700  0.04406700  0.92091100  1
  H  H50  1  0.50452600  0.44636900  0.53917100  1
  H  H51  1  0.90719800  0.96535500  0.46082900  1
  H  H52  1  0.69636900  0.25452600  0.03917100  1
  H  H53  1  0.21535500  0.65719800  0.96082900  1
  H  H54  1  0.59738700  0.36138700  0.47322500  1
  H  H55  1  0.88816200  0.12416200  0.52677500  1
  H  H56  1  0.61138700  0.34738700  0.97322500  1
  H  H57  1  0.37416200  0.63816200  0.02677500  1
  O  O58  1  0.12598400  0.40538400  0.66063500  1
  O  O59  1  0.74474900  0.46534900  0.33936500  1
  O  O60  1  0.65538400  0.87598400  0.16063500  1
  O  O61  1  0.71534900  0.49474900  0.83936500  1
  O  O62  1  0.07582100  0.04420100  0.65337100  1
  O  O63  1  0.39083100  0.42245000  0.34662900  1
  O  O64  1  0.29420100  0.82582100  0.15337100  1
  O  O65  1  0.67245000  0.14083100  0.84662900  1
  O  O66  1  0.92586000  0.10886100  0.78204400  1
  O  O67  1  0.32681700  0.14381500  0.21795600  1
  O  O68  1  0.35886100  0.67586000  0.28204400  1
  O  O69  1  0.39381500  0.07681700  0.71795600  1
  O  O70  1  0.76485600  0.21005000  0.63049700  1
  O  O71  1  0.57955300  0.13435900  0.36950300  1
  O  O72  1  0.46005000  0.51485600  0.13049700  1
  O  O73  1  0.38435900  0.32955300  0.86950300  1
  O  O74  1  0.98848900  0.47045900  0.79142300  1
  O  O75  1  0.67903600  0.19706700  0.20857700  1
  O  O76  1  0.72045900  0.73848900  0.29142300  1
  O  O77  1  0.44706700  0.42903600  0.70857700  1
  O  O78  1  0.31500200  0.47919100  0.57094800  1
  O  O79  1  0.90824300  0.74405400  0.42905200  1
  O  O80  1  0.72919100  0.06500200  0.07094800  1
  O  O81  1  0.99405400  0.65824300  0.92905200  1
  O  O82  1  0.28663400  0.18570100  0.59214400  1
  O  O83  1  0.59355700  0.69449000  0.40785600  1
  O  O84  1  0.43570100  0.03663400  0.09214400  1
  O  O85  1  0.94449000  0.34355700  0.90785600  1
  O  O86  1  0.27249800  0.87523900  0.58190500  1
  O  O87  1  0.29333400  0.69059300  0.41809500  1
  O  O88  1  0.12523900  0.02249800  0.08190500  1
  O  O89  1  0.94059300  0.04333400  0.91809500  1
  O  O90  1  0.19147100  0.75733400  0.77651600  1
  O  O91  1  0.98081900  0.41495600  0.22348400  1
  O  O92  1  0.00733400  0.94147100  0.27651600  1
  O  O93  1  0.66495600  0.73081900  0.72348400  1
  O  O94  1  0.93588800  0.60128600  0.59001800  1
  O  O95  1  0.01126800  0.34587000  0.40998200  1
  O  O96  1  0.85128600  0.68588800  0.09001800  1
  O  O97  1  0.59587000  0.76126800  0.90998200  1
  O  O98  1  0.60924400  0.87700000  0.58003600  1
  O  O99  1  0.29696400  0.02920800  0.41996400  1
  O  O100  1  0.12700000  0.35924400  0.08003600  1
  O  O101  1  0.27920800  0.04696400  0.91996400  1
  O  O102  1  0.61646900  0.41538500  0.53091400  1
  O  O103  1  0.88447100  0.08555500  0.46908600  1
  O  O104  1  0.66538500  0.36646900  0.03091400  1
  O  O105  1  0.33555500  0.63447100  0.96908600  1
