data_image0
_chemical_formula_structural       Cl16Rb8Zn4
_chemical_formula_sum              "Cl16 Rb8 Zn4"
_cell_length_a       9.18348
_cell_length_b       7.03284
_cell_length_c       12.2482
_cell_angle_alpha    90
_cell_angle_beta     90
_cell_angle_gamma    90

_space_group_name_H-M_alt    "P 1"
_space_group_IT_number       1

loop_
  _space_group_symop_operation_xyz
  'x, y, z'

loop_
  _atom_site_type_symbol
  _atom_site_label
  _atom_site_symmetry_multiplicity
  _atom_site_fract_x
  _atom_site_fract_y
  _atom_site_fract_z
  _atom_site_occupancy
  Cl  Cl1       1.0  0.98100  0.25000  0.40000  1.0000
  Cl  Cl2       1.0  0.51900  0.75000  0.90000  1.0000
  Cl  Cl3       1.0  0.48100  0.25000  0.09960  1.0000
  Cl  Cl4       1.0  0.01900  0.75000  0.60000  1.0000
  Cl  Cl5       1.0  0.31800  0.25000  0.59200  1.0000
  Cl  Cl6       1.0  0.18200  0.75000  0.09250  1.0000
  Cl  Cl7       1.0  0.81800  0.25000  0.90800  1.0000
  Cl  Cl8       1.0  0.68200  0.75000  0.40800  1.0000
  Cl  Cl9       1.0  0.32400  0.99000  0.34100  1.0000
  Cl  Cl10      1.0  0.17600  0.01010  0.84100  1.0000
  Cl  Cl11      1.0  0.82400  0.51000  0.15900  1.0000
  Cl  Cl12      1.0  0.67600  0.49000  0.65900  1.0000
  Cl  Cl13      1.0  0.67600  0.01010  0.65900  1.0000
  Cl  Cl14      1.0  0.82400  0.99000  0.15900  1.0000
  Cl  Cl15      1.0  0.17600  0.49000  0.84100  1.0000
  Cl  Cl16      1.0  0.32400  0.51000  0.34100  1.0000
  Rb  Rb1       1.0  0.48000  0.25000  0.83200  1.0000
  Rb  Rb2       1.0  0.02030  0.75000  0.33200  1.0000
  Rb  Rb3       1.0  0.98000  0.25000  0.66800  1.0000
  Rb  Rb4       1.0  0.52000  0.75000  0.16800  1.0000
  Rb  Rb5       1.0  0.62400  0.25000  0.40600  1.0000
  Rb  Rb6       1.0  0.87600  0.75000  0.90600  1.0000
  Rb  Rb7       1.0  0.12400  0.25000  0.09390  1.0000
  Rb  Rb8       1.0  0.37600  0.75000  0.59400  1.0000
  Zn  Zn1       1.0  0.22600  0.25000  0.42000  1.0000
  Zn  Zn2       1.0  0.27400  0.75000  0.92000  1.0000
  Zn  Zn3       1.0  0.72600  0.25000  0.07970  1.0000
  Zn  Zn4       1.0  0.77400  0.75000  0.58000  1.0000
