# generated using pymatgen
data_BiOs3(CO)9
_symmetry_space_group_name_H-M   'P 1'
_cell_length_a   8.61209616
_cell_length_b   9.67530422
_cell_length_c   13.27700690
_cell_angle_alpha   90.16017946
_cell_angle_beta   69.62912614
_cell_angle_gamma   63.71567380
_symmetry_Int_Tables_number   1
_chemical_formula_structural   BiOs3(CO)9
_chemical_formula_sum   'Bi2 Os6 C18 O18'
_cell_volume   913.53013830
_cell_formula_units_Z   2
loop_
 _symmetry_equiv_pos_site_id
 _symmetry_equiv_pos_as_xyz
  1  'x, y, z'
loop_
 _atom_site_type_symbol
 _atom_site_label
 _atom_site_symmetry_multiplicity
 _atom_site_fract_x
 _atom_site_fract_y
 _atom_site_fract_z
 _atom_site_occupancy
  Bi  Bi0  1  0.50649100  0.78201900  0.41290600  1
  Bi  Bi1  1  0.49350900  0.21798100  0.58709400  1
  Os  Os2  1  0.69356600  0.78351900  0.19171300  1
  Os  Os3  1  0.30643400  0.21648100  0.80828700  1
  Os  Os4  1  0.48178000  0.56790500  0.28239600  1
  Os  Os5  1  0.51822000  0.43209500  0.71760400  1
  Os  Os6  1  0.33783900  0.85650600  0.23855000  1
  Os  Os7  1  0.66216100  0.14349400  0.76145000  1
  C  C8  1  0.90914200  0.64766000  0.21957700  1
  C  C9  1  0.09085800  0.35234000  0.78042300  1
  C  C10  1  0.80059600  0.73825500  0.03422400  1
  C  C11  1  0.19940400  0.26174500  0.96577600  1
  C  C12  1  0.73929600  0.95326000  0.20541400  1
  C  C13  1  0.26070400  0.04674000  0.79458600  1
  C  C14  1  0.68904700  0.41073000  0.30731400  1
  C  C15  1  0.31095300  0.58927000  0.69268600  1
  C  C16  1  0.32253000  0.51027200  0.38820800  1
  C  C17  1  0.67747000  0.48972800  0.61179200  1
  C  C18  1  0.48669800  0.45673300  0.15944900  1
  C  C19  1  0.51330200  0.54326700  0.84055100  1
  C  C20  1  0.10988600  0.87299100  0.34352400  1
  C  C21  1  0.89011400  0.12700900  0.65647600  1
  C  C22  1  0.24044800  0.89626600  0.12854300  1
  C  C23  1  0.75955200  0.10373400  0.87145700  1
  C  C24  1  0.29510700  0.06679700  0.26842100  1
  C  C25  1  0.70489300  0.93320300  0.73157900  1
  O  O26  1  0.03920100  0.56383000  0.23762100  1
  O  O27  1  0.96079900  0.43617000  0.76237900  1
  O  O28  1  0.88659900  0.70933800  0.94014700  1
  O  O29  1  0.11340100  0.29066200  0.05985300  1
  O  O30  1  0.75180600  0.06695600  0.21626100  1
  O  O31  1  0.24819400  0.93304400  0.78373900  1
  O  O32  1  0.81457900  0.31536900  0.32409800  1
  O  O33  1  0.18542100  0.68463100  0.67590200  1
  O  O34  1  0.21599700  0.48197900  0.45489900  1
  O  O35  1  0.78400300  0.51802100  0.54510100  1
  O  O36  1  0.49160200  0.37644600  0.09185300  1
  O  O37  1  0.50839800  0.62355400  0.90814700  1
  O  O38  1  0.96926300  0.89291000  0.41270700  1
  O  O39  1  0.03073700  0.10709000  0.58729300  1
  O  O40  1  0.18032000  0.91978500  0.06045300  1
  O  O41  1  0.81968000  0.08021500  0.93954700  1
  O  O42  1  0.26142700  0.19420500  0.29730600  1
  O  O43  1  0.73857300  0.80579500  0.70269400  1
