# generated using pymatgen
data_Fe2S3O23
_symmetry_space_group_name_H-M   'P 1'
_cell_length_a   6.52745700
_cell_length_b   7.03788889
_cell_length_c   25.21777305
_cell_angle_alpha   92.47436132
_cell_angle_beta   95.51963837
_cell_angle_gamma   106.17752356
_symmetry_Int_Tables_number   1
_chemical_formula_structural   Fe2S3O23
_chemical_formula_sum   'Fe4 S6 O46'
_cell_volume   1104.49001269
_cell_formula_units_Z   2
loop_
 _symmetry_equiv_pos_site_id
 _symmetry_equiv_pos_as_xyz
  1  'x, y, z'
loop_
 _atom_site_type_symbol
 _atom_site_label
 _atom_site_symmetry_multiplicity
 _atom_site_fract_x
 _atom_site_fract_y
 _atom_site_fract_z
 _atom_site_occupancy
  Fe  Fe0  1  0.10509500  0.33656600  0.09382700  1
  Fe  Fe1  1  0.89490500  0.66343400  0.90617300  1
  Fe  Fe2  1  0.48795500  0.16787300  0.62509700  1
  Fe  Fe3  1  0.51204500  0.83212700  0.37490300  1
  S  S4  1  0.25053700  0.94489800  0.27904900  1
  S  S5  1  0.74946300  0.05510200  0.72095100  1
  S  S6  1  0.09854500  0.77303100  0.57742000  1
  S  S7  1  0.90145500  0.22696900  0.42258000  1
  S  S8  1  0.43370400  0.75706800  0.08012400  1
  S  S9  1  0.56629600  0.24293200  0.91987600  1
  O  O10  1  0.07387400  0.96140300  0.30960300  1
  O  O11  1  0.92612600  0.03859700  0.69039700  1
  O  O12  1  0.41180700  0.13911200  0.28041600  1
  O  O13  1  0.58819300  0.86088800  0.71958400  1
  O  O14  1  0.16817300  0.86814700  0.22378500  1
  O  O15  1  0.83182700  0.13185300  0.77621500  1
  O  O16  1  0.35651600  0.79640500  0.30540200  1
  O  O17  1  0.64348400  0.20359500  0.69459800  1
  O  O18  1  0.20709500  0.68743000  0.53837200  1
  O  O19  1  0.79290500  0.31257000  0.46162800  1
  O  O20  1  0.99205700  0.61815400  0.61098000  1
  O  O21  1  0.00794300  0.38184600  0.38902000  1
  O  O22  1  0.05312200  0.13067500  0.44818700  1
  O  O23  1  0.94687800  0.86932500  0.55181300  1
  O  O24  1  0.27087800  0.92968500  0.61470300  1
  O  O25  1  0.72912200  0.07031500  0.38529700  1
  O  O26  1  0.33366100  0.83734600  0.03508700  1
  O  O27  1  0.66633900  0.16265400  0.96491300  1
  O  O28  1  0.46711100  0.09186500  0.87630000  1
  O  O29  1  0.53288900  0.90813500  0.12370000  1
  O  O30  1  0.41411300  0.34240200  0.93885300  1
  O  O31  1  0.58588700  0.65759800  0.06114700  1
  O  O32  1  0.25328900  0.60220200  0.10439900  1
  O  O33  1  0.74671100  0.39779800  0.89560100  1
  O  O34  1  0.02269700  0.40239700  0.21500500  1
  O  O35  1  0.97730300  0.59760300  0.78499500  1
  O  O36  1  0.49437000  0.37745000  0.17870100  1
  O  O37  1  0.50563000  0.62255000  0.82129900  1
  O  O38  1  0.03392900  0.10309500  0.11965200  1
  O  O39  1  0.96607100  0.89690500  0.88034800  1
  O  O40  1  0.21713000  0.23550200  0.04788700  1
  O  O41  1  0.78287000  0.76449800  0.95211300  1
  O  O42  1  0.15693200  0.68895300  0.91746100  1
  O  O43  1  0.84306800  0.31104700  0.08253900  1
  O  O44  1  0.34894400  0.79356800  0.44096600  1
  O  O45  1  0.65105600  0.20643200  0.55903400  1
  O  O46  1  0.30748000  0.45495300  0.66980700  1
  O  O47  1  0.69252000  0.54504700  0.33019300  1
  O  O48  1  0.53098300  0.50027700  0.35456000  1
  O  O49  1  0.46901700  0.49972300  0.64544000  1
  O  O50  1  0.49538700  0.28723600  0.54961600  1
  O  O51  1  0.50461300  0.71276400  0.45038400  1
  O  O52  1  0.41561900  0.46344400  0.79595700  1
  O  O53  1  0.58438100  0.53655600  0.20404300  1
  O  O54  1  0.10168700  0.73203300  0.76482900  1
  O  O55  1  0.89831300  0.26796700  0.23517100  1
