# generated using pymatgen
data_Na10US6O29
_symmetry_space_group_name_H-M   'P 1'
_cell_length_a   15.24126110
_cell_length_b   15.24126110
_cell_length_c   9.74607899
_cell_angle_alpha   88.84480322
_cell_angle_beta   88.84480322
_cell_angle_gamma   144.00648000
_symmetry_Int_Tables_number   1
_chemical_formula_structural   Na10US6O29
_chemical_formula_sum   'Na20 U2 S12 O58'
_cell_volume   1327.68865281
_cell_formula_units_Z   2
loop_
 _symmetry_equiv_pos_site_id
 _symmetry_equiv_pos_as_xyz
  1  'x, y, z'
loop_
 _atom_site_type_symbol
 _atom_site_label
 _atom_site_symmetry_multiplicity
 _atom_site_fract_x
 _atom_site_fract_y
 _atom_site_fract_z
 _atom_site_occupancy
  Na  Na0  1  0.20021900  0.56295200  0.20053700  1
  Na  Na1  1  0.56295200  0.20021900  0.70053700  1
  Na  Na2  1  0.76651200  0.27493000  0.28556800  1
  Na  Na3  1  0.27493000  0.76651200  0.78556800  1
  Na  Na4  1  0.51785600  0.01668400  0.06099700  1
  Na  Na5  1  0.01668400  0.51785600  0.56099700  1
  Na  Na6  1  0.91078600  0.62958700  0.77794900  1
  Na  Na7  1  0.62958700  0.91078600  0.27794900  1
  Na  Na8  1  0.94108600  0.81000300  0.45338300  1
  Na  Na9  1  0.81000300  0.94108600  0.95338300  1
  Na  Na10  1  0.03974700  0.95653400  0.07880200  1
  Na  Na11  1  0.95653400  0.03974700  0.57880200  1
  Na  Na12  1  0.49827400  0.36664500  0.89499400  1
  Na  Na13  1  0.36664500  0.49827400  0.39499400  1
  Na  Na14  1  0.17857200  0.04815600  0.71547300  1
  Na  Na15  1  0.04815600  0.17857200  0.21547300  1
  Na  Na16  1  0.62951800  0.50496100  0.28121500  1
  Na  Na17  1  0.50496100  0.62951800  0.78121500  1
  Na  Na18  1  0.42522600  0.14545900  0.30125700  1
  Na  Na19  1  0.14545900  0.42522600  0.80125700  1
  U  U20  1  0.05471600  0.71011700  0.19571900  1
  U  U21  1  0.71011700  0.05471600  0.69571900  1
  S  S22  1  0.27564100  0.95783200  0.95636900  1
  S  S23  1  0.95783200  0.27564100  0.45636900  1
  S  S24  1  0.77545300  0.45181100  0.46598200  1
  S  S25  1  0.45181100  0.77545300  0.96598200  1
  S  S26  1  0.19902100  0.87035400  0.54399900  1
  S  S27  1  0.87035400  0.19902100  0.04399900  1
  S  S28  1  0.81381500  0.75039100  0.79385400  1
  S  S29  1  0.75039100  0.81381500  0.29385400  1
  S  S30  1  0.24634900  0.17963900  0.37181800  1
  S  S31  1  0.17963900  0.24634900  0.87181800  1
  S  S32  1  0.69047600  0.36842400  0.04760900  1
  S  S33  1  0.36842400  0.69047600  0.54760900  1
  O  O34  1  0.14464800  0.67567600  0.17989100  1
  O  O35  1  0.67567600  0.14464800  0.67989100  1
  O  O36  1  0.96629900  0.74641700  0.20609100  1
  O  O37  1  0.74641700  0.96629900  0.70609100  1
  O  O38  1  0.85604900  0.50337900  0.07680200  1
  O  O39  1  0.50337900  0.85604900  0.57680200  1
  O  O40  1  0.17971200  0.84847900  0.39007500  1
  O  O41  1  0.84847900  0.17971200  0.89007500  1
  O  O42  1  0.90837600  0.52375700  0.37277300  1
  O  O43  1  0.52375700  0.90837600  0.87277300  1
  O  O44  1  0.29411400  0.96842500  0.11047000  1
  O  O45  1  0.96842500  0.29411400  0.61047000  1
  O  O46  1  0.11900300  0.79554400  0.94586000  1
  O  O47  1  0.79554400  0.11900300  0.44586000  1
  O  O48  1  0.29097400  0.06091300  0.90415100  1
  O  O49  1  0.06091300  0.29097400  0.40415100  1
  O  O50  1  0.38457500  0.98608400  0.88619700  1
  O  O51  1  0.98608400  0.38457500  0.38619700  1
  O  O52  1  0.64309200  0.29658100  0.42536000  1
  O  O53  1  0.29658100  0.64309200  0.92536000  1
  O  O54  1  0.76552900  0.53904800  0.44532700  1
  O  O55  1  0.53904800  0.76552900  0.94532700  1
  O  O56  1  0.81057800  0.45514800  0.60833400  1
  O  O57  1  0.45514800  0.81057800  0.10833400  1
  O  O58  1  0.35451500  0.02394900  0.55885800  1
  O  O59  1  0.02394900  0.35451500  0.05885800  1
  O  O60  1  0.16491400  0.75665500  0.61132300  1
  O  O61  1  0.75665500  0.16491400  0.11132300  1
  O  O62  1  0.09113800  0.84940500  0.60059000  1
  O  O63  1  0.84940500  0.09113800  0.10059000  1
  O  O64  1  0.95051200  0.84602800  0.87159600  1
  O  O65  1  0.84602800  0.95051200  0.37159600  1
  O  O66  1  0.86310000  0.82468400  0.65424500  1
  O  O67  1  0.82468400  0.86310000  0.15424500  1
  O  O68  1  0.73348200  0.60013700  0.78567700  1
  O  O69  1  0.60013700  0.73348200  0.28567700  1
  O  O70  1  0.71366800  0.73540700  0.86349600  1
  O  O71  1  0.73540700  0.71366800  0.36349600  1
  O  O72  1  0.17661000  0.06460800  0.27304800  1
  O  O73  1  0.06460800  0.17661000  0.77304800  1
  O  O74  1  0.15559300  0.10229900  0.50505500  1
  O  O75  1  0.10229900  0.15559300  0.00505500  1
  O  O76  1  0.25338300  0.27750000  0.31871100  1
  O  O77  1  0.27750000  0.25338300  0.81871100  1
  O  O78  1  0.40163600  0.27146300  0.39102400  1
  O  O79  1  0.27146300  0.40163600  0.89102400  1
  O  O80  1  0.62543500  0.23585400  0.11635800  1
  O  O81  1  0.23585400  0.62543500  0.61635800  1
  O  O82  1  0.68202100  0.36189000  0.89711100  1
  O  O83  1  0.36189000  0.68202100  0.39711100  1
  O  O84  1  0.61516300  0.38621200  0.10753700  1
  O  O85  1  0.38621200  0.61516300  0.60753700  1
  O  O86  1  0.30899400  0.49735700  0.15396200  1
  O  O87  1  0.49735700  0.30899400  0.65396200  1
  O  O88  1  0.50006600  0.00167700  0.34618100  1
  O  O89  1  0.00167700  0.50006600  0.84618100  1
  O  O90  1  0.48827000  0.51976200  0.57945100  1
  O  O91  1  0.51976200  0.48827000  0.07945100  1
