# generated using pymatgen
data_H4CN4O3
_symmetry_space_group_name_H-M   'P 1'
_cell_length_a   7.86233400
_cell_length_b   11.25216100
_cell_length_c   13.91633305
_cell_angle_alpha   53.80227637
_cell_angle_beta   90.00000000
_cell_angle_gamma   90.00000000
_symmetry_Int_Tables_number   1
_chemical_formula_structural   H4CN4O3
_chemical_formula_sum   'H32 C8 N32 O24'
_cell_volume   993.52098449
_cell_formula_units_Z   8
loop_
 _symmetry_equiv_pos_site_id
 _symmetry_equiv_pos_as_xyz
  1  'x, y, z'
loop_
 _atom_site_type_symbol
 _atom_site_label
 _atom_site_symmetry_multiplicity
 _atom_site_fract_x
 _atom_site_fract_y
 _atom_site_fract_z
 _atom_site_occupancy
  H  H0  1  0.25693400  0.14618600  0.35521200  1
  H  H1  1  0.24306600  0.14618600  0.85521200  1
  H  H2  1  0.74306600  0.85381400  0.64478800  1
  H  H3  1  0.75693400  0.85381400  0.14478800  1
  H  H4  1  0.26627500  0.78972200  0.43132900  1
  H  H5  1  0.23372500  0.78972200  0.93132900  1
  H  H6  1  0.73372500  0.21027800  0.56867100  1
  H  H7  1  0.76627500  0.21027800  0.06867100  1
  H  H8  1  0.38343500  0.85151900  0.55304500  1
  H  H9  1  0.11656500  0.85151900  0.05304500  1
  H  H10  1  0.61656500  0.14848100  0.44695500  1
  H  H11  1  0.88343500  0.14848100  0.94695500  1
  H  H12  1  0.17261500  0.84652400  0.56644500  1
  H  H13  1  0.32738500  0.84652400  0.06644500  1
  H  H14  1  0.82738500  0.15347600  0.43355500  1
  H  H15  1  0.67261500  0.15347600  0.93355500  1
  H  H16  1  0.22680200  0.09828300  0.12759100  1
  H  H17  1  0.27319800  0.09828300  0.62759100  1
  H  H18  1  0.77319800  0.90171700  0.87240900  1
  H  H19  1  0.72680200  0.90171700  0.37240900  1
  H  H20  1  0.22709600  0.90385100  0.22593600  1
  H  H21  1  0.27290400  0.90385100  0.72593600  1
  H  H22  1  0.77290400  0.09614900  0.77406400  1
  H  H23  1  0.72709600  0.09614900  0.27406400  1
  H  H24  1  0.34731300  0.33565300  0.14922600  1
  H  H25  1  0.15268700  0.33565300  0.64922600  1
  H  H26  1  0.65268700  0.66434700  0.85077400  1
  H  H27  1  0.84731300  0.66434700  0.35077400  1
  H  H28  1  0.13547700  0.32934300  0.15954600  1
  H  H29  1  0.36452300  0.32934300  0.65954600  1
  H  H30  1  0.86452300  0.67065700  0.84045400  1
  H  H31  1  0.63547700  0.67065700  0.34045400  1
  C  C32  1  0.22998500  0.45447200  0.37699200  1
  C  C33  1  0.27001500  0.45447200  0.87699200  1
  C  C34  1  0.77001500  0.54552800  0.62300800  1
  C  C35  1  0.72998500  0.54552800  0.12300800  1
  C  C36  1  0.25151200  0.01258300  0.30213400  1
  C  C37  1  0.24848800  0.01258300  0.80213400  1
  C  C38  1  0.74848800  0.98741700  0.69786600  1
  C  C39  1  0.75151200  0.98741700  0.19786600  1
  N  N40  1  0.25409500  0.14380100  0.28271500  1
  N  N41  1  0.24590500  0.14380100  0.78271500  1
  N  N42  1  0.74590500  0.85619900  0.71728500  1
  N  N43  1  0.75409500  0.85619900  0.21728500  1
  N  N44  1  0.27211700  0.90285000  0.50930000  1
  N  N45  1  0.22788300  0.90285000  0.00930000  1
  N  N46  1  0.72788300  0.09715000  0.49070000  1
  N  N47  1  0.77211700  0.09715000  0.99070000  1
  N  N48  1  0.24199400  0.27234200  0.16628000  1
  N  N49  1  0.25800600  0.27234200  0.66628000  1
  N  N50  1  0.75800600  0.72765800  0.83372000  1
  N  N51  1  0.74199400  0.72765800  0.33372000  1
  N  N52  1  0.25516000  0.89025100  0.41516800  1
  N  N53  1  0.24484000  0.89025100  0.91516800  1
  N  N54  1  0.74484000  0.10974900  0.58483200  1
  N  N55  1  0.75516000  0.10974900  0.08483200  1
  N  N56  1  0.38119000  0.37226000  0.40449600  1
  N  N57  1  0.11881000  0.37226000  0.90449600  1
  N  N58  1  0.61881000  0.62774000  0.59550400  1
  N  N59  1  0.88119000  0.62774000  0.09550400  1
  N  N60  1  0.06856200  0.38681600  0.39189700  1
  N  N61  1  0.43143800  0.38681600  0.89189700  1
  N  N62  1  0.93143800  0.61318400  0.60810300  1
  N  N63  1  0.56856200  0.61318400  0.10810300  1
  N  N64  1  0.23292200  0.59984000  0.34356000  1
  N  N65  1  0.26707800  0.59984000  0.84356000  1
  N  N66  1  0.76707800  0.40016000  0.65644000  1
  N  N67  1  0.73292200  0.40016000  0.15644000  1
  N  N68  1  0.24604300  0.00314400  0.21059100  1
  N  N69  1  0.25395700  0.00314400  0.71059100  1
  N  N70  1  0.75395700  0.99685600  0.78940900  1
  N  N71  1  0.74604300  0.99685600  0.28940900  1
  O  O72  1  0.52173300  0.43530400  0.37975700  1
  O  O73  1  0.97826700  0.43530400  0.87975700  1
  O  O74  1  0.47826700  0.56469600  0.62024300  1
  O  O75  1  0.02173300  0.56469600  0.12024300  1
  O  O76  1  0.94536200  0.42533400  0.42430300  1
  O  O77  1  0.55463800  0.42533400  0.92430300  1
  O  O78  1  0.05463800  0.57466600  0.57569700  1
  O  O79  1  0.44536200  0.57466600  0.07569700  1
  O  O80  1  0.05777800  0.29064700  0.37406000  1
  O  O81  1  0.44222200  0.29064700  0.87406000  1
  O  O82  1  0.94222200  0.70935300  0.62594000  1
  O  O83  1  0.55777800  0.70935300  0.12594000  1
  O  O84  1  0.10963000  0.68310100  0.28425600  1
  O  O85  1  0.39037000  0.68310100  0.78425600  1
  O  O86  1  0.89037000  0.31689900  0.71574400  1
  O  O87  1  0.60963000  0.31689900  0.21574400  1
  O  O88  1  0.36844400  0.23593200  0.45385900  1
  O  O89  1  0.13155600  0.23593200  0.95385900  1
  O  O90  1  0.63155600  0.76406800  0.54614100  1
  O  O91  1  0.86844400  0.76406800  0.04614100  1
  O  O92  1  0.35658800  0.64343700  0.37178600  1
  O  O93  1  0.14341200  0.64343700  0.87178600  1
  O  O94  1  0.64341200  0.35656300  0.62821400  1
  O  O95  1  0.85658800  0.35656300  0.12821400  1
