# generated using pymatgen
data_Ge6C4NO13
_symmetry_space_group_name_H-M   'P 1'
_cell_length_a   9.23179400
_cell_length_b   9.76244600
_cell_length_c   19.10338429
_cell_angle_alpha   68.33874508
_cell_angle_beta   90.00000000
_cell_angle_gamma   90.00000000
_symmetry_Int_Tables_number   1
_chemical_formula_structural   Ge6C4NO13
_chemical_formula_sum   'Ge24 C16 N4 O52'
_cell_volume   1600.10875789
_cell_formula_units_Z   4
loop_
 _symmetry_equiv_pos_site_id
 _symmetry_equiv_pos_as_xyz
  1  'x, y, z'
loop_
 _atom_site_type_symbol
 _atom_site_label
 _atom_site_symmetry_multiplicity
 _atom_site_fract_x
 _atom_site_fract_y
 _atom_site_fract_z
 _atom_site_occupancy
  Ge  Ge0  1  0.38902800  0.91534900  0.29941300  1
  Ge  Ge1  1  0.11097200  0.91534900  0.79941300  1
  Ge  Ge2  1  0.61097200  0.08465100  0.70058700  1
  Ge  Ge3  1  0.88902800  0.08465100  0.20058700  1
  Ge  Ge4  1  0.58890900  0.65217800  0.39746100  1
  Ge  Ge5  1  0.91109100  0.65217800  0.89746100  1
  Ge  Ge6  1  0.41109100  0.34782200  0.60253900  1
  Ge  Ge7  1  0.08890900  0.34782200  0.10253900  1
  Ge  Ge8  1  0.41500600  0.70684700  0.53308800  1
  Ge  Ge9  1  0.08499400  0.70684700  0.03308800  1
  Ge  Ge10  1  0.58499400  0.29315300  0.46691200  1
  Ge  Ge11  1  0.91500600  0.29315300  0.96691200  1
  Ge  Ge12  1  0.33023100  0.10331300  0.12370700  1
  Ge  Ge13  1  0.16976900  0.10331300  0.62370700  1
  Ge  Ge14  1  0.66976900  0.89668700  0.87629300  1
  Ge  Ge15  1  0.83023100  0.89668700  0.37629300  1
  Ge  Ge16  1  0.16426400  0.87579300  0.43030500  1
  Ge  Ge17  1  0.33573600  0.87579300  0.93030500  1
  Ge  Ge18  1  0.83573600  0.12420700  0.56969500  1
  Ge  Ge19  1  0.66426400  0.12420700  0.06969500  1
  Ge  Ge20  1  0.54590200  0.04231200  0.40517000  1
  Ge  Ge21  1  0.95409800  0.04231200  0.90517000  1
  Ge  Ge22  1  0.45409800  0.95768800  0.59483000  1
  Ge  Ge23  1  0.04590200  0.95768800  0.09483000  1
  C  C24  1  0.34685700  0.37992900  0.82740800  1
  C  C25  1  0.15314300  0.37992900  0.32740800  1
  C  C26  1  0.65314300  0.62007100  0.17259200  1
  C  C27  1  0.84685700  0.62007100  0.67259200  1
  C  C28  1  0.50699200  0.38980400  0.83892300  1
  C  C29  1  0.99300800  0.38980400  0.33892300  1
  C  C30  1  0.49300800  0.61019600  0.16107700  1
  C  C31  1  0.00699200  0.61019600  0.66107700  1
  C  C32  1  0.46201600  0.54602200  0.79769700  1
  C  C33  1  0.03798400  0.54602200  0.29769700  1
  C  C34  1  0.53798400  0.45397800  0.20230300  1
  C  C35  1  0.96201600  0.45397800  0.70230300  1
  C  C36  1  0.43803800  0.43470500  0.89712000  1
  C  C37  1  0.06196200  0.43470500  0.39712000  1
  C  C38  1  0.56196200  0.56529500  0.10288000  1
  C  C39  1  0.93803800  0.56529500  0.60288000  1
  N  N40  1  0.32655300  0.51739000  0.84316400  1
  N  N41  1  0.17344700  0.51739000  0.34316400  1
  N  N42  1  0.67344700  0.48261000  0.15683600  1
  N  N43  1  0.82655300  0.48261000  0.65683600  1
  O  O44  1  0.43300900  0.72653800  0.34253500  1
  O  O45  1  0.06699100  0.72653800  0.84253500  1
  O  O46  1  0.56699100  0.27346200  0.65746500  1
  O  O47  1  0.93300900  0.27346200  0.15746500  1
  O  O48  1  0.38062500  0.94859600  0.20308700  1
  O  O49  1  0.11937500  0.94859600  0.70308700  1
  O  O50  1  0.61937500  0.05140400  0.79691300  1
  O  O51  1  0.88062500  0.05140400  0.29691300  1
  O  O52  1  0.21599100  0.93882600  0.33394500  1
  O  O53  1  0.28400900  0.93882600  0.83394500  1
  O  O54  1  0.78400900  0.06117400  0.66605500  1
  O  O55  1  0.71599100  0.06117400  0.16605500  1
  O  O56  1  0.52014000  0.03552300  0.31365500  1
  O  O57  1  0.97986000  0.03552300  0.81365500  1
  O  O58  1  0.47986000  0.96447700  0.68634500  1
  O  O59  1  0.02014000  0.96447700  0.18634500  1
  O  O60  1  0.56733000  0.65849100  0.48847300  1
  O  O61  1  0.93267000  0.65849100  0.98847300  1
  O  O62  1  0.43267000  0.34150900  0.51152700  1
  O  O63  1  0.06733000  0.34150900  0.01152700  1
  O  O64  1  0.62084700  0.47830600  0.39488900  1
  O  O65  1  0.87915300  0.47830600  0.89488900  1
  O  O66  1  0.37915300  0.52169400  0.60511100  1
  O  O67  1  0.12084700  0.52169400  0.10511100  1
  O  O68  1  0.74156200  0.76035500  0.35234900  1
  O  O69  1  0.75843800  0.76035500  0.85234900  1
  O  O70  1  0.25843800  0.23964500  0.64765100  1
  O  O71  1  0.24156200  0.23964500  0.14765100  1
  O  O72  1  0.23263800  0.71204700  0.49821400  1
  O  O73  1  0.26736200  0.71204700  0.99821400  1
  O  O74  1  0.76736200  0.28795300  0.50178600  1
  O  O75  1  0.73263800  0.28795300  0.00178600  1
  O  O76  1  0.53453900  0.22852900  0.39388300  1
  O  O77  1  0.96546100  0.22852900  0.89388300  1
  O  O78  1  0.46546100  0.77147100  0.60611700  1
  O  O79  1  0.03453900  0.77147100  0.10611700  1
  O  O80  1  0.40902500  0.92401300  0.46151800  1
  O  O81  1  0.09097500  0.92401300  0.96151800  1
  O  O82  1  0.59097500  0.07598700  0.53848200  1
  O  O83  1  0.90902500  0.07598700  0.03848200  1
  O  O84  1  0.22395600  0.03109200  0.06771200  1
  O  O85  1  0.27604400  0.03109200  0.56771200  1
  O  O86  1  0.77604400  0.96890800  0.93228800  1
  O  O87  1  0.72395600  0.96890800  0.43228800  1
  O  O88  1  0.48243700  0.18807900  0.07062700  1
  O  O89  1  0.01756300  0.18807900  0.57062700  1
  O  O90  1  0.51756300  0.81192100  0.92937300  1
  O  O91  1  0.98243700  0.81192100  0.42937300  1
  O  O92  1  0.11785100  0.03736500  0.45309600  1
  O  O93  1  0.38214900  0.03736500  0.95309600  1
  O  O94  1  0.88214900  0.96263500  0.54690400  1
  O  O95  1  0.61785100  0.96263500  0.04690400  1
