# generated using pymatgen
data_CoH8C3(NO3)2
_symmetry_space_group_name_H-M   'P 1'
_cell_length_a   7.35948400
_cell_length_b   8.09325100
_cell_length_c   14.12402900
_cell_angle_alpha   90.00000000
_cell_angle_beta   90.00000000
_cell_angle_gamma   90.00000000
_symmetry_Int_Tables_number   1
_chemical_formula_structural   CoH8C3(NO3)2
_chemical_formula_sum   'Co4 H32 C12 N8 O24'
_cell_volume   841.25755145
_cell_formula_units_Z   4
loop_
 _symmetry_equiv_pos_site_id
 _symmetry_equiv_pos_as_xyz
  1  'x, y, z'
loop_
 _atom_site_type_symbol
 _atom_site_label
 _atom_site_symmetry_multiplicity
 _atom_site_fract_x
 _atom_site_fract_y
 _atom_site_fract_z
 _atom_site_occupancy
  Co  Co0  1  0.74251300  0.78105300  0.83499400  1
  Co  Co1  1  0.24251300  0.71894700  0.16500600  1
  Co  Co2  1  0.25748700  0.28105300  0.66500600  1
  Co  Co3  1  0.75748700  0.21894700  0.33499400  1
  H  H4  1  0.02164000  0.07251900  0.80408600  1
  H  H5  1  0.52164000  0.42748100  0.19591400  1
  H  H6  1  0.97836000  0.57251900  0.69591400  1
  H  H7  1  0.47836000  0.92748100  0.30408600  1
  H  H8  1  0.50925900  0.49004500  0.78215700  1
  H  H9  1  0.00925900  0.00995500  0.21784300  1
  H  H10  1  0.49074100  0.99004500  0.71784300  1
  H  H11  1  0.99074100  0.50995500  0.28215700  1
  H  H12  1  0.00652900  0.67391400  0.98823000  1
  H  H13  1  0.50652900  0.82608600  0.01177000  1
  H  H14  1  0.99347100  0.17391400  0.51177000  1
  H  H15  1  0.49347100  0.32608600  0.48823000  1
  H  H16  1  0.72381500  0.93777400  0.52123700  1
  H  H17  1  0.22381500  0.56222600  0.47876300  1
  H  H18  1  0.27618500  0.43777400  0.97876300  1
  H  H19  1  0.77618500  0.06222600  0.02123700  1
  H  H20  1  0.90624300  0.80742800  0.53558100  1
  H  H21  1  0.40624300  0.69257200  0.46441900  1
  H  H22  1  0.09375700  0.30742800  0.96441900  1
  H  H23  1  0.59375700  0.19257200  0.03558100  1
  H  H24  1  0.71417700  0.78079100  0.60258800  1
  H  H25  1  0.21417700  0.71920900  0.39741200  1
  H  H26  1  0.28582300  0.28079100  0.89741200  1
  H  H27  1  0.78582300  0.21920900  0.10258800  1
  H  H28  1  0.72570500  0.59689100  0.47003900  1
  H  H29  1  0.22570500  0.90310900  0.52996100  1
  H  H30  1  0.27429500  0.09689100  0.02996100  1
  H  H31  1  0.77429500  0.40310900  0.97003900  1
  H  H32  1  0.72865000  0.75891300  0.40070600  1
  H  H33  1  0.22865100  0.74108700  0.59929400  1
  H  H34  1  0.27135000  0.25891300  0.09929400  1
  H  H35  1  0.77135000  0.24108700  0.90070600  1
  C  C36  1  0.00076000  0.01554800  0.73360800  1
  C  C37  1  0.50076000  0.48445200  0.26639200  1
  C  C38  1  0.99924000  0.51554800  0.76639200  1
  C  C39  1  0.49924000  0.98445200  0.23360800  1
  C  C40  1  0.50900200  0.55741500  0.71416400  1
  C  C41  1  0.00900200  0.94258500  0.28583600  1
  C  C42  1  0.49099800  0.05741500  0.78583600  1
  C  C43  1  0.99099800  0.44258500  0.21416400  1
  C  C44  1  0.98992300  0.80588100  0.00586400  1
  C  C45  1  0.48992300  0.69411900  0.99413600  1
  C  C46  1  0.01007700  0.30588100  0.49413600  1
  C  C47  1  0.51007700  0.19411900  0.50586400  1
  N  N48  1  0.76380100  0.81598300  0.53592300  1
  N  N49  1  0.26380100  0.68401700  0.46407700  1
  N  N50  1  0.23619900  0.31598300  0.96407700  1
  N  N51  1  0.73619900  0.18401700  0.03592300  1
  N  N52  1  0.67778300  0.71534800  0.46378200  1
  N  N53  1  0.17778300  0.78465200  0.53621800  1
  N  N54  1  0.32221700  0.21534800  0.03621800  1
  N  N55  1  0.82221700  0.28465200  0.96378200  1
  O  O56  1  0.89194700  0.89448900  0.72755700  1
  O  O57  1  0.39194700  0.60551100  0.27244300  1
  O  O58  1  0.10805300  0.39448900  0.77244300  1
  O  O59  1  0.60805300  0.10551100  0.22755700  1
  O  O60  1  0.08708000  0.07449500  0.66362100  1
  O  O61  1  0.58708000  0.42550500  0.33637900  1
  O  O62  1  0.91292000  0.57449500  0.83637900  1
  O  O63  1  0.41292000  0.92550500  0.16362100  1
  O  O64  1  0.60114300  0.69043400  0.70991200  1
  O  O65  1  0.10114300  0.80956600  0.29008800  1
  O  O66  1  0.39885700  0.19043400  0.79008800  1
  O  O67  1  0.89885700  0.30956600  0.20991200  1
  O  O68  1  0.41697300  0.49805000  0.64604800  1
  O  O69  1  0.91697300  0.00195000  0.35395200  1
  O  O70  1  0.58302700  0.99805000  0.85395200  1
  O  O71  1  0.08302700  0.50195000  0.14604800  1
  O  O72  1  0.87835800  0.88932300  0.95592100  1
  O  O73  1  0.37835800  0.61067700  0.04407900  1
  O  O74  1  0.12164200  0.38932300  0.54407900  1
  O  O75  1  0.62164200  0.11067700  0.45592100  1
  O  O76  1  0.08135800  0.86590800  0.07377200  1
  O  O77  1  0.58135800  0.63409200  0.92622800  1
  O  O78  1  0.91864200  0.36590800  0.42622800  1
  O  O79  1  0.41864200  0.13409200  0.57377200  1
