# generated using pymatgen
data_CsCu5S3
_symmetry_space_group_name_H-M   'P 1'
_cell_length_a   13.08411200
_cell_length_b   13.08411200
_cell_length_c   7.80643000
_cell_angle_alpha   90.00000000
_cell_angle_beta   90.00000000
_cell_angle_gamma   90.00000000
_symmetry_Int_Tables_number   1
_chemical_formula_structural   CsCu5S3
_chemical_formula_sum   'Cs8 Cu40 S24'
_cell_volume   1336.41387460
_cell_formula_units_Z   8
loop_
 _symmetry_equiv_pos_site_id
 _symmetry_equiv_pos_as_xyz
  1  'x, y, z'
loop_
 _atom_site_type_symbol
 _atom_site_label
 _atom_site_symmetry_multiplicity
 _atom_site_fract_x
 _atom_site_fract_y
 _atom_site_fract_z
 _atom_site_occupancy
  Cs  Cs0  1  0.61527200  0.11129300  0.62580100  1
  Cs  Cs1  1  0.11527200  0.38870700  0.87419900  1
  Cs  Cs2  1  0.38472800  0.88870700  0.62580100  1
  Cs  Cs3  1  0.88472800  0.61129300  0.87419900  1
  Cs  Cs4  1  0.88870700  0.61527200  0.37419900  1
  Cs  Cs5  1  0.61129300  0.11527200  0.12580100  1
  Cs  Cs6  1  0.11129300  0.38472800  0.37419900  1
  Cs  Cs7  1  0.38870700  0.88472800  0.12580100  1
  Cu  Cu8  1  0.50828600  0.38449200  0.60272600  1
  Cu  Cu9  1  0.00828600  0.11550800  0.89727400  1
  Cu  Cu10  1  0.49171400  0.61550800  0.60272600  1
  Cu  Cu11  1  0.99171400  0.88449200  0.89727400  1
  Cu  Cu12  1  0.61550800  0.50828600  0.39727400  1
  Cu  Cu13  1  0.88449200  0.00828600  0.10272600  1
  Cu  Cu14  1  0.38449200  0.49171400  0.39727400  1
  Cu  Cu15  1  0.11550800  0.99171400  0.10272600  1
  Cu  Cu16  1  0.90054400  0.02199800  0.63691900  1
  Cu  Cu17  1  0.40054400  0.47800200  0.86308100  1
  Cu  Cu18  1  0.09945600  0.97800200  0.63691900  1
  Cu  Cu19  1  0.59945600  0.52199800  0.86308100  1
  Cu  Cu20  1  0.97800200  0.90054400  0.36308100  1
  Cu  Cu21  1  0.52199800  0.40054400  0.13691900  1
  Cu  Cu22  1  0.02199800  0.09945600  0.36308100  1
  Cu  Cu23  1  0.47800200  0.59945600  0.13691900  1
  Cu  Cu24  1  0.64779900  0.78066200  0.63474900  1
  Cu  Cu25  1  0.14779900  0.71933800  0.86525100  1
  Cu  Cu26  1  0.35220100  0.21933800  0.63474900  1
  Cu  Cu27  1  0.85220100  0.28066200  0.86525100  1
  Cu  Cu28  1  0.21933800  0.64779900  0.36525100  1
  Cu  Cu29  1  0.28066200  0.14779900  0.13474900  1
  Cu  Cu30  1  0.78066200  0.35220100  0.36525100  1
  Cu  Cu31  1  0.71933800  0.85220100  0.13474900  1
  Cu  Cu32  1  0.89121400  0.21981900  0.53599300  1
  Cu  Cu33  1  0.39121400  0.28018100  0.96400700  1
  Cu  Cu34  1  0.10878600  0.78018100  0.53599300  1
  Cu  Cu35  1  0.60878600  0.71981900  0.96400700  1
  Cu  Cu36  1  0.78018100  0.89121400  0.46400700  1
  Cu  Cu37  1  0.71981900  0.39121400  0.03599300  1
  Cu  Cu38  1  0.21981900  0.10878600  0.46400700  1
  Cu  Cu39  1  0.28018100  0.60878600  0.03599300  1
  Cu  Cu40  1  0.71499300  0.39717200  0.68425500  1
  Cu  Cu41  1  0.21499300  0.10282800  0.81574500  1
  Cu  Cu42  1  0.28500700  0.60282800  0.68425500  1
  Cu  Cu43  1  0.78500700  0.89717200  0.81574500  1
  Cu  Cu44  1  0.60282800  0.71499300  0.31574500  1
  Cu  Cu45  1  0.89717200  0.21499300  0.18425500  1
  Cu  Cu46  1  0.39717200  0.28500700  0.31574500  1
  Cu  Cu47  1  0.10282800  0.78500700  0.18425500  1
  S  S48  1  0.88072500  0.38086100  0.62033000  1
  S  S49  1  0.38072500  0.11913900  0.87967000  1
  S  S50  1  0.11927500  0.61913900  0.62033000  1
  S  S51  1  0.61927500  0.88086100  0.87967000  1
  S  S52  1  0.61913900  0.88072500  0.37967000  1
  S  S53  1  0.88086100  0.38072500  0.12033000  1
  S  S54  1  0.38086100  0.11927500  0.37967000  1
  S  S55  1  0.11913900  0.61927500  0.12033000  1
  S  S56  1  0.91041600  0.84079800  0.63115100  1
  S  S57  1  0.41041600  0.65920200  0.86884900  1
  S  S58  1  0.08958400  0.15920200  0.63115100  1
  S  S59  1  0.58958400  0.34079800  0.86884900  1
  S  S60  1  0.15920200  0.91041600  0.36884900  1
  S  S61  1  0.34079800  0.41041600  0.13115100  1
  S  S62  1  0.84079800  0.08958400  0.36884900  1
  S  S63  1  0.65920200  0.58958400  0.13115100  1
  S  S64  1  0.66555600  0.60560100  0.62700000  1
  S  S65  1  0.16555600  0.89439900  0.87300000  1
  S  S66  1  0.33444400  0.39439900  0.62700000  1
  S  S67  1  0.83444400  0.10560100  0.87300000  1
  S  S68  1  0.39439900  0.66555600  0.37300000  1
  S  S69  1  0.10560100  0.16555600  0.12700000  1
  S  S70  1  0.60560100  0.33444400  0.37300000  1
  S  S71  1  0.89439900  0.83444400  0.12700000  1
