# generated using pymatgen
data_SnH12C6(NO2)2
_symmetry_space_group_name_H-M   'P 1'
_cell_length_a   9.48048000
_cell_length_b   9.48048000
_cell_length_c   15.40480054
_cell_angle_alpha   75.68697919
_cell_angle_beta   75.68697919
_cell_angle_gamma   99.99932270
_symmetry_Int_Tables_number   1
_chemical_formula_structural   SnH12C6(NO2)2
_chemical_formula_sum   'Sn4 H48 C24 N8 O16'
_cell_volume   1258.66335814
_cell_formula_units_Z   4
loop_
 _symmetry_equiv_pos_site_id
 _symmetry_equiv_pos_as_xyz
  1  'x, y, z'
loop_
 _atom_site_type_symbol
 _atom_site_label
 _atom_site_symmetry_multiplicity
 _atom_site_fract_x
 _atom_site_fract_y
 _atom_site_fract_z
 _atom_site_occupancy
  Sn  Sn0  1  0.12997700  0.02761400  0.83768100  1
  Sn  Sn1  1  0.97238600  0.87002300  0.66231900  1
  Sn  Sn2  1  0.87002300  0.97238600  0.16231900  1
  Sn  Sn3  1  0.02761400  0.12997700  0.33768100  1
  H  H4  1  0.39259300  0.28297800  0.06830500  1
  H  H5  1  0.71702200  0.60740700  0.43169500  1
  H  H6  1  0.60740700  0.71702200  0.93169500  1
  H  H7  1  0.28297800  0.39259300  0.56830500  1
  H  H8  1  0.47539500  0.12838400  0.09030700  1
  H  H9  1  0.87161600  0.52460500  0.40969300  1
  H  H10  1  0.52460500  0.87161600  0.90969300  1
  H  H11  1  0.12838400  0.47539500  0.59030700  1
  H  H12  1  0.27930200  0.09544500  0.09829600  1
  H  H13  1  0.90455500  0.72069800  0.40170400  1
  H  H14  1  0.72069800  0.90455500  0.90170400  1
  H  H15  1  0.09544500  0.27930200  0.59829600  1
  H  H16  1  0.60944200  0.36839100  0.88707900  1
  H  H17  1  0.63160900  0.39055800  0.61292100  1
  H  H18  1  0.39055800  0.63160900  0.11292100  1
  H  H19  1  0.36839100  0.60944200  0.38707900  1
  H  H20  1  0.65881200  0.20483500  0.94428000  1
  H  H21  1  0.79516500  0.34118800  0.55572000  1
  H  H22  1  0.34118800  0.79516500  0.05572000  1
  H  H23  1  0.20483500  0.65881200  0.44428000  1
  H  H24  1  0.60314800  0.21325100  0.84013200  1
  H  H25  1  0.78674900  0.39685200  0.65986800  1
  H  H26  1  0.39685200  0.78674900  0.15986800  1
  H  H27  1  0.21325100  0.60314800  0.34013200  1
  H  H28  1  0.56976000  0.87163700  0.71344100  1
  H  H29  1  0.12836300  0.43024000  0.78655900  1
  H  H30  1  0.43024000  0.12836300  0.28655900  1
  H  H31  1  0.87163700  0.56976000  0.21344100  1
  H  H32  1  0.50531100  0.03903600  0.68841900  1
  H  H33  1  0.96096400  0.49468900  0.81158100  1
  H  H34  1  0.49468900  0.96096400  0.31158100  1
  H  H35  1  0.03903600  0.50531100  0.18841900  1
  H  H36  1  0.64597000  0.00492700  0.59904600  1
  H  H37  1  0.99507300  0.35403000  0.90095400  1
  H  H38  1  0.35403000  0.99507300  0.40095400  1
  H  H39  1  0.00492700  0.64597000  0.09904600  1
  H  H40  1  0.47655200  0.66653300  0.64840500  1
  H  H41  1  0.33346700  0.52344800  0.85159500  1
  H  H42  1  0.52344800  0.33346700  0.35159500  1
  H  H43  1  0.66653300  0.47655200  0.14840500  1
  H  H44  1  0.56375300  0.79741600  0.53321800  1
  H  H45  1  0.20258400  0.43624700  0.96678200  1
  H  H46  1  0.43624700  0.20258400  0.46678200  1
  H  H47  1  0.79741600  0.56375300  0.03321800  1
  H  H48  1  0.36670900  0.70772800  0.57053900  1
  H  H49  1  0.29227200  0.63329100  0.92946100  1
  H  H50  1  0.63329100  0.29227200  0.42946100  1
  H  H51  1  0.70772800  0.36670900  0.07053900  1
  C  C52  1  0.32275500  0.11992200  0.92528300  1
  C  C53  1  0.88007800  0.67724500  0.57471700  1
  C  C54  1  0.67724500  0.88007800  0.07471700  1
  C  C55  1  0.11992200  0.32275500  0.42528300  1
  C  C56  1  0.39113600  0.17025200  0.06032100  1
  C  C57  1  0.82974800  0.60886400  0.43967900  1
  C  C58  1  0.60886400  0.82974800  0.93967900  1
  C  C59  1  0.17025200  0.39113600  0.56032100  1
  C  C60  1  0.58367200  0.24484100  0.90492600  1
  C  C61  1  0.75515900  0.41632800  0.59507400  1
  C  C62  1  0.41632800  0.75515900  0.09507400  1
  C  C63  1  0.24484100  0.58367200  0.40492600  1
  C  C64  1  0.28812200  0.90785600  0.64283000  1
  C  C65  1  0.09214400  0.71187800  0.85717000  1
  C  C66  1  0.71187800  0.09214400  0.35717000  1
  C  C67  1  0.90785600  0.28812200  0.14283000  1
  C  C68  1  0.54289000  0.95331800  0.65920900  1
  C  C69  1  0.04668200  0.45711000  0.84079100  1
  C  C70  1  0.45711000  0.04668200  0.34079100  1
  C  C71  1  0.95331800  0.54289000  0.15920900  1
  C  C72  1  0.45964800  0.75511200  0.59307200  1
  C  C73  1  0.24488800  0.54035200  0.90692800  1
  C  C74  1  0.54035200  0.24488800  0.40692800  1
  C  C75  1  0.75511200  0.45964800  0.09307200  1
  N  N76  1  0.42852100  0.17524700  0.96218200  1
  N  N77  1  0.82475300  0.57147900  0.53781800  1
  N  N78  1  0.57147900  0.82475300  0.03781800  1
  N  N79  1  0.17524700  0.42852100  0.46218200  1
  N  N80  1  0.42549800  0.87662800  0.62963800  1
  N  N81  1  0.12337200  0.57450200  0.87036200  1
  N  N82  1  0.57450200  0.12337200  0.37036200  1
  N  N83  1  0.87662800  0.42549800  0.12963800  1
  O  O84  1  0.18485200  0.06094800  0.97556300  1
  O  O85  1  0.93905200  0.81514800  0.52443700  1
  O  O86  1  0.81514800  0.93905200  0.02443700  1
  O  O87  1  0.06094800  0.18485200  0.47556300  1
  O  O88  1  0.36311400  0.12670100  0.83631000  1
  O  O89  1  0.87329900  0.63688600  0.66369000  1
  O  O90  1  0.63688600  0.87329900  0.16369000  1
  O  O91  1  0.12670100  0.36311400  0.33631000  1
  O  O92  1  0.25612800  0.00790100  0.68119300  1
  O  O93  1  0.99209900  0.74387200  0.81880700  1
  O  O94  1  0.74387200  0.99209900  0.31880700  1
  O  O95  1  0.00790100  0.25612800  0.18119300  1
  O  O96  1  0.19185600  0.83139200  0.61252600  1
  O  O97  1  0.16860800  0.80814400  0.88747400  1
  O  O98  1  0.80814400  0.16860800  0.38747400  1
  O  O99  1  0.83139200  0.19185600  0.11252600  1
