# generated using pymatgen
data_NiH7C3NO7
_symmetry_space_group_name_H-M   'P 1'
_cell_length_a   7.71766300
_cell_length_b   7.86059400
_cell_length_c   12.97058100
_cell_angle_alpha   90.00000000
_cell_angle_beta   90.00000000
_cell_angle_gamma   90.00000000
_symmetry_Int_Tables_number   1
_chemical_formula_structural   NiH7C3NO7
_chemical_formula_sum   'Ni4 H28 C12 N4 O28'
_cell_volume   786.86568528
_cell_formula_units_Z   4
loop_
 _symmetry_equiv_pos_site_id
 _symmetry_equiv_pos_as_xyz
  1  'x, y, z'
loop_
 _atom_site_type_symbol
 _atom_site_label
 _atom_site_symmetry_multiplicity
 _atom_site_fract_x
 _atom_site_fract_y
 _atom_site_fract_z
 _atom_site_occupancy
  Ni  Ni0  1  0.45885000  0.99327900  0.41791300  1
  Ni  Ni1  1  0.04115000  0.00672100  0.91791300  1
  Ni  Ni2  1  0.95885000  0.50672100  0.58208700  1
  Ni  Ni3  1  0.54115000  0.49327900  0.08208700  1
  H  H4  1  0.42100700  0.68988800  0.26960100  1
  H  H5  1  0.07899300  0.31011200  0.76960100  1
  H  H6  1  0.92100700  0.81011200  0.73039900  1
  H  H7  1  0.57899300  0.18988800  0.23039900  1
  H  H8  1  0.63617000  0.29802100  0.53879300  1
  H  H9  1  0.86383000  0.70197900  0.03879300  1
  H  H10  1  0.13617000  0.20197900  0.46120700  1
  H  H11  1  0.36383000  0.79802100  0.96120700  1
  H  H12  1  0.77147600  0.77887500  0.46875500  1
  H  H13  1  0.72852400  0.22112500  0.96875500  1
  H  H14  1  0.27147600  0.72112500  0.53124500  1
  H  H15  1  0.22852400  0.27887500  0.03124500  1
  H  H16  1  0.82812900  0.09368600  0.32902100  1
  H  H17  1  0.67187100  0.90631400  0.82902100  1
  H  H18  1  0.32812900  0.40631400  0.67097900  1
  H  H19  1  0.17187100  0.59368600  0.17097900  1
  H  H20  1  0.85885400  0.85275900  0.24706500  1
  H  H21  1  0.64114600  0.14724100  0.74706500  1
  H  H22  1  0.35885400  0.64724100  0.75293500  1
  H  H23  1  0.14114600  0.35275900  0.25293500  1
  H  H24  1  0.06211700  0.87946100  0.30186600  1
  H  H25  1  0.43788300  0.12053900  0.80186600  1
  H  H26  1  0.56211700  0.62053900  0.69813400  1
  H  H27  1  0.93788300  0.37946100  0.19813400  1
  H  H28  1  0.02473200  0.93126700  0.17578800  1
  H  H29  1  0.47526800  0.06873300  0.67578800  1
  H  H30  1  0.52473200  0.56873300  0.82421200  1
  H  H31  1  0.97526800  0.43126700  0.32421200  1
  C  C32  1  0.55413700  0.73631200  0.25581400  1
  C  C33  1  0.94586300  0.26368800  0.75581400  1
  C  C34  1  0.05413700  0.76368800  0.74418600  1
  C  C35  1  0.44586300  0.23631200  0.24418600  1
  C  C36  1  0.72457300  0.26880600  0.47422300  1
  C  C37  1  0.77542700  0.73119400  0.97422300  1
  C  C38  1  0.22457300  0.23119400  0.52577700  1
  C  C39  1  0.27542700  0.76880600  0.02577700  1
  C  C40  1  0.68282900  0.75677000  0.53414400  1
  C  C41  1  0.81717100  0.24323000  0.03414400  1
  C  C42  1  0.18282900  0.74323000  0.46585600  1
  C  C43  1  0.31717100  0.25677000  0.96585600  1
  N  N44  1  0.97008200  0.92801900  0.24906200  1
  N  N45  1  0.52991800  0.07198100  0.74906200  1
  N  N46  1  0.47008200  0.57198100  0.75093800  1
  N  N47  1  0.02991800  0.42801900  0.25093800  1
  O  O48  1  0.60716900  0.86157400  0.30935100  1
  O  O49  1  0.89283100  0.13842600  0.80935100  1
  O  O50  1  0.10716900  0.63842600  0.69064900  1
  O  O51  1  0.39283100  0.36157400  0.19064900  1
  O  O52  1  0.64681100  0.66364500  0.18834400  1
  O  O53  1  0.85318900  0.33635500  0.68834400  1
  O  O54  1  0.14681100  0.83635500  0.81165600  1
  O  O55  1  0.35318900  0.16364500  0.31165600  1
  O  O56  1  0.68571300  0.14335500  0.41626200  1
  O  O57  1  0.81428700  0.85664500  0.91626200  1
  O  O58  1  0.18571300  0.35664500  0.58373800  1
  O  O59  1  0.31428700  0.64335500  0.08373800  1
  O  O60  1  0.85790200  0.36021700  0.46134900  1
  O  O61  1  0.64209800  0.63978300  0.96134900  1
  O  O62  1  0.35790200  0.13978300  0.53865100  1
  O  O63  1  0.14209800  0.86021700  0.03865100  1
  O  O64  1  0.54123800  0.83718000  0.53771200  1
  O  O65  1  0.95876200  0.16282000  0.03771200  1
  O  O66  1  0.04123800  0.66282000  0.46228800  1
  O  O67  1  0.45876200  0.33718000  0.96228800  1
  O  O68  1  0.73054800  0.64894000  0.60236900  1
  O  O69  1  0.76945200  0.35106000  0.10236900  1
  O  O70  1  0.23054800  0.85106000  0.39763100  1
  O  O71  1  0.26945200  0.14894000  0.89763100  1
  O  O72  1  0.92626100  0.09674900  0.27630300  1
  O  O73  1  0.57373900  0.90325100  0.77630300  1
  O  O74  1  0.42626100  0.40325100  0.72369700  1
  O  O75  1  0.07373900  0.59674900  0.22369700  1
