# generated using pymatgen
data_Pb(SeO3)2
_symmetry_space_group_name_H-M   'P 1'
_cell_length_a   5.48392400
_cell_length_b   6.44990700
_cell_length_c   15.08153000
_cell_angle_alpha   90.00000000
_cell_angle_beta   90.00000000
_cell_angle_gamma   90.00000000
_symmetry_Int_Tables_number   1
_chemical_formula_structural   Pb(SeO3)2
_chemical_formula_sum   'Pb4 Se8 O24'
_cell_volume   533.44577823
_cell_formula_units_Z   4
loop_
 _symmetry_equiv_pos_site_id
 _symmetry_equiv_pos_as_xyz
  1  'x, y, z'
loop_
 _atom_site_type_symbol
 _atom_site_label
 _atom_site_symmetry_multiplicity
 _atom_site_fract_x
 _atom_site_fract_y
 _atom_site_fract_z
 _atom_site_occupancy
  Pb  Pb0  1  0.75000000  0.19351100  0.50000000  1
  Pb  Pb1  1  0.25000000  0.30648900  0.00000000  1
  Pb  Pb2  1  0.25000000  0.80648900  0.50000000  1
  Pb  Pb3  1  0.75000000  0.69351100  0.00000000  1
  Se  Se4  1  0.25069400  0.27235300  0.65522700  1
  Se  Se5  1  0.75069400  0.22764700  0.84477300  1
  Se  Se6  1  0.74930600  0.22764700  0.15522700  1
  Se  Se7  1  0.24930600  0.27235300  0.34477300  1
  Se  Se8  1  0.74930600  0.72764700  0.34477300  1
  Se  Se9  1  0.24930600  0.77235300  0.15522700  1
  Se  Se10  1  0.25069400  0.77235300  0.84477300  1
  Se  Se11  1  0.75069400  0.72764700  0.65522700  1
  O  O12  1  0.09186000  0.09784000  0.57792600  1
  O  O13  1  0.59186000  0.40216000  0.92207400  1
  O  O14  1  0.90814000  0.40216000  0.07792600  1
  O  O15  1  0.40814000  0.09784000  0.42207400  1
  O  O16  1  0.90814000  0.90216000  0.42207400  1
  O  O17  1  0.40814000  0.59784000  0.07792600  1
  O  O18  1  0.09186000  0.59784000  0.92207400  1
  O  O19  1  0.59186000  0.90216000  0.57792600  1
  O  O20  1  0.48776900  0.37004200  0.58433900  1
  O  O21  1  0.98776900  0.12995800  0.91566100  1
  O  O22  1  0.51223100  0.12995800  0.08433900  1
  O  O23  1  0.01223100  0.37004200  0.41566100  1
  O  O24  1  0.51223100  0.62995800  0.41566100  1
  O  O25  1  0.01223100  0.87004200  0.08433900  1
  O  O26  1  0.48776900  0.87004200  0.91566100  1
  O  O27  1  0.98776900  0.62995800  0.58433900  1
  O  O28  1  0.37451900  0.11107200  0.72658500  1
  O  O29  1  0.87451900  0.38892800  0.77341500  1
  O  O30  1  0.62548100  0.38892800  0.22658500  1
  O  O31  1  0.12548100  0.11107200  0.27341500  1
  O  O32  1  0.62548100  0.88892800  0.27341500  1
  O  O33  1  0.12548100  0.61107200  0.22658500  1
  O  O34  1  0.37451900  0.61107200  0.77341500  1
  O  O35  1  0.87451900  0.88892800  0.72658500  1
