# generated using pymatgen
data_NaS2N(O2F)2
_symmetry_space_group_name_H-M   'P 1'
_cell_length_a   9.60141300
_cell_length_b   12.19042400
_cell_length_c   13.26099863
_cell_angle_alpha   90.00000000
_cell_angle_beta   127.04401126
_cell_angle_gamma   90.00000000
_symmetry_Int_Tables_number   1
_chemical_formula_structural   NaS2N(O2F)2
_chemical_formula_sum   'Na8 S16 N8 O32 F16'
_cell_volume   1238.87424011
_cell_formula_units_Z   8
loop_
 _symmetry_equiv_pos_site_id
 _symmetry_equiv_pos_as_xyz
  1  'x, y, z'
loop_
 _atom_site_type_symbol
 _atom_site_label
 _atom_site_symmetry_multiplicity
 _atom_site_fract_x
 _atom_site_fract_y
 _atom_site_fract_z
 _atom_site_occupancy
  Na  Na0  1  0.28911500  0.48813400  0.74693600  1
  Na  Na1  1  0.28911500  0.01186600  0.24693600  1
  Na  Na2  1  0.71088500  0.51186600  0.25306400  1
  Na  Na3  1  0.71088500  0.98813400  0.75306400  1
  Na  Na4  1  0.56400400  0.67071500  0.67050400  1
  Na  Na5  1  0.56400400  0.82928500  0.17050400  1
  Na  Na6  1  0.43599600  0.32928500  0.32949600  1
  Na  Na7  1  0.43599600  0.17071500  0.82949600  1
  S  S8  1  0.44980800  0.86464300  0.82535100  1
  S  S9  1  0.44980800  0.63535700  0.32535100  1
  S  S10  1  0.55019200  0.13535700  0.17464900  1
  S  S11  1  0.55019200  0.36464300  0.67464900  1
  S  S12  1  0.11751000  0.64615800  0.46046900  1
  S  S13  1  0.11751000  0.85384200  0.96046900  1
  S  S14  1  0.88249000  0.35384200  0.53953100  1
  S  S15  1  0.88249000  0.14615800  0.03953100  1
  S  S16  1  0.05637400  0.85412100  0.35174000  1
  S  S17  1  0.05637400  0.64587900  0.85174000  1
  S  S18  1  0.94362600  0.14587900  0.64826000  1
  S  S19  1  0.94362600  0.35412100  0.14826000  1
  S  S20  1  0.61358500  0.68135900  0.97531000  1
  S  S21  1  0.61358500  0.81864100  0.47531000  1
  S  S22  1  0.38641500  0.31864100  0.02469000  1
  S  S23  1  0.38641500  0.18135900  0.52469000  1
  N  N24  1  0.53194600  0.79992500  0.95363700  1
  N  N25  1  0.53194600  0.70007500  0.45363700  1
  N  N26  1  0.46805400  0.20007500  0.04636300  1
  N  N27  1  0.46805400  0.29992500  0.54636300  1
  N  N28  1  0.17672300  0.76408200  0.45521500  1
  N  N29  1  0.17672300  0.73591800  0.95521500  1
  N  N30  1  0.82327700  0.23591800  0.54478500  1
  N  N31  1  0.82327700  0.26408200  0.04478500  1
  O  O32  1  0.53303900  0.84543400  0.76522600  1
  O  O33  1  0.53303900  0.65456600  0.26522600  1
  O  O34  1  0.46696100  0.15456600  0.23477400  1
  O  O35  1  0.46696100  0.34543400  0.73477400  1
  O  O36  1  0.54361600  0.61600500  0.86331000  1
  O  O37  1  0.54361600  0.88399500  0.36331000  1
  O  O38  1  0.45638400  0.38399500  0.13669000  1
  O  O39  1  0.45638400  0.11600500  0.63669000  1
  O  O40  1  0.94140500  0.62983500  0.41819700  1
  O  O41  1  0.94140500  0.87016500  0.91819700  1
  O  O42  1  0.05859500  0.37016500  0.58180300  1
  O  O43  1  0.05859500  0.12983500  0.08180300  1
  O  O44  1  0.62953100  0.63329700  0.08068600  1
  O  O45  1  0.62953100  0.86670300  0.58068600  1
  O  O46  1  0.37046900  0.36670300  0.91931400  1
  O  O47  1  0.37046900  0.13329700  0.41931400  1
  O  O48  1  0.87320400  0.82908800  0.26663100  1
  O  O49  1  0.87320400  0.67091200  0.76663100  1
  O  O50  1  0.12679600  0.17091200  0.73336900  1
  O  O51  1  0.12679600  0.32908800  0.23336900  1
  O  O52  1  0.14190000  0.89858500  0.30194600  1
  O  O53  1  0.14190000  0.60141500  0.80194600  1
  O  O54  1  0.85810000  0.10141500  0.69805400  1
  O  O55  1  0.85810000  0.39858500  0.19805400  1
  O  O56  1  0.41483900  0.97498200  0.84038600  1
  O  O57  1  0.41483900  0.52501800  0.34038600  1
  O  O58  1  0.58516100  0.02501800  0.15961400  1
  O  O59  1  0.58516100  0.47498200  0.65961400  1
  O  O60  1  0.25850400  0.59867500  0.57990800  1
  O  O61  1  0.25850400  0.90132500  0.07990800  1
  O  O62  1  0.74149600  0.40132500  0.42009200  1
  O  O63  1  0.74149600  0.09867500  0.92009200  1
  F  F64  1  0.26212900  0.80870800  0.73142400  1
  F  F65  1  0.26212900  0.69129200  0.23142400  1
  F  F66  1  0.73787100  0.19129200  0.26857600  1
  F  F67  1  0.73787100  0.30870800  0.76857600  1
  F  F68  1  0.12324700  0.57971000  0.35800600  1
  F  F69  1  0.12324700  0.92029000  0.85800600  1
  F  F70  1  0.87675300  0.42029000  0.64199400  1
  F  F71  1  0.87675300  0.07971000  0.14199400  1
  F  F72  1  0.07207700  0.94923300  0.44112600  1
  F  F73  1  0.07207700  0.55076700  0.94112600  1
  F  F74  1  0.92792300  0.05076700  0.55887400  1
  F  F75  1  0.92792300  0.44923300  0.05887400  1
  F  F76  1  0.80918600  0.70621600  0.02594500  1
  F  F77  1  0.80918600  0.79378400  0.52594500  1
  F  F78  1  0.19081400  0.29378400  0.97405500  1
  F  F79  1  0.19081400  0.20621600  0.47405500  1
