# generated using pymatgen
data_BaU2Se5
_symmetry_space_group_name_H-M   'P 1'
_cell_length_a   7.86316700
_cell_length_b   8.28444900
_cell_length_c   13.37583400
_cell_angle_alpha   90.00000000
_cell_angle_beta   90.00000000
_cell_angle_gamma   90.00000000
_symmetry_Int_Tables_number   1
_chemical_formula_structural   BaU2Se5
_chemical_formula_sum   'Ba4 U8 Se20'
_cell_volume   871.32865855
_cell_formula_units_Z   4
loop_
 _symmetry_equiv_pos_site_id
 _symmetry_equiv_pos_as_xyz
  1  'x, y, z'
loop_
 _atom_site_type_symbol
 _atom_site_label
 _atom_site_symmetry_multiplicity
 _atom_site_fract_x
 _atom_site_fract_y
 _atom_site_fract_z
 _atom_site_occupancy
  Ba  Ba0  1  0.41450900  0.75000000  0.00502700  1
  Ba  Ba1  1  0.08549100  0.75000000  0.50502700  1
  Ba  Ba2  1  0.58549100  0.25000000  0.99497300  1
  Ba  Ba3  1  0.91450900  0.25000000  0.49497300  1
  U  U4  1  0.99329500  0.99963300  0.18295200  1
  U  U5  1  0.50670500  0.50036700  0.68295200  1
  U  U6  1  0.00670500  0.49963300  0.81704800  1
  U  U7  1  0.49329500  0.00036700  0.31704800  1
  U  U8  1  0.00670500  0.00036700  0.81704800  1
  U  U9  1  0.49329500  0.49963300  0.31704800  1
  U  U10  1  0.99329500  0.50036700  0.18295200  1
  U  U11  1  0.50670500  0.99963300  0.68295200  1
  Se  Se12  1  0.66764900  0.55094000  0.87026400  1
  Se  Se13  1  0.83235100  0.94906000  0.37026400  1
  Se  Se14  1  0.33235100  0.05094000  0.12973600  1
  Se  Se15  1  0.16764900  0.44906000  0.62973600  1
  Se  Se16  1  0.33235100  0.44906000  0.12973600  1
  Se  Se17  1  0.16764900  0.05094000  0.62973600  1
  Se  Se18  1  0.66764900  0.94906000  0.87026400  1
  Se  Se19  1  0.83235100  0.55094000  0.37026400  1
  Se  Se20  1  0.68316400  0.75000000  0.18486000  1
  Se  Se21  1  0.81683600  0.75000000  0.68486000  1
  Se  Se22  1  0.31683600  0.25000000  0.81514000  1
  Se  Se23  1  0.18316400  0.25000000  0.31514000  1
  Se  Se24  1  0.00700400  0.75000000  0.00704500  1
  Se  Se25  1  0.49299600  0.75000000  0.50704500  1
  Se  Se26  1  0.99299600  0.25000000  0.99295500  1
  Se  Se27  1  0.50700400  0.25000000  0.49295500  1
  Se  Se28  1  0.28209400  0.75000000  0.78033400  1
  Se  Se29  1  0.21790600  0.75000000  0.28033400  1
  Se  Se30  1  0.71790600  0.25000000  0.21966600  1
  Se  Se31  1  0.78209400  0.25000000  0.71966600  1
