# generated using pymatgen
data_TiAs2Pb2O9
_symmetry_space_group_name_H-M   'P 1'
_cell_length_a   16.75751000
_cell_length_b   7.01202900
_cell_length_c   7.42088876
_cell_angle_alpha   65.37450944
_cell_angle_beta   90.00000000
_cell_angle_gamma   90.00000000
_symmetry_Int_Tables_number   1
_chemical_formula_structural   TiAs2Pb2O9
_chemical_formula_sum   'Ti4 As8 Pb8 O36'
_cell_volume   792.67885686
_cell_formula_units_Z   4
loop_
 _symmetry_equiv_pos_site_id
 _symmetry_equiv_pos_as_xyz
  1  'x, y, z'
loop_
 _atom_site_type_symbol
 _atom_site_label
 _atom_site_symmetry_multiplicity
 _atom_site_fract_x
 _atom_site_fract_y
 _atom_site_fract_z
 _atom_site_occupancy
  Ti  Ti0  1  0.25525400  0.24352900  0.28017700  1
  Ti  Ti1  1  0.75525400  0.75647100  0.21982300  1
  Ti  Ti2  1  0.74474600  0.75647100  0.71982300  1
  Ti  Ti3  1  0.24474600  0.24352900  0.78017700  1
  As  As4  1  0.33822300  0.74457600  0.51884600  1
  As  As5  1  0.83822300  0.25542400  0.98115400  1
  As  As6  1  0.66177700  0.25542400  0.48115400  1
  As  As7  1  0.16177700  0.74457600  0.01884600  1
  As  As8  1  0.57808500  0.76083700  0.98829300  1
  As  As9  1  0.07808500  0.23916300  0.51170700  1
  As  As10  1  0.42191500  0.23916300  0.01170700  1
  As  As11  1  0.92191500  0.76083700  0.48829300  1
  Pb  Pb12  1  0.37956000  0.73697400  0.04607800  1
  Pb  Pb13  1  0.87956000  0.26302600  0.45392200  1
  Pb  Pb14  1  0.62044000  0.26302600  0.95392200  1
  Pb  Pb15  1  0.12044000  0.73697400  0.54607800  1
  Pb  Pb16  1  0.44548400  0.22915900  0.53763900  1
  Pb  Pb17  1  0.94548400  0.77084100  0.96236100  1
  Pb  Pb18  1  0.55451600  0.77084100  0.46236100  1
  Pb  Pb19  1  0.05451600  0.22915900  0.03763900  1
  O  O20  1  0.28106600  0.94353800  0.34101900  1
  O  O21  1  0.78106600  0.05646200  0.15898100  1
  O  O22  1  0.71893400  0.05646200  0.65898100  1
  O  O23  1  0.21893400  0.94353800  0.84101900  1
  O  O24  1  0.39968300  0.84664700  0.64264800  1
  O  O25  1  0.89968300  0.15335300  0.85735200  1
  O  O26  1  0.60031700  0.15335300  0.35735200  1
  O  O27  1  0.10031700  0.84664700  0.14264800  1
  O  O28  1  0.27014800  0.56223800  0.67259100  1
  O  O29  1  0.77014800  0.43776200  0.82740900  1
  O  O30  1  0.72985200  0.43776200  0.32740900  1
  O  O31  1  0.22985200  0.56223800  0.17259100  1
  O  O32  1  0.39684800  0.62205000  0.40679800  1
  O  O33  1  0.89684800  0.37795000  0.09320200  1
  O  O34  1  0.60315200  0.37795000  0.59320200  1
  O  O35  1  0.10315200  0.62205000  0.90679800  1
  O  O36  1  0.63710600  0.65168900  0.86148800  1
  O  O37  1  0.13710600  0.34831100  0.63851200  1
  O  O38  1  0.36289400  0.34831100  0.13851200  1
  O  O39  1  0.86289400  0.65168900  0.36148800  1
  O  O40  1  0.51350700  0.58606300  0.15132800  1
  O  O41  1  0.01350700  0.41393700  0.34867200  1
  O  O42  1  0.48649300  0.41393700  0.84867200  1
  O  O43  1  0.98649300  0.58606300  0.65132800  1
  O  O44  1  0.64038700  0.83306300  0.14109100  1
  O  O45  1  0.14038700  0.16693700  0.35890900  1
  O  O46  1  0.35961300  0.16693700  0.85890900  1
  O  O47  1  0.85961300  0.83306300  0.64109100  1
  O  O48  1  0.53321700  0.97966600  0.82122900  1
  O  O49  1  0.03321700  0.02033400  0.67877100  1
  O  O50  1  0.46678300  0.02033400  0.17877100  1
  O  O51  1  0.96678300  0.97966600  0.32122900  1
  O  O52  1  0.28824400  0.24121600  0.50498800  1
  O  O53  1  0.78824400  0.75878400  0.99501200  1
  O  O54  1  0.71175600  0.75878400  0.49501200  1
  O  O55  1  0.21175600  0.24121600  0.00498800  1
