# generated using pymatgen
data_Er5Bi3
_symmetry_space_group_name_H-M   'P 1'
_cell_length_a   8.26119800
_cell_length_b   9.39859600
_cell_length_c   11.99975800
_cell_angle_alpha   90.00000000
_cell_angle_beta   90.00000000
_cell_angle_gamma   90.00000000
_symmetry_Int_Tables_number   1
_chemical_formula_structural   Er5Bi3
_chemical_formula_sum   'Er20 Bi12'
_cell_volume   931.70515997
_cell_formula_units_Z   4
loop_
 _symmetry_equiv_pos_site_id
 _symmetry_equiv_pos_as_xyz
  1  'x, y, z'
loop_
 _atom_site_type_symbol
 _atom_site_label
 _atom_site_symmetry_multiplicity
 _atom_site_fract_x
 _atom_site_fract_y
 _atom_site_fract_z
 _atom_site_occupancy
  Er  Er0  1  0.80448800  0.55907600  0.06850000  1
  Er  Er1  1  0.69551200  0.94092400  0.56850000  1
  Er  Er2  1  0.19551200  0.05907600  0.93150000  1
  Er  Er3  1  0.30448800  0.44092400  0.43150000  1
  Er  Er4  1  0.19551200  0.44092400  0.93150000  1
  Er  Er5  1  0.30448800  0.05907600  0.43150000  1
  Er  Er6  1  0.80448800  0.94092400  0.06850000  1
  Er  Er7  1  0.69551200  0.55907600  0.56850000  1
  Er  Er8  1  0.17728000  0.75000000  0.23146300  1
  Er  Er9  1  0.32272000  0.75000000  0.73146300  1
  Er  Er10  1  0.82272000  0.25000000  0.76853700  1
  Er  Er11  1  0.67728000  0.25000000  0.26853700  1
  Er  Er12  1  0.47378500  0.75000000  0.00614000  1
  Er  Er13  1  0.02621500  0.75000000  0.50614000  1
  Er  Er14  1  0.52621500  0.25000000  0.99386000  1
  Er  Er15  1  0.97378500  0.25000000  0.49386000  1
  Er  Er16  1  0.65438700  0.75000000  0.28959400  1
  Er  Er17  1  0.84561300  0.75000000  0.78959400  1
  Er  Er18  1  0.34561300  0.25000000  0.71040600  1
  Er  Er19  1  0.15438700  0.25000000  0.21040600  1
  Bi  Bi20  1  0.40840100  0.75000000  0.47917400  1
  Bi  Bi21  1  0.09159900  0.75000000  0.97917400  1
  Bi  Bi22  1  0.59159900  0.25000000  0.52082600  1
  Bi  Bi23  1  0.90840100  0.25000000  0.02082600  1
  Bi  Bi24  1  0.93271900  0.51072200  0.32600300  1
  Bi  Bi25  1  0.56728100  0.98927800  0.82600300  1
  Bi  Bi26  1  0.06728100  0.01072200  0.67399700  1
  Bi  Bi27  1  0.43271900  0.48927800  0.17399700  1
  Bi  Bi28  1  0.06728100  0.48927800  0.67399700  1
  Bi  Bi29  1  0.43271900  0.01072200  0.17399700  1
  Bi  Bi30  1  0.93271900  0.98927800  0.32600300  1
  Bi  Bi31  1  0.56728100  0.51072200  0.82600300  1
