# generated using pymatgen
data_SnC4N3O7
_symmetry_space_group_name_H-M   'P 1'
_cell_length_a   8.29808500
_cell_length_b   12.14576675
_cell_length_c   12.23413584
_cell_angle_alpha   83.10500985
_cell_angle_beta   88.88925044
_cell_angle_gamma   86.71743220
_symmetry_Int_Tables_number   1
_chemical_formula_structural   SnC4N3O7
_chemical_formula_sum   'Sn4 C16 N12 O28'
_cell_volume   1222.01369961
_cell_formula_units_Z   4
loop_
 _symmetry_equiv_pos_site_id
 _symmetry_equiv_pos_as_xyz
  1  'x, y, z'
loop_
 _atom_site_type_symbol
 _atom_site_label
 _atom_site_symmetry_multiplicity
 _atom_site_fract_x
 _atom_site_fract_y
 _atom_site_fract_z
 _atom_site_occupancy
  Sn  Sn0  1  0.30653100  0.94359800  0.31113800  1
  Sn  Sn1  1  0.69346900  0.05640200  0.68886200  1
  Sn  Sn2  1  0.68511000  0.05877300  0.18829800  1
  Sn  Sn3  1  0.31489000  0.94122700  0.81170200  1
  C  C4  1  0.02297100  0.19998200  0.56405600  1
  C  C5  1  0.97702900  0.80001800  0.43594400  1
  C  C6  1  0.53792800  0.04640100  0.45967700  1
  C  C7  1  0.46207200  0.95359900  0.54032300  1
  C  C8  1  0.98986200  0.27355600  0.29196900  1
  C  C9  1  0.01013800  0.72644400  0.70803100  1
  C  C10  1  0.35563300  0.40065100  0.20653500  1
  C  C11  1  0.64436700  0.59934900  0.79346500  1
  C  C12  1  0.42041900  0.00736400  0.03395700  1
  C  C13  1  0.57958100  0.99263600  0.96604300  1
  C  C14  1  0.46956500  0.34718900  0.94023900  1
  C  C15  1  0.53043500  0.65281100  0.05976100  1
  C  C16  1  0.33215600  0.42417400  0.56947400  1
  C  C17  1  0.66784400  0.57582600  0.43052600  1
  C  C18  1  0.95658700  0.33371900  0.99030200  1
  C  C19  1  0.04341300  0.66628100  0.00969800  1
  N  N20  1  0.27523400  0.43720100  0.45578600  1
  N  N21  1  0.72476600  0.56279900  0.54421400  1
  N  N22  1  0.34551600  0.34500000  0.48920500  1
  N  N23  1  0.65448400  0.65500000  0.51079500  1
  N  N24  1  0.35259000  0.45586100  0.65828900  1
  N  N25  1  0.64741000  0.54413900  0.34171100  1
  N  N26  1  0.90434600  0.38297300  0.06094700  1
  N  N27  1  0.09565400  0.61702700  0.93905300  1
  N  N28  1  0.01071300  0.29026800  0.89822700  1
  N  N29  1  0.98928700  0.70973200  0.10177300  1
  N  N30  1  0.05728700  0.19701100  0.88779200  1
  N  N31  1  0.94271300  0.80298900  0.11220800  1
  O  O32  1  0.08424000  0.12667600  0.52063200  1
  O  O33  1  0.91576000  0.87332400  0.47936800  1
  O  O34  1  0.47917200  0.06446400  0.36203000  1
  O  O35  1  0.52082800  0.93553600  0.63797000  1
  O  O36  1  0.07362300  0.21282300  0.24483100  1
  O  O37  1  0.92637700  0.78717700  0.75516900  1
  O  O38  1  0.34998000  0.90240100  0.50631300  1
  O  O39  1  0.65002000  0.09759900  0.49368700  1
  O  O40  1  0.44327500  0.32233400  0.23046200  1
  O  O41  1  0.55672500  0.67766600  0.76953800  1
  O  O42  1  0.43131400  0.04983100  0.12476100  1
  O  O43  1  0.56868600  0.95016900  0.87523900  1
  O  O44  1  0.56359500  0.27277200  0.96546900  1
  O  O45  1  0.43640500  0.72722800  0.03453100  1
  O  O46  1  0.70781800  0.02185500  0.00349000  1
  O  O47  1  0.29218200  0.97814500  0.99651000  1
  O  O48  1  0.90838900  0.33312300  0.34145400  1
  O  O49  1  0.09161100  0.66687700  0.65854600  1
  O  O50  1  0.96038500  0.27368800  0.60620000  1
  O  O51  1  0.03961500  0.72631200  0.39380000  1
  O  O52  1  0.26589200  0.47801500  0.18260900  1
  O  O53  1  0.73410800  0.52198500  0.81739100  1
  O  O54  1  0.37488600  0.42181500  0.91728100  1
  O  O55  1  0.62511400  0.57818500  0.08271900  1
  O  O56  1  0.49769500  0.15213900  0.73712600  1
  O  O57  1  0.50230500  0.84786100  0.26287400  1
  O  O58  1  0.33627000  0.10637900  0.74615200  1
  O  O59  1  0.66373000  0.89362100  0.25384800  1
