# generated using pymatgen
data_RbYbS2O9
_symmetry_space_group_name_H-M   'P 1'
_cell_length_a   8.86353500
_cell_length_b   10.23471100
_cell_length_c   10.37731623
_cell_angle_alpha   61.44253218
_cell_angle_beta   90.00000000
_cell_angle_gamma   90.00000000
_symmetry_Int_Tables_number   1
_chemical_formula_structural   RbYbS2O9
_chemical_formula_sum   'Rb4 Yb4 S8 O36'
_cell_volume   826.85491130
_cell_formula_units_Z   4
loop_
 _symmetry_equiv_pos_site_id
 _symmetry_equiv_pos_as_xyz
  1  'x, y, z'
loop_
 _atom_site_type_symbol
 _atom_site_label
 _atom_site_symmetry_multiplicity
 _atom_site_fract_x
 _atom_site_fract_y
 _atom_site_fract_z
 _atom_site_occupancy
  Rb  Rb0  1  0.17916700  0.32006400  0.21748900  1
  Rb  Rb1  1  0.67916700  0.17993600  0.78251100  1
  Rb  Rb2  1  0.82083300  0.67993600  0.78251100  1
  Rb  Rb3  1  0.32083300  0.82006400  0.21748900  1
  Yb  Yb4  1  0.61334800  0.48077400  0.24198300  1
  Yb  Yb5  1  0.11334800  0.01922600  0.75801700  1
  Yb  Yb6  1  0.38665200  0.51922600  0.75801700  1
  Yb  Yb7  1  0.88665200  0.98077400  0.24198300  1
  S  S8  1  0.62671200  0.31125900  0.06816500  1
  S  S9  1  0.12671200  0.18874100  0.93183500  1
  S  S10  1  0.37328800  0.68874100  0.93183500  1
  S  S11  1  0.87328800  0.81125900  0.06816500  1
  S  S12  1  0.81203500  0.12480000  0.47659600  1
  S  S13  1  0.31203500  0.37520000  0.52340400  1
  S  S14  1  0.18796500  0.87520000  0.52340400  1
  S  S15  1  0.68796500  0.62480000  0.47659600  1
  O  O16  1  0.50221600  0.30380300  0.16653700  1
  O  O17  1  0.00221600  0.19619700  0.83346300  1
  O  O18  1  0.49778400  0.69619700  0.83346300  1
  O  O19  1  0.99778400  0.80380300  0.16653700  1
  O  O20  1  0.57108600  0.35941900  0.91677500  1
  O  O21  1  0.07108600  0.14058100  0.08322500  1
  O  O22  1  0.42891400  0.64058100  0.08322500  1
  O  O23  1  0.92891400  0.85941900  0.91677500  1
  O  O24  1  0.69518500  0.15899400  0.12001000  1
  O  O25  1  0.19518500  0.34100600  0.87999000  1
  O  O26  1  0.30481500  0.84100600  0.87999000  1
  O  O27  1  0.80481500  0.65899400  0.12001000  1
  O  O28  1  0.74145500  0.41635700  0.06888800  1
  O  O29  1  0.24145500  0.08364300  0.93111200  1
  O  O30  1  0.25854500  0.58364300  0.93111200  1
  O  O31  1  0.75854500  0.91635700  0.06888800  1
  O  O32  1  0.89514200  0.10874100  0.60637200  1
  O  O33  1  0.39514200  0.39125900  0.39362800  1
  O  O34  1  0.10485800  0.89125900  0.39362800  1
  O  O35  1  0.60485800  0.60874100  0.60637200  1
  O  O36  1  0.71241700  0.26044800  0.42231400  1
  O  O37  1  0.21241700  0.23955200  0.57768600  1
  O  O38  1  0.28758300  0.73955200  0.57768600  1
  O  O39  1  0.78758300  0.76044800  0.42231400  1
  O  O40  1  0.91187000  0.13470300  0.35902200  1
  O  O41  1  0.41187000  0.36529700  0.64097800  1
  O  O42  1  0.08813000  0.86529700  0.64097800  1
  O  O43  1  0.58813000  0.63470300  0.35902200  1
  O  O44  1  0.70700600  0.99373400  0.52553700  1
  O  O45  1  0.20700600  0.50626600  0.47446300  1
  O  O46  1  0.29299400  0.00626600  0.47446300  1
  O  O47  1  0.79299400  0.49373400  0.52553700  1
  O  O48  1  0.87847500  0.45852000  0.34562900  1
  O  O49  1  0.37847500  0.04148000  0.65437100  1
  O  O50  1  0.12152500  0.54148000  0.65437100  1
  O  O51  1  0.62152500  0.95852000  0.34562900  1
