# generated using pymatgen
data_PrTmS3
_symmetry_space_group_name_H-M   'P 1'
_cell_length_a   3.97203400
_cell_length_b   11.04386700
_cell_length_c   21.58060732
_cell_angle_alpha   78.45363936
_cell_angle_beta   90.00000000
_cell_angle_gamma   90.00000000
_symmetry_Int_Tables_number   1
_chemical_formula_structural   PrTmS3
_chemical_formula_sum   'Pr8 Tm8 S24'
_cell_volume   927.51053586
_cell_formula_units_Z   8
loop_
 _symmetry_equiv_pos_site_id
 _symmetry_equiv_pos_as_xyz
  1  'x, y, z'
loop_
 _atom_site_type_symbol
 _atom_site_label
 _atom_site_symmetry_multiplicity
 _atom_site_fract_x
 _atom_site_fract_y
 _atom_site_fract_z
 _atom_site_occupancy
  Pr  Pr0  1  0.25000000  0.30272300  0.76501000  1
  Pr  Pr1  1  0.75000000  0.69727700  0.23499000  1
  Pr  Pr2  1  0.25000000  0.90836900  0.86325900  1
  Pr  Pr3  1  0.75000000  0.09163100  0.13674100  1
  Pr  Pr4  1  0.25000000  0.69131700  0.73266100  1
  Pr  Pr5  1  0.75000000  0.30868300  0.26733900  1
  Pr  Pr6  1  0.25000000  0.79844700  0.53677000  1
  Pr  Pr7  1  0.75000000  0.20155300  0.46323000  1
  Tm  Tm8  1  0.25000000  0.55286100  0.41756400  1
  Tm  Tm9  1  0.75000000  0.44713900  0.58243600  1
  Tm  Tm10  1  0.25000000  0.96970700  0.35167500  1
  Tm  Tm11  1  0.75000000  0.03029300  0.64832500  1
  Tm  Tm12  1  0.25000000  0.82048500  0.04673800  1
  Tm  Tm13  1  0.75000000  0.17951500  0.95326200  1
  Tm  Tm14  1  0.25000000  0.47749300  0.08790900  1
  Tm  Tm15  1  0.75000000  0.52250700  0.91209100  1
  S  S16  1  0.25000000  0.08523900  0.03676300  1
  S  S17  1  0.75000000  0.91476100  0.96323700  1
  S  S18  1  0.25000000  0.20421400  0.36489200  1
  S  S19  1  0.75000000  0.79578600  0.63510800  1
  S  S20  1  0.25000000  0.74547600  0.32460300  1
  S  S21  1  0.75000000  0.25452400  0.67539700  1
  S  S22  1  0.25000000  0.63563300  0.96375800  1
  S  S23  1  0.75000000  0.36436700  0.03624200  1
  S  S24  1  0.25000000  0.50591200  0.22052100  1
  S  S25  1  0.75000000  0.49408800  0.77947900  1
  S  S26  1  0.25000000  0.25312900  0.17385200  1
  S  S27  1  0.75000000  0.74687100  0.82614800  1
  S  S28  1  0.25000000  0.87559700  0.16355800  1
  S  S29  1  0.75000000  0.12440300  0.83644200  1
  S  S30  1  0.25000000  0.35522500  0.51430300  1
  S  S31  1  0.75000000  0.64477500  0.48569700  1
  S  S32  1  0.25000000  0.05846600  0.55533800  1
  S  S33  1  0.75000000  0.94153400  0.44466200  1
  S  S34  1  0.25000000  0.96340000  0.72830900  1
  S  S35  1  0.75000000  0.03660000  0.27169100  1
  S  S36  1  0.25000000  0.54640400  0.63320100  1
  S  S37  1  0.75000000  0.45359600  0.36679900  1
  S  S38  1  0.25000000  0.34191100  0.90064400  1
  S  S39  1  0.75000000  0.65808900  0.09935600  1
