# generated using pymatgen
data_H16S(N3O5)2
_symmetry_space_group_name_H-M   'P 1'
_cell_length_a   11.37496500
_cell_length_b   10.44367300
_cell_length_c   10.50139800
_cell_angle_alpha   73.71191331
_cell_angle_beta   90.00000000
_cell_angle_gamma   90.00000000
_symmetry_Int_Tables_number   1
_chemical_formula_structural   H16S(N3O5)2
_chemical_formula_sum   'H64 S4 N24 O40'
_cell_volume   1197.45716997
_cell_formula_units_Z   4
loop_
 _symmetry_equiv_pos_site_id
 _symmetry_equiv_pos_as_xyz
  1  'x, y, z'
loop_
 _atom_site_type_symbol
 _atom_site_label
 _atom_site_symmetry_multiplicity
 _atom_site_fract_x
 _atom_site_fract_y
 _atom_site_fract_z
 _atom_site_occupancy
  H  H0  1  0.59549400  0.89493500  0.98401200  1
  H  H1  1  0.09549400  0.60506500  0.01598800  1
  H  H2  1  0.40450600  0.10506500  0.01598800  1
  H  H3  1  0.90450600  0.39493500  0.98401200  1
  H  H4  1  0.56313800  0.81912600  0.14096700  1
  H  H5  1  0.06313800  0.68087400  0.85903300  1
  H  H6  1  0.43686200  0.18087400  0.85903300  1
  H  H7  1  0.93686200  0.31912600  0.14096700  1
  H  H8  1  0.61900600  0.97453400  0.10255700  1
  H  H9  1  0.11900600  0.52546600  0.89744300  1
  H  H10  1  0.38099400  0.02546600  0.89744300  1
  H  H11  1  0.88099400  0.47453400  0.10255700  1
  H  H12  1  0.70643000  0.84518900  0.09584200  1
  H  H13  1  0.20643000  0.65481100  0.90415800  1
  H  H14  1  0.29357000  0.15481100  0.90415800  1
  H  H15  1  0.79357000  0.34518900  0.09584200  1
  H  H16  1  0.70506500  0.00022800  0.64665800  1
  H  H17  1  0.20506500  0.49977200  0.35334200  1
  H  H18  1  0.29493500  0.99977200  0.35334200  1
  H  H19  1  0.79493500  0.50022800  0.64665800  1
  H  H20  1  0.62077900  0.12991700  0.64599400  1
  H  H21  1  0.12077900  0.37008300  0.35400600  1
  H  H22  1  0.37922100  0.87008300  0.35400600  1
  H  H23  1  0.87922100  0.62991700  0.64599400  1
  H  H24  1  0.56100400  0.97750700  0.68320600  1
  H  H25  1  0.06100400  0.52249300  0.31679400  1
  H  H26  1  0.43899600  0.02249300  0.31679400  1
  H  H27  1  0.93899600  0.47750700  0.68320600  1
  H  H28  1  0.60816800  0.05844300  0.52224900  1
  H  H29  1  0.10816800  0.44155700  0.47775100  1
  H  H30  1  0.39183200  0.94155700  0.47775100  1
  H  H31  1  0.89183200  0.55844300  0.52224900  1
  H  H32  1  0.67567600  0.52725200  0.29953100  1
  H  H33  1  0.17567600  0.97274800  0.70046900  1
  H  H34  1  0.32432400  0.47274800  0.70046900  1
  H  H35  1  0.82432400  0.02725200  0.29953100  1
  H  H36  1  0.55450300  0.47824300  0.39869700  1
  H  H37  1  0.05450300  0.02175700  0.60130300  1
  H  H38  1  0.44549700  0.52175700  0.60130300  1
  H  H39  1  0.94549700  0.97824300  0.39869700  1
  H  H40  1  0.69015800  0.41642700  0.45216100  1
  H  H41  1  0.19015800  0.08357300  0.54783900  1
  H  H42  1  0.30984200  0.58357300  0.54783900  1
  H  H43  1  0.80984200  0.91642700  0.45216100  1
  H  H44  1  0.62228800  0.37124300  0.33120800  1
  H  H45  1  0.12228800  0.12875700  0.66879200  1
  H  H46  1  0.37771200  0.62875700  0.66879200  1
  H  H47  1  0.87771200  0.87124300  0.33120800  1
  H  H48  1  0.81262600  0.17832700  0.85403300  1
  H  H49  1  0.31262600  0.32167300  0.14596700  1
  H  H50  1  0.18737400  0.82167300  0.14596700  1
  H  H51  1  0.68737400  0.67832700  0.85403300  1
  H  H52  1  0.86224700  0.02088600  0.87919000  1
  H  H53  1  0.36224700  0.47911400  0.12081000  1
  H  H54  1  0.13775300  0.97911400  0.12081000  1
  H  H55  1  0.63775300  0.52088600  0.87919000  1
  H  H56  1  0.95785600  0.14146000  0.89202300  1
  H  H57  1  0.45785600  0.35854000  0.10797700  1
  H  H58  1  0.04214400  0.85854000  0.10797700  1
  H  H59  1  0.54214400  0.64146000  0.89202300  1
  H  H60  1  0.84953100  0.08946600  0.00621700  1
  H  H61  1  0.34953100  0.41053400  0.99378300  1
  H  H62  1  0.15046900  0.91053400  0.99378300  1
  H  H63  1  0.65046900  0.58946600  0.00621700  1
  S  S64  1  0.62231400  0.17862400  0.20541300  1
  S  S65  1  0.12231400  0.32137600  0.79458700  1
  S  S66  1  0.37768600  0.82137600  0.79458700  1
  S  S67  1  0.87768600  0.67862400  0.20541300  1
  N  N68  1  0.62218400  0.88397600  0.08058300  1
  N  N69  1  0.12218400  0.61602400  0.91941700  1
  N  N70  1  0.37781600  0.11602400  0.91941700  1
  N  N71  1  0.87781600  0.38397600  0.08058300  1
  N  N72  1  0.62263900  0.04034200  0.62343500  1
  N  N73  1  0.12263900  0.45965800  0.37656500  1
  N  N74  1  0.37736100  0.95965800  0.37656500  1
  N  N75  1  0.87736100  0.54034200  0.62343500  1
  N  N76  1  0.63504100  0.44991500  0.37110000  1
  N  N77  1  0.13504100  0.05008500  0.62890000  1
  N  N78  1  0.36495900  0.55008500  0.62890000  1
  N  N79  1  0.86495900  0.94991500  0.37110000  1
  N  N80  1  0.87121200  0.10784700  0.90757700  1
  N  N81  1  0.37121200  0.39215300  0.09242300  1
  N  N82  1  0.12878800  0.89215300  0.09242300  1
  N  N83  1  0.62878800  0.60784700  0.90757700  1
  N  N84  1  0.87721900  0.80382000  0.83433300  1
  N  N85  1  0.37721900  0.69618000  0.16566700  1
  N  N86  1  0.12278100  0.19618000  0.16566700  1
  N  N87  1  0.62278100  0.30382000  0.83433300  1
  N  N88  1  0.63525900  0.71829500  0.51951200  1
  N  N89  1  0.13525900  0.78170500  0.48048800  1
  N  N90  1  0.36474100  0.28170500  0.48048800  1
  N  N91  1  0.86474100  0.21829500  0.51951200  1
  O  O92  1  0.61844400  0.32563200  0.13775800  1
  O  O93  1  0.11844400  0.17436800  0.86224200  1
  O  O94  1  0.38155600  0.67436800  0.86224200  1
  O  O95  1  0.88155600  0.82563200  0.13775800  1
  O  O96  1  0.73158700  0.12084800  0.16444300  1
  O  O97  1  0.23158700  0.37915200  0.83555700  1
  O  O98  1  0.26841300  0.87915200  0.83555700  1
  O  O99  1  0.76841300  0.62084800  0.16444300  1
  O  O100  1  0.51715800  0.11255200  0.16509000  1
  O  O101  1  0.01715800  0.38744800  0.83491000  1
  O  O102  1  0.48284200  0.88744800  0.83491000  1
  O  O103  1  0.98284200  0.61255200  0.16509000  1
  O  O104  1  0.62092800  0.15818700  0.35143300  1
  O  O105  1  0.12092800  0.34181300  0.64856700  1
  O  O106  1  0.37907200  0.84181300  0.64856700  1
  O  O107  1  0.87907200  0.65818700  0.35143300  1
  O  O108  1  0.78042600  0.86376000  0.83780900  1
  O  O109  1  0.28042600  0.63624000  0.16219100  1
  O  O110  1  0.21957400  0.13624000  0.16219100  1
  O  O111  1  0.71957400  0.36376000  0.83780900  1
  O  O112  1  0.97365100  0.86336500  0.83573500  1
  O  O113  1  0.47365100  0.63663500  0.16426500  1
  O  O114  1  0.02634900  0.13663500  0.16426500  1
  O  O115  1  0.52634900  0.36336500  0.83573500  1
  O  O116  1  0.87641100  0.68322500  0.83065400  1
  O  O117  1  0.37641100  0.81677500  0.16934600  1
  O  O118  1  0.12358900  0.31677500  0.16934600  1
  O  O119  1  0.62358900  0.18322500  0.83065400  1
  O  O120  1  0.61922100  0.59518600  0.58091200  1
  O  O121  1  0.11922100  0.90481400  0.41908800  1
  O  O122  1  0.38077900  0.40481400  0.41908800  1
  O  O123  1  0.88077900  0.09518600  0.58091200  1
  O  O124  1  0.70835100  0.78520300  0.56746000  1
  O  O125  1  0.20835100  0.71479700  0.43254000  1
  O  O126  1  0.29164900  0.21479700  0.43254000  1
  O  O127  1  0.79164900  0.28520300  0.56746000  1
  O  O128  1  0.57984400  0.77180500  0.41435100  1
  O  O129  1  0.07984400  0.72819500  0.58564900  1
  O  O130  1  0.42015600  0.22819500  0.58564900  1
  O  O131  1  0.92015600  0.27180500  0.41435100  1
