# generated using pymatgen
data_P2H17C6NO2
_symmetry_space_group_name_H-M   'P 1'
_cell_length_a   5.98934568
_cell_length_b   9.89631043
_cell_length_c   11.00395231
_cell_angle_alpha   73.58487497
_cell_angle_beta   89.57614261
_cell_angle_gamma   87.51622925
_symmetry_Int_Tables_number   1
_chemical_formula_structural   P2H17C6NO2
_chemical_formula_sum   'P4 H34 C12 N2 O4'
_cell_volume   625.04983736
_cell_formula_units_Z   2
loop_
 _symmetry_equiv_pos_site_id
 _symmetry_equiv_pos_as_xyz
  1  'x, y, z'
loop_
 _atom_site_type_symbol
 _atom_site_label
 _atom_site_symmetry_multiplicity
 _atom_site_fract_x
 _atom_site_fract_y
 _atom_site_fract_z
 _atom_site_occupancy
  P  P0  1  0.82874600  0.91893500  0.30778800  1
  P  P1  1  0.17125400  0.08106500  0.69221200  1
  P  P2  1  0.84848000  0.54763200  0.77711900  1
  P  P3  1  0.15152000  0.45236800  0.22288100  1
  H  H4  1  0.97606700  0.71229100  0.52763400  1
  H  H5  1  0.02393300  0.28770900  0.47236600  1
  H  H6  1  0.75095100  0.67480500  0.35487400  1
  H  H7  1  0.24904900  0.32519500  0.64512600  1
  H  H8  1  0.52952200  0.77079500  0.40730800  1
  H  H9  1  0.47047800  0.22920500  0.59269200  1
  H  H10  1  0.54625700  0.59100900  0.62531600  1
  H  H11  1  0.45374300  0.40899100  0.37468400  1
  H  H12  1  0.77613900  0.49311100  0.58382300  1
  H  H13  1  0.22386100  0.50688900  0.41617700  1
  H  H14  1  0.78960000  0.04855200  0.46148000  1
  H  H15  1  0.21040000  0.95144800  0.53852000  1
  H  H16  1  0.77031000  0.16190600  0.30367700  1
  H  H17  1  0.22969000  0.83809400  0.69632300  1
  H  H18  1  0.53538300  0.06107300  0.37214200  1
  H  H19  1  0.46461700  0.93892700  0.62785800  1
  H  H20  1  0.75187000  0.85904400  0.11517800  1
  H  H21  1  0.24813000  0.14095600  0.88482200  1
  H  H22  1  0.51645700  0.95438300  0.15907700  1
  H  H23  1  0.48354300  0.04561700  0.84092300  1
  H  H24  1  0.76330300  0.04414400  0.09279100  1
  H  H25  1  0.23669700  0.95585600  0.90720900  1
  H  H26  1  0.78200800  0.78277400  0.79501900  1
  H  H27  1  0.21799200  0.21722600  0.20498100  1
  H  H28  1  0.54653700  0.67539300  0.85109200  1
  H  H29  1  0.45346300  0.32460700  0.14890800  1
  H  H30  1  0.79435300  0.65293700  0.94631800  1
  H  H31  1  0.20564700  0.34706300  0.05368200  1
  H  H32  1  0.78762300  0.29876000  0.82013200  1
  H  H33  1  0.21237700  0.70124000  0.17986800  1
  H  H34  1  0.78585600  0.35883200  0.95941300  1
  H  H35  1  0.21414400  0.64116800  0.04058700  1
  H  H36  1  0.54379800  0.39198300  0.85839900  1
  H  H37  1  0.45620200  0.60801700  0.14160100  1
  C  C38  1  0.71261700  0.75530800  0.40576500  1
  C  C39  1  0.28738300  0.24469200  0.59423500  1
  C  C40  1  0.72954700  0.58677300  0.61680800  1
  C  C41  1  0.27045300  0.41322700  0.38319200  1
  C  C42  1  0.71833100  0.06090200  0.36688300  1
  C  C43  1  0.28166900  0.93909800  0.63311700  1
  C  C44  1  0.69923500  0.94582800  0.15447900  1
  C  C45  1  0.30076500  0.05417200  0.84552100  1
  C  C46  1  0.72944300  0.67757200  0.84889200  1
  C  C47  1  0.27055700  0.32242800  0.15110800  1
  C  C48  1  0.72689500  0.38322000  0.86073300  1
  C  C49  1  0.27310500  0.61678000  0.13926700  1
  N  N50  1  0.80566500  0.71903200  0.53386500  1
  N  N51  1  0.19433500  0.28096800  0.46613500  1
  O  O52  1  0.08053500  0.90902000  0.30385900  1
  O  O53  1  0.91946500  0.09098000  0.69614100  1
  O  O54  1  0.10026000  0.54036900  0.77817800  1
  O  O55  1  0.89974000  0.45963100  0.22182200  1
