# generated using pymatgen
data_CaSnO6
_symmetry_space_group_name_H-M   'P 1'
_cell_length_a   7.47383300
_cell_length_b   7.47383300
_cell_length_c   7.47383300
_cell_angle_alpha   90.00000000
_cell_angle_beta   90.00000000
_cell_angle_gamma   90.00000000
_symmetry_Int_Tables_number   1
_chemical_formula_structural   CaSnO6
_chemical_formula_sum   'Ca4 Sn4 O24'
_cell_volume   417.47470685
_cell_formula_units_Z   4
loop_
 _symmetry_equiv_pos_site_id
 _symmetry_equiv_pos_as_xyz
  1  'x, y, z'
loop_
 _atom_site_type_symbol
 _atom_site_label
 _atom_site_symmetry_multiplicity
 _atom_site_fract_x
 _atom_site_fract_y
 _atom_site_fract_z
 _atom_site_occupancy
  Ca  Ca0  1  0.75000000  0.25000000  0.25000000  1
  Ca  Ca1  1  0.25000000  0.25000000  0.75000000  1
  Ca  Ca2  1  0.25000000  0.75000000  0.25000000  1
  Ca  Ca3  1  0.75000000  0.75000000  0.75000000  1
  Sn  Sn4  1  0.25000000  0.75000000  0.75000000  1
  Sn  Sn5  1  0.75000000  0.75000000  0.25000000  1
  Sn  Sn6  1  0.75000000  0.25000000  0.75000000  1
  Sn  Sn7  1  0.25000000  0.25000000  0.25000000  1
  O  O8  1  0.49265800  0.17509200  0.40267200  1
  O  O9  1  0.50734200  0.17509200  0.59732800  1
  O  O10  1  0.50734200  0.82490800  0.40267200  1
  O  O11  1  0.49265800  0.82490800  0.59732800  1
  O  O12  1  0.40267200  0.49265800  0.17509200  1
  O  O13  1  0.59732800  0.50734200  0.17509200  1
  O  O14  1  0.40267200  0.50734200  0.82490800  1
  O  O15  1  0.59732800  0.49265800  0.82490800  1
  O  O16  1  0.17509200  0.40267200  0.49265800  1
  O  O17  1  0.17509200  0.59732800  0.50734200  1
  O  O18  1  0.82490800  0.40267200  0.50734200  1
  O  O19  1  0.82490800  0.59732800  0.49265800  1
  O  O20  1  0.00734200  0.32490800  0.09732800  1
  O  O21  1  0.99265800  0.32490800  0.90267200  1
  O  O22  1  0.99265800  0.67509200  0.09732800  1
  O  O23  1  0.00734200  0.67509200  0.90267200  1
  O  O24  1  0.09732800  0.00734200  0.32490800  1
  O  O25  1  0.90267200  0.99265800  0.32490800  1
  O  O26  1  0.09732800  0.99265800  0.67509200  1
  O  O27  1  0.90267200  0.00734200  0.67509200  1
  O  O28  1  0.32490800  0.09732800  0.00734200  1
  O  O29  1  0.32490800  0.90267200  0.99265800  1
  O  O30  1  0.67509200  0.09732800  0.99265800  1
  O  O31  1  0.67509200  0.90267200  0.00734200  1
