# generated using pymatgen
data_ErFe2H3
_symmetry_space_group_name_H-M   'P 1'
_cell_length_a   7.67544697
_cell_length_b   7.67544697
_cell_length_c   7.67544710
_cell_angle_alpha   93.28400827
_cell_angle_beta   93.28400827
_cell_angle_gamma   93.28400691
_symmetry_Int_Tables_number   1
_chemical_formula_structural   ErFe2H3
_chemical_formula_sum   'Er8 Fe16 H24'
_cell_volume   449.86291280
_cell_formula_units_Z   8
loop_
 _symmetry_equiv_pos_site_id
 _symmetry_equiv_pos_as_xyz
  1  'x, y, z'
loop_
 _atom_site_type_symbol
 _atom_site_label
 _atom_site_symmetry_multiplicity
 _atom_site_fract_x
 _atom_site_fract_y
 _atom_site_fract_z
 _atom_site_occupancy
  Er  Er0  1  0.86235100  0.86235100  0.86235100  1
  Er  Er1  1  0.13764900  0.13764900  0.13764900  1
  Er  Er2  1  0.36661900  0.87123100  0.36661900  1
  Er  Er3  1  0.87123100  0.36661900  0.36661900  1
  Er  Er4  1  0.36661900  0.36661900  0.87123100  1
  Er  Er5  1  0.63338100  0.12876900  0.63338100  1
  Er  Er6  1  0.12876900  0.63338100  0.63338100  1
  Er  Er7  1  0.63338100  0.63338100  0.12876900  1
  Fe  Fe8  1  0.50000000  0.50000000  0.50000000  1
  Fe  Fe9  1  0.00000000  0.00000000  0.50000000  1
  Fe  Fe10  1  0.50000000  0.00000000  0.00000000  1
  Fe  Fe11  1  0.00000000  0.50000000  0.00000000  1
  Fe  Fe12  1  0.75057300  0.00000000  0.24942700  1
  Fe  Fe13  1  0.24942700  0.00000000  0.75057300  1
  Fe  Fe14  1  0.00000000  0.24942700  0.75057300  1
  Fe  Fe15  1  0.00000000  0.75057300  0.24942700  1
  Fe  Fe16  1  0.24942700  0.75057300  0.00000000  1
  Fe  Fe17  1  0.75057300  0.24942700  0.00000000  1
  Fe  Fe18  1  0.75154700  0.49374000  0.75154700  1
  Fe  Fe19  1  0.49374000  0.75154700  0.75154700  1
  Fe  Fe20  1  0.75154700  0.75154700  0.49374000  1
  Fe  Fe21  1  0.24845300  0.50626000  0.24845300  1
  Fe  Fe22  1  0.50626000  0.24845300  0.24845300  1
  Fe  Fe23  1  0.24845300  0.24845300  0.50626000  1
  H  H24  1  0.64828600  0.85428100  0.64828600  1
  H  H25  1  0.85428100  0.64828600  0.64828600  1
  H  H26  1  0.64828600  0.64828600  0.85428100  1
  H  H27  1  0.35171400  0.14571900  0.35171400  1
  H  H28  1  0.14571900  0.35171400  0.35171400  1
  H  H29  1  0.35171400  0.35171400  0.14571900  1
  H  H30  1  0.84274900  0.13637300  0.84274900  1
  H  H31  1  0.13637300  0.84274900  0.84274900  1
  H  H32  1  0.84274900  0.84274900  0.13637300  1
  H  H33  1  0.15725100  0.86362700  0.15725100  1
  H  H34  1  0.86362700  0.15725100  0.15725100  1
  H  H35  1  0.15725100  0.15725100  0.86362700  1
  H  H36  1  0.66531100  0.36538500  0.16098800  1
  H  H37  1  0.16098800  0.36538500  0.66531100  1
  H  H38  1  0.36538500  0.16098800  0.66531100  1
  H  H39  1  0.36538500  0.66531100  0.16098800  1
  H  H40  1  0.16098800  0.66531100  0.36538500  1
  H  H41  1  0.66531100  0.16098800  0.36538500  1
  H  H42  1  0.33468900  0.63461500  0.83901200  1
  H  H43  1  0.83901200  0.63461500  0.33468900  1
  H  H44  1  0.63461500  0.83901200  0.33468900  1
  H  H45  1  0.63461500  0.33468900  0.83901200  1
  H  H46  1  0.83901200  0.33468900  0.63461500  1
  H  H47  1  0.33468900  0.83901200  0.63461500  1
