# generated using pymatgen
data_UTe3O8
_symmetry_space_group_name_H-M   'P 1'
_cell_length_a   11.41693100
_cell_length_b   11.41693100
_cell_length_c   11.41693100
_cell_angle_alpha   90.00000000
_cell_angle_beta   90.00000000
_cell_angle_gamma   90.00000000
_symmetry_Int_Tables_number   1
_chemical_formula_structural   UTe3O8
_chemical_formula_sum   'U8 Te24 O64'
_cell_volume   1488.15486686
_cell_formula_units_Z   8
loop_
 _symmetry_equiv_pos_site_id
 _symmetry_equiv_pos_as_xyz
  1  'x, y, z'
loop_
 _atom_site_type_symbol
 _atom_site_label
 _atom_site_symmetry_multiplicity
 _atom_site_fract_x
 _atom_site_fract_y
 _atom_site_fract_z
 _atom_site_occupancy
  U  U0  1  0.50000000  0.50000000  0.00000000  1
  U  U1  1  0.50000000  0.00000000  0.50000000  1
  U  U2  1  0.00000000  0.50000000  0.50000000  1
  U  U3  1  0.00000000  0.00000000  0.00000000  1
  U  U4  1  0.00000000  0.00000000  0.50000000  1
  U  U5  1  0.00000000  0.50000000  0.00000000  1
  U  U6  1  0.50000000  0.00000000  0.00000000  1
  U  U7  1  0.50000000  0.50000000  0.50000000  1
  Te  Te8  1  0.45297900  0.75900900  0.28282600  1
  Te  Te9  1  0.54702100  0.25900900  0.21717400  1
  Te  Te10  1  0.04702100  0.24099100  0.78282600  1
  Te  Te11  1  0.95297900  0.74099100  0.71717400  1
  Te  Te12  1  0.28282600  0.45297900  0.75900900  1
  Te  Te13  1  0.21717400  0.54702100  0.25900900  1
  Te  Te14  1  0.78282600  0.04702100  0.24099100  1
  Te  Te15  1  0.71717400  0.95297900  0.74099100  1
  Te  Te16  1  0.75900900  0.28282600  0.45297900  1
  Te  Te17  1  0.25900900  0.21717400  0.54702100  1
  Te  Te18  1  0.24099100  0.78282600  0.04702100  1
  Te  Te19  1  0.74099100  0.71717400  0.95297900  1
  Te  Te20  1  0.54702100  0.24099100  0.71717400  1
  Te  Te21  1  0.45297900  0.74099100  0.78282600  1
  Te  Te22  1  0.95297900  0.75900900  0.21717400  1
  Te  Te23  1  0.04702100  0.25900900  0.28282600  1
  Te  Te24  1  0.71717400  0.54702100  0.24099100  1
  Te  Te25  1  0.78282600  0.45297900  0.74099100  1
  Te  Te26  1  0.21717400  0.95297900  0.75900900  1
  Te  Te27  1  0.28282600  0.04702100  0.25900900  1
  Te  Te28  1  0.24099100  0.71717400  0.54702100  1
  Te  Te29  1  0.74099100  0.78282600  0.45297900  1
  Te  Te30  1  0.75900900  0.21717400  0.95297900  1
  Te  Te31  1  0.25900900  0.28282600  0.04702100  1
  O  O32  1  0.39874900  0.67613200  0.41946700  1
  O  O33  1  0.60125100  0.17613200  0.08053300  1
  O  O34  1  0.10125100  0.32386800  0.91946700  1
  O  O35  1  0.89874900  0.82386800  0.58053300  1
  O  O36  1  0.41946700  0.39874900  0.67613200  1
  O  O37  1  0.08053300  0.60125100  0.17613200  1
  O  O38  1  0.91946700  0.10125100  0.32386800  1
  O  O39  1  0.58053300  0.89874900  0.82386800  1
  O  O40  1  0.67613200  0.41946700  0.39874900  1
  O  O41  1  0.17613200  0.08053300  0.60125100  1
  O  O42  1  0.32386800  0.91946700  0.10125100  1
  O  O43  1  0.82386800  0.58053300  0.89874900  1
  O  O44  1  0.60125100  0.32386800  0.58053300  1
  O  O45  1  0.39874900  0.82386800  0.91946700  1
  O  O46  1  0.89874900  0.67613200  0.08053300  1
  O  O47  1  0.10125100  0.17613200  0.41946700  1
  O  O48  1  0.58053300  0.60125100  0.32386800  1
  O  O49  1  0.91946700  0.39874900  0.82386800  1
  O  O50  1  0.08053300  0.89874900  0.67613200  1
  O  O51  1  0.41946700  0.10125100  0.17613200  1
  O  O52  1  0.32386800  0.58053300  0.60125100  1
  O  O53  1  0.82386800  0.91946700  0.39874900  1
  O  O54  1  0.67613200  0.08053300  0.89874900  1
  O  O55  1  0.17613200  0.41946700  0.10125100  1
  O  O56  1  0.09028300  0.84077200  0.11384200  1
  O  O57  1  0.90971700  0.34077200  0.38615800  1
  O  O58  1  0.40971700  0.15922800  0.61384200  1
  O  O59  1  0.59028300  0.65922800  0.88615800  1
  O  O60  1  0.11384200  0.09028300  0.84077200  1
  O  O61  1  0.38615800  0.90971700  0.34077200  1
  O  O62  1  0.61384200  0.40971700  0.15922800  1
  O  O63  1  0.88615800  0.59028300  0.65922800  1
  O  O64  1  0.84077200  0.11384200  0.09028300  1
  O  O65  1  0.34077200  0.38615800  0.90971700  1
  O  O66  1  0.15922800  0.61384200  0.40971700  1
  O  O67  1  0.65922800  0.88615800  0.59028300  1
  O  O68  1  0.90971700  0.15922800  0.88615800  1
  O  O69  1  0.09028300  0.65922800  0.61384200  1
  O  O70  1  0.59028300  0.84077200  0.38615800  1
  O  O71  1  0.40971700  0.34077200  0.11384200  1
  O  O72  1  0.88615800  0.90971700  0.15922800  1
  O  O73  1  0.61384200  0.09028300  0.65922800  1
  O  O74  1  0.38615800  0.59028300  0.84077200  1
  O  O75  1  0.11384200  0.40971700  0.34077200  1
  O  O76  1  0.15922800  0.88615800  0.90971700  1
  O  O77  1  0.65922800  0.61384200  0.09028300  1
  O  O78  1  0.84077200  0.38615800  0.59028300  1
  O  O79  1  0.34077200  0.11384200  0.40971700  1
  O  O80  1  0.40643900  0.59356100  0.09356100  1
  O  O81  1  0.59356100  0.09356100  0.40643900  1
  O  O82  1  0.09356100  0.40643900  0.59356100  1
  O  O83  1  0.90643900  0.90643900  0.90643900  1
  O  O84  1  0.59356100  0.40643900  0.90643900  1
  O  O85  1  0.40643900  0.90643900  0.59356100  1
  O  O86  1  0.90643900  0.59356100  0.40643900  1
  O  O87  1  0.09356100  0.09356100  0.09356100  1
  O  O88  1  0.90664600  0.09335400  0.59335400  1
  O  O89  1  0.09335400  0.59335400  0.90664600  1
  O  O90  1  0.59335400  0.90664600  0.09335400  1
  O  O91  1  0.40664600  0.40664600  0.40664600  1
  O  O92  1  0.09335400  0.90664600  0.40664600  1
  O  O93  1  0.90664600  0.40664600  0.09335400  1
  O  O94  1  0.40664600  0.09335400  0.90664600  1
  O  O95  1  0.59335400  0.59335400  0.59335400  1
