# generated using pymatgen
data_CaSiBHO5
_symmetry_space_group_name_H-M   'P 1'
_cell_length_a   6.77336204
_cell_length_b   7.83109700
_cell_length_c   10.71049344
_cell_angle_alpha   90.00000000
_cell_angle_beta   63.53560055
_cell_angle_gamma   90.00000000
_symmetry_Int_Tables_number   1
_chemical_formula_structural   CaSiBHO5
_chemical_formula_sum   'Ca4 Si4 B4 H4 O20'
_cell_volume   508.58317953
_cell_formula_units_Z   4
loop_
 _symmetry_equiv_pos_site_id
 _symmetry_equiv_pos_as_xyz
  1  'x, y, z'
loop_
 _atom_site_type_symbol
 _atom_site_label
 _atom_site_symmetry_multiplicity
 _atom_site_fract_x
 _atom_site_fract_y
 _atom_site_fract_z
 _atom_site_occupancy
  Ca  Ca0  1  0.04024300  0.90817300  0.65351000  1
  Ca  Ca1  1  0.95975700  0.40817300  0.84649000  1
  Ca  Ca2  1  0.95975700  0.09182700  0.34649000  1
  Ca  Ca3  1  0.04024300  0.59182700  0.15351000  1
  Si  Si4  1  0.44597700  0.38119300  0.82298200  1
  Si  Si5  1  0.55402300  0.88119300  0.67701800  1
  Si  Si6  1  0.55402300  0.61880700  0.17701800  1
  Si  Si7  1  0.44597700  0.11880700  0.32298200  1
  B  B8  1  0.65622300  0.42420200  0.33536900  1
  B  B9  1  0.34377700  0.92420200  0.16463100  1
  B  B10  1  0.34377700  0.57579800  0.66463100  1
  B  B11  1  0.65622300  0.07579800  0.83536900  1
  H  H12  1  0.27583800  0.45594200  0.31165400  1
  H  H13  1  0.72416200  0.95594200  0.18834600  1
  H  H14  1  0.72416200  0.54405800  0.68834600  1
  H  H15  1  0.27583800  0.04405800  0.81165400  1
  O  O16  1  0.24383800  0.03207500  0.45053500  1
  O  O17  1  0.75616200  0.53207500  0.04946500  1
  O  O18  1  0.75616200  0.96792500  0.54946500  1
  O  O19  1  0.24383800  0.46792500  0.95053500  1
  O  O20  1  0.84797000  0.37236600  0.32806700  1
  O  O21  1  0.15203000  0.87236600  0.17193300  1
  O  O22  1  0.15203000  0.62763400  0.67193300  1
  O  O23  1  0.84797000  0.12763400  0.82806700  1
  O  O24  1  0.47335700  0.17946700  0.85621900  1
  O  O25  1  0.52664300  0.67946700  0.64378100  1
  O  O26  1  0.52664300  0.82053300  0.14378100  1
  O  O27  1  0.47335700  0.32053300  0.35621900  1
  O  O28  1  0.37367100  0.39981600  0.69196600  1
  O  O29  1  0.62632900  0.89981600  0.80803400  1
  O  O30  1  0.62632900  0.60018400  0.30803400  1
  O  O31  1  0.37367100  0.10018400  0.19196600  1
  O  O32  1  0.29808200  0.54075500  0.23916800  1
  O  O33  1  0.70191800  0.04075500  0.26083200  1
  O  O34  1  0.70191800  0.45924500  0.76083200  1
  O  O35  1  0.29808200  0.95924500  0.73916800  1
