# generated using pymatgen
data_BS4(NF)4
_symmetry_space_group_name_H-M   'P 1'
_cell_length_a   12.03944300
_cell_length_b   6.81088900
_cell_length_c   12.21897109
_cell_angle_alpha   69.92807860
_cell_angle_beta   90.00000000
_cell_angle_gamma   90.00000000
_symmetry_Int_Tables_number   1
_chemical_formula_structural   BS4(NF)4
_chemical_formula_sum   'B4 S16 N16 F16'
_cell_volume   941.09148379
_cell_formula_units_Z   4
loop_
 _symmetry_equiv_pos_site_id
 _symmetry_equiv_pos_as_xyz
  1  'x, y, z'
loop_
 _atom_site_type_symbol
 _atom_site_label
 _atom_site_symmetry_multiplicity
 _atom_site_fract_x
 _atom_site_fract_y
 _atom_site_fract_z
 _atom_site_occupancy
  B  B0  1  0.05524600  0.75447400  0.26210800  1
  B  B1  1  0.44475400  0.75447400  0.76210800  1
  B  B2  1  0.94475400  0.24552600  0.73789200  1
  B  B3  1  0.55524600  0.24552600  0.23789200  1
  S  S4  1  0.75968200  0.93150800  0.08562300  1
  S  S5  1  0.74031800  0.93150800  0.58562300  1
  S  S6  1  0.24031800  0.06849200  0.91437700  1
  S  S7  1  0.25968200  0.06849200  0.41437700  1
  S  S8  1  0.60848000  0.22991100  0.91607900  1
  S  S9  1  0.89152000  0.22991100  0.41607900  1
  S  S10  1  0.39152000  0.77008900  0.08392100  1
  S  S11  1  0.10848000  0.77008900  0.58392100  1
  S  S12  1  0.75532800  0.58604600  0.91339000  1
  S  S13  1  0.74467200  0.58604600  0.41339000  1
  S  S14  1  0.24467200  0.41395400  0.08661000  1
  S  S15  1  0.25532800  0.41395400  0.58661000  1
  S  S16  1  0.90285800  0.28926800  0.08846700  1
  S  S17  1  0.59714200  0.28926800  0.58846700  1
  S  S18  1  0.09714200  0.71073200  0.91153300  1
  S  S19  1  0.40285800  0.71073200  0.41153300  1
  N  N20  1  0.86334000  0.08152800  0.06938600  1
  N  N21  1  0.63666000  0.08152800  0.56938600  1
  N  N22  1  0.13666000  0.91847200  0.93061400  1
  N  N23  1  0.36334000  0.91847200  0.43061400  1
  N  N24  1  0.65188600  0.02501400  0.01311900  1
  N  N25  1  0.84811400  0.02501400  0.51311900  1
  N  N26  1  0.34811400  0.97498600  0.98688100  1
  N  N27  1  0.15188600  0.97498600  0.48688100  1
  N  N28  1  0.69213900  0.42098200  0.87101900  1
  N  N29  1  0.80786100  0.42098200  0.37101900  1
  N  N30  1  0.30786100  0.57901800  0.12898100  1
  N  N31  1  0.19213900  0.57901800  0.62898100  1
  N  N32  1  0.84427200  0.49885900  0.01297500  1
  N  N33  1  0.65572800  0.49885900  0.51297500  1
  N  N34  1  0.15572800  0.50114100  0.98702500  1
  N  N35  1  0.34427200  0.50114100  0.48702500  1
  F  F36  1  0.96004200  0.83734200  0.29969300  1
  F  F37  1  0.53995800  0.83734200  0.79969300  1
  F  F38  1  0.03995800  0.16265800  0.70030700  1
  F  F39  1  0.46004200  0.16265800  0.20030700  1
  F  F40  1  0.02248600  0.63383200  0.19339200  1
  F  F41  1  0.47751400  0.63383200  0.69339200  1
  F  F42  1  0.97751400  0.36616800  0.80660800  1
  F  F43  1  0.52248600  0.36616800  0.30660800  1
  F  F44  1  0.12572200  0.92092900  0.19629000  1
  F  F45  1  0.37427800  0.92092900  0.69629000  1
  F  F46  1  0.87427800  0.07907100  0.80371000  1
  F  F47  1  0.62572200  0.07907100  0.30371000  1
  F  F48  1  0.11432800  0.62441500  0.36229500  1
  F  F49  1  0.38567200  0.62441500  0.86229500  1
  F  F50  1  0.88567200  0.37558500  0.63770500  1
  F  F51  1  0.61432800  0.37558500  0.13770500  1
