# generated using pymatgen
data_VP3(HO)6
_symmetry_space_group_name_H-M   'P 1'
_cell_length_a   12.00821700
_cell_length_b   11.69814100
_cell_length_c   15.23776654
_cell_angle_alpha   50.01291562
_cell_angle_beta   90.00000000
_cell_angle_gamma   90.00000000
_symmetry_Int_Tables_number   1
_chemical_formula_structural   VP3(HO)6
_chemical_formula_sum   'V8 P24 H48 O48'
_cell_volume   1640.03376405
_cell_formula_units_Z   8
loop_
 _symmetry_equiv_pos_site_id
 _symmetry_equiv_pos_as_xyz
  1  'x, y, z'
loop_
 _atom_site_type_symbol
 _atom_site_label
 _atom_site_symmetry_multiplicity
 _atom_site_fract_x
 _atom_site_fract_y
 _atom_site_fract_z
 _atom_site_occupancy
  V  V0  1  0.68679800  0.44937100  0.80348700  1
  V  V1  1  0.81320200  0.44937100  0.30348700  1
  V  V2  1  0.31320200  0.55062900  0.19651300  1
  V  V3  1  0.18679800  0.55062900  0.69651300  1
  V  V4  1  0.70335700  0.96177900  0.31024300  1
  V  V5  1  0.79664300  0.96177900  0.81024300  1
  V  V6  1  0.29664300  0.03822100  0.68975700  1
  V  V7  1  0.20335700  0.03822100  0.18975700  1
  P  P8  1  0.47340100  0.95585000  0.19177300  1
  P  P9  1  0.02659900  0.95585000  0.69177300  1
  P  P10  1  0.52659900  0.04415000  0.80822700  1
  P  P11  1  0.97340100  0.04415000  0.30822700  1
  P  P12  1  0.72380700  0.10555200  0.43469100  1
  P  P13  1  0.77619300  0.10555200  0.93469100  1
  P  P14  1  0.27619300  0.89444800  0.56530900  1
  P  P15  1  0.22380700  0.89444800  0.06530900  1
  P  P16  1  0.84068200  0.76225100  0.26140700  1
  P  P17  1  0.65931800  0.76225100  0.76140700  1
  P  P18  1  0.15931800  0.23774900  0.73859300  1
  P  P19  1  0.34068200  0.23774900  0.23859300  1
  P  P20  1  0.58210800  0.65810700  0.54569600  1
  P  P21  1  0.91789200  0.65810700  0.04569600  1
  P  P22  1  0.41789200  0.34189300  0.45430400  1
  P  P23  1  0.08210800  0.34189300  0.95430400  1
  P  P24  1  0.91323700  0.61435900  0.65583700  1
  P  P25  1  0.58676300  0.61435900  0.15583700  1
  P  P26  1  0.08676300  0.38564100  0.34416300  1
  P  P27  1  0.41323700  0.38564100  0.84416300  1
  P  P28  1  0.70675200  0.31443900  0.07280300  1
  P  P29  1  0.79324800  0.31443900  0.57280300  1
  P  P30  1  0.29324800  0.68556100  0.92719700  1
  P  P31  1  0.20675200  0.68556100  0.42719700  1
  H  H32  1  0.53923800  0.00190600  0.09668400  1
  H  H33  1  0.96076200  0.00190600  0.59668400  1
  H  H34  1  0.46076200  0.99809400  0.90331600  1
  H  H35  1  0.03923800  0.99809400  0.40331600  1
  H  H36  1  0.45184100  0.80282700  0.25129400  1
  H  H37  1  0.04815900  0.80282700  0.75129400  1
  H  H38  1  0.54815900  0.19717300  0.74870600  1
  H  H39  1  0.95184100  0.19717300  0.24870600  1
  H  H40  1  0.64257500  0.12769100  0.48985700  1
  H  H41  1  0.85742500  0.12769100  0.98985700  1
  H  H42  1  0.35742500  0.87230900  0.51014300  1
  H  H43  1  0.14257500  0.87230900  0.01014300  1
  H  H44  1  0.77796500  0.97174600  0.52514900  1
  H  H45  1  0.72203500  0.97174600  0.02514900  1
  H  H46  1  0.22203500  0.02825400  0.47485100  1
  H  H47  1  0.27796500  0.02825400  0.97485100  1
  H  H48  1  0.92592500  0.86538300  0.19036500  1
  H  H49  1  0.57407500  0.86538300  0.69036500  1
  H  H50  1  0.07407500  0.13461700  0.80963500  1
  H  H51  1  0.42592500  0.13461700  0.30963500  1
  H  H52  1  0.88722000  0.66825000  0.37304200  1
  H  H53  1  0.61278000  0.66825000  0.87304200  1
  H  H54  1  0.11278000  0.33175000  0.62695800  1
  H  H55  1  0.38722000  0.33175000  0.12695800  1
  H  H56  1  0.50796400  0.72904200  0.56951700  1
  H  H57  1  0.99203600  0.72904200  0.06951700  1
  H  H58  1  0.49203600  0.27095800  0.43048300  1
  H  H59  1  0.00796400  0.27095800  0.93048300  1
  H  H60  1  0.51680000  0.62557200  0.48678800  1
  H  H61  1  0.98320000  0.62557200  0.98678800  1
  H  H62  1  0.48320000  0.37442800  0.51321200  1
  H  H63  1  0.01680000  0.37442800  0.01321200  1
  H  H64  1  0.85595100  0.70579700  0.55010500  1
  H  H65  1  0.64404900  0.70579700  0.05010500  1
  H  H66  1  0.14404900  0.29420300  0.44989500  1
  H  H67  1  0.35595100  0.29420300  0.94989500  1
  H  H68  1  0.92295000  0.70192800  0.68975800  1
  H  H69  1  0.57705000  0.70192800  0.18975800  1
  H  H70  1  0.07705000  0.29807200  0.31024200  1
  H  H71  1  0.42295000  0.29807200  0.81024200  1
  H  H72  1  0.59000900  0.32718900  0.07807900  1
  H  H73  1  0.90999100  0.32718900  0.57807900  1
  H  H74  1  0.40999100  0.67281100  0.92192100  1
  H  H75  1  0.09000900  0.67281100  0.42192100  1
  H  H76  1  0.75457300  0.37916200  0.11659200  1
  H  H77  1  0.74542700  0.37916200  0.61659200  1
  H  H78  1  0.24542700  0.62083800  0.88340800  1
  H  H79  1  0.25457300  0.62083800  0.38340800  1
  O  O80  1  0.02855000  0.58170300  0.63408300  1
  O  O81  1  0.47145000  0.58170300  0.13408300  1
  O  O82  1  0.97145000  0.41829700  0.36591700  1
  O  O83  1  0.52855000  0.41829700  0.86591700  1
  O  O84  1  0.36551800  0.04544100  0.14172000  1
  O  O85  1  0.13448200  0.04544100  0.64172000  1
  O  O86  1  0.63448200  0.95455900  0.85828000  1
  O  O87  1  0.86551800  0.95455900  0.35828000  1
  O  O88  1  0.81090200  0.22930200  0.37714100  1
  O  O89  1  0.68909800  0.22930200  0.87714100  1
  O  O90  1  0.18909800  0.77069800  0.62285900  1
  O  O91  1  0.31090200  0.77069800  0.12285900  1
  O  O92  1  0.67584600  0.76478000  0.46841500  1
  O  O93  1  0.82415400  0.76478000  0.96841500  1
  O  O94  1  0.32415400  0.23522000  0.53158500  1
  O  O95  1  0.17584600  0.23522000  0.03158500  1
  O  O96  1  0.61830400  0.50633400  0.65707600  1
  O  O97  1  0.88169600  0.50633400  0.15707600  1
  O  O98  1  0.38169600  0.49366600  0.34292400  1
  O  O99  1  0.11830400  0.49366600  0.84292400  1
  O  O100  1  0.81713600  0.67248900  0.22262100  1
  O  O101  1  0.68286400  0.67248900  0.72262100  1
  O  O102  1  0.18286400  0.32751100  0.77737900  1
  O  O103  1  0.31713600  0.32751100  0.27737900  1
  O  O104  1  0.84395700  0.47486200  0.74608600  1
  O  O105  1  0.65604300  0.47486200  0.24608600  1
  O  O106  1  0.15604300  0.52513800  0.25391400  1
  O  O107  1  0.34395700  0.52513800  0.75391400  1
  O  O108  1  0.53868400  0.97101300  0.26961900  1
  O  O109  1  0.96131600  0.97101300  0.76961900  1
  O  O110  1  0.46131600  0.02898700  0.73038100  1
  O  O111  1  0.03868400  0.02898700  0.23038100  1
  O  O112  1  0.74294300  0.40923800  0.94744900  1
  O  O113  1  0.75705700  0.40923800  0.44744900  1
  O  O114  1  0.25705700  0.59076200  0.05255100  1
  O  O115  1  0.24294300  0.59076200  0.55255100  1
  O  O116  1  0.66143800  0.08336900  0.35878600  1
  O  O117  1  0.83856200  0.08336900  0.85878600  1
  O  O118  1  0.33856200  0.91663100  0.64121400  1
  O  O119  1  0.16143800  0.91663100  0.14121400  1
  O  O120  1  0.73995700  0.14995400  0.14948400  1
  O  O121  1  0.76004300  0.14995400  0.64948400  1
  O  O122  1  0.26004300  0.85004600  0.85051600  1
  O  O123  1  0.23995700  0.85004600  0.35051600  1
  O  O124  1  0.73973800  0.84498100  0.25724900  1
  O  O125  1  0.76026200  0.84498100  0.75724900  1
  O  O126  1  0.26026200  0.15501900  0.74275100  1
  O  O127  1  0.23973800  0.15501900  0.24275100  1
