# generated using pymatgen
data_Na3Cr(Mo3O16)2
_symmetry_space_group_name_H-M   'P 1'
_cell_length_a   6.93125900
_cell_length_b   11.05516679
_cell_length_c   11.16661161
_cell_angle_alpha   115.82873597
_cell_angle_beta   84.94739145
_cell_angle_gamma   108.05640836
_symmetry_Int_Tables_number   1
_chemical_formula_structural   Na3Cr(Mo3O16)2
_chemical_formula_sum   'Na3 Cr1 Mo6 O32'
_cell_volume   731.14208858
_cell_formula_units_Z   1
loop_
 _symmetry_equiv_pos_site_id
 _symmetry_equiv_pos_as_xyz
  1  'x, y, z'
loop_
 _atom_site_type_symbol
 _atom_site_label
 _atom_site_symmetry_multiplicity
 _atom_site_fract_x
 _atom_site_fract_y
 _atom_site_fract_z
 _atom_site_occupancy
  Na  Na0  1  0.50000000  0.00000000  0.50000000  1
  Na  Na1  1  0.20010400  0.55711500  0.41591400  1
  Na  Na2  1  0.79989600  0.44288500  0.58408600  1
  Cr  Cr3  1  0.00000000  0.00000000  0.00000000  1
  Mo  Mo4  1  0.98106300  0.92236900  0.27606800  1
  Mo  Mo5  1  0.01893700  0.07763100  0.72393200  1
  Mo  Mo6  1  0.80455700  0.18158300  0.27820500  1
  Mo  Mo7  1  0.19544300  0.81841700  0.72179500  1
  Mo  Mo8  1  0.80757600  0.25924900  0.01520000  1
  Mo  Mo9  1  0.19242400  0.74075100  0.98480000  1
  O  O10  1  0.17005200  0.95352000  0.09748500  1
  O  O11  1  0.82994800  0.04648000  0.90251500  1
  O  O12  1  0.81136800  0.97746200  0.13552700  1
  O  O13  1  0.18863200  0.02253800  0.86447300  1
  O  O14  1  0.06511400  0.17992600  0.10948500  1
  O  O15  1  0.93488600  0.82007400  0.89051500  1
  O  O16  1  0.97320700  0.75541000  0.11150200  1
  O  O17  1  0.02679300  0.24459000  0.88849800  1
  O  O18  1  0.00976100  0.12002000  0.33253300  1
  O  O19  1  0.99023900  0.87998000  0.66746700  1
  O  O20  1  0.66826300  0.18868100  0.14217300  1
  O  O21  1  0.33173700  0.81131900  0.85782700  1
  O  O22  1  0.39223200  0.74261800  0.06643800  1
  O  O23  1  0.60776800  0.25738200  0.93356200  1
  O  O24  1  0.17673600  0.93297800  0.37109700  1
  O  O25  1  0.82326400  0.06702200  0.62890300  1
  O  O26  1  0.75609900  0.86391000  0.34311000  1
  O  O27  1  0.24390100  0.13609000  0.65689000  1
  O  O28  1  0.60969100  0.14667800  0.37904600  1
  O  O29  1  0.39030900  0.85332200  0.62095400  1
  O  O30  1  0.93324400  0.36300100  0.37237100  1
  O  O31  1  0.06675600  0.63699900  0.62762900  1
  O  O32  1  0.92273900  0.43577200  0.12546900  1
  O  O33  1  0.07726100  0.56422800  0.87453100  1
  O  O34  1  0.44044700  0.44789000  0.21563700  1
  O  O35  1  0.55955300  0.55211000  0.78436300  1
  O  O36  1  0.51729800  0.51531100  0.15104700  1
  O  O37  1  0.48270200  0.48468900  0.84895300  1
  O  O38  1  0.14788300  0.63051600  0.25843600  1
  O  O39  1  0.85211700  0.36948400  0.74156400  1
  O  O40  1  0.56845000  0.55046200  0.49771900  1
  O  O41  1  0.43155000  0.44953800  0.50228100  1
