# generated using pymatgen
data_Na9Sc(MoO4)6
_symmetry_space_group_name_H-M   'P 1'
_cell_length_a   10.94931632
_cell_length_b   10.94931632
_cell_length_c   10.94931670
_cell_angle_alpha   88.46367621
_cell_angle_beta   88.46367621
_cell_angle_gamma   88.46367669
_symmetry_Int_Tables_number   1
_chemical_formula_structural   Na9Sc(MoO4)6
_chemical_formula_sum   'Na18 Sc2 Mo12 O48'
_cell_volume   1311.29570659
_cell_formula_units_Z   2
loop_
 _symmetry_equiv_pos_site_id
 _symmetry_equiv_pos_as_xyz
  1  'x, y, z'
loop_
 _atom_site_type_symbol
 _atom_site_label
 _atom_site_symmetry_multiplicity
 _atom_site_fract_x
 _atom_site_fract_y
 _atom_site_fract_z
 _atom_site_occupancy
  Na  Na0  1  0.97106300  0.52412100  0.74094500  1
  Na  Na1  1  0.74094500  0.97106300  0.52412100  1
  Na  Na2  1  0.52412100  0.74094500  0.97106300  1
  Na  Na3  1  0.02893700  0.47587900  0.25905500  1
  Na  Na4  1  0.25905500  0.02893700  0.47587900  1
  Na  Na5  1  0.47587900  0.25905500  0.02893700  1
  Na  Na6  1  0.17878700  0.73435300  0.93767300  1
  Na  Na7  1  0.93767300  0.17878700  0.73435300  1
  Na  Na8  1  0.73435300  0.93767300  0.17878700  1
  Na  Na9  1  0.82121300  0.26564700  0.06232700  1
  Na  Na10  1  0.06232700  0.82121300  0.26564700  1
  Na  Na11  1  0.26564700  0.06232700  0.82121300  1
  Na  Na12  1  0.79351100  0.32572200  0.53295800  1
  Na  Na13  1  0.53295800  0.79351100  0.32572200  1
  Na  Na14  1  0.32572200  0.53295800  0.79351100  1
  Na  Na15  1  0.20648900  0.67427800  0.46704200  1
  Na  Na16  1  0.46704200  0.20648900  0.67427800  1
  Na  Na17  1  0.67427800  0.46704200  0.20648900  1
  Sc  Sc18  1  0.74460300  0.74460300  0.74460300  1
  Sc  Sc19  1  0.25539700  0.25539700  0.25539700  1
  Mo  Mo20  1  0.83181900  0.63687800  0.44602400  1
  Mo  Mo21  1  0.44602400  0.83181900  0.63687800  1
  Mo  Mo22  1  0.63687800  0.44602400  0.83181900  1
  Mo  Mo23  1  0.16818100  0.36312200  0.55397600  1
  Mo  Mo24  1  0.55397600  0.16818100  0.36312200  1
  Mo  Mo25  1  0.36312200  0.55397600  0.16818100  1
  Mo  Mo26  1  0.12334900  0.34197400  0.96000700  1
  Mo  Mo27  1  0.96000700  0.12334900  0.34197400  1
  Mo  Mo28  1  0.34197400  0.96000700  0.12334900  1
  Mo  Mo29  1  0.87665100  0.65802600  0.03999300  1
  Mo  Mo30  1  0.03999300  0.87665100  0.65802600  1
  Mo  Mo31  1  0.65802600  0.03999300  0.87665100  1
  O  O32  1  0.74375700  0.76447300  0.39088100  1
  O  O33  1  0.39088100  0.74375700  0.76447300  1
  O  O34  1  0.76447300  0.39088100  0.74375700  1
  O  O35  1  0.25624300  0.23552700  0.60911900  1
  O  O36  1  0.60911900  0.25624300  0.23552700  1
  O  O37  1  0.23552700  0.60911900  0.25624300  1
  O  O38  1  0.77778300  0.49767200  0.38838300  1
  O  O39  1  0.38838300  0.77778300  0.49767200  1
  O  O40  1  0.49767200  0.38838300  0.77778300  1
  O  O41  1  0.22221700  0.50232800  0.61161700  1
  O  O42  1  0.61161700  0.22221700  0.50232800  1
  O  O43  1  0.50232800  0.61161700  0.22221700  1
  O  O44  1  0.98956500  0.64969600  0.39760900  1
  O  O45  1  0.39760900  0.98956500  0.64969600  1
  O  O46  1  0.64969600  0.39760900  0.98956500  1
  O  O47  1  0.01043500  0.35030400  0.60239100  1
  O  O48  1  0.60239100  0.01043500  0.35030400  1
  O  O49  1  0.35030400  0.60239100  0.01043500  1
  O  O50  1  0.81932800  0.62360000  0.61309600  1
  O  O51  1  0.61309600  0.81932800  0.62360000  1
  O  O52  1  0.62360000  0.61309600  0.81932800  1
  O  O53  1  0.18067200  0.37640000  0.38690400  1
  O  O54  1  0.38690400  0.18067200  0.37640000  1
  O  O55  1  0.37640000  0.38690400  0.18067200  1
  O  O56  1  0.25438400  0.26771600  0.89393400  1
  O  O57  1  0.89393400  0.25438400  0.26771600  1
  O  O58  1  0.26771600  0.89393400  0.25438400  1
  O  O59  1  0.74561600  0.73228400  0.10606600  1
  O  O60  1  0.10606600  0.74561600  0.73228400  1
  O  O61  1  0.73228400  0.10606600  0.74561600  1
  O  O62  1  0.98927100  0.26489700  0.91929500  1
  O  O63  1  0.91929500  0.98927100  0.26489700  1
  O  O64  1  0.26489700  0.91929500  0.98927100  1
  O  O65  1  0.01072900  0.73510300  0.08070500  1
  O  O66  1  0.08070500  0.01072900  0.73510300  1
  O  O67  1  0.73510300  0.08070500  0.01072900  1
  O  O68  1  0.11729600  0.49628000  0.90003800  1
  O  O69  1  0.90003800  0.11729600  0.49628000  1
  O  O70  1  0.49628000  0.90003800  0.11729600  1
  O  O71  1  0.88270400  0.50372000  0.09996200  1
  O  O72  1  0.09996200  0.88270400  0.50372000  1
  O  O73  1  0.50372000  0.09996200  0.88270400  1
  O  O74  1  0.13511800  0.33582100  0.12760500  1
  O  O75  1  0.12760500  0.13511800  0.33582100  1
  O  O76  1  0.33582100  0.12760500  0.13511800  1
  O  O77  1  0.86488200  0.66417900  0.87239500  1
  O  O78  1  0.87239500  0.86488200  0.66417900  1
  O  O79  1  0.66417900  0.87239500  0.86488200  1
