# generated using pymatgen
data_Na2MoO6
_symmetry_space_group_name_H-M   'P 1'
_cell_length_a   8.45219000
_cell_length_b   10.44930600
_cell_length_c   13.15981100
_cell_angle_alpha   90.00000000
_cell_angle_beta   90.00000000
_cell_angle_gamma   90.00000000
_symmetry_Int_Tables_number   1
_chemical_formula_structural   Na2MoO6
_chemical_formula_sum   'Na16 Mo8 O48'
_cell_volume   1162.26818660
_cell_formula_units_Z   8
loop_
 _symmetry_equiv_pos_site_id
 _symmetry_equiv_pos_as_xyz
  1  'x, y, z'
loop_
 _atom_site_type_symbol
 _atom_site_label
 _atom_site_symmetry_multiplicity
 _atom_site_fract_x
 _atom_site_fract_y
 _atom_site_fract_z
 _atom_site_occupancy
  Na  Na0  1  0.24415300  0.94538600  0.16678500  1
  Na  Na1  1  0.25584700  0.05461400  0.66678500  1
  Na  Na2  1  0.74415300  0.55461400  0.83321500  1
  Na  Na3  1  0.75584700  0.44538600  0.33321500  1
  Na  Na4  1  0.75584700  0.05461400  0.83321500  1
  Na  Na5  1  0.74415300  0.94538600  0.33321500  1
  Na  Na6  1  0.25584700  0.44538600  0.16678500  1
  Na  Na7  1  0.24415300  0.55461400  0.66678500  1
  Na  Na8  1  0.66311400  0.00123600  0.08088900  1
  Na  Na9  1  0.83688600  0.99876400  0.58088900  1
  Na  Na10  1  0.16311400  0.49876400  0.91911100  1
  Na  Na11  1  0.33688600  0.50123600  0.41911100  1
  Na  Na12  1  0.33688600  0.99876400  0.91911100  1
  Na  Na13  1  0.16311400  0.00123600  0.41911100  1
  Na  Na14  1  0.83688600  0.50123600  0.08088900  1
  Na  Na15  1  0.66311400  0.49876400  0.58088900  1
  Mo  Mo16  1  0.48368800  0.70129800  0.03010500  1
  Mo  Mo17  1  0.01631200  0.29870200  0.53010500  1
  Mo  Mo18  1  0.98368800  0.79870200  0.96989500  1
  Mo  Mo19  1  0.51631200  0.20129800  0.46989500  1
  Mo  Mo20  1  0.51631200  0.29870200  0.96989500  1
  Mo  Mo21  1  0.98368800  0.70129800  0.46989500  1
  Mo  Mo22  1  0.01631200  0.20129800  0.03010500  1
  Mo  Mo23  1  0.48368800  0.79870200  0.53010500  1
  O  O24  1  0.64527100  0.65183400  0.11550900  1
  O  O25  1  0.85472900  0.34816600  0.61550900  1
  O  O26  1  0.14527100  0.84816600  0.88449100  1
  O  O27  1  0.35472900  0.15183400  0.38449100  1
  O  O28  1  0.35472900  0.34816600  0.88449100  1
  O  O29  1  0.14527100  0.65183400  0.38449100  1
  O  O30  1  0.85472900  0.15183400  0.11550900  1
  O  O31  1  0.64527100  0.84816600  0.61550900  1
  O  O32  1  0.43608000  0.86713000  0.05389100  1
  O  O33  1  0.06392000  0.13287000  0.55389100  1
  O  O34  1  0.93608000  0.63287000  0.94610900  1
  O  O35  1  0.56392000  0.36713000  0.44610900  1
  O  O36  1  0.56392000  0.13287000  0.94610900  1
  O  O37  1  0.93608000  0.86713000  0.44610900  1
  O  O38  1  0.06392000  0.36713000  0.05389100  1
  O  O39  1  0.43608000  0.63287000  0.55389100  1
  O  O40  1  0.54058500  0.68407500  0.89926000  1
  O  O41  1  0.95941500  0.31592500  0.39926000  1
  O  O42  1  0.04058500  0.81592500  0.10074000  1
  O  O43  1  0.45941500  0.18407500  0.60074000  1
  O  O44  1  0.45941500  0.31592500  0.10074000  1
  O  O45  1  0.04058500  0.68407500  0.60074000  1
  O  O46  1  0.95941500  0.18407500  0.89926000  1
  O  O47  1  0.54058500  0.81592500  0.39926000  1
  O  O48  1  0.31605700  0.60289800  0.05031800  1
  O  O49  1  0.18394300  0.39710200  0.55031800  1
  O  O50  1  0.81605700  0.89710200  0.94968200  1
  O  O51  1  0.68394300  0.10289800  0.44968200  1
  O  O52  1  0.68394300  0.39710200  0.94968200  1
  O  O53  1  0.81605700  0.60289800  0.44968200  1
  O  O54  1  0.18394300  0.10289800  0.05031800  1
  O  O55  1  0.31605700  0.89710200  0.55031800  1
  O  O56  1  0.54579700  0.92055500  0.75740500  1
  O  O57  1  0.95420300  0.07944500  0.25740500  1
  O  O58  1  0.04579700  0.57944500  0.24259500  1
  O  O59  1  0.45420300  0.42055500  0.74259500  1
  O  O60  1  0.45420300  0.07944500  0.24259500  1
  O  O61  1  0.04579700  0.92055500  0.74259500  1
  O  O62  1  0.95420300  0.42055500  0.75740500  1
  O  O63  1  0.54579700  0.57944500  0.25740500  1
  O  O64  1  0.79245800  0.82963400  0.17711800  1
  O  O65  1  0.70754200  0.17036600  0.67711800  1
  O  O66  1  0.29245800  0.67036600  0.82288200  1
  O  O67  1  0.20754200  0.32963400  0.32288200  1
  O  O68  1  0.20754200  0.17036600  0.82288200  1
  O  O69  1  0.29245800  0.82963400  0.32288200  1
  O  O70  1  0.70754200  0.32963400  0.17711800  1
  O  O71  1  0.79245800  0.67036600  0.67711800  1
