# generated using pymatgen
data_Ca2S2O9
_symmetry_space_group_name_H-M   'P 1'
_cell_length_a   7.06867601
_cell_length_b   7.06867601
_cell_length_c   12.77304800
_cell_angle_alpha   90.00000000
_cell_angle_beta   90.00000000
_cell_angle_gamma   120.00000010
_symmetry_Int_Tables_number   1
_chemical_formula_structural   Ca2S2O9
_chemical_formula_sum   'Ca6 S6 O27'
_cell_volume   552.71509856
_cell_formula_units_Z   3
loop_
 _symmetry_equiv_pos_site_id
 _symmetry_equiv_pos_as_xyz
  1  'x, y, z'
loop_
 _atom_site_type_symbol
 _atom_site_label
 _atom_site_symmetry_multiplicity
 _atom_site_fract_x
 _atom_site_fract_y
 _atom_site_fract_z
 _atom_site_occupancy
  Ca  Ca0  1  0.81119000  0.13848300  0.32922200  1
  Ca  Ca1  1  0.86151700  0.67270700  0.66255600  1
  Ca  Ca2  1  0.32729300  0.18881000  0.99588900  1
  Ca  Ca3  1  0.33099500  0.19605300  0.49695600  1
  Ca  Ca4  1  0.80394700  0.13494200  0.83029000  1
  Ca  Ca5  1  0.86505800  0.66900500  0.16362300  1
  S  S6  1  0.78943900  0.12318800  0.08259700  1
  S  S7  1  0.87681200  0.66625000  0.41593100  1
  S  S8  1  0.33375000  0.21056100  0.74926400  1
  S  S9  1  0.34102100  0.21081900  0.24837700  1
  S  S10  1  0.78918100  0.13020200  0.58171100  1
  S  S11  1  0.86979800  0.65897900  0.91504400  1
  O  O12  1  0.59280000  0.07014400  0.01849300  1
  O  O13  1  0.92985600  0.52265500  0.35182700  1
  O  O14  1  0.47734500  0.40720000  0.68516000  1
  O  O15  1  0.84780500  0.31373900  0.15231700  1
  O  O16  1  0.68626100  0.53406600  0.48565100  1
  O  O17  1  0.46593400  0.15219500  0.81898400  1
  O  O18  1  0.74857200  0.93887700  0.15328300  1
  O  O19  1  0.06112300  0.80969400  0.48661700  1
  O  O20  1  0.19030500  0.25142800  0.81995000  1
  O  O21  1  0.97028500  0.17294500  0.00743900  1
  O  O22  1  0.82705500  0.79734000  0.34077300  1
  O  O23  1  0.20266000  0.02971500  0.67410600  1
  O  O24  1  0.19886800  0.25460700  0.31869500  1
  O  O25  1  0.74539300  0.94426100  0.65202900  1
  O  O26  1  0.05573900  0.80113200  0.98536200  1
  O  O27  1  0.48304700  0.40410900  0.18302300  1
  O  O28  1  0.59589100  0.07893800  0.51635700  1
  O  O29  1  0.92106200  0.51695300  0.84969000  1
  O  O30  1  0.46878200  0.14536000  0.31741400  1
  O  O31  1  0.85464000  0.32342200  0.65074800  1
  O  O32  1  0.67657800  0.53121800  0.98408100  1
  O  O33  1  0.20486100  0.03073800  0.17282700  1
  O  O34  1  0.96926200  0.17412300  0.50616100  1
  O  O35  1  0.82587700  0.79513900  0.83949400  1
  O  O36  1  0.22071000  0.69381600  0.19168600  1
  O  O37  1  0.30618400  0.52689400  0.52502000  1
  O  O38  1  0.47310600  0.77929000  0.85835300  1
