# generated using pymatgen
data_K(IO3)2
_symmetry_space_group_name_H-M   'P 1'
_cell_length_a   21.05021998
_cell_length_b   20.61412499
_cell_length_c   7.14977107
_cell_angle_alpha   83.58207700
_cell_angle_beta   76.69180255
_cell_angle_gamma   19.72612046
_symmetry_Int_Tables_number   1
_chemical_formula_structural   K(IO3)2
_chemical_formula_sum   'K6 I12 O36'
_cell_volume   965.68498354
_cell_formula_units_Z   6
loop_
 _symmetry_equiv_pos_site_id
 _symmetry_equiv_pos_as_xyz
  1  'x, y, z'
loop_
 _atom_site_type_symbol
 _atom_site_label
 _atom_site_symmetry_multiplicity
 _atom_site_fract_x
 _atom_site_fract_y
 _atom_site_fract_z
 _atom_site_occupancy
  K  K0  1  0.38562000  0.91527800  0.58282900  1
  K  K1  1  0.58282900  0.11627300  0.38562000  1
  K  K2  1  0.13372700  0.66717100  0.33472200  1
  K  K3  1  0.33472200  0.86438000  0.13372700  1
  K  K4  1  0.47994900  0.02005100  0.47994900  1
  K  K5  1  0.22994900  0.77005100  0.22994900  1
  I  I6  1  0.93137300  0.46726400  0.55112100  1
  I  I7  1  0.55112100  0.05024200  0.93137300  1
  I  I8  1  0.19975800  0.69887900  0.78273600  1
  I  I9  1  0.78273600  0.31862700  0.19975800  1
  I  I10  1  0.41375800  0.98688000  0.03247100  1
  I  I11  1  0.03247100  0.56689100  0.41375800  1
  I  I12  1  0.68310900  0.21752900  0.26312000  1
  I  I13  1  0.26312000  0.83624200  0.68310900  1
  I  I14  1  0.91548900  0.40304300  0.05380200  1
  I  I15  1  0.05380200  0.62766700  0.91548900  1
  I  I16  1  0.62233300  0.19619800  0.84695700  1
  I  I17  1  0.84695700  0.33451100  0.62233300  1
  O  O18  1  0.82669800  0.50582500  0.44762000  1
  O  O19  1  0.44762000  0.21985700  0.82669800  1
  O  O20  1  0.03014300  0.80238000  0.74417500  1
  O  O21  1  0.74417500  0.42330200  0.03014300  1
  O  O22  1  0.20444700  0.19277200  0.42864900  1
  O  O23  1  0.42864900  0.17413200  0.20444700  1
  O  O24  1  0.07586800  0.82135100  0.05722800  1
  O  O25  1  0.05722800  0.04555300  0.07586800  1
  O  O26  1  0.91332100  0.55558200  0.36310700  1
  O  O27  1  0.36310700  0.16799000  0.91332100  1
  O  O28  1  0.08201000  0.88689300  0.69441800  1
  O  O29  1  0.69441800  0.33667900  0.08201000  1
  O  O30  1  0.57813800  0.89665100  0.05741500  1
  O  O31  1  0.05741500  0.46779600  0.57813800  1
  O  O32  1  0.78220400  0.19258500  0.35334900  1
  O  O33  1  0.35334900  0.67186200  0.78220400  1
  O  O34  1  0.54701900  0.85414400  0.75828300  1
  O  O35  1  0.75828300  0.84055500  0.54701900  1
  O  O36  1  0.40944500  0.49171700  0.39585600  1
  O  O37  1  0.39585600  0.70298100  0.40944500  1
  O  O38  1  0.52246200  0.81376900  0.13835700  1
  O  O39  1  0.13835700  0.52541300  0.52246200  1
  O  O40  1  0.72458700  0.11164300  0.43623100  1
  O  O41  1  0.43623100  0.72753800  0.72458700  1
  O  O42  1  0.97788700  0.43006900  0.00804200  1
  O  O43  1  0.00804200  0.58400300  0.97788700  1
  O  O44  1  0.66599700  0.24195800  0.81993100  1
  O  O45  1  0.81993100  0.27211300  0.66599700  1
  O  O46  1  0.91807200  0.38966600  0.79553000  1
  O  O47  1  0.79553000  0.89673200  0.91807200  1
  O  O48  1  0.35326800  0.45447000  0.86033400  1
  O  O49  1  0.86033400  0.33192800  0.35326800  1
  O  O50  1  0.17359800  0.12610100  0.00816500  1
  O  O51  1  0.00816500  0.69213600  0.17359800  1
  O  O52  1  0.55786400  0.24183500  0.12389900  1
  O  O53  1  0.12389900  0.07640200  0.55786400  1
