# generated using pymatgen
data_K5Ag(S2O3)3
_symmetry_space_group_name_H-M   'P 1'
_cell_length_a   10.94618700
_cell_length_b   10.87193100
_cell_length_c   14.18695417
_cell_angle_alpha   86.90740408
_cell_angle_beta   90.00000000
_cell_angle_gamma   90.00000000
_symmetry_Int_Tables_number   1
_chemical_formula_structural   K5Ag(S2O3)3
_chemical_formula_sum   'K20 Ag4 S24 O36'
_cell_volume   1685.87655320
_cell_formula_units_Z   4
loop_
 _symmetry_equiv_pos_site_id
 _symmetry_equiv_pos_as_xyz
  1  'x, y, z'
loop_
 _atom_site_type_symbol
 _atom_site_label
 _atom_site_symmetry_multiplicity
 _atom_site_fract_x
 _atom_site_fract_y
 _atom_site_fract_z
 _atom_site_occupancy
  K  K0  1  0.04132100  0.89449700  0.82826900  1
  K  K1  1  0.54132100  0.10550300  0.67173100  1
  K  K2  1  0.95867900  0.10550300  0.17173100  1
  K  K3  1  0.45867900  0.89449700  0.32826900  1
  K  K4  1  0.91401300  0.45594500  0.83763400  1
  K  K5  1  0.41401300  0.54405500  0.66236600  1
  K  K6  1  0.08598700  0.54405500  0.16236600  1
  K  K7  1  0.58598700  0.45594500  0.33763400  1
  K  K8  1  0.74983600  0.39887800  0.59970400  1
  K  K9  1  0.24983600  0.60112200  0.90029600  1
  K  K10  1  0.25016400  0.60112200  0.40029600  1
  K  K11  1  0.75016400  0.39887800  0.09970400  1
  K  K12  1  0.81080800  0.74786900  0.26470000  1
  K  K13  1  0.31080800  0.25213100  0.23530000  1
  K  K14  1  0.18919200  0.25213100  0.73530000  1
  K  K15  1  0.68919200  0.74786900  0.76470000  1
  K  K16  1  0.72960600  0.13502900  0.41905300  1
  K  K17  1  0.22960600  0.86497100  0.08094700  1
  K  K18  1  0.27039400  0.86497100  0.58094700  1
  K  K19  1  0.77039400  0.13502900  0.91905300  1
  Ag  Ag20  1  0.90517200  0.84447400  0.54147700  1
  Ag  Ag21  1  0.40517200  0.15552600  0.95852300  1
  Ag  Ag22  1  0.09482800  0.15552600  0.45852300  1
  Ag  Ag23  1  0.59482800  0.84447400  0.04147700  1
  S  S24  1  0.97358500  0.95735000  0.38169300  1
  S  S25  1  0.47358500  0.04265000  0.11830700  1
  S  S26  1  0.02641500  0.04265000  0.61830700  1
  S  S27  1  0.52641500  0.95735000  0.88169300  1
  S  S28  1  0.66423400  0.87697200  0.54317800  1
  S  S29  1  0.16423400  0.12302800  0.95682200  1
  S  S30  1  0.33576600  0.12302800  0.45682200  1
  S  S31  1  0.83576600  0.87697200  0.04317800  1
  S  S32  1  0.92956300  0.63564300  0.62687600  1
  S  S33  1  0.42956300  0.36435700  0.87312400  1
  S  S34  1  0.07043700  0.36435700  0.37312400  1
  S  S35  1  0.57043700  0.63564300  0.12687600  1
  S  S36  1  0.12124400  0.88047800  0.31677800  1
  S  S37  1  0.62124400  0.11952200  0.18322200  1
  S  S38  1  0.87875600  0.11952200  0.68322200  1
  S  S39  1  0.37875600  0.88047800  0.81677800  1
  S  S40  1  0.59007000  0.71684100  0.49893600  1
  S  S41  1  0.09007000  0.28315900  0.00106400  1
  S  S42  1  0.40993000  0.28315900  0.50106400  1
  S  S43  1  0.90993000  0.71684100  0.99893600  1
  S  S44  1  0.10785400  0.61782400  0.66737300  1
  S  S45  1  0.60785400  0.38217600  0.83262700  1
  S  S46  1  0.89214600  0.38217600  0.33262700  1
  S  S47  1  0.39214600  0.61782400  0.16737300  1
  O  O48  1  0.16481700  0.97403300  0.24418100  1
  O  O49  1  0.66481700  0.02596700  0.25581900  1
  O  O50  1  0.83518300  0.02596700  0.75581900  1
  O  O51  1  0.33518300  0.97403300  0.74418100  1
  O  O52  1  0.07831300  0.76691200  0.27313600  1
  O  O53  1  0.57831300  0.23308800  0.22686400  1
  O  O54  1  0.92168700  0.23308800  0.72686400  1
  O  O55  1  0.42168700  0.76691200  0.77313600  1
  O  O56  1  0.21556300  0.85272000  0.38970900  1
  O  O57  1  0.71556300  0.14728000  0.11029100  1
  O  O58  1  0.78443700  0.14728000  0.61029100  1
  O  O59  1  0.28443700  0.85272000  0.88970900  1
  O  O60  1  0.45438000  0.73138200  0.49958400  1
  O  O61  1  0.95438000  0.26861800  0.00041600  1
  O  O62  1  0.54562000  0.26861800  0.50041600  1
  O  O63  1  0.04562000  0.73138200  0.99958400  1
  O  O64  1  0.63308400  0.69774400  0.40164900  1
  O  O65  1  0.13308400  0.30225600  0.09835100  1
  O  O66  1  0.36691600  0.30225600  0.59835100  1
  O  O67  1  0.86691600  0.69774400  0.90164900  1
  O  O68  1  0.62684600  0.61460300  0.56658500  1
  O  O69  1  0.12684600  0.38539700  0.93341500  1
  O  O70  1  0.37315400  0.38539700  0.43341500  1
  O  O71  1  0.87315400  0.61460300  0.06658500  1
  O  O72  1  0.12112600  0.49864200  0.72348100  1
  O  O73  1  0.62112600  0.50135800  0.77651900  1
  O  O74  1  0.87887400  0.50135800  0.27651900  1
  O  O75  1  0.37887400  0.49864200  0.22348100  1
  O  O76  1  0.18756500  0.62071400  0.58267500  1
  O  O77  1  0.68756500  0.37928600  0.91732500  1
  O  O78  1  0.81243500  0.37928600  0.41732500  1
  O  O79  1  0.31243500  0.62071400  0.08267500  1
  O  O80  1  0.13925400  0.72170400  0.72671800  1
  O  O81  1  0.63925400  0.27829600  0.77328200  1
  O  O82  1  0.86074600  0.27829600  0.27328200  1
  O  O83  1  0.36074600  0.72170400  0.22671800  1
