# generated using pymatgen
data_SrC3O7
_symmetry_space_group_name_H-M   'P 1'
_cell_length_a   17.10681900
_cell_length_b   6.38233600
_cell_length_c   9.28924755
_cell_angle_alpha   51.17670357
_cell_angle_beta   90.00000000
_cell_angle_gamma   90.00000000
_symmetry_Int_Tables_number   1
_chemical_formula_structural   SrC3O7
_chemical_formula_sum   'Sr4 C12 O28'
_cell_volume   790.15675628
_cell_formula_units_Z   4
loop_
 _symmetry_equiv_pos_site_id
 _symmetry_equiv_pos_as_xyz
  1  'x, y, z'
loop_
 _atom_site_type_symbol
 _atom_site_label
 _atom_site_symmetry_multiplicity
 _atom_site_fract_x
 _atom_site_fract_y
 _atom_site_fract_z
 _atom_site_occupancy
  Sr  Sr0  1  0.95104800  0.85313300  0.75438700  1
  Sr  Sr1  1  0.54895200  0.85313300  0.25438700  1
  Sr  Sr2  1  0.04895200  0.14686700  0.24561300  1
  Sr  Sr3  1  0.45104800  0.14686700  0.74561300  1
  C  C4  1  0.72212700  0.05133700  0.82621400  1
  C  C5  1  0.77787300  0.05133700  0.32621400  1
  C  C6  1  0.27787300  0.94866300  0.17378600  1
  C  C7  1  0.22212700  0.94866300  0.67378600  1
  C  C8  1  0.02184600  0.49572900  0.42678300  1
  C  C9  1  0.47815400  0.49572900  0.92678300  1
  C  C10  1  0.97815400  0.50427100  0.57321700  1
  C  C11  1  0.52184600  0.50427100  0.07321700  1
  C  C12  1  0.79462000  0.60661900  0.25325100  1
  C  C13  1  0.70538000  0.60661900  0.75325100  1
  C  C14  1  0.20538000  0.39338100  0.74674900  1
  C  C15  1  0.29462000  0.39338100  0.24674900  1
  O  O16  1  0.73656800  0.53068100  0.34070100  1
  O  O17  1  0.76343200  0.53068100  0.84070100  1
  O  O18  1  0.26343200  0.46931900  0.65929900  1
  O  O19  1  0.23656800  0.46931900  0.15929900  1
  O  O20  1  0.77268500  0.08278500  0.72874500  1
  O  O21  1  0.72731500  0.08278500  0.22874500  1
  O  O22  1  0.22731500  0.91721500  0.27125500  1
  O  O23  1  0.27268500  0.91721500  0.77125500  1
  O  O24  1  0.05510900  0.59806000  0.95938800  1
  O  O25  1  0.44489100  0.59806000  0.45938800  1
  O  O26  1  0.94489100  0.40194000  0.04061200  1
  O  O27  1  0.55510900  0.40194000  0.54061200  1
  O  O28  1  0.01718100  0.27357100  0.45339300  1
  O  O29  1  0.48281900  0.27357100  0.95339300  1
  O  O30  1  0.98281900  0.72642900  0.54660700  1
  O  O31  1  0.51718100  0.72642900  0.04660700  1
  O  O32  1  0.67224800  0.01656800  0.92634400  1
  O  O33  1  0.82775200  0.01656800  0.42634400  1
  O  O34  1  0.32775200  0.98343200  0.07365600  1
  O  O35  1  0.17224800  0.98343200  0.57365600  1
  O  O36  1  0.05794100  0.70287200  0.29753800  1
  O  O37  1  0.44205900  0.70287200  0.79753800  1
  O  O38  1  0.94205900  0.29712800  0.70246200  1
  O  O39  1  0.55794100  0.29712800  0.20246200  1
  O  O40  1  0.85215800  0.68331800  0.16443000  1
  O  O41  1  0.64784200  0.68331800  0.66443000  1
  O  O42  1  0.14784200  0.31668200  0.83557000  1
  O  O43  1  0.35215800  0.31668200  0.33557000  1
