# generated using pymatgen
data_Fe4H12C15O31
_symmetry_space_group_name_H-M   'P 1'
_cell_length_a   10.33725334
_cell_length_b   10.33725334
_cell_length_c   10.33725334
_cell_angle_alpha   109.47122063
_cell_angle_beta   109.47122063
_cell_angle_gamma   109.47122063
_symmetry_Int_Tables_number   1
_chemical_formula_structural   Fe4H12C15O31
_chemical_formula_sum   'Fe4 H12 C15 O31'
_cell_volume   850.34191960
_cell_formula_units_Z   1
loop_
 _symmetry_equiv_pos_site_id
 _symmetry_equiv_pos_as_xyz
  1  'x, y, z'
loop_
 _atom_site_type_symbol
 _atom_site_label
 _atom_site_symmetry_multiplicity
 _atom_site_fract_x
 _atom_site_fract_y
 _atom_site_fract_z
 _atom_site_occupancy
  Fe  Fe0  1  0.00000000  0.00000000  0.50000000  1
  Fe  Fe1  1  0.50000000  0.00000000  0.00000000  1
  Fe  Fe2  1  0.00000000  0.50000000  0.00000000  1
  Fe  Fe3  1  0.50000000  0.50000000  0.50000000  1
  H  H4  1  0.67914600  0.78693200  0.46607700  1
  H  H5  1  0.67914600  0.21306800  0.89221400  1
  H  H6  1  0.32085400  0.78693200  0.10778600  1
  H  H7  1  0.32085400  0.21306800  0.53392300  1
  H  H8  1  0.78693200  0.46607700  0.67914600  1
  H  H9  1  0.21306800  0.89221400  0.67914600  1
  H  H10  1  0.78693200  0.10778600  0.32085400  1
  H  H11  1  0.21306800  0.53392300  0.32085400  1
  H  H12  1  0.46607700  0.67914600  0.78693200  1
  H  H13  1  0.89221400  0.67914600  0.21306800  1
  H  H14  1  0.10778600  0.32085400  0.78693200  1
  H  H15  1  0.53392300  0.32085400  0.21306800  1
  C  C16  1  0.75690300  0.73728900  0.49419200  1
  C  C17  1  0.75690300  0.26271100  0.01961400  1
  C  C18  1  0.24309700  0.73728900  0.98038600  1
  C  C19  1  0.24309700  0.26271100  0.50580800  1
  C  C20  1  0.73728900  0.49419200  0.75690300  1
  C  C21  1  0.26271100  0.01961400  0.75690300  1
  C  C22  1  0.73728900  0.98038600  0.24309700  1
  C  C23  1  0.26271100  0.50580800  0.24309700  1
  C  C24  1  0.49419200  0.75690300  0.73728900  1
  C  C25  1  0.01961400  0.75690300  0.26271100  1
  C  C26  1  0.98038600  0.24309700  0.73728900  1
  C  C27  1  0.50580800  0.24309700  0.26271100  1
  C  C28  1  0.50000000  0.00000000  0.50000000  1
  C  C29  1  0.00000000  0.50000000  0.50000000  1
  C  C30  1  0.50000000  0.50000000  0.00000000  1
  O  O31  1  0.89377000  0.80261900  0.51026900  1
  O  O32  1  0.70765000  0.19738100  0.09115100  1
  O  O33  1  0.10623000  0.61649900  0.90884900  1
  O  O34  1  0.29235000  0.38350100  0.48973100  1
  O  O35  1  0.80261900  0.51026900  0.89377000  1
  O  O36  1  0.19738100  0.09115100  0.70765000  1
  O  O37  1  0.61649900  0.90884900  0.10623000  1
  O  O38  1  0.38350100  0.48973100  0.29235000  1
  O  O39  1  0.51026900  0.89377000  0.80261900  1
  O  O40  1  0.09115100  0.70765000  0.19738100  1
  O  O41  1  0.90884900  0.10623000  0.61649900  1
  O  O42  1  0.48973100  0.29235000  0.38350100  1
  O  O43  1  0.10623000  0.19738100  0.48973100  1
  O  O44  1  0.29235000  0.80261900  0.90884900  1
  O  O45  1  0.89377000  0.38350100  0.09115100  1
  O  O46  1  0.70765000  0.61649900  0.51026900  1
  O  O47  1  0.19738100  0.48973100  0.10623000  1
  O  O48  1  0.80261900  0.90884900  0.29235000  1
  O  O49  1  0.38350100  0.09115100  0.89377000  1
  O  O50  1  0.61649900  0.51026900  0.70765000  1
  O  O51  1  0.48973100  0.10623000  0.19738100  1
  O  O52  1  0.90884900  0.29235000  0.80261900  1
  O  O53  1  0.09115100  0.89377000  0.38350100  1
  O  O54  1  0.51026900  0.70765000  0.61649900  1
  O  O55  1  0.50000000  0.90141300  0.40141300  1
  O  O56  1  0.50000000  0.09858700  0.59858700  1
  O  O57  1  0.90141300  0.40141300  0.50000000  1
  O  O58  1  0.09858700  0.59858700  0.50000000  1
  O  O59  1  0.40141300  0.50000000  0.90141300  1
  O  O60  1  0.59858700  0.50000000  0.09858700  1
  O  O61  1  0.00000000  0.00000000  0.00000000  1
