# generated using pymatgen
data_CaAl2(Si3O10)2
_symmetry_space_group_name_H-M   'P 1'
_cell_length_a   14.14158700
_cell_length_b   6.89567500
_cell_length_c   10.13648096
_cell_angle_alpha   68.44074728
_cell_angle_beta   90.00000000
_cell_angle_gamma   90.00000000
_symmetry_Int_Tables_number   1
_chemical_formula_structural   CaAl2(Si3O10)2
_chemical_formula_sum   'Ca2 Al4 Si12 O40'
_cell_volume   919.31185532
_cell_formula_units_Z   2
loop_
 _symmetry_equiv_pos_site_id
 _symmetry_equiv_pos_as_xyz
  1  'x, y, z'
loop_
 _atom_site_type_symbol
 _atom_site_label
 _atom_site_symmetry_multiplicity
 _atom_site_fract_x
 _atom_site_fract_y
 _atom_site_fract_z
 _atom_site_occupancy
  Ca  Ca0  1  0.21270700  0.94160900  0.91244300  1
  Ca  Ca1  1  0.78729300  0.94160900  0.41244300  1
  Al  Al2  1  0.00485000  0.98773100  0.50593500  1
  Al  Al3  1  0.99515000  0.98773100  0.00593500  1
  Al  Al4  1  0.35727200  0.60773000  0.14539500  1
  Al  Al5  1  0.64272800  0.60773000  0.64539500  1
  Si  Si6  1  0.15413900  0.64907300  0.48655100  1
  Si  Si7  1  0.84586100  0.64907300  0.98655100  1
  Si  Si8  1  0.04173900  0.28071700  0.69801000  1
  Si  Si9  1  0.95826100  0.28071700  0.19801000  1
  Si  Si10  1  0.12654200  0.57942600  0.19533400  1
  Si  Si11  1  0.87345800  0.57942600  0.69533400  1
  Si  Si12  1  0.47057500  0.97024800  0.94012300  1
  Si  Si13  1  0.52942500  0.97024800  0.44012300  1
  Si  Si14  1  0.37268500  0.63964500  0.45811300  1
  Si  Si15  1  0.62731500  0.63964500  0.95811300  1
  Si  Si16  1  0.50637500  0.26133600  0.11911400  1
  Si  Si17  1  0.49362500  0.26133600  0.61911400  1
  O  O18  1  0.09621300  0.85930800  0.46107200  1
  O  O19  1  0.90378700  0.85930800  0.96107200  1
  O  O20  1  0.04315300  0.12948300  0.60743600  1
  O  O21  1  0.95684700  0.12948300  0.10743600  1
  O  O22  1  0.08614200  0.80694700  0.09157500  1
  O  O23  1  0.91385800  0.80694700  0.59157500  1
  O  O24  1  0.12183400  0.46376300  0.63695700  1
  O  O25  1  0.87816600  0.46376300  0.13695700  1
  O  O26  1  0.13340500  0.56157900  0.35904400  1
  O  O27  1  0.86659500  0.56157900  0.85904400  1
  O  O28  1  0.06307500  0.38493900  0.19002500  1
  O  O29  1  0.93692500  0.38493900  0.69002500  1
  O  O30  1  0.06803300  0.14207400  0.86277300  1
  O  O31  1  0.93196700  0.14207400  0.36277300  1
  O  O32  1  0.26600900  0.68867400  0.49887500  1
  O  O33  1  0.73399100  0.68867400  0.99887500  1
  O  O34  1  0.23207300  0.58013400  0.12818900  1
  O  O35  1  0.76792700  0.58013400  0.62818900  1
  O  O36  1  0.44253800  0.80480400  0.49226000  1
  O  O37  1  0.55746200  0.80480400  0.99226000  1
  O  O38  1  0.48249200  0.14995800  0.00617900  1
  O  O39  1  0.51750800  0.14995800  0.50617900  1
  O  O40  1  0.36980800  0.84441000  0.99223600  1
  O  O41  1  0.63019200  0.84441000  0.49223600  1
  O  O42  1  0.39838600  0.40355300  0.56602800  1
  O  O43  1  0.60161400  0.40355300  0.06602800  1
  O  O44  1  0.37971600  0.66254200  0.29510900  1
  O  O45  1  0.62028400  0.66254200  0.79510900  1
  O  O46  1  0.41789000  0.39904600  0.13227400  1
  O  O47  1  0.58211000  0.39904600  0.63227400  1
  O  O48  1  0.46487500  0.07759200  0.76889400  1
  O  O49  1  0.53512500  0.07759200  0.26889400  1
  O  O50  1  0.20573200  0.09281800  0.64667000  1
  O  O51  1  0.79426800  0.09281800  0.14667000  1
  O  O52  1  0.25666900  0.21665900  0.04817600  1
  O  O53  1  0.74333100  0.21665900  0.54817600  1
  O  O54  1  0.28189800  0.30092700  0.92347400  1
  O  O55  1  0.71810200  0.30092700  0.42347400  1
  O  O56  1  0.14980300  0.63147500  0.90953500  1
  O  O57  1  0.85019700  0.63147500  0.40953500  1
