# generated using pymatgen
data_LaVH2I4O15
_symmetry_space_group_name_H-M   'P 1'
_cell_length_a   14.28386500
_cell_length_b   7.25407500
_cell_length_c   7.35905674
_cell_angle_alpha   64.51842892
_cell_angle_beta   90.00000000
_cell_angle_gamma   90.00000000
_symmetry_Int_Tables_number   1
_chemical_formula_structural   LaVH2I4O15
_chemical_formula_sum   'La2 V2 H4 I8 O30'
_cell_volume   688.34280777
_cell_formula_units_Z   2
loop_
 _symmetry_equiv_pos_site_id
 _symmetry_equiv_pos_as_xyz
  1  'x, y, z'
loop_
 _atom_site_type_symbol
 _atom_site_label
 _atom_site_symmetry_multiplicity
 _atom_site_fract_x
 _atom_site_fract_y
 _atom_site_fract_z
 _atom_site_occupancy
  La  La0  1  0.74384500  0.08536500  0.56908500  1
  La  La1  1  0.24384500  0.91463500  0.43091500  1
  V  V2  1  0.57162100  0.57090700  0.21646000  1
  V  V3  1  0.07162100  0.42909300  0.78354000  1
  H  H4  1  0.94325900  0.83015700  0.37514600  1
  H  H5  1  0.44325900  0.16984300  0.62485400  1
  H  H6  1  0.03069900  0.77058600  0.28529900  1
  H  H7  1  0.53069900  0.22941400  0.71470100  1
  I  I8  1  0.61010900  0.14575300  0.07070100  1
  I  I9  1  0.11010900  0.85424700  0.92929900  1
  I  I10  1  0.49784700  0.74896400  0.69771200  1
  I  I11  1  0.99784700  0.25103600  0.30228800  1
  I  I12  1  0.83507700  0.47450800  0.76627700  1
  I  I13  1  0.33507700  0.52549200  0.23372300  1
  I  I14  1  0.80137000  0.74434800  0.13275400  1
  I  I15  1  0.30137000  0.25565200  0.86724600  1
  O  O16  1  0.65392800  0.19906500  0.81926900  1
  O  O17  1  0.15392800  0.80093500  0.18073100  1
  O  O18  1  0.71978700  0.08901300  0.21324300  1
  O  O19  1  0.21978700  0.91098700  0.78675700  1
  O  O20  1  0.59134200  0.41634300  0.00959400  1
  O  O21  1  0.09134200  0.58365700  0.99040600  1
  O  O22  1  0.58932300  0.94011700  0.58415600  1
  O  O23  1  0.08932300  0.05988300  0.41584400  1
  O  O24  1  0.49323700  0.75729300  0.94535800  1
  O  O25  1  0.99323700  0.24270700  0.05464200  1
  O  O26  1  0.89916800  0.08030900  0.41804500  1
  O  O27  1  0.39916800  0.91969100  0.58195500  1
  O  O28  1  0.77138700  0.71237000  0.64361000  1
  O  O29  1  0.27138700  0.28763000  0.35639000  1
  O  O30  1  0.95416100  0.59219700  0.71775400  1
  O  O31  1  0.45416100  0.40780300  0.28224600  1
  O  O32  1  0.82916800  0.39184200  0.56330300  1
  O  O33  1  0.32916800  0.60815800  0.43669700  1
  O  O34  1  0.84376700  0.52111600  0.10413900  1
  O  O35  1  0.34376700  0.47888400  0.89586100  1
  O  O36  1  0.67613100  0.74887700  0.04879400  1
  O  O37  1  0.17613100  0.25112300  0.95120600  1
  O  O38  1  0.83723600  0.94933900  0.89462600  1
  O  O39  1  0.33723600  0.05066100  0.10537400  1
  O  O40  1  0.64140100  0.38719000  0.38349500  1
  O  O41  1  0.14140100  0.61281000  0.61650500  1
  O  O42  1  0.54183800  0.72300100  0.32386600  1
  O  O43  1  0.04183800  0.27699900  0.67613400  1
  O  O44  1  0.96157800  0.76471900  0.28790300  1
  O  O45  1  0.46157800  0.23528100  0.71209700  1
