# generated using pymatgen
data_Ti3P4(NO8)2
_symmetry_space_group_name_H-M   'P 1'
_cell_length_a   17.84350000
_cell_length_b   5.07787400
_cell_length_c   8.79380260
_cell_angle_alpha   86.40976267
_cell_angle_beta   90.00000000
_cell_angle_gamma   90.00000000
_symmetry_Int_Tables_number   1
_chemical_formula_structural   Ti3P4(NO8)2
_chemical_formula_sum   'Ti6 P8 N4 O32'
_cell_volume   795.21671469
_cell_formula_units_Z   2
loop_
 _symmetry_equiv_pos_site_id
 _symmetry_equiv_pos_as_xyz
  1  'x, y, z'
loop_
 _atom_site_type_symbol
 _atom_site_label
 _atom_site_symmetry_multiplicity
 _atom_site_fract_x
 _atom_site_fract_y
 _atom_site_fract_z
 _atom_site_occupancy
  Ti  Ti0  1  0.49844500  0.76444900  0.75146400  1
  Ti  Ti1  1  0.99844500  0.23555100  0.24853600  1
  Ti  Ti2  1  0.69122100  0.45182500  0.56009300  1
  Ti  Ti3  1  0.19122100  0.54817500  0.43990700  1
  Ti  Ti4  1  0.30638700  0.06886800  0.93344300  1
  Ti  Ti5  1  0.80638700  0.93113200  0.06655700  1
  P  P6  1  0.67478400  0.92744400  0.81292900  1
  P  P7  1  0.17478400  0.07255600  0.18707100  1
  P  P8  1  0.40951600  0.54670600  0.07118400  1
  P  P9  1  0.90951600  0.45329400  0.92881600  1
  P  P10  1  0.58777500  0.95749200  0.42033800  1
  P  P11  1  0.08777500  0.04250800  0.57966200  1
  P  P12  1  0.32204200  0.61519100  0.68547200  1
  P  P13  1  0.82204200  0.38480900  0.31452800  1
  N  N14  1  0.62522600  0.41726200  0.08740300  1
  N  N15  1  0.12522600  0.58273800  0.91259700  1
  N  N16  1  0.37086400  0.05998400  0.38291700  1
  N  N17  1  0.87086400  0.94001600  0.61708300  1
  O  O18  1  0.70350200  0.70211800  0.72137800  1
  O  O19  1  0.20350200  0.29788200  0.27862200  1
  O  O20  1  0.58845500  0.88779400  0.83922800  1
  O  O21  1  0.08845500  0.11220600  0.16077200  1
  O  O22  1  0.71404700  0.90961000  0.97212100  1
  O  O23  1  0.21404700  0.09039000  0.02787900  1
  O  O24  1  0.69058400  0.20277000  0.74051500  1
  O  O25  1  0.19058400  0.79723000  0.25948500  1
  O  O26  1  0.47105300  0.61396200  0.93981200  1
  O  O27  1  0.97105300  0.38603800  0.06018800  1
  O  O28  1  0.37826700  0.26790100  0.03042800  1
  O  O29  1  0.87826700  0.73209900  0.96957200  1
  O  O30  1  0.34639600  0.75698300  0.02496700  1
  O  O31  1  0.84639600  0.24301700  0.97503300  1
  O  O32  1  0.43686100  0.55332700  0.22835300  1
  O  O33  1  0.93686100  0.44667300  0.77164700  1
  O  O34  1  0.53107300  0.88491700  0.56010400  1
  O  O35  1  0.03107300  0.11508300  0.43989600  1
  O  O36  1  0.64725500  0.72897900  0.44370900  1
  O  O37  1  0.14725500  0.27102100  0.55629100  1
  O  O38  1  0.62888800  0.21349900  0.47006300  1
  O  O39  1  0.12888800  0.78650100  0.52993700  1
  O  O40  1  0.55336700  0.98700300  0.26834800  1
  O  O41  1  0.05336700  0.01299700  0.73165200  1
  O  O42  1  0.40904400  0.62985600  0.66364100  1
  O  O43  1  0.90904400  0.37014400  0.33635900  1
  O  O44  1  0.78503800  0.41123400  0.47393000  1
  O  O45  1  0.28503800  0.58876600  0.52607000  1
  O  O46  1  0.29775400  0.88058100  0.74536100  1
  O  O47  1  0.79775400  0.11941900  0.25463900  1
  O  O48  1  0.29855600  0.37648500  0.78776300  1
  O  O49  1  0.79855600  0.62351500  0.21223700  1
