# generated using pymatgen
data_SrP3H10C3NO9
_symmetry_space_group_name_H-M   'P 1'
_cell_length_a   14.04625000
_cell_length_b   8.20197100
_cell_length_c   11.04892738
_cell_angle_alpha   61.12351850
_cell_angle_beta   90.00000000
_cell_angle_gamma   90.00000000
_symmetry_Int_Tables_number   1
_chemical_formula_structural   SrP3H10C3NO9
_chemical_formula_sum   'Sr4 P12 H40 C12 N4 O36'
_cell_volume   1114.64265060
_cell_formula_units_Z   4
loop_
 _symmetry_equiv_pos_site_id
 _symmetry_equiv_pos_as_xyz
  1  'x, y, z'
loop_
 _atom_site_type_symbol
 _atom_site_label
 _atom_site_symmetry_multiplicity
 _atom_site_fract_x
 _atom_site_fract_y
 _atom_site_fract_z
 _atom_site_occupancy
  Sr  Sr0  1  0.65120700  0.56224300  0.92391200  1
  Sr  Sr1  1  0.84879300  0.56224300  0.42391200  1
  Sr  Sr2  1  0.34879300  0.43775700  0.07608800  1
  Sr  Sr3  1  0.15120700  0.43775700  0.57608800  1
  P  P4  1  0.64082900  0.35961100  0.68468200  1
  P  P5  1  0.85917100  0.35961100  0.18468200  1
  P  P6  1  0.35917100  0.64038900  0.31531800  1
  P  P7  1  0.14082900  0.64038900  0.81531800  1
  P  P8  1  0.45973400  0.78278200  0.74225600  1
  P  P9  1  0.04026600  0.78278200  0.24225600  1
  P  P10  1  0.54026600  0.21721800  0.25774400  1
  P  P11  1  0.95973400  0.21721800  0.75774400  1
  P  P12  1  0.32584400  0.16334200  0.87881600  1
  P  P13  1  0.17415600  0.16334200  0.37881600  1
  P  P14  1  0.67415600  0.83665800  0.12118400  1
  P  P15  1  0.82584400  0.83665800  0.62118400  1
  H  H16  1  0.60862100  0.04023100  0.74264800  1
  H  H17  1  0.89137900  0.04023100  0.24264800  1
  H  H18  1  0.39137900  0.95976900  0.25735200  1
  H  H19  1  0.10862100  0.95976900  0.75735200  1
  H  H20  1  0.58598500  0.19513800  0.56474800  1
  H  H21  1  0.91401500  0.19513800  0.06474800  1
  H  H22  1  0.41401500  0.80486200  0.43525200  1
  H  H23  1  0.08598500  0.80486200  0.93525200  1
  H  H24  1  0.34444100  0.02429000  0.69112000  1
  H  H25  1  0.15555900  0.02429000  0.19112000  1
  H  H26  1  0.65555900  0.97571000  0.30888000  1
  H  H27  1  0.84444100  0.97571000  0.80888000  1
  H  H28  1  0.42366600  0.08358000  0.55035100  1
  H  H29  1  0.07633400  0.08358000  0.05035100  1
  H  H30  1  0.57633400  0.91642000  0.44964900  1
  H  H31  1  0.92366600  0.91642000  0.94964900  1
  H  H32  1  0.46859500  0.97460500  0.91207400  1
  H  H33  1  0.03140500  0.97460500  0.41207400  1
  H  H34  1  0.53140500  0.02539500  0.08792600  1
  H  H35  1  0.96859500  0.02539500  0.58792600  1
  H  H36  1  0.49641300  0.21046100  0.86601400  1
  H  H37  1  0.00358700  0.21046100  0.36601400  1
  H  H38  1  0.50358700  0.78953900  0.13398600  1
  H  H39  1  0.99641300  0.78953900  0.63398600  1
  H  H40  1  0.44060200  0.29029000  0.63192200  1
  H  H41  1  0.05939800  0.29029000  0.13192200  1
  H  H42  1  0.55939800  0.70971000  0.36807800  1
  H  H43  1  0.94060200  0.70971000  0.86807800  1
  H  H44  1  0.29616400  0.86663400  0.01188500  1
  H  H45  1  0.20383600  0.86663400  0.51188500  1
  H  H46  1  0.70383600  0.13336600  0.98811500  1
  H  H47  1  0.79616400  0.13336600  0.48811500  1
  H  H48  1  0.32112700  0.66172000  0.74465300  1
  H  H49  1  0.17887300  0.66172000  0.24465300  1
  H  H50  1  0.67887300  0.33828000  0.25534700  1
  H  H51  1  0.82112700  0.33828000  0.75534700  1
  H  H52  1  0.56754900  0.62859200  0.62719400  1
  H  H53  1  0.93245100  0.62859200  0.12719400  1
  H  H54  1  0.43245100  0.37140800  0.37280600  1
  H  H55  1  0.06754900  0.37140800  0.87280600  1
  C  C56  1  0.57605900  0.17354700  0.67008700  1
  C  C57  1  0.92394100  0.17354700  0.17008700  1
  C  C58  1  0.42394100  0.82645300  0.32991300  1
  C  C59  1  0.07605900  0.82645300  0.82991300  1
  C  C60  1  0.41959400  0.02674700  0.66293800  1
  C  C61  1  0.08040600  0.02674700  0.16293800  1
  C  C62  1  0.58040600  0.97325300  0.33706200  1
  C  C63  1  0.91959400  0.97325300  0.83706200  1
  C  C64  1  0.44938100  0.12042400  0.84471600  1
  C  C65  1  0.05061900  0.12042400  0.34471600  1
  C  C66  1  0.55061900  0.87957600  0.15528400  1
  C  C67  1  0.94938100  0.87957600  0.65528400  1
  N  N68  1  0.46993800  0.16129600  0.69884700  1
  N  N69  1  0.03006200  0.16129600  0.19884700  1
  N  N70  1  0.53006200  0.83870400  0.30115300  1
  N  N71  1  0.96993800  0.83870400  0.80115300  1
  O  O72  1  0.73934400  0.36850700  0.62570000  1
  O  O73  1  0.76065600  0.36850700  0.12570000  1
  O  O74  1  0.26065600  0.63149300  0.37430000  1
  O  O75  1  0.23934400  0.63149300  0.87430000  1
  O  O76  1  0.57829900  0.53835500  0.58800500  1
  O  O77  1  0.92170100  0.53835500  0.08800500  1
  O  O78  1  0.42170100  0.46164500  0.41199500  1
  O  O79  1  0.07829900  0.46164500  0.91199500  1
  O  O80  1  0.64031400  0.32587900  0.83315600  1
  O  O81  1  0.85968600  0.32587900  0.33315600  1
  O  O82  1  0.35968600  0.67412100  0.16684400  1
  O  O83  1  0.14031400  0.67412100  0.66684400  1
  O  O84  1  0.46113200  0.69144600  0.89843100  1
  O  O85  1  0.03886800  0.69144600  0.39843100  1
  O  O86  1  0.53886800  0.30855400  0.10156900  1
  O  O87  1  0.96113200  0.30855400  0.60156900  1
  O  O88  1  0.38042800  0.69772700  0.68593400  1
  O  O89  1  0.11957200  0.69772700  0.18593400  1
  O  O90  1  0.61957200  0.30227300  0.31406600  1
  O  O91  1  0.88042800  0.30227300  0.81406600  1
  O  O92  1  0.55453400  0.76893800  0.68042300  1
  O  O93  1  0.94546600  0.76893800  0.18042300  1
  O  O94  1  0.44546600  0.23106200  0.31957700  1
  O  O95  1  0.05453400  0.23106200  0.81957700  1
  O  O96  1  0.28341100  0.30623000  0.74320400  1
  O  O97  1  0.21658900  0.30623000  0.24320400  1
  O  O98  1  0.71658900  0.69377000  0.25679600  1
  O  O99  1  0.78341100  0.69377000  0.75679600  1
  O  O100  1  0.33297900  0.20240600  0.99873400  1
  O  O101  1  0.16702100  0.20240600  0.49873400  1
  O  O102  1  0.66702100  0.79759400  0.00126600  1
  O  O103  1  0.83297900  0.79759400  0.50126600  1
  O  O104  1  0.27127000  0.97018800  0.92453300  1
  O  O105  1  0.22873000  0.97018800  0.42453300  1
  O  O106  1  0.72873000  0.02981200  0.07546700  1
  O  O107  1  0.77127000  0.02981200  0.57546700  1
