# generated using pymatgen
data_HC2N3
_symmetry_space_group_name_H-M   'P 1'
_cell_length_a   4.21627900
_cell_length_b   12.75390000
_cell_length_c   17.00156400
_cell_angle_alpha   90.00000000
_cell_angle_beta   90.00000000
_cell_angle_gamma   90.00000000
_symmetry_Int_Tables_number   1
_chemical_formula_structural   HC2N3
_chemical_formula_sum   'H12 C24 N36'
_cell_volume   914.24211508
_cell_formula_units_Z   12
loop_
 _symmetry_equiv_pos_site_id
 _symmetry_equiv_pos_as_xyz
  1  'x, y, z'
loop_
 _atom_site_type_symbol
 _atom_site_label
 _atom_site_symmetry_multiplicity
 _atom_site_fract_x
 _atom_site_fract_y
 _atom_site_fract_z
 _atom_site_occupancy
  H  H0  1  0.00000000  0.05687200  0.57729400  1
  H  H1  1  0.00000000  0.94312800  0.42270600  1
  H  H2  1  0.00000000  0.18218800  0.62494900  1
  H  H3  1  0.00000000  0.81781200  0.37505100  1
  H  H4  1  0.00000000  0.61554900  0.38165900  1
  H  H5  1  0.00000000  0.38445100  0.61834100  1
  H  H6  1  0.00000000  0.44312800  0.07729400  1
  H  H7  1  0.00000000  0.55687200  0.92270600  1
  H  H8  1  0.00000000  0.31781200  0.12494900  1
  H  H9  1  0.00000000  0.68218800  0.87505100  1
  H  H10  1  0.00000000  0.11554900  0.11834100  1
  H  H11  1  0.00000000  0.88445100  0.88165900  1
  C  C12  1  0.00000000  0.96433100  0.16315900  1
  C  C13  1  0.00000000  0.03566900  0.83684100  1
  C  C14  1  0.00000000  0.82931600  0.07439100  1
  C  C15  1  0.00000000  0.17068400  0.92560900  1
  C  C16  1  0.00000000  0.80217600  0.21674200  1
  C  C17  1  0.00000000  0.19782400  0.78325800  1
  C  C18  1  0.00000000  0.65197200  0.12932300  1
  C  C19  1  0.00000000  0.34802800  0.87067700  1
  C  C20  1  0.00000000  0.63308200  0.26232100  1
  C  C21  1  0.00000000  0.36691800  0.73767900  1
  C  C22  1  0.00000000  0.46433100  0.33684100  1
  C  C23  1  0.00000000  0.53566900  0.66315900  1
  C  C24  1  0.00000000  0.32931600  0.42560900  1
  C  C25  1  0.00000000  0.67068400  0.57439100  1
  C  C26  1  0.00000000  0.13308200  0.23767900  1
  C  C27  1  0.00000000  0.86691800  0.76232100  1
  C  C28  1  0.00000000  0.15197200  0.37067700  1
  C  C29  1  0.00000000  0.84802800  0.62932300  1
  C  C30  1  0.00000000  0.18127000  0.50392400  1
  C  C31  1  0.00000000  0.81873000  0.49607600  1
  C  C32  1  0.00000000  0.30217600  0.28325800  1
  C  C33  1  0.00000000  0.69782400  0.71674200  1
  C  C34  1  0.00000000  0.31873000  0.00392400  1
  C  C35  1  0.00000000  0.68127000  0.99607600  1
  N  N36  1  0.00000000  0.90529100  0.22812200  1
  N  N37  1  0.00000000  0.09470900  0.77187800  1
  N  N38  1  0.00000000  0.93265400  0.08770300  1
  N  N39  1  0.00000000  0.06734600  0.91229700  1
  N  N40  1  0.00000000  0.76130400  0.14032400  1
  N  N41  1  0.00000000  0.23869600  0.85967600  1
  N  N42  1  0.00000000  0.73730200  0.27814500  1
  N  N43  1  0.00000000  0.26269800  0.72185500  1
  N  N44  1  0.00000000  0.61265200  0.05772000  1
  N  N45  1  0.00000000  0.38734800  0.94228000  1
  N  N46  1  0.00000000  0.58820200  0.19176100  1
  N  N47  1  0.00000000  0.41179800  0.80823900  1
  N  N48  1  0.00000000  0.57318000  0.33004100  1
  N  N49  1  0.00000000  0.42682000  0.66995900  1
  N  N50  1  0.00000000  0.40529100  0.27187800  1
  N  N51  1  0.00000000  0.59470900  0.72812200  1
  N  N52  1  0.00000000  0.43265400  0.41229700  1
  N  N53  1  0.00000000  0.56734600  0.58770300  1
  N  N54  1  0.00000000  0.28848500  0.49864100  1
  N  N55  1  0.00000000  0.71151500  0.50135900  1
  N  N56  1  0.00000000  0.26130400  0.35967600  1
  N  N57  1  0.00000000  0.73869600  0.64032400  1
  N  N58  1  0.00000000  0.23730200  0.22185500  1
  N  N59  1  0.00000000  0.76269800  0.77814500  1
  N  N60  1  0.00000000  0.07318000  0.16995900  1
  N  N61  1  0.00000000  0.92682000  0.83004100  1
  N  N62  1  0.00000000  0.08820200  0.30823900  1
  N  N63  1  0.00000000  0.91179800  0.69176100  1
  N  N64  1  0.00000000  0.11265200  0.44228000  1
  N  N65  1  0.00000000  0.88734800  0.55772000  1
  N  N66  1  0.00000000  0.13729700  0.57448900  1
  N  N67  1  0.00000000  0.86270300  0.42551100  1
  N  N68  1  0.00000000  0.78848500  0.00135900  1
  N  N69  1  0.00000000  0.21151500  0.99864100  1
  N  N70  1  0.00000000  0.36270300  0.07448900  1
  N  N71  1  0.00000000  0.63729700  0.92551100  1
