# generated using pymatgen
data_AlPO6
_symmetry_space_group_name_H-M   'P 1'
_cell_length_a   9.63583500
_cell_length_b   5.31093900
_cell_length_c   10.11475114
_cell_angle_alpha   58.28117623
_cell_angle_beta   90.00000000
_cell_angle_gamma   90.00000000
_symmetry_Int_Tables_number   1
_chemical_formula_structural   AlPO6
_chemical_formula_sum   'Al4 P4 O24'
_cell_volume   440.31235096
_cell_formula_units_Z   4
loop_
 _symmetry_equiv_pos_site_id
 _symmetry_equiv_pos_as_xyz
  1  'x, y, z'
loop_
 _atom_site_type_symbol
 _atom_site_label
 _atom_site_symmetry_multiplicity
 _atom_site_fract_x
 _atom_site_fract_y
 _atom_site_fract_z
 _atom_site_occupancy
  Al  Al0  1  0.81139600  0.88433700  0.18937100  1
  Al  Al1  1  0.68860400  0.88433700  0.68937100  1
  Al  Al2  1  0.18860400  0.11566300  0.81062900  1
  Al  Al3  1  0.31139600  0.11566300  0.31062900  1
  P  P4  1  0.14674400  0.72519200  0.18506300  1
  P  P5  1  0.35325600  0.72519200  0.68506300  1
  P  P6  1  0.85325600  0.27480800  0.81493700  1
  P  P7  1  0.64674400  0.27480800  0.31493700  1
  O  O8  1  0.18894300  0.90182700  0.26132600  1
  O  O9  1  0.31105700  0.90182700  0.76132600  1
  O  O10  1  0.81105700  0.09817300  0.73867400  1
  O  O11  1  0.68894300  0.09817300  0.23867400  1
  O  O12  1  0.20652600  0.87618000  0.01985800  1
  O  O13  1  0.29347400  0.87618000  0.51985800  1
  O  O14  1  0.79347400  0.12382000  0.98014200  1
  O  O15  1  0.70652600  0.12382000  0.48014200  1
  O  O16  1  0.69807000  0.59231300  0.21727300  1
  O  O17  1  0.80193000  0.59231300  0.71727300  1
  O  O18  1  0.30193000  0.40768700  0.78272700  1
  O  O19  1  0.19807000  0.40768700  0.28272700  1
  O  O20  1  0.98533500  0.72426100  0.17865900  1
  O  O21  1  0.51466500  0.72426100  0.67865900  1
  O  O22  1  0.01466500  0.27573900  0.82134100  1
  O  O23  1  0.48533500  0.27573900  0.32134100  1
  O  O24  1  0.44815200  0.84185400  0.30827500  1
  O  O25  1  0.05184800  0.84185400  0.80827500  1
  O  O26  1  0.55184800  0.15814600  0.69172500  1
  O  O27  1  0.94815200  0.15814600  0.19172500  1
  O  O28  1  0.38394600  0.26095200  0.10817900  1
  O  O29  1  0.11605400  0.26095200  0.60817900  1
  O  O30  1  0.61605400  0.73904800  0.89182100  1
  O  O31  1  0.88394600  0.73904800  0.39182100  1
