# generated using pymatgen
data_Nd(BrO6)3
_symmetry_space_group_name_H-M   'P 1'
_cell_length_a   10.92480683
_cell_length_b   10.92480683
_cell_length_c   7.27519200
_cell_angle_alpha   90.00000000
_cell_angle_beta   90.00000000
_cell_angle_gamma   116.52239250
_symmetry_Int_Tables_number   1
_chemical_formula_structural   Nd(BrO6)3
_chemical_formula_sum   'Nd2 Br6 O36'
_cell_volume   776.92394992
_cell_formula_units_Z   2
loop_
 _symmetry_equiv_pos_site_id
 _symmetry_equiv_pos_as_xyz
  1  'x, y, z'
loop_
 _atom_site_type_symbol
 _atom_site_label
 _atom_site_symmetry_multiplicity
 _atom_site_fract_x
 _atom_site_fract_y
 _atom_site_fract_z
 _atom_site_occupancy
  Nd  Nd0  1  0.30883700  0.69116300  0.06774100  1
  Nd  Nd1  1  0.69116300  0.30883700  0.56774100  1
  Br  Br2  1  0.14647300  0.85352700  0.75803300  1
  Br  Br3  1  0.13808600  0.27937300  0.78206000  1
  Br  Br4  1  0.72062700  0.86191400  0.78206000  1
  Br  Br5  1  0.85352700  0.14647300  0.25803300  1
  Br  Br6  1  0.86191400  0.72062700  0.28206000  1
  Br  Br7  1  0.27937300  0.13808600  0.28206000  1
  O  O8  1  0.40416000  0.59584000  0.32134200  1
  O  O9  1  0.44999700  0.82663900  0.41776800  1
  O  O10  1  0.17336100  0.55000300  0.41776800  1
  O  O11  1  0.59584000  0.40416000  0.82134200  1
  O  O12  1  0.55000300  0.17336100  0.91776800  1
  O  O13  1  0.82663900  0.44999700  0.91776800  1
  O  O14  1  0.43035800  0.56964200  0.96028300  1
  O  O15  1  0.45166300  0.90800000  0.97647400  1
  O  O16  1  0.09200000  0.54833700  0.97647400  1
  O  O17  1  0.56964200  0.43035800  0.46028300  1
  O  O18  1  0.54833700  0.09200000  0.47647400  1
  O  O19  1  0.90800000  0.45166300  0.47647400  1
  O  O20  1  0.18703100  0.81296900  0.21903100  1
  O  O21  1  0.26082300  0.50877500  0.44567900  1
  O  O22  1  0.49122500  0.73917700  0.44567900  1
  O  O23  1  0.81296900  0.18703100  0.71903100  1
  O  O24  1  0.73917700  0.49122500  0.94567900  1
  O  O25  1  0.50877500  0.26082300  0.94567900  1
  O  O26  1  0.61631300  0.94329900  0.78393300  1
  O  O27  1  0.08724800  0.68157700  0.74268200  1
  O  O28  1  0.30650800  0.38961200  0.76914300  1
  O  O29  1  0.61038800  0.69349200  0.76914300  1
  O  O30  1  0.05670100  0.38368700  0.78393300  1
  O  O31  1  0.31842300  0.91275200  0.74268200  1
  O  O32  1  0.38368700  0.05670100  0.28393300  1
  O  O33  1  0.91275200  0.31842300  0.24268200  1
  O  O34  1  0.69349200  0.61038800  0.26914300  1
  O  O35  1  0.38961200  0.30650800  0.26914300  1
  O  O36  1  0.94329900  0.61631300  0.28393300  1
  O  O37  1  0.68157700  0.08724800  0.24268200  1
  O  O38  1  0.11376200  0.88623800  0.97709400  1
  O  O39  1  0.10830100  0.19577700  0.98049900  1
  O  O40  1  0.80422300  0.89169900  0.98049900  1
  O  O41  1  0.88623800  0.11376200  0.47709400  1
  O  O42  1  0.89169900  0.80422300  0.48049900  1
  O  O43  1  0.19577700  0.10830100  0.48049900  1
