data_image0
_chemical_formula_structural       Mn2O6Ti2
_chemical_formula_sum              "Mn2 O6 Ti2"
_cell_length_a       5.59427
_cell_length_b       5.59427
_cell_length_c       5.59427
_cell_angle_alpha    54.7686
_cell_angle_beta     54.7686
_cell_angle_gamma    54.7686

_space_group_name_H-M_alt    "P 1"
_space_group_IT_number       1

loop_
  _space_group_symop_operation_xyz
  'x, y, z'

loop_
  _atom_site_type_symbol
  _atom_site_label
  _atom_site_symmetry_multiplicity
  _atom_site_fract_x
  _atom_site_fract_y
  _atom_site_fract_z
  _atom_site_occupancy
  Mn  Mn1       1.0  0.35900  0.35900  0.35900  1.0000
  Mn  Mn2       1.0  0.64100  0.64100  0.64100  1.0000
  O   O1        1.0  0.78200  0.43800  0.04450  1.0000
  O   O2        1.0  0.56200  0.95600  0.21800  1.0000
  O   O3        1.0  0.04450  0.78200  0.43800  1.0000
  O   O4        1.0  0.95600  0.21800  0.56200  1.0000
  O   O5        1.0  0.43800  0.04450  0.78200  1.0000
  O   O6        1.0  0.21800  0.56200  0.95600  1.0000
  Ti  Ti1       1.0  0.14800  0.14800  0.14800  1.0000
  Ti  Ti2       1.0  0.85200  0.85200  0.85200  1.0000
