# generated using pymatgen
data_Hg3N4(Cl5O)2
_symmetry_space_group_name_H-M   'P 1'
_cell_length_a   3.44826400
_cell_length_b   16.58740800
_cell_length_c   22.20053400
_cell_angle_alpha   90.00000000
_cell_angle_beta   90.00000000
_cell_angle_gamma   90.00000000
_symmetry_Int_Tables_number   1
_chemical_formula_structural   Hg3N4(Cl5O)2
_chemical_formula_sum   'Hg6 N8 Cl20 O4'
_cell_volume   1269.82085689
_cell_formula_units_Z   2
loop_
 _symmetry_equiv_pos_site_id
 _symmetry_equiv_pos_as_xyz
  1  'x, y, z'
loop_
 _atom_site_type_symbol
 _atom_site_label
 _atom_site_symmetry_multiplicity
 _atom_site_fract_x
 _atom_site_fract_y
 _atom_site_fract_z
 _atom_site_occupancy
  Hg  Hg0  1  0.50000000  0.98956700  0.60321700  1
  Hg  Hg1  1  0.50000000  0.01043300  0.39678300  1
  Hg  Hg2  1  0.50000000  0.98956700  0.89678300  1
  Hg  Hg3  1  0.50000000  0.01043300  0.10321700  1
  Hg  Hg4  1  0.50000000  0.50000000  0.50000000  1
  Hg  Hg5  1  0.50000000  0.50000000  0.00000000  1
  N  N6  1  0.00000000  0.28272200  0.47888200  1
  N  N7  1  0.00000000  0.71727800  0.52111800  1
  N  N8  1  0.00000000  0.28272200  0.02111800  1
  N  N9  1  0.00000000  0.71727800  0.97888200  1
  N  N10  1  0.00000000  0.52102900  0.75000000  1
  N  N11  1  0.00000000  0.47897100  0.25000000  1
  N  N12  1  0.00000000  0.23062500  0.75000000  1
  N  N13  1  0.00000000  0.76937500  0.25000000  1
  Cl  Cl14  1  0.50000000  0.12256000  0.63877700  1
  Cl  Cl15  1  0.50000000  0.87744000  0.36122300  1
  Cl  Cl16  1  0.50000000  0.12256000  0.86122300  1
  Cl  Cl17  1  0.50000000  0.87744000  0.13877700  1
  Cl  Cl18  1  0.50000000  0.84807400  0.61115300  1
  Cl  Cl19  1  0.50000000  0.15192600  0.38884700  1
  Cl  Cl20  1  0.50000000  0.84807400  0.88884700  1
  Cl  Cl21  1  0.50000000  0.15192600  0.11115300  1
  Cl  Cl22  1  0.00000000  0.00000000  0.50000000  1
  Cl  Cl23  1  0.00000000  0.00000000  0.00000000  1
  Cl  Cl24  1  0.00000000  0.92178100  0.75000000  1
  Cl  Cl25  1  0.00000000  0.07821900  0.25000000  1
  Cl  Cl26  1  0.50000000  0.43414600  0.59050900  1
  Cl  Cl27  1  0.50000000  0.56585400  0.40949100  1
  Cl  Cl28  1  0.50000000  0.43414600  0.90949100  1
  Cl  Cl29  1  0.50000000  0.56585400  0.09050900  1
  Cl  Cl30  1  0.00000000  0.65985900  0.57950500  1
  Cl  Cl31  1  0.00000000  0.34014100  0.42049500  1
  Cl  Cl32  1  0.00000000  0.65985900  0.92049500  1
  Cl  Cl33  1  0.00000000  0.34014100  0.07950500  1
  O  O34  1  0.50000000  0.52127000  0.75000000  1
  O  O35  1  0.50000000  0.47873000  0.25000000  1
  O  O36  1  0.00000000  0.82817200  0.75000000  1
  O  O37  1  0.00000000  0.17182800  0.25000000  1
