# generated using pymatgen
data_Mn5H8S3O16
_symmetry_space_group_name_H-M   'P 1'
_cell_length_a   7.79693604
_cell_length_b   8.70493100
_cell_length_c   11.02427078
_cell_angle_alpha   90.00000000
_cell_angle_beta   101.79871760
_cell_angle_gamma   90.00000000
_symmetry_Int_Tables_number   1
_chemical_formula_structural   Mn5H8S3O16
_chemical_formula_sum   'Mn10 H16 S6 O32'
_cell_volume   732.42821662
_cell_formula_units_Z   2
loop_
 _symmetry_equiv_pos_site_id
 _symmetry_equiv_pos_as_xyz
  1  'x, y, z'
loop_
 _atom_site_type_symbol
 _atom_site_label
 _atom_site_symmetry_multiplicity
 _atom_site_fract_x
 _atom_site_fract_y
 _atom_site_fract_z
 _atom_site_occupancy
  Mn  Mn0  1  0.54913000  0.75000000  0.10911000  1
  Mn  Mn1  1  0.45087000  0.25000000  0.89089000  1
  Mn  Mn2  1  0.19240300  0.05170100  0.10476700  1
  Mn  Mn3  1  0.80759700  0.55170100  0.89523300  1
  Mn  Mn4  1  0.80759700  0.94829900  0.89523300  1
  Mn  Mn5  1  0.19240300  0.44829900  0.10476700  1
  Mn  Mn6  1  0.54884100  0.94603900  0.36085800  1
  Mn  Mn7  1  0.45115900  0.44603900  0.63914200  1
  Mn  Mn8  1  0.45115900  0.05396100  0.63914200  1
  Mn  Mn9  1  0.54884100  0.55396100  0.36085800  1
  H  H10  1  0.88686300  0.03036200  0.33176500  1
  H  H11  1  0.11313700  0.53036200  0.66823500  1
  H  H12  1  0.11313700  0.96963800  0.66823500  1
  H  H13  1  0.88686300  0.46963800  0.33176500  1
  H  H14  1  0.85768300  0.12244800  0.45162100  1
  H  H15  1  0.14231700  0.62244800  0.54837900  1
  H  H16  1  0.14231700  0.87755200  0.54837900  1
  H  H17  1  0.85768300  0.37755200  0.45162100  1
  H  H18  1  0.53001800  0.06180400  0.13576700  1
  H  H19  1  0.46998200  0.56180400  0.86423300  1
  H  H20  1  0.46998200  0.93819600  0.86423300  1
  H  H21  1  0.53001800  0.43819600  0.13576700  1
  H  H22  1  0.80877000  0.75000000  0.33583400  1
  H  H23  1  0.19122900  0.25000000  0.66416600  1
  H  H24  1  0.86878000  0.75000000  0.07966900  1
  H  H25  1  0.13122000  0.25000000  0.92033100  1
  S  S26  1  0.16357600  0.75000000  0.88732200  1
  S  S27  1  0.83642400  0.25000000  0.11267800  1
  S  S28  1  0.26858900  0.25000000  0.38633600  1
  S  S29  1  0.73141100  0.75000000  0.61366400  1
  S  S30  1  0.14997900  0.75000000  0.30741400  1
  S  S31  1  0.85002100  0.25000000  0.69258600  1
  O  O32  1  0.36419200  0.75000000  0.93302200  1
  O  O33  1  0.63580800  0.25000000  0.06697800  1
  O  O34  1  0.09653000  0.89121900  0.95119400  1
  O  O35  1  0.90347000  0.39121900  0.04880600  1
  O  O36  1  0.90347000  0.10878100  0.04880600  1
  O  O37  1  0.09653000  0.60878100  0.95119400  1
  O  O38  1  0.38734600  0.10897000  0.43248300  1
  O  O39  1  0.61265400  0.60897000  0.56751700  1
  O  O40  1  0.61265400  0.89103000  0.56751700  1
  O  O41  1  0.38734600  0.39103000  0.43248300  1
  O  O42  1  0.25096500  0.25000000  0.24407800  1
  O  O43  1  0.74903500  0.75000000  0.75592200  1
  O  O44  1  0.07439200  0.75000000  0.42133000  1
  O  O45  1  0.92560800  0.25000000  0.57867000  1
  O  O46  1  0.34730300  0.75000000  0.34184300  1
  O  O47  1  0.65269700  0.25000000  0.65815700  1
  O  O48  1  0.09007700  0.60909200  0.23465700  1
  O  O49  1  0.90992300  0.10909200  0.76534300  1
  O  O50  1  0.90992300  0.39090800  0.76534300  1
  O  O51  1  0.09007700  0.89090800  0.23465700  1
  O  O52  1  0.79909800  0.06417500  0.37762400  1
  O  O53  1  0.20090200  0.56417500  0.62237600  1
  O  O54  1  0.20090200  0.93582500  0.62237600  1
  O  O55  1  0.79909800  0.43582500  0.37762400  1
  O  O56  1  0.46043500  0.97688000  0.15964400  1
  O  O57  1  0.53956500  0.47688000  0.84035600  1
  O  O58  1  0.53956500  0.02312000  0.84035600  1
  O  O59  1  0.46043500  0.52312000  0.15964400  1
  O  O60  1  0.68181700  0.75000000  0.30389700  1
  O  O61  1  0.31818300  0.25000000  0.69610300  1
  O  O62  1  0.76222700  0.75000000  0.01489900  1
  O  O63  1  0.23777300  0.25000000  0.98510100  1
