# generated using pymatgen
data_Fe2P2N2Cl2(O2F)3
_symmetry_space_group_name_H-M   'P 1'
_cell_length_a   7.35876500
_cell_length_b   7.50356300
_cell_length_c   20.84197600
_cell_angle_alpha   90.00000000
_cell_angle_beta   90.00000000
_cell_angle_gamma   90.00000000
_symmetry_Int_Tables_number   1
_chemical_formula_structural   Fe2P2N2Cl2(O2F)3
_chemical_formula_sum   'Fe8 P8 N8 Cl8 O24 F12'
_cell_volume   1150.83048800
_cell_formula_units_Z   4
loop_
 _symmetry_equiv_pos_site_id
 _symmetry_equiv_pos_as_xyz
  1  'x, y, z'
loop_
 _atom_site_type_symbol
 _atom_site_label
 _atom_site_symmetry_multiplicity
 _atom_site_fract_x
 _atom_site_fract_y
 _atom_site_fract_z
 _atom_site_occupancy
  Fe  Fe0  1  0.69173700  0.26394300  0.07747500  1
  Fe  Fe1  1  0.30826300  0.73605700  0.57747500  1
  Fe  Fe2  1  0.80826300  0.26394300  0.57747500  1
  Fe  Fe3  1  0.19173700  0.73605700  0.07747500  1
  Fe  Fe4  1  0.50865000  0.99822300  0.32300600  1
  Fe  Fe5  1  0.49135000  0.00177700  0.82300600  1
  Fe  Fe6  1  0.99135000  0.99822300  0.82300600  1
  Fe  Fe7  1  0.00865000  0.00177700  0.32300600  1
  P  P8  1  0.26148000  0.75738600  0.42068500  1
  P  P9  1  0.73852000  0.24261400  0.92068500  1
  P  P10  1  0.23852000  0.75738600  0.92068500  1
  P  P11  1  0.76148000  0.24261400  0.42068500  1
  P  P12  1  0.74919400  0.26528100  0.23463600  1
  P  P13  1  0.25080600  0.73471900  0.73463600  1
  P  P14  1  0.75080600  0.26528100  0.73463600  1
  P  P15  1  0.24919400  0.73471900  0.23463600  1
  N  N16  1  0.23816100  0.20334000  0.97836000  1
  N  N17  1  0.76183900  0.79666000  0.47836000  1
  N  N18  1  0.26183900  0.20334000  0.47836000  1
  N  N19  1  0.73816100  0.79666000  0.97836000  1
  N  N20  1  0.24990600  0.23746300  0.17428200  1
  N  N21  1  0.75009400  0.76253700  0.67428200  1
  N  N22  1  0.25009400  0.23746300  0.67428200  1
  N  N23  1  0.74990600  0.76253700  0.17428200  1
  Cl  Cl24  1  0.00686000  0.50741900  0.05849100  1
  Cl  Cl25  1  0.99314000  0.49258100  0.55849100  1
  Cl  Cl26  1  0.49314000  0.50741900  0.55849100  1
  Cl  Cl27  1  0.50686000  0.49258100  0.05849100  1
  Cl  Cl28  1  0.02717300  0.98743100  0.09446300  1
  Cl  Cl29  1  0.97282700  0.01256900  0.59446300  1
  Cl  Cl30  1  0.47282700  0.98743100  0.59446300  1
  Cl  Cl31  1  0.52717300  0.01256900  0.09446300  1
  O  O32  1  0.58012400  0.15399900  0.24875300  1
  O  O33  1  0.41987600  0.84600100  0.74875300  1
  O  O34  1  0.91987600  0.15399900  0.74875300  1
  O  O35  1  0.08012400  0.84600100  0.24875300  1
  O  O36  1  0.92428700  0.19442100  0.26404800  1
  O  O37  1  0.07571300  0.80557900  0.76404800  1
  O  O38  1  0.57571300  0.19442100  0.76404800  1
  O  O39  1  0.42428700  0.80557900  0.26404800  1
  O  O40  1  0.43785200  0.84564800  0.39863400  1
  O  O41  1  0.56214800  0.15435200  0.89863400  1
  O  O42  1  0.06214800  0.84564800  0.89863400  1
  O  O43  1  0.93785200  0.15435200  0.39863400  1
  O  O44  1  0.59463400  0.19261800  0.38161000  1
  O  O45  1  0.40536600  0.80738200  0.88161000  1
  O  O46  1  0.90536600  0.19261800  0.88161000  1
  O  O47  1  0.09463400  0.80738200  0.38161000  1
  O  O48  1  0.27396000  0.69821600  0.16271700  1
  O  O49  1  0.72604000  0.30178400  0.66271700  1
  O  O50  1  0.22604000  0.69821600  0.66271700  1
  O  O51  1  0.77396000  0.30178400  0.16271700  1
  O  O52  1  0.77436700  0.21538100  0.99266600  1
  O  O53  1  0.22563300  0.78461900  0.49266600  1
  O  O54  1  0.72563300  0.21538100  0.49266600  1
  O  O55  1  0.27436700  0.78461900  0.99266600  1
  F  F56  1  0.21118600  0.55126100  0.91210700  1
  F  F57  1  0.78881400  0.44873900  0.41210700  1
  F  F58  1  0.28881400  0.55126100  0.41210700  1
  F  F59  1  0.71118600  0.44873900  0.91210700  1
  F  F60  1  0.75930300  0.89825100  0.32335700  1
  F  F61  1  0.24069700  0.10174900  0.82335700  1
  F  F62  1  0.74069700  0.89825100  0.82335700  1
  F  F63  1  0.25930300  0.10174900  0.32335700  1
  F  F64  1  0.21571100  0.54498100  0.26440100  1
  F  F65  1  0.78428900  0.45501900  0.76440100  1
  F  F66  1  0.28428900  0.54498100  0.76440100  1
  F  F67  1  0.71571100  0.45501900  0.26440100  1
