data_image0
_chemical_formula_structural       Ag2Ho2Se4
_chemical_formula_sum              "Ag2 Ho2 Se4"
_cell_length_a       5.62578
_cell_length_b       5.62578
_cell_length_c       7.38755
_cell_angle_alpha    112.381
_cell_angle_beta     112.381
_cell_angle_gamma    90

_space_group_name_H-M_alt    "P 1"
_space_group_IT_number       1

loop_
  _space_group_symop_operation_xyz
  'x, y, z'

loop_
  _atom_site_type_symbol
  _atom_site_label
  _atom_site_symmetry_multiplicity
  _atom_site_fract_x
  _atom_site_fract_y
  _atom_site_fract_z
  _atom_site_occupancy
  Ag  Ag1       1.0  0.54200  0.54200  0.08420  1.0000
  Ag  Ag2       1.0  0.79200  0.29200  0.58400  1.0000
  Ho  Ho1       1.0  0.00065  0.00065  0.00130  1.0000
  Ho  Ho2       1.0  0.25100  0.75100  0.50100  1.0000
  Se  Se1       1.0  0.01880  0.51900  0.03760  1.0000
  Se  Se2       1.0  0.22800  0.22800  0.45700  1.0000
  Se  Se3       1.0  0.76900  0.76900  0.53800  1.0000
  Se  Se4       1.0  0.47800  0.97800  0.95700  1.0000
