# generated using pymatgen
data_K2Mg2(MoO4)3
_symmetry_space_group_name_H-M   'P 1'
_cell_length_a   10.78546879
_cell_length_b   10.79603590
_cell_length_c   32.36289867
_cell_angle_alpha   90.00000000
_cell_angle_beta   90.00000000
_cell_angle_gamma   90.00000000
_symmetry_Int_Tables_number   1
_chemical_formula_structural   K2Mg2(MoO4)3
_chemical_formula_sum   'K24 Mg24 Mo36 O144'
_cell_volume   3768.34589717
_cell_formula_units_Z   12
loop_
 _symmetry_equiv_pos_site_id
 _symmetry_equiv_pos_as_xyz
  1  'x, y, z'
loop_
 _atom_site_type_symbol
 _atom_site_label
 _atom_site_symmetry_multiplicity
 _atom_site_fract_x
 _atom_site_fract_y
 _atom_site_fract_z
 _atom_site_occupancy
  K  K0  1  0.30975818  0.31903049  0.93841035  1
  K  K1  1  0.69024182  0.81903049  0.56158965  1
  K  K2  1  0.19024182  0.68096951  0.43841035  1
  K  K3  1  0.80975818  0.18096951  0.06158965  1
  K  K4  1  0.67933353  0.82562277  0.89548101  1
  K  K5  1  0.32066647  0.32562277  0.60451899  1
  K  K6  1  0.82066647  0.17437723  0.39548101  1
  K  K7  1  0.17933353  0.67437723  0.10451899  1
  K  K8  1  0.18530827  0.68778069  0.77483853  1
  K  K9  1  0.81469173  0.18778069  0.72516147  1
  K  K10  1  0.31469173  0.31221931  0.27483853  1
  K  K11  1  0.68530827  0.81221931  0.22516147  1
  K  K12  1  0.46604625  0.04691799  0.81501061  1
  K  K13  1  0.53395375  0.54691799  0.68498939  1
  K  K14  1  0.03395375  0.95308201  0.31501061  1
  K  K15  1  0.96604625  0.45308201  0.18498939  1
  K  K16  1  0.03799125  0.96759555  0.97728017  1
  K  K17  1  0.96200875  0.46759555  0.52271983  1
  K  K18  1  0.46200875  0.03240445  0.47728017  1
  K  K19  1  0.53799125  0.53240445  0.02271983  1
  K  K20  1  0.92627973  0.46019402  0.84424584  1
  K  K21  1  0.07372027  0.96019402  0.65575416  1
  K  K22  1  0.57372027  0.53980598  0.34424584  1
  K  K23  1  0.42627973  0.03980598  0.15575416  1
  Mg  Mg24  1  0.60118613  0.37172288  0.79296698  1
  Mg  Mg25  1  0.39881387  0.87172288  0.70703302  1
  Mg  Mg26  1  0.89881387  0.62827712  0.29296698  1
  Mg  Mg27  1  0.10118613  0.12827712  0.20703302  1
  Mg  Mg28  1  0.12177136  0.12576506  0.86676958  1
  Mg  Mg29  1  0.87822864  0.62576506  0.63323042  1
  Mg  Mg30  1  0.37822864  0.87423494  0.36676958  1
  Mg  Mg31  1  0.62177136  0.37423494  0.13323042  1
  Mg  Mg32  1  0.86904785  0.60335188  0.96529301  1
  Mg  Mg33  1  0.13095215  0.10335188  0.53470699  1
  Mg  Mg34  1  0.63095215  0.39664812  0.46529301  1
  Mg  Mg35  1  0.36904785  0.89664812  0.03470699  1
  Mg  Mg36  1  0.85314032  0.81699914  0.78546595  1
  Mg  Mg37  1  0.14685968  0.31699914  0.71453405  1
  Mg  Mg38  1  0.64685968  0.18300086  0.28546595  1
  Mg  Mg39  1  0.35314032  0.68300086  0.21453405  1
  Mg  Mg40  1  0.33533910  0.65647663  0.88931853  1
  Mg  Mg41  1  0.66466090  0.15647663  0.61068147  1
  Mg  Mg42  1  0.16466090  0.34352337  0.38931853  1
  Mg  Mg43  1  0.83533910  0.84352337  0.11068147  1
  Mg  Mg44  1  0.68645733  0.14754942  0.94919201  1
  Mg  Mg45  1  0.31354267  0.64754942  0.55080799  1
  Mg  Mg46  1  0.81354267  0.85245058  0.44919201  1
  Mg  Mg47  1  0.18645733  0.35245058  0.05080799  1
  Mo  Mo48  1  0.13079164  0.02273225  0.76620036  1
  Mo  Mo49  1  0.86920836  0.52273225  0.73379964  1
  Mo  Mo50  1  0.36920836  0.97726775  0.26620036  1
  Mo  Mo51  1  0.63079164  0.47726775  0.23379964  1
  Mo  Mo52  1  0.61473946  0.46818352  0.90440753  1
  Mo  Mo53  1  0.38526054  0.96818352  0.59559247  1
  Mo  Mo54  1  0.88526054  0.53181648  0.40440753  1
  Mo  Mo55  1  0.11473946  0.03181648  0.09559247  1
  Mo  Mo56  1  0.38360778  0.98279208  0.93294651  1
  Mo  Mo57  1  0.61639222  0.48279208  0.56705349  1
  Mo  Mo58  1  0.11639222  0.01720792  0.43294651  1
  Mo  Mo59  1  0.88360778  0.51720792  0.06705349  1
  Mo  Mo60  1  0.97870339  0.30588345  0.95689291  1
  Mo  Mo61  1  0.02129661  0.80588345  0.54310709  1
  Mo  Mo62  1  0.52129661  0.69411655  0.45689291  1
  Mo  Mo63  1  0.47870339  0.19411655  0.04310709  1
  Mo  Mo64  1  0.01958604  0.79682295  0.88017537  1
  Mo  Mo65  1  0.98041396  0.29682295  0.61982463  1
  Mo  Mo66  1  0.48041396  0.20317705  0.38017537  1
  Mo  Mo67  1  0.51958604  0.70317705  0.11982463  1
  Mo  Mo68  1  0.52819736  0.69155412  0.79532906  1
  Mo  Mo69  1  0.47180264  0.19155412  0.70467094  1
  Mo  Mo70  1  0.97180264  0.30844588  0.29532906  1
  Mo  Mo71  1  0.02819736  0.80844588  0.20467094  1
  Mo  Mo72  1  0.80449883  0.11763303  0.83950553  1
  Mo  Mo73  1  0.19550117  0.61763303  0.66049447  1
  Mo  Mo74  1  0.69550117  0.88236697  0.33950553  1
  Mo  Mo75  1  0.30449883  0.38236697  0.16049447  1
  Mo  Mo76  1  0.19080385  0.62444628  0.99190195  1
  Mo  Mo77  1  0.80919615  0.12444628  0.50809805  1
  Mo  Mo78  1  0.30919615  0.37555372  0.49190195  1
  Mo  Mo79  1  0.69080385  0.87555372  0.00809805  1
  Mo  Mo80  1  0.28345416  0.38278550  0.81907769  1
  Mo  Mo81  1  0.71654584  0.88278550  0.68092231  1
  Mo  Mo82  1  0.21654584  0.61721450  0.31907769  1
  Mo  Mo83  1  0.78345416  0.11721450  0.18092231  1
  O  O84  1  0.01892228  0.90919870  0.78160539  1
  O  O85  1  0.98107772  0.40919870  0.71839461  1
  O  O86  1  0.48107772  0.09080130  0.28160539  1
  O  O87  1  0.51892228  0.59080130  0.21839461  1
  O  O88  1  0.06078568  0.14832654  0.73808506  1
  O  O89  1  0.93921432  0.64832654  0.76191494  1
  O  O90  1  0.43921432  0.85167346  0.23808506  1
  O  O91  1  0.56078568  0.35167346  0.26191494  1
  O  O92  1  0.21429656  0.07566935  0.81095946  1
  O  O93  1  0.78570344  0.57566935  0.68904054  1
  O  O94  1  0.28570344  0.92433065  0.31095946  1
  O  O95  1  0.71429656  0.42433065  0.18904054  1
  O  O96  1  0.23378673  0.94218905  0.73211186  1
  O  O97  1  0.76621327  0.44218905  0.76788814  1
  O  O98  1  0.26621327  0.05781095  0.23211186  1
  O  O99  1  0.73378673  0.55781095  0.26788814  1
  O  O100  1  0.71541237  0.58518372  0.92581673  1
  O  O101  1  0.28458763  0.08518372  0.57418327  1
  O  O102  1  0.78458763  0.41481628  0.42581673  1
  O  O103  1  0.21541237  0.91481628  0.07418327  1
  O  O104  1  0.65361316  0.44502907  0.85097708  1
  O  O105  1  0.34638684  0.94502907  0.64902292  1
  O  O106  1  0.84638684  0.55497093  0.35097708  1
  O  O107  1  0.15361316  0.05497093  0.14902292  1
  O  O108  1  0.62221333  0.32644452  0.93301261  1
  O  O109  1  0.37778667  0.82644452  0.56698739  1
  O  O110  1  0.87778667  0.67355548  0.43301261  1
  O  O111  1  0.12221333  0.17355548  0.06698739  1
  O  O112  1  0.45813748  0.52069344  0.91077524  1
  O  O113  1  0.54186252  0.02069344  0.58922476  1
  O  O114  1  0.04186252  0.47930656  0.41077524  1
  O  O115  1  0.95813748  0.97930656  0.08922476  1
  O  O116  1  0.32241932  0.01672863  0.98376161  1
  O  O117  1  0.67758068  0.51672863  0.51623839  1
  O  O118  1  0.17758068  0.98327137  0.48376161  1
  O  O119  1  0.82241932  0.48327137  0.01623839  1
  O  O120  1  0.38036459  0.82130584  0.91994452  1
  O  O121  1  0.61963541  0.32130584  0.58005548  1
  O  O122  1  0.11963541  0.17869416  0.41994452  1
  O  O123  1  0.88036459  0.67869416  0.08005548  1
  O  O124  1  0.53620131  0.04531429  0.92329259  1
  O  O125  1  0.46379869  0.54531429  0.57670741  1
  O  O126  1  0.96379869  0.95468571  0.42329259  1
  O  O127  1  0.03620131  0.45468571  0.07670741  1
  O  O128  1  0.28312863  0.06458281  0.89788709  1
  O  O129  1  0.71687137  0.56458281  0.60211291  1
  O  O130  1  0.21687137  0.93541719  0.39788709  1
  O  O131  1  0.78312863  0.43541719  0.10211291  1
  O  O132  1  0.09039996  0.34177362  0.99595833  1
  O  O133  1  0.90960004  0.84177362  0.50404167  1
  O  O134  1  0.40960004  0.65822638  0.49595833  1
  O  O135  1  0.59039996  0.15822638  0.00404167  1
  O  O136  1  0.05621316  0.20464345  0.92148795  1
  O  O137  1  0.94378684  0.70464345  0.57851205  1
  O  O138  1  0.44378684  0.79535655  0.42148795  1
  O  O139  1  0.55621316  0.29535655  0.07851205  1
  O  O140  1  0.93336158  0.44575963  0.93033178  1
  O  O141  1  0.06663842  0.94575963  0.56966822  1
  O  O142  1  0.56663842  0.55424037  0.43033178  1
  O  O143  1  0.43336158  0.05424037  0.06966822  1
  O  O144  1  0.85053738  0.22060096  0.97813314  1
  O  O145  1  0.14946262  0.72060096  0.52186686  1
  O  O146  1  0.64946262  0.77939904  0.47813314  1
  O  O147  1  0.35053738  0.27939904  0.02186686  1
  O  O148  1  0.16995199  0.73747644  0.86714272  1
  O  O149  1  0.83004801  0.23747644  0.63285728  1
  O  O150  1  0.33004801  0.26252356  0.36714272  1
  O  O151  1  0.66995199  0.76252356  0.13285728  1
  O  O152  1  0.02595978  0.96306819  0.88214770  1
  O  O153  1  0.97404022  0.46306819  0.61785230  1
  O  O154  1  0.47404022  0.03693181  0.38214770  1
  O  O155  1  0.52595978  0.53693181  0.11785230  1
  O  O156  1  0.90981571  0.73983660  0.84312750  1
  O  O157  1  0.09018429  0.23983660  0.65687250  1
  O  O158  1  0.59018429  0.26016340  0.34312750  1
  O  O159  1  0.40981571  0.76016340  0.15687250  1
  O  O160  1  0.96258738  0.74675596  0.92977625  1
  O  O161  1  0.03741262  0.24675596  0.57022375  1
  O  O162  1  0.53741262  0.25324404  0.42977625  1
  O  O163  1  0.46258738  0.75324404  0.07022375  1
  O  O164  1  0.68642307  0.73163878  0.78864466  1
  O  O165  1  0.31357693  0.23163878  0.71135534  1
  O  O166  1  0.81357693  0.26836122  0.28864466  1
  O  O167  1  0.18642307  0.76836122  0.21135534  1
  O  O168  1  0.50613285  0.53679382  0.77565428  1
  O  O169  1  0.49386715  0.03679382  0.72434572  1
  O  O170  1  0.99386715  0.46320618  0.27565428  1
  O  O171  1  0.00613285  0.96320618  0.22434572  1
  O  O172  1  0.43227184  0.79770561  0.76655748  1
  O  O173  1  0.56772816  0.29770561  0.73344252  1
  O  O174  1  0.06772816  0.20229439  0.26655748  1
  O  O175  1  0.93227184  0.70229439  0.23344252  1
  O  O176  1  0.49031149  0.71305818  0.84914479  1
  O  O177  1  0.50968851  0.21305818  0.65085521  1
  O  O178  1  0.00968851  0.28694182  0.34914479  1
  O  O179  1  0.99031149  0.78694182  0.15085521  1
  O  O180  1  0.77087546  0.13290147  0.89310441  1
  O  O181  1  0.22912454  0.63290147  0.60689559  1
  O  O182  1  0.72912454  0.86709853  0.39310441  1
  O  O183  1  0.27087546  0.36709853  0.10689559  1
  O  O184  1  0.69767116  0.20932337  0.80955880  1
  O  O185  1  0.30232884  0.70932337  0.69044120  1
  O  O186  1  0.80232884  0.79067663  0.30955880  1
  O  O187  1  0.19767116  0.29067663  0.19044120  1
  O  O188  1  0.77724422  0.96027642  0.82349820  1
  O  O189  1  0.22275578  0.46027642  0.67650180  1
  O  O190  1  0.72275578  0.03972358  0.32349820  1
  O  O191  1  0.27724422  0.53972358  0.17650180  1
  O  O192  1  0.95919030  0.17363892  0.82963940  1
  O  O193  1  0.04080970  0.67363892  0.67036060  1
  O  O194  1  0.54080970  0.82636108  0.32963940  1
  O  O195  1  0.45919030  0.32636108  0.17036060  1
  O  O196  1  0.26445235  0.52340653  0.02888253  1
  O  O197  1  0.73554765  0.02340653  0.47111747  1
  O  O198  1  0.23554765  0.47659347  0.52888253  1
  O  O199  1  0.76445235  0.97659347  0.97111747  1
  O  O200  1  0.22925329  0.57892124  0.93996805  1
  O  O201  1  0.77074671  0.07892124  0.56003195  1
  O  O202  1  0.27074671  0.42107876  0.43996805  1
  O  O203  1  0.72925329  0.92107876  0.06003195  1
  O  O204  1  0.24981247  0.77537439  0.00292592  1
  O  O205  1  0.75018753  0.27537439  0.49707408  1
  O  O206  1  0.25018753  0.22462561  0.50292592  1
  O  O207  1  0.74981247  0.72462561  0.99707408  1
  O  O208  1  0.02665166  0.62762982  0.00146965  1
  O  O209  1  0.97334834  0.12762982  0.49853035  1
  O  O210  1  0.47334834  0.37237018  0.50146965  1
  O  O211  1  0.52665166  0.87237018  0.99853035  1
  O  O212  1  0.43110570  0.30454630  0.81431107  1
  O  O213  1  0.56889430  0.80454630  0.68568893  1
  O  O214  1  0.06889430  0.69545370  0.31431107  1
  O  O215  1  0.93110570  0.19545370  0.18568893  1
  O  O216  1  0.19105689  0.30272001  0.85659084  1
  O  O217  1  0.80894311  0.80272001  0.64340916  1
  O  O218  1  0.30894311  0.69727999  0.35659084  1
  O  O219  1  0.69105689  0.19727999  0.14340916  1
  O  O220  1  0.29673832  0.53720229  0.83876033  1
  O  O221  1  0.70326168  0.03720229  0.66123967  1
  O  O222  1  0.20326168  0.46279771  0.33876033  1
  O  O223  1  0.79673832  0.96279771  0.16123967  1
  O  O224  1  0.19790739  0.39572788  0.77158631  1
  O  O225  1  0.80209261  0.89572788  0.72841369  1
  O  O226  1  0.30209261  0.60427212  0.27158631  1
  O  O227  1  0.69790739  0.10427212  0.22841369  1
