# generated using pymatgen
data_ZnS
_symmetry_space_group_name_H-M   'P 1'
_cell_length_a   3.87544044
_cell_length_b   3.87544044
_cell_length_c   56.54702246
_cell_angle_alpha   88.03623692
_cell_angle_beta   88.03623692
_cell_angle_gamma   59.99999247
_symmetry_Int_Tables_number   1
_chemical_formula_structural   ZnS
_chemical_formula_sum   'Zn18 S18'
_cell_volume   734.92365431
_cell_formula_units_Z   18
loop_
 _symmetry_equiv_pos_site_id
 _symmetry_equiv_pos_as_xyz
  1  'x, y, z'
loop_
 _atom_site_type_symbol
 _atom_site_label
 _atom_site_symmetry_multiplicity
 _atom_site_fract_x
 _atom_site_fract_y
 _atom_site_fract_z
 _atom_site_occupancy
  Zn  Zn0  1  0.99999400  0.99999400  0.00001800  1
  Zn  Zn1  1  0.94443500  0.94443500  0.16669600  1
  Zn  Zn2  1  0.88888000  0.88888000  0.33336100  1
  Zn  Zn3  1  0.83332800  0.83332800  0.50001700  1
  Zn  Zn4  1  0.77777400  0.77777400  0.66667800  1
  Zn  Zn5  1  0.72221100  0.72221100  0.83336800  1
  Zn  Zn6  1  0.64814700  0.64814700  0.05555800  1
  Zn  Zn7  1  0.59258000  0.59258000  0.22225900  1
  Zn  Zn8  1  0.51851400  0.51851400  0.44445900  1
  Zn  Zn9  1  0.48147300  0.48147300  0.55558200  1
  Zn  Zn10  1  0.42592000  0.42592000  0.72224000  1
  Zn  Zn11  1  0.35184800  0.35184800  0.94445600  1
  Zn  Zn12  1  0.29629600  0.29629600  0.11111300  1
  Zn  Zn13  1  0.24073100  0.24073100  0.27780700  1
  Zn  Zn14  1  0.20368800  0.20368800  0.38893600  1
  Zn  Zn15  1  0.12962700  0.12962700  0.61112000  1
  Zn  Zn16  1  0.07406200  0.07406200  0.77781500  1
  Zn  Zn17  1  0.03702800  0.03702800  0.88891600  1
  S  S18  1  0.98612200  0.98612200  0.04163400  1
  S  S19  1  0.93056800  0.93056800  0.20829500  1
  S  S20  1  0.87500300  0.87500300  0.37499100  1
  S  S21  1  0.81944500  0.81944500  0.54166500  1
  S  S22  1  0.76390800  0.76390800  0.70827700  1
  S  S23  1  0.70834100  0.70834100  0.87497700  1
  S  S24  1  0.63427400  0.63427400  0.09717900  1
  S  S25  1  0.57871900  0.57871900  0.26384200  1
  S  S26  1  0.50465600  0.50465600  0.48603200  1
  S  S27  1  0.46760300  0.46760300  0.59719200  1
  S  S28  1  0.41205800  0.41205800  0.76382500  1
  S  S29  1  0.33796500  0.33796500  0.98610500  1
  S  S30  1  0.28242400  0.28242400  0.15272800  1
  S  S31  1  0.22688000  0.22688000  0.31936000  1
  S  S32  1  0.18982700  0.18982700  0.43051800  1
  S  S33  1  0.11575500  0.11575500  0.65273600  1
  S  S34  1  0.06021300  0.06021300  0.81936200  1
  S  S35  1  0.02317600  0.02317600  0.93047300  1
