# generated using pymatgen
data_Yb15C19
_symmetry_space_group_name_H-M   'P 1'
_cell_length_a   8.19488300
_cell_length_b   8.19488300
_cell_length_c   15.98227400
_cell_angle_alpha   90.00000000
_cell_angle_beta   90.00000000
_cell_angle_gamma   90.00000000
_symmetry_Int_Tables_number   1
_chemical_formula_structural   Yb15C19
_chemical_formula_sum   'Yb30 C38'
_cell_volume   1073.30730898
_cell_formula_units_Z   2
loop_
 _symmetry_equiv_pos_site_id
 _symmetry_equiv_pos_as_xyz
  1  'x, y, z'
loop_
 _atom_site_type_symbol
 _atom_site_label
 _atom_site_symmetry_multiplicity
 _atom_site_fract_x
 _atom_site_fract_y
 _atom_site_fract_z
 _atom_site_occupancy
  Yb  Yb0  1  0.70224400  0.90490800  0.49935900  1
  Yb  Yb1  1  0.20224400  0.59509200  0.00064100  1
  Yb  Yb2  1  0.29775600  0.09509200  0.49935900  1
  Yb  Yb3  1  0.79775600  0.40490800  0.00064100  1
  Yb  Yb4  1  0.90490800  0.29775600  0.50064100  1
  Yb  Yb5  1  0.59509200  0.79775600  0.99935900  1
  Yb  Yb6  1  0.09509200  0.70224400  0.50064100  1
  Yb  Yb7  1  0.40490800  0.20224400  0.99935900  1
  Yb  Yb8  1  0.79514100  0.60379200  0.66336900  1
  Yb  Yb9  1  0.29514100  0.89620800  0.83663100  1
  Yb  Yb10  1  0.20485900  0.39620800  0.66336900  1
  Yb  Yb11  1  0.70485900  0.10379200  0.83663100  1
  Yb  Yb12  1  0.60379200  0.20485900  0.33663100  1
  Yb  Yb13  1  0.89620800  0.70485900  0.16336900  1
  Yb  Yb14  1  0.39620800  0.79514100  0.33663100  1
  Yb  Yb15  1  0.10379200  0.29514100  0.16336900  1
  Yb  Yb16  1  0.59874800  0.21183700  0.65007600  1
  Yb  Yb17  1  0.09874800  0.28816300  0.84992400  1
  Yb  Yb18  1  0.40125200  0.78816300  0.65007600  1
  Yb  Yb19  1  0.90125200  0.71183700  0.84992400  1
  Yb  Yb20  1  0.21183700  0.40125200  0.34992400  1
  Yb  Yb21  1  0.28816300  0.90125200  0.15007600  1
  Yb  Yb22  1  0.78816300  0.59874800  0.34992400  1
  Yb  Yb23  1  0.71183700  0.09874800  0.15007600  1
  Yb  Yb24  1  0.00000000  0.00000000  0.33142600  1
  Yb  Yb25  1  0.50000000  0.50000000  0.16857400  1
  Yb  Yb26  1  0.00000000  0.00000000  0.66857400  1
  Yb  Yb27  1  0.50000000  0.50000000  0.83142600  1
  Yb  Yb28  1  0.50000000  0.50000000  0.50000000  1
  Yb  Yb29  1  0.00000000  0.00000000  0.00000000  1
  C  C30  1  0.59679800  0.20037200  0.49243300  1
  C  C31  1  0.09679800  0.29962800  0.00756700  1
  C  C32  1  0.40320200  0.79962800  0.49243300  1
  C  C33  1  0.90320200  0.70037200  0.00756700  1
  C  C34  1  0.20037200  0.40320200  0.50756700  1
  C  C35  1  0.29962800  0.90320200  0.99243300  1
  C  C36  1  0.79962800  0.59679800  0.50756700  1
  C  C37  1  0.70037200  0.09679800  0.99243300  1
  C  C38  1  0.70091800  0.91728800  0.66089700  1
  C  C39  1  0.20091800  0.58271200  0.83910300  1
  C  C40  1  0.29908200  0.08271200  0.66089700  1
  C  C41  1  0.79908200  0.41728800  0.83910300  1
  C  C42  1  0.91728800  0.29908200  0.33910300  1
  C  C43  1  0.58271200  0.79908200  0.16089700  1
  C  C44  1  0.08271200  0.70091800  0.33910300  1
  C  C45  1  0.41728800  0.20091800  0.16089700  1
  C  C46  1  0.65721000  0.85856300  0.73494200  1
  C  C47  1  0.15721000  0.64143700  0.76505800  1
  C  C48  1  0.34279000  0.14143700  0.73494200  1
  C  C49  1  0.84279000  0.35856300  0.76505800  1
  C  C50  1  0.85856300  0.34279000  0.26505800  1
  C  C51  1  0.64143700  0.84279000  0.23494200  1
  C  C52  1  0.14143700  0.65721000  0.26505800  1
  C  C53  1  0.35856300  0.15721000  0.23494200  1
  C  C54  1  0.90011600  0.29214100  0.69469800  1
  C  C55  1  0.40011600  0.20785900  0.80530200  1
  C  C56  1  0.09988400  0.70785900  0.69469800  1
  C  C57  1  0.59988400  0.79214100  0.80530200  1
  C  C58  1  0.29214100  0.09988400  0.30530200  1
  C  C59  1  0.20785900  0.59988400  0.19469800  1
  C  C60  1  0.70785900  0.90011600  0.30530200  1
  C  C61  1  0.79214100  0.40011600  0.19469800  1
  C  C62  1  0.50000000  0.50000000  0.65976700  1
  C  C63  1  0.00000000  0.00000000  0.84023300  1
  C  C64  1  0.50000000  0.50000000  0.34023300  1
  C  C65  1  0.00000000  0.00000000  0.15976700  1
  C  C66  1  0.50000000  0.50000000  0.00000000  1
  C  C67  1  0.00000000  0.00000000  0.50000000  1
