# generated using pymatgen
data_ReC2NCl4
_symmetry_space_group_name_H-M   'P 1'
_cell_length_a   6.77791300
_cell_length_b   10.29354320
_cell_length_c   13.85041251
_cell_angle_alpha   86.88723333
_cell_angle_beta   80.03198953
_cell_angle_gamma   73.27473621
_symmetry_Int_Tables_number   1
_chemical_formula_structural   ReC2NCl4
_chemical_formula_sum   'Re4 C8 N4 Cl16'
_cell_volume   911.46575435
_cell_formula_units_Z   4
loop_
 _symmetry_equiv_pos_site_id
 _symmetry_equiv_pos_as_xyz
  1  'x, y, z'
loop_
 _atom_site_type_symbol
 _atom_site_label
 _atom_site_symmetry_multiplicity
 _atom_site_fract_x
 _atom_site_fract_y
 _atom_site_fract_z
 _atom_site_occupancy
  Re  Re0  1  0.85916200  0.97706200  0.97451400  1
  Re  Re1  1  0.14083800  0.02293800  0.02548600  1
  Re  Re2  1  0.68136300  0.46110800  0.48817600  1
  Re  Re3  1  0.31863700  0.53889200  0.51182400  1
  C  C4  1  0.69043700  0.58589600  0.81649600  1
  C  C5  1  0.30956300  0.41410400  0.18350400  1
  C  C6  1  0.34297600  0.54921700  0.88172500  1
  C  C7  1  0.65702400  0.45078300  0.11827500  1
  C  C8  1  0.26167500  0.12398600  0.68378000  1
  C  C9  1  0.73832500  0.87601400  0.31622000  1
  C  C10  1  0.65174200  0.03348900  0.65477100  1
  C  C11  1  0.34825800  0.96651100  0.34522900  1
  N  N12  1  0.51215700  0.57116600  0.84402200  1
  N  N13  1  0.48784300  0.42883400  0.15597800  1
  N  N14  1  0.45769900  0.08488600  0.67274200  1
  N  N15  1  0.54230100  0.91511400  0.32725800  1
  Cl  Cl16  1  0.73518700  0.35272700  0.63358600  1
  Cl  Cl17  1  0.26481300  0.64727300  0.36641400  1
  Cl  Cl18  1  0.76097600  0.64066700  0.54758000  1
  Cl  Cl19  1  0.23902400  0.35933300  0.45242000  1
  Cl  Cl20  1  0.85703800  0.77748500  0.05342300  1
  Cl  Cl21  1  0.14296200  0.22251500  0.94657700  1
  Cl  Cl22  1  0.77046700  0.54074900  0.33362100  1
  Cl  Cl23  1  0.22953300  0.45925100  0.66637900  1
  Cl  Cl24  1  0.01471800  0.85911100  0.83451800  1
  Cl  Cl25  1  0.98528200  0.14088900  0.16548200  1
  Cl  Cl26  1  0.74636300  0.25287200  0.42006100  1
  Cl  Cl27  1  0.25363700  0.74712800  0.57993900  1
  Cl  Cl28  1  0.58806800  0.08083100  0.09631300  1
  Cl  Cl29  1  0.41193200  0.91916900  0.90368700  1
  Cl  Cl30  1  0.74734000  0.16435900  0.88021100  1
  Cl  Cl31  1  0.25266000  0.83564100  0.11978900  1
