# generated using pymatgen
data_ZrP2N3O10
_symmetry_space_group_name_H-M   'P 1'
_cell_length_a   5.39382167
_cell_length_b   7.49366454
_cell_length_c   12.95184367
_cell_angle_alpha   84.07439236
_cell_angle_beta   95.59425025
_cell_angle_gamma   86.89981029
_symmetry_Int_Tables_number   1
_chemical_formula_structural   ZrP2N3O10
_chemical_formula_sum   'Zr2 P4 N6 O20'
_cell_volume   517.14050944
_cell_formula_units_Z   2
loop_
 _symmetry_equiv_pos_site_id
 _symmetry_equiv_pos_as_xyz
  1  'x, y, z'
loop_
 _atom_site_type_symbol
 _atom_site_label
 _atom_site_symmetry_multiplicity
 _atom_site_fract_x
 _atom_site_fract_y
 _atom_site_fract_z
 _atom_site_occupancy
  Zr  Zr0  1  0.01295400  0.74990300  0.34238900  1
  Zr  Zr1  1  0.59764500  0.14268800  0.92472800  1
  P  P2  1  0.10149100  0.33128300  0.05164300  1
  P  P3  1  0.54151400  0.93721900  0.48429300  1
  P  P4  1  0.07561300  0.98080900  0.77795100  1
  P  P5  1  0.51553100  0.47767700  0.27589500  1
  N  N6  1  0.57108000  0.48916200  0.62060200  1
  N  N7  1  0.12670600  0.30711700  0.68201800  1
  N  N8  1  0.25781200  0.64556500  0.10313100  1
  N  N9  1  0.68144000  0.90539800  0.15806700  1
  N  N10  1  0.06890600  0.23790600  0.41367100  1
  N  N11  1  0.55059400  0.57634000  0.81504900  1
  O  O12  1  0.28752700  0.57829500  0.31599000  1
  O  O13  1  0.78164600  0.86679600  0.44681500  1
  O  O14  1  0.85659400  0.02850300  0.84294000  1
  O  O15  1  0.30957700  0.86916800  0.43080800  1
  O  O16  1  0.55086400  0.42383200  0.80048800  1
  O  O17  1  0.86364100  0.31164900  0.97772900  1
  O  O18  1  0.06952600  0.40518200  0.60430500  1
  O  O19  1  0.53528600  0.05477100  0.56697100  1
  O  O20  1  0.91025300  0.91163000  0.20162100  1
  O  O21  1  0.57152600  0.63573500  0.64180500  1
  O  O22  1  0.66328500  0.95559000  0.06251000  1
  O  O23  1  0.32976600  0.26363700  0.99898000  1
  O  O24  1  0.74493600  0.59139600  0.30873200  1
  O  O25  1  0.12378600  0.56010600  0.03269500  1
  O  O26  1  0.09191400  0.27467600  0.16342800  1
  O  O27  1  0.02263000  0.13209600  0.67321200  1
  O  O28  1  0.32097800  0.03354600  0.83786500  1
  O  O29  1  0.08070300  0.80005200  0.74178800  1
  O  O30  1  0.47123600  0.52692200  0.14839200  1
  O  O31  1  0.56303900  0.28435100  0.30948800  1
