# generated using pymatgen
data_CeAg(PO3)4
_symmetry_space_group_name_H-M   'P 1'
_cell_length_a   13.35584900
_cell_length_b   7.37579900
_cell_length_c   12.48904033
_cell_angle_alpha   54.31814184
_cell_angle_beta   90.00000000
_cell_angle_gamma   90.00000000
_symmetry_Int_Tables_number   1
_chemical_formula_structural   CeAg(PO3)4
_chemical_formula_sum   'Ce4 Ag4 P16 O48'
_cell_volume   999.33045333
_cell_formula_units_Z   4
loop_
 _symmetry_equiv_pos_site_id
 _symmetry_equiv_pos_as_xyz
  1  'x, y, z'
loop_
 _atom_site_type_symbol
 _atom_site_label
 _atom_site_symmetry_multiplicity
 _atom_site_fract_x
 _atom_site_fract_y
 _atom_site_fract_z
 _atom_site_occupancy
  Ce  Ce0  1  0.21630200  0.03685800  0.97667900  1
  Ce  Ce1  1  0.71630200  0.96314200  0.52332100  1
  Ce  Ce2  1  0.78369800  0.96314200  0.02332100  1
  Ce  Ce3  1  0.28369800  0.03685800  0.47667900  1
  Ag  Ag4  1  0.22280600  0.43333900  0.06701000  1
  Ag  Ag5  1  0.72280600  0.56666100  0.43299000  1
  Ag  Ag6  1  0.77719400  0.56666100  0.93299000  1
  Ag  Ag7  1  0.27719400  0.43333900  0.56701000  1
  P  P8  1  0.09877700  0.50661100  0.24595500  1
  P  P9  1  0.59877700  0.49338900  0.25404500  1
  P  P10  1  0.90122300  0.49338900  0.75404500  1
  P  P11  1  0.40122300  0.50661100  0.74595500  1
  P  P12  1  0.37352300  0.83992400  0.80514900  1
  P  P13  1  0.87352300  0.16007600  0.69485100  1
  P  P14  1  0.62647700  0.16007600  0.19485100  1
  P  P15  1  0.12647700  0.83992400  0.30514900  1
  P  P16  1  0.41084400  0.06844100  0.19812200  1
  P  P17  1  0.91084400  0.93155900  0.30187800  1
  P  P18  1  0.58915600  0.93155900  0.80187800  1
  P  P19  1  0.08915600  0.06844100  0.69812200  1
  P  P20  1  0.11395400  0.61764000  0.76200300  1
  P  P21  1  0.61395400  0.38236000  0.73799700  1
  P  P22  1  0.88604600  0.38236000  0.23799700  1
  P  P23  1  0.38604600  0.61764000  0.26200300  1
  O  O24  1  0.29198200  0.82259500  0.89399200  1
  O  O25  1  0.79198200  0.17740500  0.60600800  1
  O  O26  1  0.70801800  0.17740500  0.10600800  1
  O  O27  1  0.20801800  0.82259500  0.39399200  1
  O  O28  1  0.36747000  0.01755900  0.65962000  1
  O  O29  1  0.86747000  0.98244100  0.84038000  1
  O  O30  1  0.63253000  0.98244100  0.34038000  1
  O  O31  1  0.13253000  0.01755900  0.15962000  1
  O  O32  1  0.98591500  0.42069800  0.29341900  1
  O  O33  1  0.48591500  0.57930200  0.20658100  1
  O  O34  1  0.01408500  0.57930200  0.70658100  1
  O  O35  1  0.51408500  0.42069800  0.79341900  1
  O  O36  1  0.14189500  0.40999600  0.89440200  1
  O  O37  1  0.64189500  0.59000400  0.60559800  1
  O  O38  1  0.85810500  0.59000400  0.10559800  1
  O  O39  1  0.35810500  0.40999600  0.39440200  1
  O  O40  1  0.18947600  0.71605100  0.65321800  1
  O  O41  1  0.68947600  0.28394900  0.84678200  1
  O  O42  1  0.81052400  0.28394900  0.34678200  1
  O  O43  1  0.31052400  0.71605100  0.15321800  1
  O  O44  1  0.10409400  0.69090400  0.10060600  1
  O  O45  1  0.60409400  0.30909600  0.39939400  1
  O  O46  1  0.89590600  0.30909600  0.89939400  1
  O  O47  1  0.39590600  0.69090400  0.60060600  1
  O  O48  1  0.52184300  0.14613900  0.13519100  1
  O  O49  1  0.02184300  0.85386100  0.36480900  1
  O  O50  1  0.47815700  0.85386100  0.86480900  1
  O  O51  1  0.97815700  0.14613900  0.63519100  1
  O  O52  1  0.16442700  0.30437100  0.29764200  1
  O  O53  1  0.66442700  0.69562900  0.20235800  1
  O  O54  1  0.83557300  0.69562900  0.70235800  1
  O  O55  1  0.33557300  0.30437100  0.79764200  1
  O  O56  1  0.12009200  0.59632100  0.33428600  1
  O  O57  1  0.62009200  0.40367900  0.16571400  1
  O  O58  1  0.87990800  0.40367900  0.66571400  1
  O  O59  1  0.37990800  0.59632100  0.83428600  1
  O  O60  1  0.42085700  0.79974000  0.28688400  1
  O  O61  1  0.92085700  0.20026000  0.21311600  1
  O  O62  1  0.57914300  0.20026000  0.71311600  1
  O  O63  1  0.07914300  0.79974000  0.78688400  1
  O  O64  1  0.34081000  0.15231900  0.08383000  1
  O  O65  1  0.84081000  0.84768100  0.41617000  1
  O  O66  1  0.65919000  0.84768100  0.91617000  1
  O  O67  1  0.15919000  0.15231900  0.58383000  1
  O  O68  1  0.39119300  0.13209600  0.29062700  1
  O  O69  1  0.89119300  0.86790400  0.20937300  1
  O  O70  1  0.60880700  0.86790400  0.70937300  1
  O  O71  1  0.10880700  0.13209600  0.79062700  1
