# generated using pymatgen
data_Ce2AlSi2O9
_symmetry_space_group_name_H-M   'P 1'
_cell_length_a   5.69586900
_cell_length_b   7.83923600
_cell_length_c   16.56148410
_cell_angle_alpha   68.00156392
_cell_angle_beta   90.00000000
_cell_angle_gamma   90.00000000
_symmetry_Int_Tables_number   1
_chemical_formula_structural   Ce2AlSi2O9
_chemical_formula_sum   'Ce8 Al4 Si8 O36'
_cell_volume   685.65181990
_cell_formula_units_Z   4
loop_
 _symmetry_equiv_pos_site_id
 _symmetry_equiv_pos_as_xyz
  1  'x, y, z'
loop_
 _atom_site_type_symbol
 _atom_site_label
 _atom_site_symmetry_multiplicity
 _atom_site_fract_x
 _atom_site_fract_y
 _atom_site_fract_z
 _atom_site_occupancy
  Ce  Ce0  1  0.20641100  0.22618600  0.93899200  1
  Ce  Ce1  1  0.70641100  0.77381400  0.56100800  1
  Ce  Ce2  1  0.79358900  0.77381400  0.06100800  1
  Ce  Ce3  1  0.29358900  0.22618600  0.43899200  1
  Ce  Ce4  1  0.29844700  0.80979100  0.86279600  1
  Ce  Ce5  1  0.79844700  0.19020900  0.63720400  1
  Ce  Ce6  1  0.70155300  0.19020900  0.13720400  1
  Ce  Ce7  1  0.20155300  0.80979100  0.36279600  1
  Al  Al8  1  0.99711300  0.51079600  0.74856400  1
  Al  Al9  1  0.49711300  0.48920400  0.75143600  1
  Al  Al10  1  0.00288700  0.48920400  0.25143600  1
  Al  Al11  1  0.50288700  0.51079600  0.24856400  1
  Si  Si12  1  0.74926500  0.51448800  0.91722100  1
  Si  Si13  1  0.24926500  0.48551200  0.58277900  1
  Si  Si14  1  0.25073500  0.48551200  0.08277900  1
  Si  Si15  1  0.75073500  0.51448800  0.41722100  1
  Si  Si16  1  0.72617900  0.08639600  0.84580200  1
  Si  Si17  1  0.22617900  0.91360400  0.65419800  1
  Si  Si18  1  0.27382100  0.91360400  0.15419800  1
  Si  Si19  1  0.77382100  0.08639600  0.34580200  1
  O  O20  1  0.68285900  0.66834200  0.95812800  1
  O  O21  1  0.18285900  0.33165800  0.54187200  1
  O  O22  1  0.31714100  0.33165800  0.04187200  1
  O  O23  1  0.81714100  0.66834200  0.45812800  1
  O  O24  1  0.80763700  0.30970900  0.99088600  1
  O  O25  1  0.30763700  0.69029100  0.50911400  1
  O  O26  1  0.19236300  0.69029100  0.00911400  1
  O  O27  1  0.69236300  0.30970900  0.49088600  1
  O  O28  1  0.50786200  0.52331100  0.86022100  1
  O  O29  1  0.00786200  0.47668900  0.63977900  1
  O  O30  1  0.49213800  0.47668900  0.13977900  1
  O  O31  1  0.99213800  0.52331100  0.36022100  1
  O  O32  1  0.99134500  0.56057900  0.85721400  1
  O  O33  1  0.49134500  0.43942100  0.64278600  1
  O  O34  1  0.00865500  0.43942100  0.14278600  1
  O  O35  1  0.50865500  0.56057900  0.35721400  1
  O  O36  1  0.66729300  0.99666300  0.77307200  1
  O  O37  1  0.16729300  0.00333700  0.72692800  1
  O  O38  1  0.33270700  0.00333700  0.22692800  1
  O  O39  1  0.83270700  0.99666300  0.27307200  1
  O  O40  1  0.75344100  0.31185500  0.79199700  1
  O  O41  1  0.25344100  0.68814500  0.70800300  1
  O  O42  1  0.24655900  0.68814500  0.20800300  1
  O  O43  1  0.74655900  0.31185500  0.29199700  1
  O  O44  1  0.96406800  0.00849700  0.90535600  1
  O  O45  1  0.46406800  0.99150300  0.59464400  1
  O  O46  1  0.03593200  0.99150300  0.09464400  1
  O  O47  1  0.53593200  0.00849700  0.40535600  1
  O  O48  1  0.49438100  0.03197300  0.91052300  1
  O  O49  1  0.99438100  0.96802700  0.58947700  1
  O  O50  1  0.50561900  0.96802700  0.08947700  1
  O  O51  1  0.00561900  0.03197300  0.41052300  1
  O  O52  1  0.73690500  0.65562800  0.70370300  1
  O  O53  1  0.23690500  0.34437200  0.79629700  1
  O  O54  1  0.26309500  0.34437200  0.29629700  1
  O  O55  1  0.76309500  0.65562800  0.20370300  1
