# generated using pymatgen
data_Mo3H12C4NO10
_symmetry_space_group_name_H-M   'P 1'
_cell_length_a   10.29471106
_cell_length_b   10.29471106
_cell_length_c   10.29471106
_cell_angle_alpha   60.00000000
_cell_angle_beta   60.00000000
_cell_angle_gamma   60.00000000
_symmetry_Int_Tables_number   1
_chemical_formula_structural   Mo3H12C4NO10
_chemical_formula_sum   'Mo6 H24 C8 N2 O20'
_cell_volume   771.48500192
_cell_formula_units_Z   2
loop_
 _symmetry_equiv_pos_site_id
 _symmetry_equiv_pos_as_xyz
  1  'x, y, z'
loop_
 _atom_site_type_symbol
 _atom_site_label
 _atom_site_symmetry_multiplicity
 _atom_site_fract_x
 _atom_site_fract_y
 _atom_site_fract_z
 _atom_site_occupancy
  Mo  Mo0  1  0.16182700  0.83817300  0.16182700  1
  Mo  Mo1  1  0.83817300  0.16182700  0.16182700  1
  Mo  Mo2  1  0.83817300  0.83817300  0.16182700  1
  Mo  Mo3  1  0.83817300  0.16182700  0.83817300  1
  Mo  Mo4  1  0.16182700  0.16182700  0.83817300  1
  Mo  Mo5  1  0.16182700  0.83817300  0.83817300  1
  H  H6  1  0.26513300  0.43980000  0.26513300  1
  H  H7  1  0.02993300  0.26513300  0.26513300  1
  H  H8  1  0.43980000  0.02993300  0.26513300  1
  H  H9  1  0.02993300  0.43980000  0.26513300  1
  H  H10  1  0.43980000  0.26513300  0.26513300  1
  H  H11  1  0.26513300  0.02993300  0.26513300  1
  H  H12  1  0.02993300  0.26513300  0.43980000  1
  H  H13  1  0.26513300  0.26513300  0.02993300  1
  H  H14  1  0.26513300  0.26513300  0.43980000  1
  H  H15  1  0.43980000  0.26513300  0.02993300  1
  H  H16  1  0.26513300  0.43980000  0.02993300  1
  H  H17  1  0.26513300  0.02993300  0.43980000  1
  H  H18  1  0.73486700  0.56020000  0.73486700  1
  H  H19  1  0.97006700  0.73486700  0.73486700  1
  H  H20  1  0.56020000  0.97006700  0.73486700  1
  H  H21  1  0.97006700  0.56020000  0.73486700  1
  H  H22  1  0.56020000  0.73486700  0.73486700  1
  H  H23  1  0.73486700  0.97006700  0.73486700  1
  H  H24  1  0.97006700  0.73486700  0.56020000  1
  H  H25  1  0.73486700  0.73486700  0.97006700  1
  H  H26  1  0.73486700  0.73486700  0.56020000  1
  H  H27  1  0.56020000  0.73486700  0.97006700  1
  H  H28  1  0.73486700  0.56020000  0.97006700  1
  H  H29  1  0.73486700  0.97006700  0.56020000  1
  C  C30  1  0.30955800  0.30955800  0.30955800  1
  C  C31  1  0.07132700  0.30955800  0.30955800  1
  C  C32  1  0.30955800  0.07132700  0.30955800  1
  C  C33  1  0.30955800  0.30955800  0.07132700  1
  C  C34  1  0.69044200  0.69044200  0.69044200  1
  C  C35  1  0.92867300  0.69044200  0.69044200  1
  C  C36  1  0.69044200  0.92867300  0.69044200  1
  C  C37  1  0.69044200  0.69044200  0.92867300  1
  N  N38  1  0.25000000  0.25000000  0.25000000  1
  N  N39  1  0.75000000  0.75000000  0.75000000  1
  O  O40  1  0.00000000  0.00000000  0.00000000  1
  O  O41  1  0.00000000  0.00000000  0.26189400  1
  O  O42  1  0.73810600  0.00000000  0.26189400  1
  O  O43  1  0.00000000  0.73810600  0.26189400  1
  O  O44  1  0.73810600  0.26189400  0.00000000  1
  O  O45  1  0.00000000  0.26189400  0.00000000  1
  O  O46  1  0.00000000  0.26189400  0.73810600  1
  O  O47  1  0.26189400  0.73810600  0.00000000  1
  O  O48  1  0.26189400  0.00000000  0.73810600  1
  O  O49  1  0.26189400  0.00000000  0.00000000  1
  O  O50  1  0.00000000  0.00000000  0.73810600  1
  O  O51  1  0.00000000  0.73810600  0.00000000  1
  O  O52  1  0.73810600  0.00000000  0.00000000  1
  O  O53  1  0.27962500  0.72037500  0.27962500  1
  O  O54  1  0.72037500  0.27962500  0.27962500  1
  O  O55  1  0.72037500  0.72037500  0.27962500  1
  O  O56  1  0.72037500  0.27962500  0.72037500  1
  O  O57  1  0.27962500  0.27962500  0.72037500  1
  O  O58  1  0.27962500  0.72037500  0.72037500  1
  O  O59  1  0.50000000  0.50000000  0.50000000  1
