# generated using pymatgen
data_CrN3O4
_symmetry_space_group_name_H-M   'P 1'
_cell_length_a   7.82621600
_cell_length_b   9.64410100
_cell_length_c   16.24080019
_cell_angle_alpha   82.98809143
_cell_angle_beta   90.00000000
_cell_angle_gamma   90.00000000
_symmetry_Int_Tables_number   1
_chemical_formula_structural   CrN3O4
_chemical_formula_sum   'Cr8 N24 O32'
_cell_volume   1216.63588042
_cell_formula_units_Z   8
loop_
 _symmetry_equiv_pos_site_id
 _symmetry_equiv_pos_as_xyz
  1  'x, y, z'
loop_
 _atom_site_type_symbol
 _atom_site_label
 _atom_site_symmetry_multiplicity
 _atom_site_fract_x
 _atom_site_fract_y
 _atom_site_fract_z
 _atom_site_occupancy
  Cr  Cr0  1  0.65880900  0.29079200  0.12621500  1
  Cr  Cr1  1  0.15880900  0.20920800  0.87378500  1
  Cr  Cr2  1  0.34119100  0.70920800  0.87378500  1
  Cr  Cr3  1  0.84119100  0.79079200  0.12621500  1
  Cr  Cr4  1  0.12695800  0.29618600  0.37565000  1
  Cr  Cr5  1  0.62695800  0.20381400  0.62435000  1
  Cr  Cr6  1  0.87304200  0.70381400  0.62435000  1
  Cr  Cr7  1  0.37304200  0.79618600  0.37565000  1
  N  N8  1  0.41315700  0.16407700  0.13262600  1
  N  N9  1  0.91315700  0.33592300  0.86737400  1
  N  N10  1  0.58684300  0.83592300  0.86737400  1
  N  N11  1  0.08684300  0.66407700  0.13262600  1
  N  N12  1  0.84014900  0.37042600  0.12117900  1
  N  N13  1  0.34014900  0.12957400  0.87882100  1
  N  N14  1  0.15985100  0.62957400  0.87882100  1
  N  N15  1  0.65985100  0.87042600  0.12117900  1
  N  N16  1  0.52158300  0.44502800  0.12483200  1
  N  N17  1  0.02158300  0.05497200  0.87516800  1
  N  N18  1  0.47841700  0.55497200  0.87516800  1
  N  N19  1  0.97841700  0.94502800  0.12483200  1
  N  N20  1  0.92416200  0.39924500  0.37447500  1
  N  N21  1  0.42416200  0.10075500  0.62552500  1
  N  N22  1  0.07583800  0.60075500  0.62552500  1
  N  N23  1  0.57583800  0.89924500  0.37447500  1
  N  N24  1  0.35128800  0.23453100  0.37885300  1
  N  N25  1  0.85128800  0.26546900  0.62114700  1
  N  N26  1  0.64871200  0.76546900  0.62114700  1
  N  N27  1  0.14871200  0.73453100  0.37885300  1
  N  N28  1  0.03121800  0.13230600  0.36905000  1
  N  N29  1  0.53121800  0.36769400  0.63095000  1
  N  N30  1  0.96878200  0.86769400  0.63095000  1
  N  N31  1  0.46878200  0.63230600  0.36905000  1
  O  O32  1  0.61821500  0.29289400  0.00261600  1
  O  O33  1  0.11821500  0.20710600  0.99738400  1
  O  O34  1  0.38178500  0.70710600  0.99738400  1
  O  O35  1  0.88178500  0.79289400  0.00261600  1
  O  O36  1  0.69623000  0.17623500  0.03027200  1
  O  O37  1  0.19623000  0.32376500  0.96972800  1
  O  O38  1  0.30377000  0.82376500  0.96972800  1
  O  O39  1  0.80377000  0.67623500  0.03027200  1
  O  O40  1  0.63590100  0.25777600  0.25128900  1
  O  O41  1  0.13590100  0.24222400  0.74871100  1
  O  O42  1  0.36409900  0.74222400  0.74871100  1
  O  O43  1  0.86409900  0.75777600  0.25128900  1
  O  O44  1  0.70923900  0.14775900  0.22688900  1
  O  O45  1  0.20923900  0.35224100  0.77311100  1
  O  O46  1  0.29076100  0.85224100  0.77311100  1
  O  O47  1  0.79076100  0.64775900  0.22688900  1
  O  O48  1  0.14546000  0.33864100  0.24801700  1
  O  O49  1  0.64546000  0.16135900  0.75198300  1
  O  O50  1  0.85454000  0.66135900  0.75198300  1
  O  O51  1  0.35454000  0.83864100  0.24801700  1
  O  O52  1  0.20846500  0.44798000  0.27625000  1
  O  O53  1  0.70846500  0.05202000  0.72375000  1
  O  O54  1  0.79153500  0.55202000  0.72375000  1
  O  O55  1  0.29153500  0.94798000  0.27625000  1
  O  O56  1  0.12233700  0.26490900  0.50310800  1
  O  O57  1  0.62233700  0.23509100  0.49689200  1
  O  O58  1  0.87766300  0.73509100  0.49689200  1
  O  O59  1  0.37766300  0.76490900  0.50310800  1
  O  O60  1  0.18798400  0.38885200  0.48599000  1
  O  O61  1  0.68798400  0.11114800  0.51401000  1
  O  O62  1  0.81201600  0.61114800  0.51401000  1
  O  O63  1  0.31201600  0.88885200  0.48599000  1
