# generated using pymatgen
data_In4H12C15O31
_symmetry_space_group_name_H-M   'P 1'
_cell_length_a   10.71074239
_cell_length_b   10.71074239
_cell_length_c   10.71074239
_cell_angle_alpha   109.47122063
_cell_angle_beta   109.47122063
_cell_angle_gamma   109.47122063
_symmetry_Int_Tables_number   1
_chemical_formula_structural   In4H12C15O31
_chemical_formula_sum   'In4 H12 C15 O31'
_cell_volume   945.88171634
_cell_formula_units_Z   1
loop_
 _symmetry_equiv_pos_site_id
 _symmetry_equiv_pos_as_xyz
  1  'x, y, z'
loop_
 _atom_site_type_symbol
 _atom_site_label
 _atom_site_symmetry_multiplicity
 _atom_site_fract_x
 _atom_site_fract_y
 _atom_site_fract_z
 _atom_site_occupancy
  In  In0  1  0.00000000  0.00000000  0.50000000  1
  In  In1  1  0.50000000  0.00000000  0.00000000  1
  In  In2  1  0.00000000  0.50000000  0.00000000  1
  In  In3  1  0.50000000  0.50000000  0.50000000  1
  H  H4  1  0.68796900  0.78159400  0.46956300  1
  H  H5  1  0.68796900  0.21840600  0.90637500  1
  H  H6  1  0.31203100  0.78159400  0.09362500  1
  H  H7  1  0.31203100  0.21840600  0.53043700  1
  H  H8  1  0.78159400  0.46956300  0.68796900  1
  H  H9  1  0.21840600  0.90637500  0.68796900  1
  H  H10  1  0.78159400  0.09362500  0.31203100  1
  H  H11  1  0.21840600  0.53043700  0.31203100  1
  H  H12  1  0.46956300  0.68796900  0.78159400  1
  H  H13  1  0.90637500  0.68796900  0.21840600  1
  H  H14  1  0.09362500  0.31203100  0.78159400  1
  H  H15  1  0.53043700  0.31203100  0.21840600  1
  C  C16  1  0.76285500  0.73230900  0.49516400  1
  C  C17  1  0.76285500  0.26769100  0.03054600  1
  C  C18  1  0.23714500  0.73230900  0.96945400  1
  C  C19  1  0.23714500  0.26769100  0.50483600  1
  C  C20  1  0.73230900  0.49516400  0.76285500  1
  C  C21  1  0.26769100  0.03054600  0.76285500  1
  C  C22  1  0.73230900  0.96945400  0.23714500  1
  C  C23  1  0.26769100  0.50483600  0.23714500  1
  C  C24  1  0.49516400  0.76285500  0.73230900  1
  C  C25  1  0.03054600  0.76285500  0.26769100  1
  C  C26  1  0.96945400  0.23714500  0.73230900  1
  C  C27  1  0.50483600  0.23714500  0.26769100  1
  C  C28  1  0.50000000  0.00000000  0.50000000  1
  C  C29  1  0.00000000  0.50000000  0.50000000  1
  C  C30  1  0.50000000  0.50000000  0.00000000  1
  O  O31  1  0.89478900  0.79358600  0.50980300  1
  O  O32  1  0.71621700  0.20641400  0.10120300  1
  O  O33  1  0.10521100  0.61501500  0.89879700  1
  O  O34  1  0.28378300  0.38498500  0.49019700  1
  O  O35  1  0.79358600  0.50980300  0.89478900  1
  O  O36  1  0.20641400  0.10120300  0.71621700  1
  O  O37  1  0.61501500  0.89879700  0.10521100  1
  O  O38  1  0.38498500  0.49019700  0.28378300  1
  O  O39  1  0.50980300  0.89478900  0.79358600  1
  O  O40  1  0.10120300  0.71621700  0.20641400  1
  O  O41  1  0.89879700  0.10521100  0.61501500  1
  O  O42  1  0.49019700  0.28378300  0.38498500  1
  O  O43  1  0.10521100  0.20641400  0.49019700  1
  O  O44  1  0.28378300  0.79358600  0.89879700  1
  O  O45  1  0.89478900  0.38498500  0.10120300  1
  O  O46  1  0.71621700  0.61501500  0.50980300  1
  O  O47  1  0.20641400  0.49019700  0.10521100  1
  O  O48  1  0.79358600  0.89879700  0.28378300  1
  O  O49  1  0.38498500  0.10120300  0.89478900  1
  O  O50  1  0.61501500  0.50980300  0.71621700  1
  O  O51  1  0.49019700  0.10521100  0.20641400  1
  O  O52  1  0.89879700  0.28378300  0.79358600  1
  O  O53  1  0.10120300  0.89478900  0.38498500  1
  O  O54  1  0.50980300  0.71621700  0.61501500  1
  O  O55  1  0.50000000  0.90489000  0.40489000  1
  O  O56  1  0.50000000  0.09511000  0.59511000  1
  O  O57  1  0.90489000  0.40489000  0.50000000  1
  O  O58  1  0.09511000  0.59511000  0.50000000  1
  O  O59  1  0.40489000  0.50000000  0.90489000  1
  O  O60  1  0.59511000  0.50000000  0.09511000  1
  O  O61  1  0.00000000  0.00000000  0.00000000  1
