# generated using pymatgen
data_K3Mg18Pb11
_symmetry_space_group_name_H-M   'P 1'
_cell_length_a   12.10302019
_cell_length_b   12.10302019
_cell_length_c   14.20950800
_cell_angle_alpha   90.00000000
_cell_angle_beta   90.00000000
_cell_angle_gamma   120.00000103
_symmetry_Int_Tables_number   1
_chemical_formula_structural   K3Mg18Pb11
_chemical_formula_sum   'K6 Mg36 Pb22'
_cell_volume   1802.59093814
_cell_formula_units_Z   2
loop_
 _symmetry_equiv_pos_site_id
 _symmetry_equiv_pos_as_xyz
  1  'x, y, z'
loop_
 _atom_site_type_symbol
 _atom_site_label
 _atom_site_symmetry_multiplicity
 _atom_site_fract_x
 _atom_site_fract_y
 _atom_site_fract_z
 _atom_site_occupancy
  K  K0  1  0.66666700  0.33333300  0.08253300  1
  K  K1  1  0.33333300  0.66666700  0.58253300  1
  K  K2  1  0.33333300  0.66666700  0.91746700  1
  K  K3  1  0.66666700  0.33333300  0.41746700  1
  K  K4  1  0.33333300  0.66666700  0.25000000  1
  K  K5  1  0.66666700  0.33333300  0.75000000  1
  Mg  Mg6  1  0.10510900  0.85602400  0.25000000  1
  Mg  Mg7  1  0.14397600  0.24908500  0.25000000  1
  Mg  Mg8  1  0.75091500  0.89489100  0.25000000  1
  Mg  Mg9  1  0.89489100  0.14397600  0.75000000  1
  Mg  Mg10  1  0.85602400  0.75091500  0.75000000  1
  Mg  Mg11  1  0.24908500  0.10510900  0.75000000  1
  Mg  Mg12  1  0.85016800  0.72980600  0.08337900  1
  Mg  Mg13  1  0.27019400  0.12036200  0.08337900  1
  Mg  Mg14  1  0.87963800  0.14983200  0.08337900  1
  Mg  Mg15  1  0.14983200  0.27019400  0.58337900  1
  Mg  Mg16  1  0.72980600  0.87963800  0.58337900  1
  Mg  Mg17  1  0.12036200  0.85016800  0.58337900  1
  Mg  Mg18  1  0.14983200  0.27019400  0.91662100  1
  Mg  Mg19  1  0.72980600  0.87963800  0.91662100  1
  Mg  Mg20  1  0.12036200  0.85016800  0.91662100  1
  Mg  Mg21  1  0.85016800  0.72980600  0.41662100  1
  Mg  Mg22  1  0.27019400  0.12036200  0.41662100  1
  Mg  Mg23  1  0.87963800  0.14983200  0.41662100  1
  Mg  Mg24  1  0.62653200  0.56853300  0.25000000  1
  Mg  Mg25  1  0.43146700  0.05799900  0.25000000  1
  Mg  Mg26  1  0.94200100  0.37346800  0.25000000  1
  Mg  Mg27  1  0.37346800  0.43146700  0.75000000  1
  Mg  Mg28  1  0.56853300  0.94200100  0.75000000  1
  Mg  Mg29  1  0.05799900  0.62653200  0.75000000  1
  Mg  Mg30  1  0.05510500  0.62275000  0.08396700  1
  Mg  Mg31  1  0.37725000  0.43235500  0.08396700  1
  Mg  Mg32  1  0.56764500  0.94489500  0.08396700  1
  Mg  Mg33  1  0.94489500  0.37725000  0.58396700  1
  Mg  Mg34  1  0.62275000  0.56764500  0.58396700  1
  Mg  Mg35  1  0.43235500  0.05510500  0.58396700  1
  Mg  Mg36  1  0.94489500  0.37725000  0.91603300  1
  Mg  Mg37  1  0.62275000  0.56764500  0.91603300  1
  Mg  Mg38  1  0.43235500  0.05510500  0.91603300  1
  Mg  Mg39  1  0.05510500  0.62275000  0.41603300  1
  Mg  Mg40  1  0.37725000  0.43235500  0.41603300  1
  Mg  Mg41  1  0.56764500  0.94489500  0.41603300  1
  Pb  Pb42  1  0.00000000  0.00000000  0.13382200  1
  Pb  Pb43  1  0.00000000  0.00000000  0.63382200  1
  Pb  Pb44  1  0.00000000  0.00000000  0.86617800  1
  Pb  Pb45  1  0.00000000  0.00000000  0.36617800  1
  Pb  Pb46  1  0.29627300  0.88418100  0.08484100  1
  Pb  Pb47  1  0.11581900  0.41209200  0.08484100  1
  Pb  Pb48  1  0.58790800  0.70372700  0.08484100  1
  Pb  Pb49  1  0.70372700  0.11581900  0.58484100  1
  Pb  Pb50  1  0.88418100  0.58790800  0.58484100  1
  Pb  Pb51  1  0.41209200  0.29627300  0.58484100  1
  Pb  Pb52  1  0.70372700  0.11581900  0.91515900  1
  Pb  Pb53  1  0.88418100  0.58790800  0.91515900  1
  Pb  Pb54  1  0.41209200  0.29627300  0.91515900  1
  Pb  Pb55  1  0.29627300  0.88418100  0.41515900  1
  Pb  Pb56  1  0.11581900  0.41209200  0.41515900  1
  Pb  Pb57  1  0.58790800  0.70372700  0.41515900  1
  Pb  Pb58  1  0.88296000  0.58192200  0.25000000  1
  Pb  Pb59  1  0.41807800  0.30103900  0.25000000  1
  Pb  Pb60  1  0.69896100  0.11704000  0.25000000  1
  Pb  Pb61  1  0.11704000  0.41807800  0.75000000  1
  Pb  Pb62  1  0.58192200  0.69896100  0.75000000  1
  Pb  Pb63  1  0.30103900  0.88296000  0.75000000  1
