# generated using pymatgen
data_CsH2SNO3
_symmetry_space_group_name_H-M   'P 1'
_cell_length_a   6.78862100
_cell_length_b   8.68614300
_cell_length_c   8.70223000
_cell_angle_alpha   90.00000000
_cell_angle_beta   90.00000000
_cell_angle_gamma   90.00000000
_symmetry_Int_Tables_number   1
_chemical_formula_structural   CsH2SNO3
_chemical_formula_sum   'Cs4 H8 S4 N4 O12'
_cell_volume   513.14381144
_cell_formula_units_Z   4
loop_
 _symmetry_equiv_pos_site_id
 _symmetry_equiv_pos_as_xyz
  1  'x, y, z'
loop_
 _atom_site_type_symbol
 _atom_site_label
 _atom_site_symmetry_multiplicity
 _atom_site_fract_x
 _atom_site_fract_y
 _atom_site_fract_z
 _atom_site_occupancy
  Cs  Cs0  1  0.75000000  0.90021300  0.39119800  1
  Cs  Cs1  1  0.75000000  0.59978700  0.89119800  1
  Cs  Cs2  1  0.25000000  0.09978700  0.60880200  1
  Cs  Cs3  1  0.25000000  0.40021300  0.10880200  1
  H  H4  1  0.13042200  0.03183400  0.00231200  1
  H  H5  1  0.36957800  0.46816600  0.50231200  1
  H  H6  1  0.63042200  0.96816600  0.99768800  1
  H  H7  1  0.86957800  0.53183400  0.49768800  1
  H  H8  1  0.86957800  0.96816600  0.99768800  1
  H  H9  1  0.63042200  0.53183400  0.49768800  1
  H  H10  1  0.36957800  0.03183400  0.00231200  1
  H  H11  1  0.13042200  0.46816600  0.50231200  1
  S  S12  1  0.25000000  0.84399100  0.15533700  1
  S  S13  1  0.25000000  0.65600900  0.65533700  1
  S  S14  1  0.75000000  0.15600900  0.84466300  1
  S  S15  1  0.75000000  0.34399100  0.34466300  1
  N  N16  1  0.25000000  0.95999500  0.99719500  1
  N  N17  1  0.25000000  0.54000500  0.49719500  1
  N  N18  1  0.75000000  0.04000500  0.00280500  1
  N  N19  1  0.75000000  0.45999500  0.50280500  1
  O  O20  1  0.25000000  0.94192900  0.29321200  1
  O  O21  1  0.25000000  0.55807100  0.79321200  1
  O  O22  1  0.75000000  0.05807100  0.70678800  1
  O  O23  1  0.75000000  0.44192900  0.20678800  1
  O  O24  1  0.43231400  0.75460200  0.13798500  1
  O  O25  1  0.06768600  0.74539800  0.63798500  1
  O  O26  1  0.93231400  0.24539800  0.86201500  1
  O  O27  1  0.56768600  0.25460200  0.36201500  1
  O  O28  1  0.56768600  0.24539800  0.86201500  1
  O  O29  1  0.93231400  0.25460200  0.36201500  1
  O  O30  1  0.06768600  0.75460200  0.13798500  1
  O  O31  1  0.43231400  0.74539800  0.63798500  1
