# generated using pymatgen
data_Si4SbH38C14Cl
_symmetry_space_group_name_H-M   'P 1'
_cell_length_a   12.45678400
_cell_length_b   13.22310300
_cell_length_c   18.58347361
_cell_angle_alpha   90.00000000
_cell_angle_beta   111.44908383
_cell_angle_gamma   90.00000000
_symmetry_Int_Tables_number   1
_chemical_formula_structural   Si4SbH38C14Cl
_chemical_formula_sum   'Si16 Sb4 H152 C56 Cl4'
_cell_volume   2849.02289274
_cell_formula_units_Z   4
loop_
 _symmetry_equiv_pos_site_id
 _symmetry_equiv_pos_as_xyz
  1  'x, y, z'
loop_
 _atom_site_type_symbol
 _atom_site_label
 _atom_site_symmetry_multiplicity
 _atom_site_fract_x
 _atom_site_fract_y
 _atom_site_fract_z
 _atom_site_occupancy
  Si  Si0  1  0.37334700  0.25143700  0.54568700  1
  Si  Si1  1  0.37334700  0.24856300  0.04568700  1
  Si  Si2  1  0.62665300  0.74856300  0.45431300  1
  Si  Si3  1  0.62665300  0.75143700  0.95431300  1
  Si  Si4  1  0.46617600  0.13905000  0.71187500  1
  Si  Si5  1  0.46617600  0.36095000  0.21187500  1
  Si  Si6  1  0.53382400  0.86095000  0.28812500  1
  Si  Si7  1  0.53382400  0.63905000  0.78812500  1
  Si  Si8  1  0.06842900  0.36218700  0.68261200  1
  Si  Si9  1  0.06842900  0.13781300  0.18261200  1
  Si  Si10  1  0.93157100  0.63781300  0.31738800  1
  Si  Si11  1  0.93157100  0.86218700  0.81738800  1
  Si  Si12  1  0.90388600  0.23443500  0.53420100  1
  Si  Si13  1  0.90388600  0.26556500  0.03420100  1
  Si  Si14  1  0.09611400  0.76556500  0.46579900  1
  Si  Si15  1  0.09611400  0.73443500  0.96579900  1
  Sb  Sb16  1  0.17267800  0.14895900  0.60411100  1
  Sb  Sb17  1  0.17267800  0.35104100  0.10411100  1
  Sb  Sb18  1  0.82732200  0.85104100  0.39588900  1
  Sb  Sb19  1  0.82732200  0.64895900  0.89588900  1
  H  H20  1  0.34560800  0.28973400  0.66679300  1
  H  H21  1  0.34560800  0.21026600  0.16679300  1
  H  H22  1  0.65439200  0.71026600  0.33320700  1
  H  H23  1  0.65439200  0.78973400  0.83320700  1
  H  H24  1  0.43763000  0.16441600  0.45049000  1
  H  H25  1  0.43763000  0.33558400  0.95049000  1
  H  H26  1  0.56237000  0.83558400  0.54951000  1
  H  H27  1  0.56237000  0.66441600  0.04951000  1
  H  H28  1  0.36477300  0.07824800  0.48975300  1
  H  H29  1  0.36477300  0.42175200  0.98975300  1
  H  H30  1  0.63522700  0.92175200  0.51024700  1
  H  H31  1  0.63522700  0.57824800  0.01024700  1
  H  H32  1  0.51044000  0.11165600  0.54364600  1
  H  H33  1  0.51044000  0.38834400  0.04364600  1
  H  H34  1  0.48956000  0.88834400  0.45635400  1
  H  H35  1  0.48956000  0.61165600  0.95635400  1
  H  H36  1  0.56134500  0.34576000  0.60921500  1
  H  H37  1  0.56134500  0.15424000  0.10921500  1
  H  H38  1  0.43865500  0.65424000  0.39078500  1
  H  H39  1  0.43865500  0.84576000  0.89078500  1
  H  H40  1  0.44052400  0.42876300  0.58021100  1
  H  H41  1  0.44052400  0.07123700  0.08021100  1
  H  H42  1  0.55947600  0.57123700  0.41978900  1
  H  H43  1  0.55947600  0.92876300  0.91978900  1
  H  H44  1  0.49078100  0.37820500  0.51005600  1
  H  H45  1  0.49078100  0.12179500  0.01005600  1
  H  H46  1  0.50921900  0.62179500  0.48994400  1
  H  H47  1  0.50921900  0.87820500  0.98994400  1
  H  H48  1  0.25667900  0.31122200  0.41472000  1
  H  H49  1  0.25667900  0.18877800  0.91472000  1
  H  H50  1  0.74332100  0.68877800  0.58528000  1
  H  H51  1  0.74332100  0.81122200  0.08528000  1
  H  H52  1  0.20458700  0.36638600  0.48265500  1
  H  H53  1  0.20458700  0.13361400  0.98265500  1
  H  H54  1  0.79541300  0.63361400  0.51734500  1
  H  H55  1  0.79541300  0.86638600  0.01734500  1
  H  H56  1  0.16716800  0.23952500  0.45039900  1
  H  H57  1  0.16716800  0.26047500  0.95039900  1
  H  H58  1  0.83283200  0.76047500  0.54960100  1
  H  H59  1  0.83283200  0.73952500  0.04960100  1
  H  H60  1  0.39360500  0.14084300  0.82129500  1
  H  H61  1  0.39360500  0.35915700  0.32129500  1
  H  H62  1  0.60639500  0.85915700  0.17870500  1
  H  H63  1  0.60639500  0.64084300  0.67870500  1
  H  H64  1  0.48938700  0.24413200  0.82847800  1
  H  H65  1  0.48938700  0.25586800  0.32847800  1
  H  H66  1  0.51061300  0.75586800  0.17152200  1
  H  H67  1  0.51061300  0.74413200  0.67152200  1
  H  H68  1  0.54525200  0.11998200  0.85351300  1
  H  H69  1  0.54525200  0.38001800  0.35351300  1
  H  H70  1  0.45474800  0.88001800  0.14648700  1
  H  H71  1  0.45474800  0.61998200  0.64648700  1
  H  H72  1  0.63227700  0.25516800  0.72675500  1
  H  H73  1  0.63227700  0.24483200  0.22675500  1
  H  H74  1  0.36772300  0.74483200  0.27324500  1
  H  H75  1  0.36772300  0.75516800  0.77324500  1
  H  H76  1  0.62699500  0.15754500  0.65956800  1
  H  H77  1  0.62699500  0.34245500  0.15956800  1
  H  H78  1  0.37300500  0.84245500  0.34043200  1
  H  H79  1  0.37300500  0.65754500  0.84043200  1
  H  H80  1  0.67858400  0.13136000  0.76008700  1
  H  H81  1  0.67858400  0.36864000  0.26008700  1
  H  H82  1  0.32141600  0.86864000  0.23991300  1
  H  H83  1  0.32141600  0.63136000  0.73991300  1
  H  H84  1  0.51421900  0.95675100  0.73635400  1
  H  H85  1  0.51421900  0.54324900  0.23635400  1
  H  H86  1  0.48578100  0.04324900  0.26364600  1
  H  H87  1  0.48578100  0.45675100  0.76364600  1
  H  H88  1  0.45015800  0.97930600  0.63542400  1
  H  H89  1  0.45015800  0.52069400  0.13542400  1
  H  H90  1  0.54984200  0.02069400  0.36457600  1
  H  H91  1  0.54984200  0.47930600  0.86457600  1
  H  H92  1  0.36279900  0.97315800  0.69311400  1
  H  H93  1  0.36279900  0.52684200  0.19311400  1
  H  H94  1  0.63720100  0.02684200  0.30688600  1
  H  H95  1  0.63720100  0.47315800  0.80688600  1
  H  H96  1  0.07924900  0.33046600  0.55667300  1
  H  H97  1  0.07924900  0.16953400  0.05667300  1
  H  H98  1  0.92075100  0.66953400  0.44332700  1
  H  H99  1  0.92075100  0.83046600  0.94332700  1
  H  H100  1  0.21564500  0.42218500  0.80290400  1
  H  H101  1  0.21564500  0.07781500  0.30290400  1
  H  H102  1  0.78435500  0.57781500  0.19709600  1
  H  H103  1  0.78435500  0.92218500  0.69709600  1
  H  H104  1  0.27752700  0.40904100  0.73125500  1
  H  H105  1  0.27752700  0.09095900  0.23125500  1
  H  H106  1  0.72247300  0.59095900  0.26874500  1
  H  H107  1  0.72247300  0.90904100  0.76874500  1
  H  H108  1  0.25500500  0.29975300  0.78063100  1
  H  H109  1  0.25500500  0.20024700  0.28063100  1
  H  H110  1  0.74499500  0.70024700  0.21936900  1
  H  H111  1  0.74499500  0.79975300  0.71936900  1
  H  H112  1  0.98229700  0.36958100  0.78352700  1
  H  H113  1  0.98229700  0.13041900  0.28352700  1
  H  H114  1  0.01770300  0.63041900  0.21647300  1
  H  H115  1  0.01770300  0.86958100  0.71647300  1
  H  H116  1  0.00283100  0.24194200  0.76072200  1
  H  H117  1  0.00283100  0.25805800  0.26072200  1
  H  H118  1  0.99716900  0.75805800  0.23927800  1
  H  H119  1  0.99716900  0.74194200  0.73927800  1
  H  H120  1  0.88325900  0.31340700  0.69881100  1
  H  H121  1  0.88325900  0.18659300  0.19881100  1
  H  H122  1  0.11674100  0.68659300  0.30118900  1
  H  H123  1  0.11674100  0.81340700  0.80118900  1
  H  H124  1  0.93427600  0.50531000  0.61363000  1
  H  H125  1  0.93427600  0.99469000  0.11363000  1
  H  H126  1  0.06572400  0.49469000  0.38637000  1
  H  H127  1  0.06572400  0.00531000  0.88637000  1
  H  H128  1  0.07449500  0.52086500  0.61076000  1
  H  H129  1  0.07449500  0.97913500  0.11076000  1
  H  H130  1  0.92550500  0.47913500  0.38924000  1
  H  H131  1  0.92550500  0.02086500  0.88924000  1
  H  H132  1  0.04947100  0.54746100  0.69686200  1
  H  H133  1  0.04947100  0.95253900  0.19686200  1
  H  H134  1  0.95052900  0.45253900  0.30313800  1
  H  H135  1  0.95052900  0.04746100  0.80313800  1
  H  H136  1  0.80817000  0.17508200  0.39979600  1
  H  H137  1  0.80817000  0.32491800  0.89979600  1
  H  H138  1  0.19183000  0.82491800  0.60020400  1
  H  H139  1  0.19183000  0.67508200  0.10020400  1
  H  H140  1  0.95200000  0.12996600  0.43659600  1
  H  H141  1  0.95200000  0.37003400  0.93659600  1
  H  H142  1  0.04800000  0.87003400  0.56340400  1
  H  H143  1  0.04800000  0.62996600  0.06340400  1
  H  H144  1  0.92316800  0.25783900  0.40534000  1
  H  H145  1  0.92316800  0.24216100  0.90534000  1
  H  H146  1  0.07683200  0.74216100  0.59466000  1
  H  H147  1  0.07683200  0.75783900  0.09466000  1
  H  H148  1  0.81322300  0.40276400  0.48732300  1
  H  H149  1  0.81322300  0.09723600  0.98732300  1
  H  H150  1  0.18677700  0.59723600  0.51267700  1
  H  H151  1  0.18677700  0.90276400  0.01267700  1
  H  H152  1  0.78951900  0.36780300  0.57273700  1
  H  H153  1  0.78951900  0.13219700  0.07273700  1
  H  H154  1  0.21048100  0.63219700  0.42726300  1
  H  H155  1  0.21048100  0.86780300  0.92726300  1
  H  H156  1  0.70882300  0.30925100  0.48318600  1
  H  H157  1  0.70882300  0.19074900  0.98318600  1
  H  H158  1  0.29117700  0.69074900  0.51681400  1
  H  H159  1  0.29117700  0.80925100  0.01681400  1
  H  H160  1  0.76969100  0.09861000  0.53924000  1
  H  H161  1  0.76969100  0.40139000  0.03924000  1
  H  H162  1  0.23030900  0.90139000  0.46076000  1
  H  H163  1  0.23030900  0.59861000  0.96076000  1
  H  H164  1  0.85231600  0.14057200  0.63466000  1
  H  H165  1  0.85231600  0.35942800  0.13466000  1
  H  H166  1  0.14768400  0.85942800  0.36534000  1
  H  H167  1  0.14768400  0.64057200  0.86534000  1
  H  H168  1  0.91444000  0.05771300  0.58539800  1
  H  H169  1  0.91444000  0.44228700  0.08539800  1
  H  H170  1  0.08556000  0.94228700  0.41460200  1
  H  H171  1  0.08556000  0.55771300  0.91460200  1
  C  C172  1  0.34719000  0.21709700  0.63801900  1
  C  C173  1  0.34719000  0.28290300  0.13801900  1
  C  C174  1  0.65281000  0.78290300  0.36198100  1
  C  C175  1  0.65281000  0.71709700  0.86198100  1
  C  C176  1  0.42719700  0.14083400  0.50435500  1
  C  C177  1  0.42719700  0.35916600  0.00435500  1
  C  C178  1  0.57280300  0.85916600  0.49564500  1
  C  C179  1  0.57280300  0.64083400  0.99564500  1
  C  C180  1  0.47704200  0.36073500  0.56394700  1
  C  C181  1  0.47704200  0.13926500  0.06394700  1
  C  C182  1  0.52295800  0.63926500  0.43605300  1
  C  C183  1  0.52295800  0.86073500  0.93605300  1
  C  C184  1  0.23703500  0.29579000  0.46678900  1
  C  C185  1  0.23703500  0.20421000  0.96678900  1
  C  C186  1  0.76296500  0.70421000  0.53321100  1
  C  C187  1  0.76296500  0.79579000  0.03321100  1
  C  C188  1  0.47302200  0.16384100  0.81327200  1
  C  C189  1  0.47302200  0.33615900  0.31327200  1
  C  C190  1  0.52697800  0.83615900  0.18672800  1
  C  C191  1  0.52697800  0.66384100  0.68672800  1
  C  C192  1  0.61401900  0.17466900  0.71357000  1
  C  C193  1  0.61401900  0.32533100  0.21357000  1
  C  C194  1  0.38598100  0.82533100  0.28643000  1
  C  C195  1  0.38598100  0.67466900  0.78643000  1
  C  C196  1  0.44582900  0.99911400  0.69175000  1
  C  C197  1  0.44582900  0.50088600  0.19175000  1
  C  C198  1  0.55417100  0.00088600  0.30825000  1
  C  C199  1  0.55417100  0.49911400  0.80825000  1
  C  C200  1  0.05587100  0.27904000  0.59570300  1
  C  C201  1  0.05587100  0.22096000  0.09570300  1
  C  C202  1  0.94412900  0.72096000  0.40429700  1
  C  C203  1  0.94412900  0.77904000  0.90429700  1
  C  C204  1  0.21920400  0.37313900  0.75580100  1
  C  C205  1  0.21920400  0.12686100  0.25580100  1
  C  C206  1  0.78079600  0.62686100  0.24419900  1
  C  C207  1  0.78079600  0.87313900  0.74419900  1
  C  C208  1  0.97487600  0.31722300  0.73588600  1
  C  C209  1  0.97487600  0.18277700  0.23588600  1
  C  C210  1  0.02512400  0.68277700  0.26411400  1
  C  C211  1  0.02512400  0.81722300  0.76411400  1
  C  C212  1  0.02671800  0.49590000  0.64697500  1
  C  C213  1  0.02671800  0.00410000  0.14697500  1
  C  C214  1  0.97328200  0.50410000  0.35302500  1
  C  C215  1  0.97328200  0.99590000  0.85302500  1
  C  C216  1  0.89748100  0.19590100  0.43507100  1
  C  C217  1  0.89748100  0.30409900  0.93507100  1
  C  C218  1  0.10251900  0.80409900  0.56492900  1
  C  C219  1  0.10251900  0.69590100  0.06492900  1
  C  C220  1  0.79442300  0.33896000  0.51868400  1
  C  C221  1  0.79442300  0.16104000  0.01868400  1
  C  C222  1  0.20557700  0.66104000  0.48131600  1
  C  C223  1  0.20557700  0.83896000  0.98131600  1
  C  C224  1  0.85615100  0.12256600  0.57799800  1
  C  C225  1  0.85615100  0.37743400  0.07799800  1
  C  C226  1  0.14384900  0.87743400  0.42200200  1
  C  C227  1  0.14384900  0.62256600  0.92200200  1
  Cl  Cl228  1  0.17524700  0.08775600  0.72805100  1
  Cl  Cl229  1  0.17524700  0.41224400  0.22805100  1
  Cl  Cl230  1  0.82475300  0.91224400  0.27194900  1
  Cl  Cl231  1  0.82475300  0.58775600  0.77194900  1
