# generated using pymatgen
data_Na8Y3(SiO3)12
_symmetry_space_group_name_H-M   'P 1'
_cell_length_a   13.73533639
_cell_length_b   13.73533639
_cell_length_c   13.73533654
_cell_angle_alpha   110.46713394
_cell_angle_beta   110.46713394
_cell_angle_gamma   110.46713170
_symmetry_Int_Tables_number   1
_chemical_formula_structural   Na8Y3(SiO3)12
_chemical_formula_sum   'Na16 Y6 Si24 O72'
_cell_volume   1917.71165342
_cell_formula_units_Z   2
loop_
 _symmetry_equiv_pos_site_id
 _symmetry_equiv_pos_as_xyz
  1  'x, y, z'
loop_
 _atom_site_type_symbol
 _atom_site_label
 _atom_site_symmetry_multiplicity
 _atom_site_fract_x
 _atom_site_fract_y
 _atom_site_fract_z
 _atom_site_occupancy
  Na  Na0  1  0.00000000  0.00000000  0.00000000  1
  Na  Na1  1  0.50000000  0.50000000  0.50000000  1
  Na  Na2  1  0.07288100  0.07467800  0.28736800  1
  Na  Na3  1  0.28736800  0.07288100  0.07467800  1
  Na  Na4  1  0.07467800  0.28736800  0.07288100  1
  Na  Na5  1  0.78736800  0.57467800  0.57288100  1
  Na  Na6  1  0.57288100  0.78736800  0.57467800  1
  Na  Na7  1  0.57467800  0.57288100  0.78736800  1
  Na  Na8  1  0.92711900  0.92532200  0.71263200  1
  Na  Na9  1  0.71263200  0.92711900  0.92532200  1
  Na  Na10  1  0.92532200  0.71263200  0.92711900  1
  Na  Na11  1  0.21263200  0.42532200  0.42711900  1
  Na  Na12  1  0.42711900  0.21263200  0.42532200  1
  Na  Na13  1  0.42532200  0.42711900  0.21263200  1
  Na  Na14  1  0.75000000  0.75000000  0.75000000  1
  Na  Na15  1  0.25000000  0.25000000  0.25000000  1
  Y  Y16  1  0.25000000  0.50213700  0.99786300  1
  Y  Y17  1  0.99786300  0.25000000  0.50213700  1
  Y  Y18  1  0.50213700  0.99786300  0.25000000  1
  Y  Y19  1  0.49786300  0.00213700  0.75000000  1
  Y  Y20  1  0.75000000  0.49786300  0.00213700  1
  Y  Y21  1  0.00213700  0.75000000  0.49786300  1
  Si  Si22  1  0.74711900  0.99448600  0.18778900  1
  Si  Si23  1  0.18778900  0.74711900  0.99448600  1
  Si  Si24  1  0.99448600  0.18778900  0.74711900  1
  Si  Si25  1  0.68778900  0.49448600  0.24711900  1
  Si  Si26  1  0.24711900  0.68778900  0.49448600  1
  Si  Si27  1  0.49448600  0.24711900  0.68778900  1
  Si  Si28  1  0.25288100  0.00551400  0.81221100  1
  Si  Si29  1  0.81221100  0.25288100  0.00551400  1
  Si  Si30  1  0.00551400  0.81221100  0.25288100  1
  Si  Si31  1  0.31221100  0.50551400  0.75288100  1
  Si  Si32  1  0.75288100  0.31221100  0.50551400  1
  Si  Si33  1  0.50551400  0.75288100  0.31221100  1
  Si  Si34  1  0.70450300  0.70806200  0.44008600  1
  Si  Si35  1  0.44008600  0.70450300  0.70806200  1
  Si  Si36  1  0.70806200  0.44008600  0.70450300  1
  Si  Si37  1  0.94008600  0.20806200  0.20450300  1
  Si  Si38  1  0.20450300  0.94008600  0.20806200  1
  Si  Si39  1  0.20806200  0.20450300  0.94008600  1
  Si  Si40  1  0.29549700  0.29193800  0.55991400  1
  Si  Si41  1  0.55991400  0.29549700  0.29193800  1
  Si  Si42  1  0.29193800  0.55991400  0.29549700  1
  Si  Si43  1  0.05991400  0.79193800  0.79549700  1
  Si  Si44  1  0.79549700  0.05991400  0.79193800  1
  Si  Si45  1  0.79193800  0.79549700  0.05991400  1
  O  O46  1  0.84583100  0.05776300  0.33265300  1
  O  O47  1  0.33265300  0.84583100  0.05776300  1
  O  O48  1  0.05776300  0.33265300  0.84583100  1
  O  O49  1  0.83265300  0.55776300  0.34583100  1
  O  O50  1  0.34583100  0.83265300  0.55776300  1
  O  O51  1  0.55776300  0.34583100  0.83265300  1
  O  O52  1  0.15416900  0.94223700  0.66734700  1
  O  O53  1  0.66734700  0.15416900  0.94223700  1
  O  O54  1  0.94223700  0.66734700  0.15416900  1
  O  O55  1  0.16734700  0.44223700  0.65416900  1
  O  O56  1  0.65416900  0.16734700  0.44223700  1
  O  O57  1  0.44223700  0.65416900  0.16734700  1
  O  O58  1  0.92186500  0.86358800  0.19411200  1
  O  O59  1  0.19411200  0.92186500  0.86358800  1
  O  O60  1  0.86358800  0.19411200  0.92186500  1
  O  O61  1  0.69411200  0.36358800  0.42186500  1
  O  O62  1  0.42186500  0.69411200  0.36358800  1
  O  O63  1  0.36358800  0.42186500  0.69411200  1
  O  O64  1  0.07813500  0.13641200  0.80588800  1
  O  O65  1  0.80588800  0.07813500  0.13641200  1
  O  O66  1  0.13641200  0.80588800  0.07813500  1
  O  O67  1  0.30588800  0.63641200  0.57813500  1
  O  O68  1  0.57813500  0.30588800  0.63641200  1
  O  O69  1  0.63641200  0.57813500  0.30588800  1
  O  O70  1  0.46596700  0.32419700  0.32427100  1
  O  O71  1  0.32427100  0.46596700  0.32419700  1
  O  O72  1  0.32419700  0.32427100  0.46596700  1
  O  O73  1  0.82427100  0.82419700  0.96596700  1
  O  O74  1  0.96596700  0.82427100  0.82419700  1
  O  O75  1  0.82419700  0.96596700  0.82427100  1
  O  O76  1  0.53403300  0.67580300  0.67572900  1
  O  O77  1  0.67572900  0.53403300  0.67580300  1
  O  O78  1  0.67580300  0.67572900  0.53403300  1
  O  O79  1  0.17572900  0.17580300  0.03403300  1
  O  O80  1  0.03403300  0.17572900  0.17580300  1
  O  O81  1  0.17580300  0.03403300  0.17572900  1
  O  O82  1  0.81961000  0.37484900  0.01141500  1
  O  O83  1  0.01141500  0.81961000  0.37484900  1
  O  O84  1  0.37484900  0.01141500  0.81961000  1
  O  O85  1  0.51141500  0.87484900  0.31961000  1
  O  O86  1  0.31961000  0.51141500  0.87484900  1
  O  O87  1  0.87484900  0.31961000  0.51141500  1
  O  O88  1  0.18039000  0.62515100  0.98858500  1
  O  O89  1  0.98858500  0.18039000  0.62515100  1
  O  O90  1  0.62515100  0.98858500  0.18039000  1
  O  O91  1  0.48858500  0.12515100  0.68039000  1
  O  O92  1  0.68039000  0.48858500  0.12515100  1
  O  O93  1  0.12515100  0.68039000  0.48858500  1
  O  O94  1  0.00664200  0.28861600  0.35338600  1
  O  O95  1  0.35338600  0.00664200  0.28861600  1
  O  O96  1  0.28861600  0.35338600  0.00664200  1
  O  O97  1  0.85338600  0.78861600  0.50664200  1
  O  O98  1  0.50664200  0.85338600  0.78861600  1
  O  O99  1  0.78861600  0.50664200  0.85338600  1
  O  O100  1  0.99335800  0.71138400  0.64661400  1
  O  O101  1  0.64661400  0.99335800  0.71138400  1
  O  O102  1  0.71138400  0.64661400  0.99335800  1
  O  O103  1  0.14661400  0.21138400  0.49335800  1
  O  O104  1  0.49335800  0.14661400  0.21138400  1
  O  O105  1  0.21138400  0.49335800  0.14661400  1
  O  O106  1  0.90699400  0.28392900  0.14138500  1
  O  O107  1  0.14138500  0.90699400  0.28392900  1
  O  O108  1  0.28392900  0.14138500  0.90699400  1
  O  O109  1  0.64138500  0.78392900  0.40699400  1
  O  O110  1  0.40699400  0.64138500  0.78392900  1
  O  O111  1  0.78392900  0.40699400  0.64138500  1
  O  O112  1  0.09300600  0.71607100  0.85861500  1
  O  O113  1  0.85861500  0.09300600  0.71607100  1
  O  O114  1  0.71607100  0.85861500  0.09300600  1
  O  O115  1  0.35861500  0.21607100  0.59300600  1
  O  O116  1  0.59300600  0.35861500  0.21607100  1
  O  O117  1  0.21607100  0.59300600  0.35861500  1
