# generated using pymatgen
data_Fe2PHO3F2
_symmetry_space_group_name_H-M   'P 1'
_cell_length_a   5.61491700
_cell_length_b   7.45449600
_cell_length_c   10.16060000
_cell_angle_alpha   90.00000000
_cell_angle_beta   90.00000000
_cell_angle_gamma   90.00000000
_symmetry_Int_Tables_number   1
_chemical_formula_structural   Fe2PHO3F2
_chemical_formula_sum   'Fe8 P4 H4 O12 F8'
_cell_volume   425.28589720
_cell_formula_units_Z   4
loop_
 _symmetry_equiv_pos_site_id
 _symmetry_equiv_pos_as_xyz
  1  'x, y, z'
loop_
 _atom_site_type_symbol
 _atom_site_label
 _atom_site_symmetry_multiplicity
 _atom_site_fract_x
 _atom_site_fract_y
 _atom_site_fract_z
 _atom_site_occupancy
  Fe  Fe0  1  0.25249600  0.90244800  0.43947400  1
  Fe  Fe1  1  0.24750400  0.40244800  0.06052600  1
  Fe  Fe2  1  0.74750400  0.09755200  0.93947400  1
  Fe  Fe3  1  0.75249600  0.59755200  0.56052600  1
  Fe  Fe4  1  0.74750400  0.09755200  0.56052600  1
  Fe  Fe5  1  0.75249600  0.59755200  0.93947400  1
  Fe  Fe6  1  0.25249600  0.90244800  0.06052600  1
  Fe  Fe7  1  0.24750400  0.40244800  0.43947400  1
  P  P8  1  0.42167600  0.83830800  0.75000000  1
  P  P9  1  0.07832400  0.33830800  0.75000000  1
  P  P10  1  0.57832400  0.16169200  0.25000000  1
  P  P11  1  0.92167600  0.66169200  0.25000000  1
  H  H12  1  0.19420400  0.76163300  0.75000000  1
  H  H13  1  0.30579600  0.26163300  0.75000000  1
  H  H14  1  0.80579600  0.23836700  0.25000000  1
  H  H15  1  0.69420400  0.73836700  0.25000000  1
  O  O16  1  0.44128800  0.95346600  0.62443600  1
  O  O17  1  0.05871200  0.45346600  0.87556400  1
  O  O18  1  0.55871200  0.04653400  0.12443600  1
  O  O19  1  0.94128800  0.54653400  0.37556400  1
  O  O20  1  0.55871200  0.04653400  0.37556400  1
  O  O21  1  0.94128800  0.54653400  0.12443600  1
  O  O22  1  0.44128800  0.95346600  0.87556400  1
  O  O23  1  0.05871200  0.45346600  0.62443600  1
  O  O24  1  0.60859100  0.68282400  0.75000000  1
  O  O25  1  0.89140900  0.18282400  0.75000000  1
  O  O26  1  0.39140900  0.31717600  0.25000000  1
  O  O27  1  0.10859100  0.81717600  0.25000000  1
  F  F28  1  0.41936900  0.65258700  0.45509700  1
  F  F29  1  0.08063100  0.15258700  0.04490300  1
  F  F30  1  0.58063100  0.34741300  0.95509700  1
  F  F31  1  0.91936900  0.84741300  0.54490300  1
  F  F32  1  0.58063100  0.34741300  0.54490300  1
  F  F33  1  0.91936900  0.84741300  0.95509700  1
  F  F34  1  0.41936900  0.65258700  0.04490300  1
  F  F35  1  0.08063100  0.15258700  0.45509700  1
