# generated using pymatgen
data_PrH16C2N11O17
_symmetry_space_group_name_H-M   'P 1'
_cell_length_a   7.22363440
_cell_length_b   7.22363440
_cell_length_c   20.93275281
_cell_angle_alpha   85.96741322
_cell_angle_beta   85.96741322
_cell_angle_gamma   79.92911990
_symmetry_Int_Tables_number   1
_chemical_formula_structural   PrH16C2N11O17
_chemical_formula_sum   'Pr2 H32 C4 N22 O34'
_cell_volume   1070.92338001
_cell_formula_units_Z   2
loop_
 _symmetry_equiv_pos_site_id
 _symmetry_equiv_pos_as_xyz
  1  'x, y, z'
loop_
 _atom_site_type_symbol
 _atom_site_label
 _atom_site_symmetry_multiplicity
 _atom_site_fract_x
 _atom_site_fract_y
 _atom_site_fract_z
 _atom_site_occupancy
  Pr  Pr0  1  0.63923500  0.36076500  0.75000000  1
  Pr  Pr1  1  0.36076500  0.63923500  0.25000000  1
  H  H2  1  0.17469900  0.32901200  0.08794000  1
  H  H3  1  0.67098800  0.82530100  0.41206000  1
  H  H4  1  0.82530100  0.67098800  0.91206000  1
  H  H5  1  0.32901200  0.17469900  0.58794000  1
  H  H6  1  0.21629100  0.08432000  0.08271600  1
  H  H7  1  0.91568000  0.78370900  0.41728400  1
  H  H8  1  0.78370900  0.91568000  0.91728400  1
  H  H9  1  0.08432000  0.21629100  0.58271600  1
  H  H10  1  0.20908600  0.52666900  0.99811800  1
  H  H11  1  0.47333100  0.79091400  0.50188200  1
  H  H12  1  0.79091400  0.47333100  0.00188200  1
  H  H13  1  0.52666900  0.20908600  0.49811800  1
  H  H14  1  0.27711500  0.43451100  0.92291600  1
  H  H15  1  0.56548900  0.72288500  0.57708400  1
  H  H16  1  0.72288500  0.56548900  0.07708400  1
  H  H17  1  0.43451100  0.27711500  0.42291600  1
  H  H18  1  0.31722400  0.10300800  0.91406200  1
  H  H19  1  0.89699200  0.68277600  0.58593800  1
  H  H20  1  0.68277600  0.89699200  0.08593800  1
  H  H21  1  0.10300800  0.31722400  0.41406200  1
  H  H22  1  0.27861700  0.95912900  0.98213900  1
  H  H23  1  0.04087100  0.72138300  0.51786100  1
  H  H24  1  0.72138300  0.04087100  0.01786100  1
  H  H25  1  0.95912900  0.27861700  0.48213900  1
  H  H26  1  0.44813600  0.99550600  0.78087300  1
  H  H27  1  0.00449400  0.55186400  0.71912700  1
  H  H28  1  0.55186400  0.00449400  0.21912700  1
  H  H29  1  0.99550600  0.44813600  0.28087300  1
  H  H30  1  0.27829600  0.16054900  0.76886300  1
  H  H31  1  0.83945100  0.72170400  0.73113700  1
  H  H32  1  0.72170400  0.83945100  0.23113700  1
  H  H33  1  0.16054900  0.27829600  0.26886300  1
  C  C34  1  0.23927300  0.24012000  0.99744100  1
  C  C35  1  0.75988000  0.76072700  0.50255900  1
  C  C36  1  0.76072700  0.75988000  0.00255900  1
  C  C37  1  0.24012000  0.23927300  0.49744100  1
  N  N38  1  0.40576500  0.65551800  0.83806300  1
  N  N39  1  0.34448200  0.59423500  0.66193700  1
  N  N40  1  0.59423500  0.34448200  0.16193700  1
  N  N41  1  0.65551800  0.40576500  0.33806300  1
  N  N42  1  0.19333000  0.21579100  0.06021600  1
  N  N43  1  0.78420900  0.80667000  0.43978400  1
  N  N44  1  0.80667000  0.78420900  0.93978400  1
  N  N45  1  0.21579100  0.19333000  0.56021600  1
  N  N46  1  0.23369900  0.41340300  0.97016500  1
  N  N47  1  0.58659700  0.76630100  0.52983500  1
  N  N48  1  0.76630100  0.58659700  0.02983500  1
  N  N49  1  0.41340300  0.23369900  0.47016500  1
  N  N50  1  0.97023100  0.02976900  0.75000000  1
  N  N51  1  0.02976900  0.97023100  0.25000000  1
  N  N52  1  0.76593700  0.28596200  0.89295800  1
  N  N53  1  0.71403800  0.23406300  0.60704200  1
  N  N54  1  0.23406300  0.71403800  0.10704200  1
  N  N55  1  0.28596200  0.76593700  0.39295800  1
  N  N56  1  0.28867500  0.08945500  0.96209000  1
  N  N57  1  0.91054500  0.71132500  0.53791000  1
  N  N58  1  0.71132500  0.91054500  0.03791000  1
  N  N59  1  0.08945500  0.28867500  0.46209000  1
  O  O60  1  0.99260500  0.19749600  0.76063100  1
  O  O61  1  0.80250400  0.00739500  0.73936900  1
  O  O62  1  0.00739500  0.80250400  0.23936900  1
  O  O63  1  0.19749600  0.99260500  0.26063100  1
  O  O64  1  0.10344600  0.89655400  0.75000000  1
  O  O65  1  0.89655400  0.10344600  0.25000000  1
  O  O66  1  0.78467700  0.43951500  0.86151600  1
  O  O67  1  0.56048500  0.21532300  0.63848400  1
  O  O68  1  0.21532300  0.56048500  0.13848400  1
  O  O69  1  0.43951500  0.78467700  0.36151600  1
  O  O70  1  0.70848800  0.15977400  0.86362500  1
  O  O71  1  0.84022600  0.29151200  0.63637500  1
  O  O72  1  0.29151200  0.84022600  0.13637500  1
  O  O73  1  0.15977400  0.70848800  0.36362500  1
  O  O74  1  0.80176500  0.25831100  0.95108700  1
  O  O75  1  0.74168900  0.19823500  0.54891300  1
  O  O76  1  0.19823500  0.74168900  0.04891300  1
  O  O77  1  0.25831100  0.80176500  0.45108700  1
  O  O78  1  0.39499300  0.47833900  0.84218600  1
  O  O79  1  0.52166100  0.60500700  0.65781400  1
  O  O80  1  0.60500700  0.52166100  0.15781400  1
  O  O81  1  0.47833900  0.39499300  0.34218600  1
  O  O82  1  0.50930800  0.71091400  0.79099600  1
  O  O83  1  0.28908600  0.49069200  0.70900400  1
  O  O84  1  0.49069200  0.28908600  0.20900400  1
  O  O85  1  0.71091400  0.50930800  0.29099600  1
  O  O86  1  0.32116300  0.76286500  0.87797400  1
  O  O87  1  0.23713500  0.67883700  0.62202600  1
  O  O88  1  0.67883700  0.23713500  0.12202600  1
  O  O89  1  0.76286500  0.32116300  0.37797400  1
  O  O90  1  0.41133600  0.13339400  0.77913600  1
  O  O91  1  0.86660600  0.58866400  0.72086400  1
  O  O92  1  0.58866400  0.86660600  0.22086400  1
  O  O93  1  0.13339400  0.41133600  0.27913600  1
