# generated using pymatgen
data_TiSi7H42C14(ClO)2
_symmetry_space_group_name_H-M   'P 1'
_cell_length_a   18.59453900
_cell_length_b   9.77357400
_cell_length_c   10.43371119
_cell_angle_alpha   78.76858288
_cell_angle_beta   90.00000000
_cell_angle_gamma   90.00000000
_symmetry_Int_Tables_number   1
_chemical_formula_structural   TiSi7H42C14(ClO)2
_chemical_formula_sum   'Ti2 Si14 H84 C28 Cl4 O4'
_cell_volume   1859.85705234
_cell_formula_units_Z   2
loop_
 _symmetry_equiv_pos_site_id
 _symmetry_equiv_pos_as_xyz
  1  'x, y, z'
loop_
 _atom_site_type_symbol
 _atom_site_label
 _atom_site_symmetry_multiplicity
 _atom_site_fract_x
 _atom_site_fract_y
 _atom_site_fract_z
 _atom_site_occupancy
  Ti  Ti0  1  0.73476100  0.34760800  0.40596000  1
  Ti  Ti1  1  0.23476100  0.65239200  0.59404000  1
  Si  Si2  1  0.75576100  0.25251800  0.11683500  1
  Si  Si3  1  0.25576100  0.74748200  0.88316500  1
  Si  Si4  1  0.89183800  0.17717200  0.41973200  1
  Si  Si5  1  0.39183800  0.82282800  0.58026800  1
  Si  Si6  1  0.76586400  0.46601000  0.95766600  1
  Si  Si7  1  0.26586400  0.53399000  0.04233400  1
  Si  Si8  1  0.86818800  0.13928400  0.19886100  1
  Si  Si9  1  0.36818800  0.86071600  0.80113900  1
  Si  Si10  1  0.99339000  0.32725900  0.43534400  1
  Si  Si11  1  0.49339000  0.67274100  0.56465600  1
  Si  Si12  1  0.66434500  0.09903500  0.05949600  1
  Si  Si13  1  0.16434500  0.90096500  0.94050400  1
  Si  Si14  1  0.88229400  0.97054900  0.58910100  1
  Si  Si15  1  0.38229400  0.02945100  0.41089900  1
  H  H16  1  0.68039500  0.65916100  0.87751600  1
  H  H17  1  0.18039500  0.34083900  0.12248400  1
  H  H18  1  0.63236000  0.50216000  0.93667700  1
  H  H19  1  0.13236000  0.49784000  0.06332300  1
  H  H20  1  0.67036100  0.59861700  0.04884600  1
  H  H21  1  0.17036100  0.40138300  0.95115400  1
  H  H22  1  0.83235000  0.36324000  0.79066100  1
  H  H23  1  0.33235000  0.63676000  0.20933900  1
  H  H24  1  0.73814500  0.37032600  0.75780400  1
  H  H25  1  0.23814500  0.62967400  0.24219600  1
  H  H26  1  0.79103600  0.52404300  0.71921900  1
  H  H27  1  0.29103600  0.47595700  0.28078100  1
  H  H28  1  0.83323500  0.68789700  0.93542300  1
  H  H29  1  0.33323500  0.31210300  0.06457700  1
  H  H30  1  0.83441400  0.59843200  0.10066300  1
  H  H31  1  0.33441400  0.40156800  0.89933700  1
  H  H32  1  0.89276100  0.54473800  0.98368300  1
  H  H33  1  0.39276100  0.45526200  0.01631700  1
  H  H34  1  0.93468600  0.18676600  0.98665900  1
  H  H35  1  0.43468600  0.81323400  0.01334100  1
  H  H36  1  0.95230100  0.32136600  0.07582400  1
  H  H37  1  0.45230100  0.67863400  0.92417600  1
  H  H38  1  0.99569900  0.15664900  0.12006800  1
  H  H39  1  0.49569900  0.84335100  0.87993200  1
  H  H40  1  0.91646200  0.89666500  0.23332400  1
  H  H41  1  0.41646200  0.10333500  0.76667600  1
  H  H42  1  0.82218900  0.89226600  0.26311500  1
  H  H43  1  0.32218900  0.10773400  0.73688500  1
  H  H44  1  0.85555300  0.92653600  0.09996500  1
  H  H45  1  0.35555300  0.07346400  0.90003500  1
  H  H46  1  0.02560400  0.56882000  0.32815200  1
  H  H47  1  0.52560400  0.43118000  0.67184800  1
  H  H48  1  0.98584300  0.47895200  0.21268900  1
  H  H49  1  0.48584300  0.52104800  0.78731100  1
  H  H50  1  0.93079900  0.54447100  0.32727400  1
  H  H51  1  0.43079900  0.45552900  0.67272600  1
  H  H52  1  0.04325600  0.44747700  0.60473800  1
  H  H53  1  0.54325700  0.55252300  0.39526200  1
  H  H54  1  0.94863400  0.42504700  0.62498600  1
  H  H55  1  0.44863400  0.57495300  0.37501400  1
  H  H56  1  0.00800500  0.28197500  0.67895700  1
  H  H57  1  0.50800500  0.71802500  0.32104300  1
  H  H58  1  0.08483500  0.13689200  0.47003200  1
  H  H59  1  0.58483500  0.86310800  0.52996800  1
  H  H60  1  0.07972800  0.21770400  0.30184600  1
  H  H61  1  0.57972800  0.78229600  0.69815400  1
  H  H62  1  0.12565700  0.30206000  0.41505300  1
  H  H63  1  0.62565700  0.69794000  0.58494700  1
  H  H64  1  0.65144600  0.95317700  0.89053400  1
  H  H65  1  0.15144600  0.04682300  0.10946600  1
  H  H66  1  0.71620700  0.08631100  0.84121700  1
  H  H67  1  0.21620700  0.91368900  0.15878300  1
  H  H68  1  0.73935600  0.93495400  0.95933200  1
  H  H69  1  0.23935600  0.06504600  0.04066800  1
  H  H70  1  0.56093700  0.26143200  0.07123300  1
  H  H71  1  0.06093700  0.73856800  0.92876700  1
  H  H72  1  0.58693300  0.26499300  0.90580800  1
  H  H73  1  0.08693300  0.73500700  0.09419200  1
  H  H74  1  0.53595400  0.12295200  0.99200500  1
  H  H75  1  0.03595400  0.87704800  0.00799500  1
  H  H76  1  0.59844800  0.89495900  0.18560700  1
  H  H77  1  0.09844800  0.10504100  0.81439300  1
  H  H78  1  0.68779400  0.90003900  0.24462700  1
  H  H79  1  0.18779400  0.09996100  0.75537300  1
  H  H80  1  0.62155000  0.01523700  0.28750900  1
  H  H81  1  0.12155000  0.98476300  0.71249100  1
  H  H82  1  0.95623700  0.05009400  0.76178200  1
  H  H83  1  0.45623700  0.94990600  0.23821800  1
  H  H84  1  0.86447400  0.10081100  0.77163700  1
  H  H85  1  0.36447400  0.89918900  0.22836300  1
  H  H86  1  0.89096400  0.92515400  0.83209800  1
  H  H87  1  0.39096400  0.07484600  0.16790200  1
  H  H88  1  0.77958700  0.81453100  0.67214800  1
  H  H89  1  0.27958700  0.18546900  0.32785200  1
  H  H90  1  0.74824200  0.98367200  0.60056100  1
  H  H91  1  0.24824200  0.01632800  0.39943900  1
  H  H92  1  0.77539000  0.86498800  0.49953100  1
  H  H93  1  0.27539000  0.13501200  0.50046900  1
  H  H94  1  0.93419500  0.78594000  0.48037100  1
  H  H95  1  0.43419500  0.21406000  0.51962900  1
  H  H96  1  0.00284300  0.86533800  0.56005000  1
  H  H97  1  0.50284300  0.13466200  0.43995000  1
  H  H98  1  0.94332100  0.74269100  0.65308600  1
  H  H99  1  0.44332100  0.25730900  0.34691400  1
  C  C100  1  0.67858400  0.56499100  0.95540200  1
  C  C101  1  0.17858400  0.43500900  0.04459800  1
  C  C102  1  0.78353800  0.42630600  0.79105500  1
  C  C103  1  0.28353800  0.57369400  0.20894500  1
  C  C104  1  0.83893000  0.58410100  0.99923000  1
  C  C105  1  0.33893000  0.41589900  0.00077000  1
  C  C106  1  0.94498200  0.20894400  0.08461800  1
  C  C107  1  0.44498200  0.79105600  0.91538200  1
  C  C108  1  0.86465700  0.94509800  0.19954700  1
  C  C109  1  0.36465700  0.05490200  0.80045300  1
  C  C110  1  0.98264800  0.49553700  0.31348000  1
  C  C111  1  0.48264800  0.50446300  0.68652000  1
  C  C112  1  0.99841300  0.37382200  0.60245800  1
  C  C113  1  0.49841300  0.62617800  0.39754200  1
  C  C114  1  0.07879300  0.23688400  0.40216800  1
  C  C115  1  0.57879300  0.76311600  0.59783200  1
  C  C116  1  0.69647200  0.01023900  0.92511800  1
  C  C117  1  0.19647200  0.98976100  0.07488200  1
  C  C118  1  0.57931500  0.19772300  0.00177700  1
  C  C119  1  0.07931500  0.80227700  0.99822300  1
  C  C120  1  0.64115800  0.96469400  0.20892400  1
  C  C121  1  0.14115800  0.03530600  0.79107600  1
  C  C122  1  0.90026100  0.01716600  0.75391200  1
  C  C123  1  0.40026100  0.98283400  0.24608800  1
  C  C124  1  0.78738000  0.90282800  0.58961700  1
  C  C125  1  0.28738000  0.09717200  0.41038300  1
  C  C126  1  0.94702500  0.82879100  0.56743200  1
  C  C127  1  0.44702500  0.17120900  0.43256800  1
  Cl  Cl128  1  0.73785600  0.58061800  0.38908500  1
  Cl  Cl129  1  0.23785600  0.41938200  0.61091500  1
  Cl  Cl130  1  0.64728400  0.26082200  0.54847900  1
  Cl  Cl131  1  0.14728400  0.73917800  0.45152100  1
  O  O132  1  0.71918300  0.30807600  0.24947900  1
  O  O133  1  0.21918300  0.69192400  0.75052100  1
  O  O134  1  0.81941700  0.27266100  0.45654300  1
  O  O135  1  0.31941700  0.72733900  0.54345700  1
