# generated using pymatgen
data_Rb3(SO4)2
_symmetry_space_group_name_H-M   'P 1'
_cell_length_a   11.91535278
_cell_length_b   11.91535278
_cell_length_c   16.58320031
_cell_angle_alpha   68.90431619
_cell_angle_beta   68.90431619
_cell_angle_gamma   59.86690348
_symmetry_Int_Tables_number   1
_chemical_formula_structural   Rb3(SO4)2
_chemical_formula_sum   'Rb24 S16 O64'
_cell_volume   1852.30805700
_cell_formula_units_Z   8
loop_
 _symmetry_equiv_pos_site_id
 _symmetry_equiv_pos_as_xyz
  1  'x, y, z'
loop_
 _atom_site_type_symbol
 _atom_site_label
 _atom_site_symmetry_multiplicity
 _atom_site_fract_x
 _atom_site_fract_y
 _atom_site_fract_z
 _atom_site_occupancy
  Rb  Rb0  1  0.75085300  0.24914700  0.25000000  1
  Rb  Rb1  1  0.24914700  0.75085300  0.75000000  1
  Rb  Rb2  1  0.74883200  0.74935500  0.75013300  1
  Rb  Rb3  1  0.25064500  0.25116800  0.74986700  1
  Rb  Rb4  1  0.25116800  0.25064500  0.24986700  1
  Rb  Rb5  1  0.74935500  0.74883200  0.25013300  1
  Rb  Rb6  1  0.75002900  0.24997100  0.75000000  1
  Rb  Rb7  1  0.24997100  0.75002900  0.25000000  1
  Rb  Rb8  1  0.86377000  0.34386100  0.93973800  1
  Rb  Rb9  1  0.65613900  0.13623000  0.56026200  1
  Rb  Rb10  1  0.13623000  0.65613900  0.06026200  1
  Rb  Rb11  1  0.34386100  0.86377000  0.43973800  1
  Rb  Rb12  1  0.64720800  0.63700500  0.05993200  1
  Rb  Rb13  1  0.36299500  0.35279200  0.44006800  1
  Rb  Rb14  1  0.35279200  0.36299500  0.94006800  1
  Rb  Rb15  1  0.63700500  0.64720800  0.55993200  1
  Rb  Rb16  1  0.15611400  0.14936500  0.06029200  1
  Rb  Rb17  1  0.85063500  0.84388600  0.43970800  1
  Rb  Rb18  1  0.84388600  0.85063500  0.93970800  1
  Rb  Rb19  1  0.14936500  0.15611400  0.56029200  1
  Rb  Rb20  1  0.64724100  0.14538500  0.06039100  1
  Rb  Rb21  1  0.85461500  0.35275900  0.43960900  1
  Rb  Rb22  1  0.35275900  0.85461500  0.93960900  1
  Rb  Rb23  1  0.14538500  0.64724100  0.56039100  1
  S  S24  1  0.95984800  0.96917300  0.13663000  1
  S  S25  1  0.03082700  0.04015200  0.36337000  1
  S  S26  1  0.04015200  0.03082700  0.86337000  1
  S  S27  1  0.96917300  0.95984800  0.63663000  1
  S  S28  1  0.95292900  0.45878400  0.13579000  1
  S  S29  1  0.54121600  0.04707100  0.36421000  1
  S  S30  1  0.04707100  0.54121600  0.86421000  1
  S  S31  1  0.45878400  0.95292900  0.63579000  1
  S  S32  1  0.43766700  0.45813300  0.13577800  1
  S  S33  1  0.54186700  0.56233300  0.36422200  1
  S  S34  1  0.56233300  0.54186700  0.86422200  1
  S  S35  1  0.45813300  0.43766700  0.63577800  1
  S  S36  1  0.53144400  0.06216800  0.86432600  1
  S  S37  1  0.93783200  0.46855600  0.63567400  1
  S  S38  1  0.46855600  0.93783200  0.13567400  1
  S  S39  1  0.06216800  0.53144400  0.36432600  1
  O  O40  1  0.93235700  0.94793600  0.23588300  1
  O  O41  1  0.05206400  0.06764300  0.26411700  1
  O  O42  1  0.06764300  0.05206400  0.76411700  1
  O  O43  1  0.94793600  0.93235700  0.73588300  1
  O  O44  1  0.90090000  0.11401600  0.09678500  1
  O  O45  1  0.88598400  0.09910000  0.40321500  1
  O  O46  1  0.09910000  0.88598400  0.90321500  1
  O  O47  1  0.11401600  0.90090000  0.59678500  1
  O  O48  1  0.10498900  0.90736600  0.10055400  1
  O  O49  1  0.09263400  0.89501100  0.39944600  1
  O  O50  1  0.89501100  0.09263400  0.89944600  1
  O  O51  1  0.90736600  0.10498900  0.60055400  1
  O  O52  1  0.89334600  0.90180500  0.12222300  1
  O  O53  1  0.09819500  0.10665400  0.37777700  1
  O  O54  1  0.10665400  0.09819500  0.87777700  1
  O  O55  1  0.90180500  0.89334600  0.62222300  1
  O  O56  1  0.91826000  0.43179000  0.23427400  1
  O  O57  1  0.56821000  0.08174000  0.26572600  1
  O  O58  1  0.08174000  0.56821000  0.76572600  1
  O  O59  1  0.43179000  0.91826000  0.73427400  1
  O  O60  1  0.10087700  0.39655900  0.10502800  1
  O  O61  1  0.60344100  0.89912300  0.39497200  1
  O  O62  1  0.89912300  0.60344100  0.89497200  1
  O  O63  1  0.39655900  0.10087700  0.60502800  1
  O  O64  1  0.89961800  0.60557800  0.09930500  1
  O  O65  1  0.39442200  0.10038200  0.40069500  1
  O  O66  1  0.10038200  0.39442200  0.90069500  1
  O  O67  1  0.60557800  0.89961800  0.59930500  1
  O  O68  1  0.89272100  0.40063700  0.10616300  1
  O  O69  1  0.59936300  0.10727900  0.39383700  1
  O  O70  1  0.10727900  0.59936300  0.89383700  1
  O  O71  1  0.40063700  0.89272100  0.60616300  1
  O  O72  1  0.39083600  0.42874400  0.23524700  1
  O  O73  1  0.57125600  0.60916400  0.26475300  1
  O  O74  1  0.60916400  0.57125600  0.76475300  1
  O  O75  1  0.42874400  0.39083600  0.73524700  1
  O  O76  1  0.38890300  0.40069900  0.09696400  1
  O  O77  1  0.59930100  0.61109700  0.40303600  1
  O  O78  1  0.61109700  0.59930100  0.90303600  1
  O  O79  1  0.40069900  0.38890300  0.59696400  1
  O  O80  1  0.38848000  0.60430900  0.10081200  1
  O  O81  1  0.39569100  0.61152000  0.39918800  1
  O  O82  1  0.61152000  0.39569100  0.89918800  1
  O  O83  1  0.60430900  0.38848000  0.60081200  1
  O  O84  1  0.58619700  0.39281900  0.11813300  1
  O  O85  1  0.60718100  0.41380300  0.38186700  1
  O  O86  1  0.41380300  0.60718100  0.88186700  1
  O  O87  1  0.39281900  0.58619700  0.61813300  1
  O  O88  1  0.55354900  0.10796100  0.76458100  1
  O  O89  1  0.89203900  0.44645100  0.73541900  1
  O  O90  1  0.44645100  0.89203900  0.23541900  1
  O  O91  1  0.10796100  0.55354900  0.26458100  1
  O  O92  1  0.59456100  0.11253900  0.89742600  1
  O  O93  1  0.88746100  0.40543900  0.60257400  1
  O  O94  1  0.40543900  0.88746100  0.10257400  1
  O  O95  1  0.11253900  0.59456100  0.39742600  1
  O  O96  1  0.38672400  0.11127100  0.90388500  1
  O  O97  1  0.88872900  0.61327600  0.59611500  1
  O  O98  1  0.61327600  0.88872900  0.09611500  1
  O  O99  1  0.11127100  0.38672400  0.40388500  1
  O  O100  1  0.59742800  0.91333200  0.88302900  1
  O  O101  1  0.08666800  0.40257200  0.61697100  1
  O  O102  1  0.40257200  0.08666800  0.11697100  1
  O  O103  1  0.91333200  0.59742800  0.38302900  1
