# generated using pymatgen
data_Na2U2ZnH8(C3O7)4
_symmetry_space_group_name_H-M   'P 1'
_cell_length_a   6.53744798
_cell_length_b   7.98646837
_cell_length_c   13.05736695
_cell_angle_alpha   75.80487378
_cell_angle_beta   84.52133030
_cell_angle_gamma   67.39780456
_symmetry_Int_Tables_number   1
_chemical_formula_structural   Na2U2ZnH8(C3O7)4
_chemical_formula_sum   'Na2 U2 Zn1 H8 C12 O28'
_cell_volume   610.16118345
_cell_formula_units_Z   1
loop_
 _symmetry_equiv_pos_site_id
 _symmetry_equiv_pos_as_xyz
  1  'x, y, z'
loop_
 _atom_site_type_symbol
 _atom_site_label
 _atom_site_symmetry_multiplicity
 _atom_site_fract_x
 _atom_site_fract_y
 _atom_site_fract_z
 _atom_site_occupancy
  Na  Na0  1  0.75013400  0.83535200  0.79217700  1
  Na  Na1  1  0.24986600  0.16464800  0.20782300  1
  U  U2  1  0.76196500  0.33660200  0.80407000  1
  U  U3  1  0.23803500  0.66339800  0.19593000  1
  Zn  Zn4  1  0.50000000  0.00000000  0.50000000  1
  H  H5  1  0.91743700  0.85846000  0.57407700  1
  H  H6  1  0.08256300  0.14154000  0.42592300  1
  H  H7  1  0.80530600  0.06110900  0.59883100  1
  H  H8  1  0.19469400  0.93889100  0.40116900  1
  H  H9  1  0.75156000  0.98091400  0.31770600  1
  H  H10  1  0.24844000  0.01908600  0.68229400  1
  H  H11  1  0.64922400  0.19248800  0.32815800  1
  H  H12  1  0.35077600  0.80751200  0.67184200  1
  C  C13  1  0.30911100  0.24939000  0.77451400  1
  C  C14  1  0.69088900  0.75061000  0.22548600  1
  C  C15  1  0.21566200  0.45308500  0.78129500  1
  C  C16  1  0.78433800  0.54691500  0.21870500  1
  C  C17  1  0.80205300  0.38823400  0.54617800  1
  C  C18  1  0.19794700  0.61176600  0.45382200  1
  C  C19  1  0.69743500  0.58992900  0.56271300  1
  C  C20  1  0.30256500  0.41007100  0.43728700  1
  C  C21  1  0.52409700  0.58891500  0.97893600  1
  C  C22  1  0.47590300  0.41108500  0.02106400  1
  C  C23  1  0.97391600  0.93269700  0.97532900  1
  C  C24  1  0.02608400  0.06730300  0.02467100  1
  O  O25  1  0.16916200  0.17737200  0.76701000  1
  O  O26  1  0.83083800  0.82262800  0.23299000  1
  O  O27  1  0.00779000  0.52777800  0.79056500  1
  O  O28  1  0.99221000  0.47222200  0.20943500  1
  O  O29  1  0.35497300  0.52995200  0.77643100  1
  O  O30  1  0.64502700  0.47004800  0.22356900  1
  O  O31  1  0.51761000  0.16769200  0.77557300  1
  O  O32  1  0.48239000  0.83230800  0.22442700  1
  O  O33  1  0.81874100  0.26416900  0.63422900  1
  O  O34  1  0.18125900  0.73583100  0.36577100  1
  O  O35  1  0.67988300  0.60098100  0.65955000  1
  O  O36  1  0.32011700  0.39901900  0.34045000  1
  O  O37  1  0.63612100  0.72452300  0.48412800  1
  O  O38  1  0.36387900  0.27547700  0.51587200  1
  O  O39  1  0.85938400  0.35603400  0.45779800  1
  O  O40  1  0.14061600  0.64396600  0.54220200  1
  O  O41  1  0.62990300  0.59841100  0.89214500  1
  O  O42  1  0.37009700  0.40158900  0.10785500  1
  O  O43  1  0.45692900  0.71115600  0.03281700  1
  O  O44  1  0.54307100  0.28884400  0.96718300  1
  O  O45  1  0.88913900  0.99952400  0.88309900  1
  O  O46  1  0.11086100  0.00047600  0.11690100  1
  O  O47  1  0.01729300  0.76875200  0.02901000  1
  O  O48  1  0.98270700  0.23124800  0.97099000  1
  O  O49  1  0.78050000  0.94537900  0.60076500  1
  O  O50  1  0.21950000  0.05462100  0.39923500  1
  O  O51  1  0.70184600  0.06277800  0.36859100  1
  O  O52  1  0.29815400  0.93722200  0.63140900  1
