# generated using pymatgen
data_Gd(BO2)6
_symmetry_space_group_name_H-M   'P 1'
_cell_length_a   8.77001048
_cell_length_b   8.77001048
_cell_length_c   8.47999172
_cell_angle_alpha   58.86206128
_cell_angle_beta   58.86206128
_cell_angle_gamma   59.99999642
_symmetry_Int_Tables_number   1
_chemical_formula_structural   Gd(BO2)6
_chemical_formula_sum   'Gd2 B12 O24'
_cell_volume   453.09849872
_cell_formula_units_Z   2
loop_
 _symmetry_equiv_pos_site_id
 _symmetry_equiv_pos_as_xyz
  1  'x, y, z'
loop_
 _atom_site_type_symbol
 _atom_site_label
 _atom_site_symmetry_multiplicity
 _atom_site_fract_x
 _atom_site_fract_y
 _atom_site_fract_z
 _atom_site_occupancy
  Gd  Gd0  1  0.50172500  0.50172500  0.49482500  1
  Gd  Gd1  1  0.00172500  0.00172500  0.99482500  1
  B  B2  1  0.90748600  0.20332000  0.25684700  1
  B  B3  1  0.20332000  0.63234800  0.25684700  1
  B  B4  1  0.63234800  0.90748600  0.25684700  1
  B  B5  1  0.40748600  0.13234800  0.75684700  1
  B  B6  1  0.13234800  0.70332000  0.75684700  1
  B  B7  1  0.70332000  0.40748600  0.75684700  1
  B  B8  1  0.60034800  0.11687000  0.90215300  1
  B  B9  1  0.11687000  0.38063000  0.90215300  1
  B  B10  1  0.38063000  0.60034800  0.90215300  1
  B  B11  1  0.10034800  0.88063000  0.40215300  1
  B  B12  1  0.88063000  0.61687000  0.40215300  1
  B  B13  1  0.61687000  0.10034800  0.40215300  1
  O  O14  1  0.51660000  0.80847500  0.30010900  1
  O  O15  1  0.80847500  0.37481600  0.30010900  1
  O  O16  1  0.37481600  0.51660000  0.30010900  1
  O  O17  1  0.01660000  0.87481600  0.80010900  1
  O  O18  1  0.87481600  0.30847500  0.80010900  1
  O  O19  1  0.30847500  0.01660000  0.80010900  1
  O  O20  1  0.03771400  0.24094800  0.04817400  1
  O  O21  1  0.24094800  0.67316400  0.04817400  1
  O  O22  1  0.67316400  0.03771400  0.04817400  1
  O  O23  1  0.53771400  0.17316400  0.54817400  1
  O  O24  1  0.17316400  0.74094800  0.54817400  1
  O  O25  1  0.74094800  0.53771400  0.54817400  1
  O  O26  1  0.28373500  0.32957100  0.75555500  1
  O  O27  1  0.32957100  0.63113900  0.75555500  1
  O  O28  1  0.63113900  0.28373500  0.75555500  1
  O  O29  1  0.78373500  0.13113900  0.25555500  1
  O  O30  1  0.13113900  0.82957100  0.25555500  1
  O  O31  1  0.82957100  0.78373500  0.25555500  1
  O  O32  1  0.00421100  0.06192800  0.39518700  1
  O  O33  1  0.06192800  0.53867300  0.39518700  1
  O  O34  1  0.53867300  0.00421100  0.39518700  1
  O  O35  1  0.50421100  0.03867300  0.89518700  1
  O  O36  1  0.03867300  0.56192800  0.89518700  1
  O  O37  1  0.56192800  0.50421100  0.89518700  1
