# generated using pymatgen
data_Ce3S3O16
_symmetry_space_group_name_H-M   'P 1'
_cell_length_a   9.35949059
_cell_length_b   9.35949059
_cell_length_c   9.35949059
_cell_angle_alpha   108.64040697
_cell_angle_beta   108.64040697
_cell_angle_gamma   111.14594021
_symmetry_Int_Tables_number   1
_chemical_formula_structural   Ce3S3O16
_chemical_formula_sum   'Ce6 S6 O32'
_cell_volume   630.74738230
_cell_formula_units_Z   2
loop_
 _symmetry_equiv_pos_site_id
 _symmetry_equiv_pos_as_xyz
  1  'x, y, z'
loop_
 _atom_site_type_symbol
 _atom_site_label
 _atom_site_symmetry_multiplicity
 _atom_site_fract_x
 _atom_site_fract_y
 _atom_site_fract_z
 _atom_site_occupancy
  Ce  Ce0  1  0.24723800  0.24723800  0.00000000  1
  Ce  Ce1  1  0.75276200  0.75276200  0.00000000  1
  Ce  Ce2  1  0.75815100  0.03124800  0.78939900  1
  Ce  Ce3  1  0.24184900  0.96875200  0.21060100  1
  Ce  Ce4  1  0.96875200  0.75815100  0.72690300  1
  Ce  Ce5  1  0.03124800  0.24184900  0.27309700  1
  S  S6  1  0.25000000  0.75000000  0.50000000  1
  S  S7  1  0.75000000  0.25000000  0.50000000  1
  S  S8  1  0.71904200  0.37165100  0.09069300  1
  S  S9  1  0.28095800  0.62834900  0.90930700  1
  S  S10  1  0.62834900  0.71904200  0.34739100  1
  S  S11  1  0.37165100  0.28095800  0.65260900  1
  O  O12  1  0.01886800  0.25492400  0.02940600  1
  O  O13  1  0.22551800  0.98946200  0.97059400  1
  O  O14  1  0.98946200  0.01886800  0.76394300  1
  O  O15  1  0.25492400  0.22551800  0.23605700  1
  O  O16  1  0.98113200  0.74507600  0.97059400  1
  O  O17  1  0.77448200  0.01053800  0.02940600  1
  O  O18  1  0.01053800  0.98113200  0.23605700  1
  O  O19  1  0.74507600  0.77448200  0.76394300  1
  O  O20  1  0.77315800  0.21843200  0.64961400  1
  O  O21  1  0.56881800  0.12354400  0.35038600  1
  O  O22  1  0.12354400  0.77315800  0.55472600  1
  O  O23  1  0.21843200  0.56881800  0.44527400  1
  O  O24  1  0.22684200  0.78156800  0.35038600  1
  O  O25  1  0.43118200  0.87645600  0.64961400  1
  O  O26  1  0.87645600  0.22684200  0.44527400  1
  O  O27  1  0.78156800  0.43118200  0.55472600  1
  O  O28  1  0.78459100  0.54767800  0.10314100  1
  O  O29  1  0.44453700  0.68145100  0.89685900  1
  O  O30  1  0.68145100  0.78459100  0.23691400  1
  O  O31  1  0.54767800  0.44453700  0.76308600  1
  O  O32  1  0.21540900  0.45232200  0.89685900  1
  O  O33  1  0.55546300  0.31854900  0.10314100  1
  O  O34  1  0.31854900  0.21540900  0.76308600  1
  O  O35  1  0.45232200  0.55546300  0.23691400  1
  O  O36  1  0.68155700  0.24113800  0.92269500  1
  O  O37  1  0.31844300  0.75886200  0.07730500  1
  O  O38  1  0.75886200  0.68155700  0.44041800  1
  O  O39  1  0.24113800  0.31844300  0.55958200  1
  O  O40  1  0.85394900  0.38405500  0.23800400  1
  O  O41  1  0.14605100  0.61594500  0.76199600  1
  O  O42  1  0.61594500  0.85394900  0.46989400  1
  O  O43  1  0.38405500  0.14605100  0.53010600  1
