# generated using pymatgen
data_B10H18C2S
_symmetry_space_group_name_H-M   'P 1'
_cell_length_a   7.31449138
_cell_length_b   10.87886705
_cell_length_c   33.28953062
_cell_angle_alpha   90.00000000
_cell_angle_beta   90.00000000
_cell_angle_gamma   93.90546086
_symmetry_Int_Tables_number   1
_chemical_formula_structural   B10H18C2S
_chemical_formula_sum   'B80 H144 C16 S8'
_cell_volume   2642.80900857
_cell_formula_units_Z   8
loop_
 _symmetry_equiv_pos_site_id
 _symmetry_equiv_pos_as_xyz
  1  'x, y, z'
loop_
 _atom_site_type_symbol
 _atom_site_label
 _atom_site_symmetry_multiplicity
 _atom_site_fract_x
 _atom_site_fract_y
 _atom_site_fract_z
 _atom_site_occupancy
  B  B0  1  0.76628227  0.99249908  0.86259843  1
  B  B1  1  0.23371773  0.50750092  0.36259843  1
  B  B2  1  0.23371773  0.00750092  0.13740157  1
  B  B3  1  0.76628227  0.49249908  0.63740157  1
  B  B4  1  0.75444906  0.83409414  0.87640438  1
  B  B5  1  0.24555094  0.66590586  0.37640438  1
  B  B6  1  0.24555094  0.16590586  0.12359562  1
  B  B7  1  0.75444906  0.33409414  0.62359562  1
  B  B8  1  0.62754731  0.87664390  0.83430384  1
  B  B9  1  0.37245269  0.62335610  0.33430384  1
  B  B10  1  0.37245269  0.12335610  0.16569616  1
  B  B11  1  0.62754731  0.37664390  0.66569616  1
  B  B12  1  0.76868128  0.98938691  0.80918664  1
  B  B13  1  0.23131872  0.51061309  0.30918664  1
  B  B14  1  0.23131872  0.01061309  0.19081336  1
  B  B15  1  0.76868128  0.48938691  0.69081336  1
  B  B16  1  0.96550654  0.92119807  0.87985972  1
  B  B17  1  0.03449346  0.57880193  0.37985972  1
  B  B18  1  0.03449346  0.07880193  0.12014028  1
  B  B19  1  0.96550654  0.42119807  0.62014028  1
  B  B20  1  0.94723291  0.75736178  0.86555580  1
  B  B21  1  0.05276709  0.74263822  0.36555580  1
  B  B22  1  0.05276709  0.24263822  0.13444420  1
  B  B23  1  0.94723291  0.25736178  0.63444420  1
  B  B24  1  0.73678720  0.73600827  0.83448893  1
  B  B25  1  0.26321280  0.76399173  0.33448893  1
  B  B26  1  0.26321280  0.26399173  0.16551107  1
  B  B27  1  0.73678720  0.23600827  0.66551107  1
  B  B28  1  0.74640456  0.83898955  0.78989141  1
  B  B29  1  0.25359544  0.66101045  0.28989141  1
  B  B30  1  0.25359544  0.16101045  0.21010859  1
  B  B31  1  0.74640456  0.33898955  0.71010859  1
  B  B32  1  0.96590433  0.93555304  0.78767300  1
  B  B33  1  0.03409567  0.56444696  0.28767300  1
  B  B34  1  0.03409567  0.06444696  0.21232700  1
  B  B35  1  0.96590433  0.43555304  0.71232700  1
  B  B36  1  0.97507387  0.02414348  0.83508909  1
  B  B37  1  0.02492613  0.47585652  0.33508909  1
  B  B38  1  0.02492613  0.97585652  0.16491091  1
  B  B39  1  0.97507387  0.52414348  0.66491091  1
  B  B40  1  0.57048985  0.35327194  0.90975808  1
  B  B41  1  0.42951015  0.14672806  0.40975808  1
  B  B42  1  0.42951015  0.64672806  0.09024192  1
  B  B43  1  0.57048985  0.85327194  0.59024192  1
  B  B44  1  0.74552315  0.24936811  0.90682835  1
  B  B45  1  0.25447685  0.25063189  0.40682835  1
  B  B46  1  0.25447685  0.75063189  0.09317165  1
  B  B47  1  0.74552315  0.74936811  0.59317165  1
  B  B48  1  0.65468138  0.28680844  0.95411911  1
  B  B49  1  0.34531862  0.21319156  0.45411911  1
  B  B50  1  0.34531862  0.71319156  0.04588089  1
  B  B51  1  0.65468138  0.78680844  0.54588089  1
  B  B52  1  0.42675874  0.33266098  0.95256786  1
  B  B53  1  0.57324126  0.16733902  0.45256786  1
  B  B54  1  0.57324126  0.66733902  0.04743214  1
  B  B55  1  0.42675874  0.83266098  0.54743214  1
  B  B56  1  0.55600459  0.23782179  0.87296647  1
  B  B57  1  0.44399541  0.26217821  0.37296647  1
  B  B58  1  0.44399541  0.76217821  0.12703353  1
  B  B59  1  0.55600459  0.73782179  0.62703353  1
  B  B60  1  0.66842621  0.10317994  0.88986568  1
  B  B61  1  0.33157379  0.39682006  0.38986568  1
  B  B62  1  0.33157379  0.89682006  0.11013432  1
  B  B63  1  0.66842621  0.60317994  0.61013432  1
  B  B64  1  0.68959384  0.13269513  0.94341396  1
  B  B65  1  0.31040616  0.36730487  0.44341396  1
  B  B66  1  0.31040616  0.86730487  0.05658604  1
  B  B67  1  0.68959384  0.63269513  0.55658604  1
  B  B68  1  0.47851273  0.18859120  0.97391820  1
  B  B69  1  0.52148727  0.31140880  0.47391820  1
  B  B70  1  0.52148727  0.81140880  0.02608180  1
  B  B71  1  0.47851273  0.68859120  0.52608180  1
  B  B72  1  0.27302315  0.20741327  0.94656422  1
  B  B73  1  0.72697685  0.29258673  0.44656422  1
  B  B74  1  0.72697685  0.79258673  0.05343578  1
  B  B75  1  0.27302315  0.70741327  0.55343578  1
  B  B76  1  0.34456442  0.29403276  0.90334250  1
  B  B77  1  0.65543558  0.20596724  0.40334250  1
  B  B78  1  0.65543558  0.70596724  0.09665750  1
  B  B79  1  0.34456442  0.79403276  0.59665750  1
  H  H80  1  0.76561120  0.63136678  0.95026112  1
  H  H81  1  0.23438880  0.86863322  0.45026112  1
  H  H82  1  0.23438880  0.36863322  0.04973888  1
  H  H83  1  0.76561120  0.13136678  0.54973888  1
  H  H84  1  0.98127925  0.60254799  0.97256775  1
  H  H85  1  0.01872075  0.89745201  0.47256775  1
  H  H86  1  0.01872075  0.39745201  0.02743225  1
  H  H87  1  0.98127925  0.10254799  0.52743225  1
  H  H88  1  0.93092756  0.75805045  0.95988830  1
  H  H89  1  0.06907244  0.74194955  0.45988830  1
  H  H90  1  0.06907244  0.24194955  0.04011170  1
  H  H91  1  0.93092756  0.25805045  0.54011170  1
  H  H92  1  0.32407015  0.65891135  0.88611368  1
  H  H93  1  0.67592985  0.84108865  0.38611368  1
  H  H94  1  0.67592985  0.34108865  0.11388632  1
  H  H95  1  0.32407015  0.15891135  0.61388632  1
  H  H96  1  0.26400213  0.77427294  0.92130824  1
  H  H97  1  0.73599787  0.72572706  0.42130824  1
  H  H98  1  0.73599787  0.22572706  0.07869176  1
  H  H99  1  0.26400213  0.27427294  0.57869176  1
  H  H100  1  0.28819693  0.61744841  0.93781269  1
  H  H101  1  0.71180307  0.88255159  0.43781269  1
  H  H102  1  0.71180307  0.38255159  0.06218731  1
  H  H103  1  0.28819693  0.11744841  0.56218731  1
  H  H104  1  0.86974734  0.89297375  0.69409848  1
  H  H105  1  0.13025266  0.60702625  0.19409848  1
  H  H106  1  0.13025266  0.10702625  0.30590152  1
  H  H107  1  0.86974734  0.39297375  0.80590152  1
  H  H108  1  0.07792370  0.96128871  0.67320492  1
  H  H109  1  0.92207630  0.53871129  0.17320492  1
  H  H110  1  0.92207630  0.03871129  0.32679508  1
  H  H111  1  0.07792370  0.46128871  0.82679508  1
  H  H112  1  0.08507170  0.83526052  0.70827263  1
  H  H113  1  0.91492830  0.66473948  0.20827263  1
  H  H114  1  0.91492830  0.16473948  0.29172737  1
  H  H115  1  0.08507170  0.33526052  0.79172737  1
  H  H116  1  0.30283376  0.13090769  0.76484520  1
  H  H117  1  0.69716624  0.36909231  0.26484520  1
  H  H118  1  0.69716624  0.86909231  0.23515480  1
  H  H119  1  0.30283376  0.63090769  0.73515480  1
  H  H120  1  0.34259827  0.97638623  0.74996166  1
  H  H121  1  0.65740173  0.52361377  0.24996166  1
  H  H122  1  0.65740173  0.02361377  0.25003834  1
  H  H123  1  0.34259827  0.47638623  0.75003834  1
  H  H124  1  0.31799958  0.09493311  0.71266337  1
  H  H125  1  0.68200042  0.40506689  0.21266337  1
  H  H126  1  0.68200042  0.90506689  0.28733663  1
  H  H127  1  0.31799958  0.59493311  0.78733663  1
  H  H128  1  0.67999127  0.79837250  0.90676186  1
  H  H129  1  0.32000873  0.70162750  0.40676186  1
  H  H130  1  0.32000873  0.20162750  0.09323814  1
  H  H131  1  0.67999127  0.29837250  0.59323814  1
  H  H132  1  0.46394294  0.87727611  0.83501501  1
  H  H133  1  0.53605706  0.62272389  0.33501501  1
  H  H134  1  0.53605706  0.12272389  0.16498499  1
  H  H135  1  0.46394294  0.37727611  0.66498499  1
  H  H136  1  0.70680043  0.06860347  0.78924727  1
  H  H137  1  0.29319957  0.43139653  0.28924727  1
  H  H138  1  0.29319957  0.93139653  0.21075273  1
  H  H139  1  0.70680043  0.56860347  0.71075273  1
  H  H140  1  0.03877498  0.95538670  0.91057758  1
  H  H141  1  0.96122502  0.54461330  0.41057758  1
  H  H142  1  0.96122502  0.04461330  0.08942242  1
  H  H143  1  0.03877498  0.45538670  0.58942242  1
  H  H144  1  0.06413608  0.74815503  0.84044059  1
  H  H145  1  0.93586392  0.75184497  0.34044059  1
  H  H146  1  0.93586392  0.25184497  0.15955941  1
  H  H147  1  0.06413608  0.24815503  0.65955941  1
  H  H148  1  0.64290074  0.64124452  0.83371295  1
  H  H149  1  0.35709926  0.85875548  0.33371295  1
  H  H150  1  0.35709926  0.35875548  0.16628705  1
  H  H151  1  0.64290074  0.14124452  0.66628705  1
  H  H152  1  0.65791371  0.80913543  0.76074941  1
  H  H153  1  0.34208629  0.69086457  0.26074941  1
  H  H154  1  0.34208629  0.19086457  0.23925059  1
  H  H155  1  0.65791371  0.30913543  0.73925059  1
  H  H156  1  0.08023662  0.86170060  0.79169356  1
  H  H157  1  0.91976338  0.63829940  0.29169356  1
  H  H158  1  0.91976338  0.13829940  0.20830644  1
  H  H159  1  0.08023662  0.36170060  0.70830644  1
  H  H160  1  0.05385377  0.12429088  0.83736157  1
  H  H161  1  0.94614623  0.37570912  0.33736157  1
  H  H162  1  0.94614623  0.87570912  0.16263843  1
  H  H163  1  0.05385377  0.62429088  0.66263843  1
  H  H164  1  0.83936804  0.74428656  0.80151185  1
  H  H165  1  0.16063196  0.75571344  0.30151185  1
  H  H166  1  0.16063196  0.25571344  0.19848815  1
  H  H167  1  0.83936804  0.24428656  0.69848815  1
  H  H168  1  0.08048032  0.93857573  0.84937900  1
  H  H169  1  0.91951968  0.56142427  0.34937900  1
  H  H170  1  0.91951968  0.06142427  0.15062100  1
  H  H171  1  0.08048032  0.43857573  0.65062100  1
  H  H172  1  0.60193369  0.45548696  0.89713577  1
  H  H173  1  0.39806631  0.04451304  0.39713577  1
  H  H174  1  0.39806631  0.54451304  0.10286423  1
  H  H175  1  0.60193369  0.95548696  0.60286423  1
  H  H176  1  0.89645895  0.28917394  0.89859563  1
  H  H177  1  0.10354105  0.21082606  0.39859563  1
  H  H178  1  0.10354105  0.71082606  0.10140437  1
  H  H179  1  0.89645895  0.78917394  0.60140437  1
  H  H180  1  0.75668141  0.33388862  0.97856270  1
  H  H181  1  0.24331859  0.16611138  0.47856270  1
  H  H182  1  0.24331859  0.66611138  0.02143730  1
  H  H183  1  0.75668141  0.83388862  0.52143730  1
  H  H184  1  0.38662812  0.41984355  0.97159451  1
  H  H185  1  0.61337188  0.08015645  0.47159451  1
  H  H186  1  0.61337188  0.58015645  0.02840549  1
  H  H187  1  0.38662812  0.91984355  0.52840549  1
  H  H188  1  0.55702788  0.26309313  0.83806559  1
  H  H189  1  0.44297212  0.23690687  0.33806559  1
  H  H190  1  0.44297212  0.73690687  0.16193441  1
  H  H191  1  0.55702788  0.76309313  0.66193441  1
  H  H192  1  0.79347459  0.07637792  0.96261815  1
  H  H193  1  0.20652541  0.42362208  0.46261815  1
  H  H194  1  0.20652541  0.92362208  0.03738185  1
  H  H195  1  0.79347459  0.57637792  0.53738185  1
  H  H196  1  0.46836209  0.16147647  0.00862336  1
  H  H197  1  0.53163791  0.33852353  0.50862336  1
  H  H198  1  0.53163791  0.83852353  0.99137664  1
  H  H199  1  0.46836209  0.66147647  0.49137664  1
  H  H200  1  0.12035088  0.19054316  0.95864520  1
  H  H201  1  0.87964912  0.30945684  0.45864520  1
  H  H202  1  0.87964912  0.80945684  0.04135480  1
  H  H203  1  0.12035088  0.69054316  0.54135480  1
  H  H204  1  0.23349249  0.34637081  0.88498264  1
  H  H205  1  0.76650751  0.15362919  0.38498264  1
  H  H206  1  0.76650751  0.65362919  0.11501736  1
  H  H207  1  0.23349249  0.84637081  0.61501736  1
  H  H208  1  0.49769103  0.12166593  0.87454717  1
  H  H209  1  0.50230897  0.37833407  0.37454717  1
  H  H210  1  0.50230897  0.87833407  0.12545283  1
  H  H211  1  0.49769103  0.62166593  0.62545283  1
  H  H212  1  0.58749241  0.05038056  0.92371392  1
  H  H213  1  0.41250759  0.44961944  0.42371392  1
  H  H214  1  0.41250759  0.94961944  0.07628608  1
  H  H215  1  0.58749241  0.55038056  0.57628608  1
  H  H216  1  0.36308123  0.10741683  0.95572890  1
  H  H217  1  0.63691877  0.39258317  0.45572890  1
  H  H218  1  0.63691877  0.89258317  0.04427110  1
  H  H219  1  0.36308123  0.60741683  0.54427110  1
  H  H220  1  0.27078519  0.17973798  0.90727524  1
  H  H221  1  0.72921481  0.32026202  0.40727524  1
  H  H222  1  0.72921481  0.82026202  0.09272476  1
  H  H223  1  0.27078519  0.67973798  0.59272476  1
  C  C224  1  0.91134056  0.66049414  0.95138037  1
  C  C225  1  0.08865944  0.83950586  0.45138037  1
  C  C226  1  0.08865944  0.33950586  0.04861963  1
  C  C227  1  0.91134056  0.16049414  0.54861963  1
  C  C228  1  0.24575077  0.67632321  0.91335578  1
  C  C229  1  0.75424923  0.82367679  0.41335578  1
  C  C230  1  0.75424923  0.32367679  0.08664422  1
  C  C231  1  0.24575077  0.17632321  0.58664422  1
  C  C232  1  0.01452356  0.91767080  0.69986957  1
  C  C233  1  0.98547644  0.58232920  0.19986957  1
  C  C234  1  0.98547644  0.08232920  0.30013043  1
  C  C235  1  0.01452356  0.41767080  0.80013043  1
  C  C236  1  0.27311234  0.05986611  0.74210891  1
  C  C237  1  0.72688766  0.44013389  0.24210891  1
  C  C238  1  0.72688766  0.94013389  0.25789109  1
  C  C239  1  0.27311234  0.55986611  0.75789109  1
  S  S240  1  0.00834410  0.63344380  0.90283282  1
  S  S241  1  0.99165590  0.86655620  0.40283282  1
  S  S242  1  0.99165590  0.36655620  0.09716718  1
  S  S243  1  0.00834410  0.13344380  0.59716718  1
  S  S244  1  0.02767995  0.02863726  0.74011214  1
  S  S245  1  0.97232005  0.47136274  0.24011214  1
  S  S246  1  0.97232005  0.97136274  0.25988786  1
  S  S247  1  0.02767995  0.52863726  0.75988786  1
