# generated using pymatgen
data_BiBr7(N3F2)2
_symmetry_space_group_name_H-M   'P 1'
_cell_length_a   12.78273400
_cell_length_b   12.78273400
_cell_length_c   12.78273400
_cell_angle_alpha   90.00000000
_cell_angle_beta   90.00000000
_cell_angle_gamma   90.00000000
_symmetry_Int_Tables_number   1
_chemical_formula_structural   BiBr7(N3F2)2
_chemical_formula_sum   'Bi4 Br28 N24 F16'
_cell_volume   2088.67685814
_cell_formula_units_Z   4
loop_
 _symmetry_equiv_pos_site_id
 _symmetry_equiv_pos_as_xyz
  1  'x, y, z'
loop_
 _atom_site_type_symbol
 _atom_site_label
 _atom_site_symmetry_multiplicity
 _atom_site_fract_x
 _atom_site_fract_y
 _atom_site_fract_z
 _atom_site_occupancy
  Bi  Bi0  1  0.50000000  0.50000000  0.00000000  1
  Bi  Bi1  1  0.50000000  0.00000000  0.50000000  1
  Bi  Bi2  1  0.00000000  0.50000000  0.50000000  1
  Bi  Bi3  1  0.00000000  0.00000000  0.00000000  1
  Br  Br4  1  0.02311800  0.57597600  0.27638000  1
  Br  Br5  1  0.97688200  0.07597600  0.22362000  1
  Br  Br6  1  0.47688200  0.42402400  0.77638000  1
  Br  Br7  1  0.52311800  0.92402400  0.72362000  1
  Br  Br8  1  0.27638000  0.02311800  0.57597600  1
  Br  Br9  1  0.22362000  0.97688200  0.07597600  1
  Br  Br10  1  0.77638000  0.47688200  0.42402400  1
  Br  Br11  1  0.72362000  0.52311800  0.92402400  1
  Br  Br12  1  0.57597600  0.27638000  0.02311800  1
  Br  Br13  1  0.07597600  0.22362000  0.97688200  1
  Br  Br14  1  0.42402400  0.77638000  0.47688200  1
  Br  Br15  1  0.92402400  0.72362000  0.52311800  1
  Br  Br16  1  0.97688200  0.42402400  0.72362000  1
  Br  Br17  1  0.02311800  0.92402400  0.77638000  1
  Br  Br18  1  0.52311800  0.57597600  0.22362000  1
  Br  Br19  1  0.47688200  0.07597600  0.27638000  1
  Br  Br20  1  0.72362000  0.97688200  0.42402400  1
  Br  Br21  1  0.77638000  0.02311800  0.92402400  1
  Br  Br22  1  0.22362000  0.52311800  0.57597600  1
  Br  Br23  1  0.27638000  0.47688200  0.07597600  1
  Br  Br24  1  0.42402400  0.72362000  0.97688200  1
  Br  Br25  1  0.92402400  0.77638000  0.02311800  1
  Br  Br26  1  0.57597600  0.22362000  0.52311800  1
  Br  Br27  1  0.07597600  0.27638000  0.47688200  1
  Br  Br28  1  0.00000000  0.00000000  0.50000000  1
  Br  Br29  1  0.00000000  0.50000000  0.00000000  1
  Br  Br30  1  0.50000000  0.00000000  0.00000000  1
  Br  Br31  1  0.50000000  0.50000000  0.50000000  1
  N  N32  1  0.93795300  0.76144700  0.38948900  1
  N  N33  1  0.06204700  0.26144700  0.11051100  1
  N  N34  1  0.56204700  0.23855300  0.88948900  1
  N  N35  1  0.43795300  0.73855300  0.61051100  1
  N  N36  1  0.38948900  0.93795300  0.76144700  1
  N  N37  1  0.11051100  0.06204700  0.26144700  1
  N  N38  1  0.88948900  0.56204700  0.23855300  1
  N  N39  1  0.61051100  0.43795300  0.73855300  1
  N  N40  1  0.76144700  0.38948900  0.93795300  1
  N  N41  1  0.26144700  0.11051100  0.06204700  1
  N  N42  1  0.23855300  0.88948900  0.56204700  1
  N  N43  1  0.73855300  0.61051100  0.43795300  1
  N  N44  1  0.06204700  0.23855300  0.61051100  1
  N  N45  1  0.93795300  0.73855300  0.88948900  1
  N  N46  1  0.43795300  0.76144700  0.11051100  1
  N  N47  1  0.56204700  0.26144700  0.38948900  1
  N  N48  1  0.61051100  0.06204700  0.23855300  1
  N  N49  1  0.88948900  0.93795300  0.73855300  1
  N  N50  1  0.11051100  0.43795300  0.76144700  1
  N  N51  1  0.38948900  0.56204700  0.26144700  1
  N  N52  1  0.23855300  0.61051100  0.06204700  1
  N  N53  1  0.73855300  0.88948900  0.93795300  1
  N  N54  1  0.76144700  0.11051100  0.43795300  1
  N  N55  1  0.26144700  0.38948900  0.56204700  1
  F  F56  1  0.32267100  0.67732900  0.17732900  1
  F  F57  1  0.67732900  0.17732900  0.32267100  1
  F  F58  1  0.17732900  0.32267100  0.67732900  1
  F  F59  1  0.82267100  0.82267100  0.82267100  1
  F  F60  1  0.67732900  0.32267100  0.82267100  1
  F  F61  1  0.32267100  0.82267100  0.67732900  1
  F  F62  1  0.82267100  0.67732900  0.32267100  1
  F  F63  1  0.17732900  0.17732900  0.17732900  1
  F  F64  1  0.08926200  0.91073800  0.41073800  1
  F  F65  1  0.91073800  0.41073800  0.08926200  1
  F  F66  1  0.41073800  0.08926200  0.91073800  1
  F  F67  1  0.58926200  0.58926200  0.58926200  1
  F  F68  1  0.91073800  0.08926200  0.58926200  1
  F  F69  1  0.08926200  0.58926200  0.91073800  1
  F  F70  1  0.58926200  0.91073800  0.08926200  1
  F  F71  1  0.41073800  0.41073800  0.41073800  1
