# generated using pymatgen
data_Pr(NO5)3
_symmetry_space_group_name_H-M   'P 1'
_cell_length_a   6.74035700
_cell_length_b   8.97675635
_cell_length_c   13.31900633
_cell_angle_alpha   107.61469222
_cell_angle_beta   87.37484669
_cell_angle_gamma   106.64650184
_symmetry_Int_Tables_number   1
_chemical_formula_structural   Pr(NO5)3
_chemical_formula_sum   'Pr2 N6 O30'
_cell_volume   735.17259626
_cell_formula_units_Z   2
loop_
 _symmetry_equiv_pos_site_id
 _symmetry_equiv_pos_as_xyz
  1  'x, y, z'
loop_
 _atom_site_type_symbol
 _atom_site_label
 _atom_site_symmetry_multiplicity
 _atom_site_fract_x
 _atom_site_fract_y
 _atom_site_fract_z
 _atom_site_occupancy
  Pr  Pr0  1  0.09136300  0.91371000  0.26719300  1
  Pr  Pr1  1  0.90863700  0.08629000  0.73280700  1
  N  N2  1  0.75656900  0.67701500  0.33121100  1
  N  N3  1  0.24343100  0.32298500  0.66878900  1
  N  N4  1  0.04546100  0.23955500  0.32473300  1
  N  N5  1  0.95453900  0.76044500  0.67526700  1
  N  N6  1  0.07679200  0.97880300  0.99935300  1
  N  N7  1  0.92320800  0.02119700  0.00064700  1
  O  O8  1  0.76837800  0.83176900  0.35566900  1
  O  O9  1  0.23162200  0.16823100  0.64433100  1
  O  O10  1  0.90612600  0.63553100  0.27492900  1
  O  O11  1  0.09387400  0.36446900  0.72507100  1
  O  O12  1  0.61630100  0.57985400  0.35866600  1
  O  O13  1  0.38369900  0.42014600  0.64133400  1
  O  O14  1  0.03871700  0.14667300  0.22642800  1
  O  O15  1  0.96128300  0.85332700  0.77357200  1
  O  O16  1  0.07921900  0.17465300  0.39481600  1
  O  O17  1  0.92078100  0.82534700  0.60518400  1
  O  O18  1  0.02189100  0.37444100  0.34679600  1
  O  O19  1  0.97810900  0.62555900  0.65320400  1
  O  O20  1  0.77603100  0.75147000  0.09405100  1
  O  O21  1  0.22396900  0.24853000  0.90594900  1
  O  O22  1  0.86686000  0.64958600  0.04628400  1
  O  O23  1  0.13314000  0.35041400  0.95371600  1
  O  O24  1  0.47481700  0.58127800  0.86788800  1
  O  O25  1  0.52518300  0.41872200  0.13211200  1
  O  O26  1  0.46170100  0.99658100  0.27167300  1
  O  O27  1  0.53829900  0.00341900  0.72832700  1
  O  O28  1  0.28605800  0.87418900  0.43899500  1
  O  O29  1  0.71394200  0.12581100  0.56100500  1
  O  O30  1  0.19658000  0.94832500  0.05105000  1
  O  O31  1  0.80342000  0.05167500  0.94895000  1
  O  O32  1  0.40304100  0.84221500  0.20865300  1
  O  O33  1  0.59695900  0.15778500  0.79134700  1
  O  O34  1  0.61573300  0.32003500  0.13832800  1
  O  O35  1  0.38426700  0.67996500  0.86167200  1
  O  O36  1  0.34516000  0.79348600  0.48517100  1
  O  O37  1  0.65484000  0.20651400  0.51482900  1
