# generated using pymatgen
data_Sm4B18Cl3O38
_symmetry_space_group_name_H-M   'P 1'
_cell_length_a   6.53879300
_cell_length_b   10.68058300
_cell_length_c   22.90875262
_cell_angle_alpha   81.18746122
_cell_angle_beta   90.00000000
_cell_angle_gamma   90.00000000
_symmetry_Int_Tables_number   1
_chemical_formula_structural   Sm4B18Cl3O38
_chemical_formula_sum   'Sm8 B36 Cl6 O76'
_cell_volume   1581.01718076
_cell_formula_units_Z   2
loop_
 _symmetry_equiv_pos_site_id
 _symmetry_equiv_pos_as_xyz
  1  'x, y, z'
loop_
 _atom_site_type_symbol
 _atom_site_label
 _atom_site_symmetry_multiplicity
 _atom_site_fract_x
 _atom_site_fract_y
 _atom_site_fract_z
 _atom_site_occupancy
  Sm  Sm0  1  0.12086400  0.57596000  0.34870800  1
  Sm  Sm1  1  0.12086400  0.42404000  0.15129200  1
  Sm  Sm2  1  0.87913600  0.42404000  0.65129200  1
  Sm  Sm3  1  0.87913600  0.57596000  0.84870800  1
  Sm  Sm4  1  0.60409800  0.05982200  0.36045400  1
  Sm  Sm5  1  0.60409800  0.94017800  0.13954600  1
  Sm  Sm6  1  0.39590200  0.94017800  0.63954600  1
  Sm  Sm7  1  0.39590200  0.05982200  0.86045400  1
  B  B8  1  0.11282600  0.89320500  0.39778800  1
  B  B9  1  0.11282600  0.10679500  0.10221200  1
  B  B10  1  0.88717400  0.10679500  0.60221200  1
  B  B11  1  0.88717400  0.89320500  0.89778800  1
  B  B12  1  0.60995100  0.40429500  0.33355400  1
  B  B13  1  0.60995100  0.59570500  0.16644600  1
  B  B14  1  0.39004900  0.59570500  0.66644600  1
  B  B15  1  0.39004900  0.40429500  0.83355400  1
  B  B16  1  0.81279700  0.74358200  0.39560100  1
  B  B17  1  0.81279700  0.25641800  0.10439900  1
  B  B18  1  0.18720300  0.25641800  0.60439900  1
  B  B19  1  0.18720300  0.74358200  0.89560100  1
  B  B20  1  0.06280200  0.11209600  0.33716900  1
  B  B21  1  0.06280200  0.88790400  0.16283100  1
  B  B22  1  0.93719800  0.88790400  0.66283100  1
  B  B23  1  0.93719800  0.11209600  0.83716900  1
  B  B24  1  0.94597100  0.33175600  0.29970600  1
  B  B25  1  0.94597100  0.66824400  0.20029400  1
  B  B26  1  0.05402900  0.66824400  0.70029400  1
  B  B27  1  0.05402900  0.33175600  0.79970600  1
  B  B28  1  0.74565100  0.13842700  0.50200400  1
  B  B29  1  0.74565100  0.86157300  0.99799600  1
  B  B30  1  0.25434900  0.86157300  0.49799600  1
  B  B31  1  0.25434900  0.13842700  0.00200400  1
  B  B32  1  0.31152400  0.27990200  0.29881600  1
  B  B33  1  0.31152400  0.72009800  0.20118400  1
  B  B34  1  0.68847600  0.72009800  0.70118400  1
  B  B35  1  0.68847600  0.27990200  0.79881600  1
  B  B36  1  0.45009700  0.79322700  0.41360200  1
  B  B37  1  0.45009700  0.20677300  0.08639800  1
  B  B38  1  0.54990300  0.20677300  0.58639800  1
  B  B39  1  0.54990300  0.79322700  0.91360200  1
  B  B40  1  0.55687400  0.56805400  0.40163700  1
  B  B41  1  0.55687400  0.43194600  0.09836300  1
  B  B42  1  0.44312600  0.43194600  0.59836300  1
  B  B43  1  0.44312600  0.56805400  0.90163700  1
  Cl  Cl44  1  0.19819100  0.38100000  0.45031900  1
  Cl  Cl45  1  0.19819100  0.61900000  0.04968100  1
  Cl  Cl46  1  0.80180900  0.61900000  0.54968100  1
  Cl  Cl47  1  0.80180900  0.38100000  0.95031900  1
  Cl  Cl48  1  0.65497300  0.00000000  0.25000000  1
  Cl  Cl49  1  0.34502700  0.00000000  0.75000000  1
  O  O50  1  0.99713500  0.99716000  0.36387400  1
  O  O51  1  0.99713500  0.00284000  0.13612600  1
  O  O52  1  0.00286500  0.00284000  0.63612600  1
  O  O53  1  0.00286500  0.99716000  0.86387400  1
  O  O54  1  0.94082100  0.64788200  0.26391700  1
  O  O55  1  0.94082100  0.35211800  0.23608300  1
  O  O56  1  0.05917900  0.35211800  0.73608300  1
  O  O57  1  0.05917900  0.64788200  0.76391700  1
  O  O58  1  0.49611800  0.49682300  0.35367600  1
  O  O59  1  0.49611800  0.50317700  0.14632400  1
  O  O60  1  0.50388200  0.50317700  0.64632400  1
  O  O61  1  0.50388200  0.49682300  0.85367600  1
  O  O62  1  0.90596900  0.19801400  0.32445000  1
  O  O63  1  0.90596900  0.80198600  0.17555000  1
  O  O64  1  0.09403100  0.80198600  0.67555000  1
  O  O65  1  0.09403100  0.19801400  0.82445000  1
  O  O66  1  0.76877700  0.61649900  0.39596300  1
  O  O67  1  0.76877700  0.38350100  0.10403700  1
  O  O68  1  0.23122300  0.38350100  0.60403700  1
  O  O69  1  0.23122300  0.61649900  0.89596300  1
  O  O70  1  0.32938500  0.89506000  0.38056400  1
  O  O71  1  0.32938500  0.10494000  0.11943600  1
  O  O72  1  0.67061500  0.10494000  0.61943600  1
  O  O73  1  0.67061500  0.89506000  0.88056400  1
  O  O74  1  0.15887300  0.36692600  0.31733600  1
  O  O75  1  0.15887300  0.63307400  0.18266400  1
  O  O76  1  0.84112700  0.63307400  0.68266400  1
  O  O77  1  0.84112700  0.36692600  0.81733600  1
  O  O78  1  0.81754800  0.41681400  0.32809300  1
  O  O79  1  0.81754800  0.58318600  0.17190700  1
  O  O80  1  0.18245200  0.58318600  0.67190700  1
  O  O81  1  0.18245200  0.41681400  0.82809300  1
  O  O82  1  0.66534800  0.83225400  0.40099800  1
  O  O83  1  0.66534800  0.16774600  0.09900200  1
  O  O84  1  0.33465200  0.16774600  0.59900200  1
  O  O85  1  0.33465200  0.83225400  0.90099800  1
  O  O86  1  0.26386900  0.14557500  0.32363100  1
  O  O87  1  0.26386900  0.85442500  0.17636900  1
  O  O88  1  0.73613100  0.85442500  0.67636900  1
  O  O89  1  0.73613100  0.14557500  0.82363100  1
  O  O90  1  0.28875500  0.68752300  0.26499200  1
  O  O91  1  0.28875500  0.31247700  0.23500800  1
  O  O92  1  0.71124500  0.31247700  0.73500800  1
  O  O93  1  0.71124500  0.68752300  0.76499200  1
  O  O94  1  0.01550500  0.77167600  0.38568300  1
  O  O95  1  0.01550500  0.22832400  0.11431700  1
  O  O96  1  0.98449500  0.22832400  0.61431700  1
  O  O97  1  0.98449500  0.77167600  0.88568300  1
  O  O98  1  0.72052300  0.10819500  0.44643900  1
  O  O99  1  0.72052300  0.89180500  0.05356100  1
  O  O100  1  0.27947700  0.89180500  0.55356100  1
  O  O101  1  0.27947700  0.10819500  0.94643900  1
  O  O102  1  0.39265800  0.15763800  0.45219400  1
  O  O103  1  0.39265800  0.84236200  0.04780600  1
  O  O104  1  0.60734200  0.84236200  0.54780600  1
  O  O105  1  0.60734200  0.15763800  0.95219400  1
  O  O106  1  0.51895000  0.29616900  0.31873300  1
  O  O107  1  0.51895000  0.70383100  0.18126700  1
  O  O108  1  0.48105000  0.70383100  0.68126700  1
  O  O109  1  0.48105000  0.29616900  0.81873300  1
  O  O110  1  0.40493300  0.66845600  0.39825700  1
  O  O111  1  0.40493300  0.33154400  0.10174300  1
  O  O112  1  0.59506700  0.33154400  0.60174300  1
  O  O113  1  0.59506700  0.66845600  0.89825700  1
  O  O114  1  0.09458000  0.89860800  0.46169500  1
  O  O115  1  0.09458000  0.10139200  0.03830500  1
  O  O116  1  0.90542000  0.10139200  0.53830500  1
  O  O117  1  0.90542000  0.89860800  0.96169500  1
  O  O118  1  0.54748800  0.47165800  0.45648700  1
  O  O119  1  0.54748800  0.52834200  0.04351300  1
  O  O120  1  0.45251200  0.52834200  0.54351300  1
  O  O121  1  0.45251200  0.47165800  0.95648700  1
  O  O122  1  0.58932200  0.21107300  0.52149500  1
  O  O123  1  0.58932200  0.78892700  0.97850500  1
  O  O124  1  0.41067800  0.78892700  0.47850500  1
  O  O125  1  0.41067800  0.21107300  0.02149500  1
