# generated using pymatgen
data_ThMo2O11
_symmetry_space_group_name_H-M   'P 1'
_cell_length_a   10.29248500
_cell_length_b   8.77610100
_cell_length_c   9.88078982
_cell_angle_alpha   89.57266632
_cell_angle_beta   90.00000000
_cell_angle_gamma   90.00000000
_symmetry_Int_Tables_number   1
_chemical_formula_structural   ThMo2O11
_chemical_formula_sum   'Th4 Mo8 O44'
_cell_volume   892.48605132
_cell_formula_units_Z   4
loop_
 _symmetry_equiv_pos_site_id
 _symmetry_equiv_pos_as_xyz
  1  'x, y, z'
loop_
 _atom_site_type_symbol
 _atom_site_label
 _atom_site_symmetry_multiplicity
 _atom_site_fract_x
 _atom_site_fract_y
 _atom_site_fract_z
 _atom_site_occupancy
  Th  Th0  1  0.03985200  0.68837500  0.72329700  1
  Th  Th1  1  0.53985200  0.31162500  0.77670300  1
  Th  Th2  1  0.96014800  0.31162500  0.27670300  1
  Th  Th3  1  0.46014800  0.68837500  0.22329700  1
  Mo  Mo4  1  0.72266200  0.59252700  0.49656600  1
  Mo  Mo5  1  0.22266200  0.40747300  0.00343400  1
  Mo  Mo6  1  0.27733800  0.40747300  0.50343400  1
  Mo  Mo7  1  0.77733800  0.59252700  0.99656600  1
  Mo  Mo8  1  0.08874400  0.75618300  0.30702500  1
  Mo  Mo9  1  0.58874400  0.24381700  0.19297500  1
  Mo  Mo10  1  0.91125600  0.24381700  0.69297500  1
  Mo  Mo11  1  0.41125600  0.75618300  0.80702500  1
  O  O12  1  0.06118400  0.56357100  0.25632100  1
  O  O13  1  0.56118400  0.43642900  0.24367900  1
  O  O14  1  0.93881600  0.43642900  0.74367900  1
  O  O15  1  0.43881600  0.56357100  0.75632100  1
  O  O16  1  0.95823400  0.85794400  0.22322500  1
  O  O17  1  0.45823400  0.14205600  0.27677500  1
  O  O18  1  0.04176600  0.14205600  0.77677500  1
  O  O19  1  0.54176600  0.85794400  0.72322500  1
  O  O20  1  0.60619800  0.71282600  0.40823000  1
  O  O21  1  0.10619800  0.28717400  0.09177000  1
  O  O22  1  0.39380200  0.28717400  0.59177000  1
  O  O23  1  0.89380200  0.71282600  0.90823000  1
  O  O24  1  0.07534800  0.75300100  0.49017800  1
  O  O25  1  0.57534800  0.24699900  0.00982200  1
  O  O26  1  0.92465200  0.24699900  0.50982200  1
  O  O27  1  0.42465200  0.75300100  0.99017800  1
  O  O28  1  0.25028600  0.79821700  0.24206400  1
  O  O29  1  0.75028600  0.20178300  0.25793600  1
  O  O30  1  0.74971400  0.20178300  0.75793600  1
  O  O31  1  0.24971400  0.79821700  0.74206400  1
  O  O32  1  0.11228400  0.92551800  0.96917500  1
  O  O33  1  0.61228400  0.07448200  0.53082500  1
  O  O34  1  0.88771600  0.07448200  0.03082500  1
  O  O35  1  0.38771600  0.92551800  0.46917500  1
  O  O36  1  0.64455900  0.43934200  0.58565400  1
  O  O37  1  0.14455900  0.56065800  0.91434600  1
  O  O38  1  0.35544100  0.56065800  0.41434600  1
  O  O39  1  0.85544100  0.43934200  0.08565400  1
  O  O40  1  0.82977500  0.51029500  0.37501200  1
  O  O41  1  0.32977500  0.48970500  0.12498800  1
  O  O42  1  0.17022500  0.48970500  0.62498800  1
  O  O43  1  0.67022500  0.51029500  0.87501200  1
  O  O44  1  0.82389600  0.69322600  0.61311100  1
  O  O45  1  0.32389600  0.30677400  0.88688900  1
  O  O46  1  0.17610400  0.30677400  0.38688900  1
  O  O47  1  0.67610400  0.69322600  0.11311100  1
  O  O48  1  0.95092700  0.96312400  0.67744000  1
  O  O49  1  0.45092700  0.03687600  0.82256000  1
  O  O50  1  0.04907300  0.03687600  0.32256000  1
  O  O51  1  0.54907300  0.96312400  0.17744000  1
  O  O52  1  0.21528400  0.99219400  0.98846600  1
  O  O53  1  0.71528400  0.00780600  0.51153400  1
  O  O54  1  0.78471600  0.00780600  0.01153400  1
  O  O55  1  0.28471600  0.99219400  0.48846600  1
