# generated using pymatgen
data_KB(CF3)4
_symmetry_space_group_name_H-M   'P 1'
_cell_length_a   9.21178200
_cell_length_b   9.70161700
_cell_length_c   10.16103700
_cell_angle_alpha   90.00000000
_cell_angle_beta   90.00000000
_cell_angle_gamma   90.00000000
_symmetry_Int_Tables_number   1
_chemical_formula_structural   KB(CF3)4
_chemical_formula_sum   'K4 B4 C16 F48'
_cell_volume   908.08355329
_cell_formula_units_Z   4
loop_
 _symmetry_equiv_pos_site_id
 _symmetry_equiv_pos_as_xyz
  1  'x, y, z'
loop_
 _atom_site_type_symbol
 _atom_site_label
 _atom_site_symmetry_multiplicity
 _atom_site_fract_x
 _atom_site_fract_y
 _atom_site_fract_z
 _atom_site_occupancy
  K  K0  1  0.02643700  0.52320700  0.99717400  1
  K  K1  1  0.47356300  0.47679300  0.49717400  1
  K  K2  1  0.52643700  0.97679300  0.00282600  1
  K  K3  1  0.97356300  0.02320700  0.50282600  1
  B  B4  1  0.48701200  0.51327100  0.98640300  1
  B  B5  1  0.01298800  0.48672900  0.48640300  1
  B  B6  1  0.98701200  0.98672900  0.01359700  1
  B  B7  1  0.51298800  0.01327100  0.51359700  1
  C  C8  1  0.45721100  0.59141200  0.12788900  1
  C  C9  1  0.04278900  0.40858800  0.62788900  1
  C  C10  1  0.95721100  0.90858800  0.87211100  1
  C  C11  1  0.54278900  0.09141200  0.37211100  1
  C  C12  1  0.40928500  0.35975200  0.98726300  1
  C  C13  1  0.09071500  0.64024800  0.48726300  1
  C  C14  1  0.90928500  0.14024800  0.01273700  1
  C  C15  1  0.59071500  0.85975200  0.51273700  1
  C  C16  1  0.66280000  0.49573600  0.95980000  1
  C  C17  1  0.83720000  0.50426400  0.45980000  1
  C  C18  1  0.16280000  0.00426400  0.04020000  1
  C  C19  1  0.33720000  0.99573600  0.54020000  1
  C  C20  1  0.41662200  0.60619400  0.86630600  1
  C  C21  1  0.08337800  0.39380600  0.36630600  1
  C  C22  1  0.91662200  0.89380600  0.13369400  1
  C  C23  1  0.58337800  0.10619400  0.63369400  1
  F  F24  1  0.31356400  0.62475900  0.14881100  1
  F  F25  1  0.18643600  0.37524100  0.64881100  1
  F  F26  1  0.81356400  0.87524100  0.85118900  1
  F  F27  1  0.68643600  0.12475900  0.35118900  1
  F  F28  1  0.53205700  0.71375700  0.14287800  1
  F  F29  1  0.96794300  0.28624300  0.64287800  1
  F  F30  1  0.03205700  0.78624300  0.85712200  1
  F  F31  1  0.46794300  0.21375700  0.35712200  1
  F  F32  1  0.49673600  0.51266100  0.23571500  1
  F  F33  1  0.00326400  0.48733900  0.73571500  1
  F  F34  1  0.99673600  0.98733900  0.76428500  1
  F  F35  1  0.50326400  0.01266100  0.26428500  1
  F  F36  1  0.26990500  0.36081100  0.03946500  1
  F  F37  1  0.23009500  0.63918900  0.53946500  1
  F  F38  1  0.76990500  0.13918900  0.96053500  1
  F  F39  1  0.73009500  0.86081100  0.46053500  1
  F  F40  1  0.48311600  0.26248000  0.06123200  1
  F  F41  1  0.01688400  0.73752000  0.56123200  1
  F  F42  1  0.98311600  0.23752000  0.93876800  1
  F  F43  1  0.51688400  0.76248000  0.43876800  1
  F  F44  1  0.39474800  0.30270800  0.86478700  1
  F  F45  1  0.10525200  0.69729200  0.36478700  1
  F  F46  1  0.89474800  0.19729200  0.13521300  1
  F  F47  1  0.60525200  0.80270800  0.63521300  1
  F  F48  1  0.73929300  0.44781400  0.06812800  1
  F  F49  1  0.76070700  0.55218600  0.56812800  1
  F  F50  1  0.23929300  0.05218600  0.93187200  1
  F  F51  1  0.26070700  0.94781400  0.43187200  1
  F  F52  1  0.73185300  0.61817000  0.92722800  1
  F  F53  1  0.76814700  0.38183000  0.42722800  1
  F  F54  1  0.23185300  0.88183000  0.07277200  1
  F  F55  1  0.26814700  0.11817000  0.57277200  1
  F  F56  1  0.69655100  0.40712000  0.85940800  1
  F  F57  1  0.80344900  0.59288000  0.35940800  1
  F  F58  1  0.19655100  0.09288000  0.14059200  1
  F  F59  1  0.30344900  0.90712000  0.64059200  1
  F  F60  1  0.46345200  0.56589300  0.74325000  1
  F  F61  1  0.03654800  0.43410700  0.24325000  1
  F  F62  1  0.96345200  0.93410700  0.25675000  1
  F  F63  1  0.53654800  0.06589300  0.75675000  1
  F  F64  1  0.44816300  0.74514400  0.87292600  1
  F  F65  1  0.05183700  0.25485600  0.37292600  1
  F  F66  1  0.94816300  0.75485600  0.12707400  1
  F  F67  1  0.55183700  0.24514400  0.62707400  1
  F  F68  1  0.26690500  0.60087400  0.85938800  1
  F  F69  1  0.23309500  0.39912600  0.35938800  1
  F  F70  1  0.76690500  0.89912600  0.14061200  1
  F  F71  1  0.73309500  0.10087400  0.64061200  1
