# generated using pymatgen
data_Ca3Mn4O8
_symmetry_space_group_name_H-M   'P 1'
_cell_length_a   6.09520900
_cell_length_b   11.27571600
_cell_length_c   11.72691295
_cell_angle_alpha   89.04061140
_cell_angle_beta   90.00000000
_cell_angle_gamma   90.00000000
_symmetry_Int_Tables_number   1
_chemical_formula_structural   Ca3Mn4O8
_chemical_formula_sum   'Ca12 Mn16 O32'
_cell_volume   805.85247797
_cell_formula_units_Z   4
loop_
 _symmetry_equiv_pos_site_id
 _symmetry_equiv_pos_as_xyz
  1  'x, y, z'
loop_
 _atom_site_type_symbol
 _atom_site_label
 _atom_site_symmetry_multiplicity
 _atom_site_fract_x
 _atom_site_fract_y
 _atom_site_fract_z
 _atom_site_occupancy
  Ca  Ca0  1  0.00051000  0.01750600  0.23737800  1
  Ca  Ca1  1  0.98920300  0.50894500  0.23868900  1
  Ca  Ca2  1  0.99949000  0.01750600  0.73737800  1
  Ca  Ca3  1  0.01079700  0.50894500  0.73868900  1
  Ca  Ca4  1  0.49009600  0.00553400  0.23737800  1
  Ca  Ca5  1  0.50443400  0.52094700  0.23804000  1
  Ca  Ca6  1  0.50990400  0.00553400  0.73737800  1
  Ca  Ca7  1  0.49556600  0.52094700  0.73804000  1
  Ca  Ca8  1  0.25607900  0.24090200  0.51795900  1
  Ca  Ca9  1  0.23756400  0.73843100  0.01628500  1
  Ca  Ca10  1  0.76243600  0.73843100  0.51628500  1
  Ca  Ca11  1  0.74392100  0.24090200  0.01795900  1
  Mn  Mn12  1  0.99007900  0.76683300  0.26892900  1
  Mn  Mn13  1  0.98451300  0.26895100  0.29268800  1
  Mn  Mn14  1  0.00992100  0.76683300  0.76892900  1
  Mn  Mn15  1  0.01548700  0.26895100  0.79268800  1
  Mn  Mn16  1  0.48086000  0.76778900  0.29475200  1
  Mn  Mn17  1  0.48635000  0.26759200  0.26852700  1
  Mn  Mn18  1  0.51914000  0.76778900  0.79475200  1
  Mn  Mn19  1  0.51365000  0.26759200  0.76852700  1
  Mn  Mn20  1  0.75862000  0.96234800  0.00266100  1
  Mn  Mn21  1  0.75369400  0.51514000  0.97570800  1
  Mn  Mn22  1  0.74076300  0.02948900  0.47104400  1
  Mn  Mn23  1  0.74086500  0.44779500  0.51306000  1
  Mn  Mn24  1  0.25923700  0.02948900  0.97104400  1
  Mn  Mn25  1  0.25913500  0.44779500  0.01306000  1
  Mn  Mn26  1  0.24138000  0.96234800  0.50266100  1
  Mn  Mn27  1  0.24630600  0.51514000  0.47570800  1
  O  O28  1  0.22495900  0.64091700  0.30995600  1
  O  O29  1  0.25586500  0.15564600  0.31340100  1
  O  O30  1  0.24084600  0.65744200  0.81794200  1
  O  O31  1  0.27912300  0.14494600  0.81622100  1
  O  O32  1  0.75915400  0.65744200  0.31794200  1
  O  O33  1  0.72087700  0.14494600  0.31622100  1
  O  O34  1  0.77504100  0.64091700  0.80995600  1
  O  O35  1  0.74413500  0.15564600  0.81340100  1
  O  O36  1  0.99741200  0.58202300  0.06009300  1
  O  O37  1  0.97669000  0.08102400  0.05389900  1
  O  O38  1  0.00258800  0.58202300  0.56009300  1
  O  O39  1  0.02331000  0.08102400  0.55389900  1
  O  O40  1  0.50241800  0.58457800  0.05319800  1
  O  O41  1  0.53637700  0.07684100  0.06119500  1
  O  O42  1  0.49758200  0.58457800  0.55319800  1
  O  O43  1  0.46362300  0.07684100  0.56119500  1
  O  O44  1  0.76234900  0.86898000  0.19617100  1
  O  O45  1  0.73002600  0.35486700  0.19468500  1
  O  O46  1  0.77120200  0.85483500  0.69148500  1
  O  O47  1  0.73651700  0.36807200  0.68676100  1
  O  O48  1  0.22879800  0.85483500  0.19148500  1
  O  O49  1  0.26348300  0.36807200  0.18676100  1
  O  O50  1  0.23765100  0.86898000  0.69617100  1
  O  O51  1  0.26997400  0.35486700  0.69468500  1
  O  O52  1  0.99969400  0.88998500  0.41552900  1
  O  O53  1  0.02083900  0.39409000  0.42110300  1
  O  O54  1  0.00030600  0.88998500  0.91552900  1
  O  O55  1  0.97916100  0.39409000  0.92110300  1
  O  O56  1  0.49435300  0.89146200  0.42293000  1
  O  O57  1  0.46707400  0.39571700  0.41243500  1
  O  O58  1  0.50564700  0.89146200  0.92293000  1
  O  O59  1  0.53292600  0.39571700  0.91243500  1
