# generated using pymatgen
data_V3S2NO12
_symmetry_space_group_name_H-M   'P 1'
_cell_length_a   7.93996200
_cell_length_b   20.39070800
_cell_length_c   7.94482476
_cell_angle_alpha   90.00000000
_cell_angle_beta   93.56392380
_cell_angle_gamma   90.00000000
_symmetry_Int_Tables_number   1
_chemical_formula_structural   V3S2NO12
_chemical_formula_sum   'V12 S8 N4 O48'
_cell_volume   1283.79104534
_cell_formula_units_Z   4
loop_
 _symmetry_equiv_pos_site_id
 _symmetry_equiv_pos_as_xyz
  1  'x, y, z'
loop_
 _atom_site_type_symbol
 _atom_site_label
 _atom_site_symmetry_multiplicity
 _atom_site_fract_x
 _atom_site_fract_y
 _atom_site_fract_z
 _atom_site_occupancy
  V  V0  1  0.34158500  0.32335300  0.61543600  1
  V  V1  1  0.65841500  0.82335300  0.38456400  1
  V  V2  1  0.28249400  0.48493100  0.40023400  1
  V  V3  1  0.71750600  0.98493100  0.59976600  1
  V  V4  1  0.96748400  0.39286600  0.72885500  1
  V  V5  1  0.03251600  0.89286600  0.27114500  1
  V  V6  1  0.06767200  0.32308900  0.35213500  1
  V  V7  1  0.93232800  0.82308900  0.64786500  1
  V  V8  1  0.28111500  0.16055800  0.40106300  1
  V  V9  1  0.71888500  0.66055800  0.59893700  1
  V  V10  1  0.96648200  0.25619100  0.73290500  1
  V  V11  1  0.03351800  0.75619100  0.26709500  1
  S  S12  1  0.33928300  0.46102700  0.80211100  1
  S  S13  1  0.66071700  0.96102700  0.19788900  1
  S  S14  1  0.88006400  0.46032200  0.35862000  1
  S  S15  1  0.11993600  0.96032200  0.64138000  1
  S  S16  1  0.33608100  0.18522400  0.80322100  1
  S  S17  1  0.66391900  0.68522400  0.19677900  1
  S  S18  1  0.87843700  0.18598400  0.36568600  1
  S  S19  1  0.12156300  0.68598400  0.63431400  1
  N  N20  1  0.58230300  0.32083000  0.10567300  1
  N  N21  1  0.41769700  0.82083000  0.89432700  1
  N  N22  1  0.94245800  0.56605800  0.99327200  1
  N  N23  1  0.05754200  0.06605800  0.00672800  1
  O  O24  1  0.50199400  0.32454400  0.50288100  1
  O  O25  1  0.49800600  0.82454400  0.49711900  1
  O  O26  1  0.41124500  0.44711500  0.27168200  1
  O  O27  1  0.58875500  0.94711500  0.72831800  1
  O  O28  1  0.34170300  0.55920700  0.33255500  1
  O  O29  1  0.65829700  0.05920700  0.66744500  1
  O  O30  1  0.83366900  0.40675200  0.86798100  1
  O  O31  1  0.16633100  0.90675200  0.13201900  1
  O  O32  1  0.17290400  0.32302400  0.18661200  1
  O  O33  1  0.82709600  0.82302400  0.81338800  1
  O  O34  1  0.40839100  0.20288900  0.27774200  1
  O  O35  1  0.59160900  0.70288900  0.72225800  1
  O  O36  1  0.34744100  0.08939500  0.32316000  1
  O  O37  1  0.65255900  0.58939500  0.67684000  1
  O  O38  1  0.83310800  0.24395200  0.87336600  1
  O  O39  1  0.16689200  0.74395200  0.12663400  1
  O  O40  1  0.40526200  0.39060500  0.78146800  1
  O  O41  1  0.59473800  0.89060500  0.21853200  1
  O  O42  1  0.36841700  0.49396700  0.62533100  1
  O  O43  1  0.63158300  0.99396700  0.37466900  1
  O  O44  1  0.14711500  0.45743500  0.80690900  1
  O  O45  1  0.85288500  0.95743500  0.19309100  1
  O  O46  1  0.88418400  0.45754800  0.55160900  1
  O  O47  1  0.11581600  0.95754800  0.44839100  1
  O  O48  1  0.05450700  0.49321000  0.31967700  1
  O  O49  1  0.94549300  0.99321000  0.68032300  1
  O  O50  1  0.89776300  0.38983000  0.29356700  1
  O  O51  1  0.10223700  0.88983000  0.70643300  1
  O  O52  1  0.40778000  0.25441900  0.77576400  1
  O  O53  1  0.59222000  0.75441900  0.22423600  1
  O  O54  1  0.35758900  0.14962400  0.62782500  1
  O  O55  1  0.64241100  0.64962400  0.37217500  1
  O  O56  1  0.14514900  0.19161600  0.81269400  1
  O  O57  1  0.85485100  0.69161600  0.18730600  1
  O  O58  1  0.05131200  0.15142900  0.32835300  1
  O  O59  1  0.94868800  0.65142900  0.67164700  1
  O  O60  1  0.88291500  0.19049000  0.55825900  1
  O  O61  1  0.11708500  0.69049000  0.44174100  1
  O  O62  1  0.89910300  0.25571500  0.29604100  1
  O  O63  1  0.10089700  0.75571500  0.70395900  1
  O  O64  1  0.19115100  0.38531900  0.49627400  1
  O  O65  1  0.80884900  0.88531900  0.50372600  1
  O  O66  1  0.19134600  0.26178700  0.49693400  1
  O  O67  1  0.80865400  0.76178700  0.50306600  1
  O  O68  1  0.87856500  0.32407500  0.59650800  1
  O  O69  1  0.12143500  0.82407500  0.40349200  1
  O  O70  1  0.10571500  0.32452000  0.81270300  1
  O  O71  1  0.89428500  0.82452000  0.18729700  1
