# generated using pymatgen
data_CrH12C2(N3O2)2
_symmetry_space_group_name_H-M   'P 1'
_cell_length_a   6.62250700
_cell_length_b   6.83823211
_cell_length_c   10.74230269
_cell_angle_alpha   94.42110178
_cell_angle_beta   96.58384603
_cell_angle_gamma   97.21419901
_symmetry_Int_Tables_number   1
_chemical_formula_structural   CrH12C2(N3O2)2
_chemical_formula_sum   'Cr2 H24 C4 N12 O8'
_cell_volume   477.37436264
_cell_formula_units_Z   2
loop_
 _symmetry_equiv_pos_site_id
 _symmetry_equiv_pos_as_xyz
  1  'x, y, z'
loop_
 _atom_site_type_symbol
 _atom_site_label
 _atom_site_symmetry_multiplicity
 _atom_site_fract_x
 _atom_site_fract_y
 _atom_site_fract_z
 _atom_site_occupancy
  Cr  Cr0  1  0.76917600  0.76519400  0.76323300  1
  Cr  Cr1  1  0.23082400  0.23480600  0.23676700  1
  H  H2  1  0.15884500  0.99823500  0.88585600  1
  H  H3  1  0.84115500  0.00176500  0.11414400  1
  H  H4  1  0.40411700  0.92181800  0.87884800  1
  H  H5  1  0.59588300  0.07818200  0.12115200  1
  H  H6  1  0.33236500  0.50563900  0.86943600  1
  H  H7  1  0.66763500  0.49436100  0.13056400  1
  H  H8  1  0.12234200  0.33378000  0.89182400  1
  H  H9  1  0.87765800  0.66622000  0.10817600  1
  H  H10  1  0.68735200  0.15877500  0.86394400  1
  H  H11  1  0.31264800  0.84122500  0.13605600  1
  H  H12  1  0.64957700  0.40784300  0.85834700  1
  H  H13  1  0.35042300  0.59215700  0.14165300  1
  H  H14  1  0.65993600  0.37828900  0.35658100  1
  H  H15  1  0.34006400  0.62171100  0.64341900  1
  H  H16  1  0.76461100  0.53236900  0.49523800  1
  H  H17  1  0.23538900  0.46763100  0.50476200  1
  H  H18  1  0.74300600  0.93424900  0.49071600  1
  H  H19  1  0.25699400  0.06575100  0.50928400  1
  H  H20  1  0.66124200  0.04243500  0.35207400  1
  H  H21  1  0.33875800  0.95756500  0.64792600  1
  H  H22  1  0.88711400  0.13645900  0.66848200  1
  H  H23  1  0.11288600  0.86354100  0.33151800  1
  H  H24  1  0.89939700  0.39259100  0.67266400  1
  H  H25  1  0.10060300  0.60740900  0.32733600  1
  C  C26  1  0.39306100  0.22044000  0.88063300  1
  C  C27  1  0.60693900  0.77956000  0.11936700  1
  C  C28  1  0.78413200  0.23840900  0.50115200  1
  C  C29  1  0.21586800  0.76159100  0.49884800  1
  N  N30  1  0.31512900  0.03317100  0.89104000  1
  N  N31  1  0.68487100  0.96682900  0.10896000  1
  N  N32  1  0.27183800  0.36357300  0.87904700  1
  N  N33  1  0.72816200  0.63642700  0.12095300  1
  N  N34  1  0.59287200  0.26695500  0.87289500  1
  N  N35  1  0.40712800  0.73304500  0.12710500  1
  N  N36  1  0.75092200  0.39867900  0.44187400  1
  N  N37  1  0.24907800  0.60132100  0.55812600  1
  N  N38  1  0.73515800  0.05653300  0.44083900  1
  N  N39  1  0.26484200  0.94346700  0.55916100  1
  N  N40  1  0.87418300  0.25829100  0.62033600  1
  N  N41  1  0.12581700  0.74170900  0.37966400  1
  O  O42  1  0.76323000  0.75587000  0.60738200  1
  O  O43  1  0.23677000  0.24413000  0.39261800  1
  O  O44  1  0.52796700  0.71470900  0.79924300  1
  O  O45  1  0.47203300  0.28529100  0.20075700  1
  O  O46  1  0.87172100  0.99321900  0.82639300  1
  O  O47  1  0.12827900  0.00678100  0.17360700  1
  O  O48  1  0.90752700  0.59750100  0.81731900  1
  O  O49  1  0.09247300  0.40249900  0.18268100  1
