data_image0
_chemical_formula_structural       Cl24N4Nb4S4
_chemical_formula_sum              "Cl24 N4 Nb4 S4"
_cell_length_a       6.49629
_cell_length_b       12.3208
_cell_length_c       12.9065
_cell_angle_alpha    82.2583
_cell_angle_beta     78.1709
_cell_angle_gamma    81.7662

_space_group_name_H-M_alt    "P 1"
_space_group_IT_number       1

loop_
  _space_group_symop_operation_xyz
  'x, y, z'

loop_
  _atom_site_type_symbol
  _atom_site_label
  _atom_site_symmetry_multiplicity
  _atom_site_fract_x
  _atom_site_fract_y
  _atom_site_fract_z
  _atom_site_occupancy
  Cl  Cl1       1.0  0.80000  0.57600  0.69700  1.0000
  Cl  Cl2       1.0  0.20000  0.42400  0.30300  1.0000
  Cl  Cl3       1.0  0.90600  0.34100  0.84100  1.0000
  Cl  Cl4       1.0  0.09380  0.65900  0.15900  1.0000
  Cl  Cl5       1.0  0.40600  0.32400  0.02930  1.0000
  Cl  Cl6       1.0  0.59400  0.67600  0.97100  1.0000
  Cl  Cl7       1.0  0.16500  0.56200  0.86200  1.0000
  Cl  Cl8       1.0  0.83500  0.43800  0.13800  1.0000
  Cl  Cl9       1.0  0.29500  0.56400  0.58000  1.0000
  Cl  Cl10      1.0  0.70500  0.43600  0.42000  1.0000
  Cl  Cl11      1.0  0.43100  0.34100  0.73800  1.0000
  Cl  Cl12      1.0  0.56900  0.65900  0.26200  1.0000
  Cl  Cl13      1.0  0.18300  0.92900  0.37500  1.0000
  Cl  Cl14      1.0  0.81700  0.07150  0.62500  1.0000
  Cl  Cl15      1.0  0.89500  0.16900  0.32700  1.0000
  Cl  Cl16      1.0  0.10500  0.83100  0.67300  1.0000
  Cl  Cl17      1.0  0.79900  0.92500  0.23200  1.0000
  Cl  Cl18      1.0  0.20100  0.07500  0.76800  1.0000
  Cl  Cl19      1.0  0.37500  0.18600  0.49300  1.0000
  Cl  Cl20      1.0  0.62500  0.81400  0.50700  1.0000
  Cl  Cl21      1.0  0.34400  0.92800  0.11300  1.0000
  Cl  Cl22      1.0  0.65600  0.07220  0.88700  1.0000
  Cl  Cl23      1.0  0.97800  0.14100  0.07020  1.0000
  Cl  Cl24      1.0  0.02200  0.85900  0.93000  1.0000
  N   N1        1.0  0.06830  0.36300  0.60700  1.0000
  N   N2        1.0  0.93200  0.63700  0.39300  1.0000
  N   N3        1.0  0.33100  0.13600  0.20800  1.0000
  N   N4        1.0  0.66900  0.86400  0.79200  1.0000
  Nb  Nb1       1.0  0.12300  0.46100  0.73200  1.0000
  Nb  Nb2       1.0  0.87700  0.53900  0.26800  1.0000
  Nb  Nb3       1.0  0.07240  0.02750  0.22100  1.0000
  Nb  Nb4       1.0  0.92800  0.97300  0.77900  1.0000
  S   S1        1.0  0.08460  0.29100  0.52500  1.0000
  S   S2        1.0  0.91500  0.70900  0.47500  1.0000
  S   S3        1.0  0.46200  0.22500  0.17000  1.0000
  S   S4        1.0  0.53800  0.77500  0.83000  1.0000
