# generated using pymatgen
data_Na2Ti(SiO4)2
_symmetry_space_group_name_H-M   'P 1'
_cell_length_a   15.21261028
_cell_length_b   15.21261028
_cell_length_c   5.30668764
_cell_angle_alpha   87.36802626
_cell_angle_beta   87.36802626
_cell_angle_gamma   33.50768156
_symmetry_Int_Tables_number   1
_chemical_formula_structural   Na2Ti(SiO4)2
_chemical_formula_sum   'Na8 Ti4 Si8 O32'
_cell_volume   677.18680846
_cell_formula_units_Z   4
loop_
 _symmetry_equiv_pos_site_id
 _symmetry_equiv_pos_as_xyz
  1  'x, y, z'
loop_
 _atom_site_type_symbol
 _atom_site_label
 _atom_site_symmetry_multiplicity
 _atom_site_fract_x
 _atom_site_fract_y
 _atom_site_fract_z
 _atom_site_occupancy
  Na  Na0  1  0.96101100  0.35997000  0.60596700  1
  Na  Na1  1  0.35997000  0.96101100  0.10596700  1
  Na  Na2  1  0.03898900  0.64003000  0.39403300  1
  Na  Na3  1  0.64003000  0.03898900  0.89403300  1
  Na  Na4  1  0.66747200  0.33252800  0.25000000  1
  Na  Na5  1  0.33252800  0.66747200  0.75000000  1
  Na  Na6  1  0.92830600  0.07169400  0.75000000  1
  Na  Na7  1  0.07169400  0.92830600  0.25000000  1
  Ti  Ti8  1  0.76072200  0.57094000  0.12765300  1
  Ti  Ti9  1  0.57094000  0.76072200  0.62765300  1
  Ti  Ti10  1  0.23927800  0.42906000  0.87234700  1
  Ti  Ti11  1  0.42906000  0.23927800  0.37234700  1
  Si  Si12  1  0.85506900  0.67204900  0.76884200  1
  Si  Si13  1  0.67204900  0.85506900  0.26884200  1
  Si  Si14  1  0.14493100  0.32795100  0.23115800  1
  Si  Si15  1  0.32795100  0.14493100  0.73115800  1
  Si  Si16  1  0.99600200  0.19514000  0.07095900  1
  Si  Si17  1  0.19514000  0.99600200  0.57095900  1
  Si  Si18  1  0.00399800  0.80486000  0.92904100  1
  Si  Si19  1  0.80486000  0.00399800  0.42904100  1
  O  O20  1  0.22499300  0.20762900  0.99574800  1
  O  O21  1  0.20762900  0.22499300  0.49574800  1
  O  O22  1  0.77500700  0.79237100  0.00425200  1
  O  O23  1  0.79237100  0.77500700  0.50425200  1
  O  O24  1  0.95298500  0.47449200  0.23805300  1
  O  O25  1  0.47449200  0.95298500  0.73805300  1
  O  O26  1  0.04701500  0.52550800  0.76194700  1
  O  O27  1  0.52550800  0.04701500  0.26194700  1
  O  O28  1  0.88340800  0.37526300  0.01368700  1
  O  O29  1  0.37526300  0.88340800  0.51368700  1
  O  O30  1  0.11659200  0.62473700  0.98631300  1
  O  O31  1  0.62473700  0.11659200  0.48631300  1
  O  O32  1  0.90807700  0.17609600  0.07166700  1
  O  O33  1  0.17609600  0.90807700  0.57166700  1
  O  O34  1  0.09192300  0.82390400  0.92833300  1
  O  O35  1  0.82390400  0.09192300  0.42833300  1
  O  O36  1  0.70029700  0.57224900  0.43977900  1
  O  O37  1  0.57224900  0.70029700  0.93977900  1
  O  O38  1  0.29970300  0.42775100  0.56022100  1
  O  O39  1  0.42775100  0.29970300  0.06022100  1
  O  O40  1  0.08630800  0.13760500  0.34333800  1
  O  O41  1  0.13760500  0.08630800  0.84333800  1
  O  O42  1  0.91369200  0.86239500  0.65666200  1
  O  O43  1  0.86239500  0.91369200  0.15666200  1
  O  O44  1  0.79006000  0.62446700  0.78308200  1
  O  O45  1  0.62446700  0.79006000  0.28308200  1
  O  O46  1  0.20994000  0.37553300  0.21691800  1
  O  O47  1  0.37553300  0.20994000  0.71691800  1
  O  O48  1  0.60881000  0.48818100  0.57862600  1
  O  O49  1  0.48818100  0.60881000  0.07862600  1
  O  O50  1  0.39119000  0.51181900  0.42137400  1
  O  O51  1  0.51181900  0.39119000  0.92137400  1
