# generated using pymatgen
data_Ag2H12C3S3(BrN3)2
_symmetry_space_group_name_H-M   'P 1'
_cell_length_a   4.44249100
_cell_length_b   8.40714400
_cell_length_c   22.01302039
_cell_angle_alpha   90.00000000
_cell_angle_beta   101.07856111
_cell_angle_gamma   90.00000000
_symmetry_Int_Tables_number   1
_chemical_formula_structural   Ag2H12C3S3(BrN3)2
_chemical_formula_sum   'Ag4 H24 C6 S6 Br4 N12'
_cell_volume   806.83565449
_cell_formula_units_Z   2
loop_
 _symmetry_equiv_pos_site_id
 _symmetry_equiv_pos_as_xyz
  1  'x, y, z'
loop_
 _atom_site_type_symbol
 _atom_site_label
 _atom_site_symmetry_multiplicity
 _atom_site_fract_x
 _atom_site_fract_y
 _atom_site_fract_z
 _atom_site_occupancy
  Ag  Ag0  1  0.52419100  0.44279500  0.17825900  1
  Ag  Ag1  1  0.47580900  0.44279500  0.32174100  1
  Ag  Ag2  1  0.47580900  0.55720500  0.82174100  1
  Ag  Ag3  1  0.52419100  0.55720500  0.67825900  1
  H  H4  1  0.82296800  0.61508100  0.02152000  1
  H  H5  1  0.17703200  0.61508100  0.47848000  1
  H  H6  1  0.17703200  0.38491900  0.97848000  1
  H  H7  1  0.82296800  0.38491900  0.52152000  1
  H  H8  1  0.02046200  0.48944800  0.07931400  1
  H  H9  1  0.97953800  0.48944800  0.42068600  1
  H  H10  1  0.97953800  0.51055200  0.92068600  1
  H  H11  1  0.02046200  0.51055200  0.57931400  1
  H  H12  1  0.85679200  0.88167700  0.03000900  1
  H  H13  1  0.14320800  0.88167700  0.46999100  1
  H  H14  1  0.14320800  0.11832300  0.96999100  1
  H  H15  1  0.85679200  0.11832300  0.53000900  1
  H  H16  1  0.09955800  0.97402500  0.09197900  1
  H  H17  1  0.90044200  0.97402500  0.40802100  1
  H  H18  1  0.90044200  0.02597500  0.90802100  1
  H  H19  1  0.09955800  0.02597500  0.59197900  1
  H  H20  1  0.18528900  0.93261200  0.29541200  1
  H  H21  1  0.81471100  0.93261200  0.20458800  1
  H  H22  1  0.81471100  0.06738800  0.70458800  1
  H  H23  1  0.18528900  0.06738800  0.79541200  1
  H  H24  1  0.30554400  0.11111200  0.33301300  1
  H  H25  1  0.69445600  0.11111200  0.16698700  1
  H  H26  1  0.69445600  0.88888800  0.66698700  1
  H  H27  1  0.30554400  0.88888800  0.83301300  1
  C  C28  1  0.08589000  0.72916300  0.09572200  1
  C  C29  1  0.91411000  0.72916300  0.40427800  1
  C  C30  1  0.91411000  0.27083700  0.90427800  1
  C  C31  1  0.08589000  0.27083700  0.59572200  1
  C  C32  1  0.00000000  0.13324500  0.25000000  1
  C  C33  1  0.00000000  0.86675500  0.75000000  1
  S  S34  1  0.32701500  0.71672600  0.16658700  1
  S  S35  1  0.67298500  0.71672600  0.33341300  1
  S  S36  1  0.67298500  0.28327400  0.83341300  1
  S  S37  1  0.32701500  0.28327400  0.66658700  1
  S  S38  1  0.00000000  0.33989600  0.25000000  1
  S  S39  1  0.00000000  0.66010300  0.75000000  1
  Br  Br40  1  0.43274300  0.24357300  0.07821200  1
  Br  Br41  1  0.56725700  0.24357300  0.42178800  1
  Br  Br42  1  0.56725700  0.75642700  0.92178800  1
  Br  Br43  1  0.43274300  0.75642700  0.57821200  1
  N  N44  1  0.96973900  0.60135100  0.06312900  1
  N  N45  1  0.03026100  0.60135100  0.43687100  1
  N  N46  1  0.03026100  0.39864900  0.93687100  1
  N  N47  1  0.96973900  0.39864900  0.56312900  1
  N  N48  1  0.00131800  0.87280200  0.07186600  1
  N  N49  1  0.99868200  0.87280200  0.42813400  1
  N  N50  1  0.99868200  0.12719800  0.92813400  1
  N  N51  1  0.00131800  0.12719800  0.57186600  1
  N  N52  1  0.17852600  0.05366200  0.29544400  1
  N  N53  1  0.82147400  0.05366200  0.20455600  1
  N  N54  1  0.82147400  0.94633800  0.70455600  1
  N  N55  1  0.17852600  0.94633800  0.79544400  1
