# generated using pymatgen
data_Ce4Se3N2
_symmetry_space_group_name_H-M   'P 1'
_cell_length_a   6.90377500
_cell_length_b   10.79041700
_cell_length_c   11.17575400
_cell_angle_alpha   90.00000000
_cell_angle_beta   90.00000000
_cell_angle_gamma   90.00000000
_symmetry_Int_Tables_number   1
_chemical_formula_structural   Ce4Se3N2
_chemical_formula_sum   'Ce16 Se12 N8'
_cell_volume   832.53344825
_cell_formula_units_Z   4
loop_
 _symmetry_equiv_pos_site_id
 _symmetry_equiv_pos_as_xyz
  1  'x, y, z'
loop_
 _atom_site_type_symbol
 _atom_site_label
 _atom_site_symmetry_multiplicity
 _atom_site_fract_x
 _atom_site_fract_y
 _atom_site_fract_z
 _atom_site_occupancy
  Ce  Ce0  1  0.60292200  0.83451900  0.75000000  1
  Ce  Ce1  1  0.10292200  0.66548100  0.75000000  1
  Ce  Ce2  1  0.39707800  0.16548100  0.25000000  1
  Ce  Ce3  1  0.89707800  0.33451900  0.25000000  1
  Ce  Ce4  1  0.70547600  0.47184700  0.75000000  1
  Ce  Ce5  1  0.20547600  0.02815300  0.75000000  1
  Ce  Ce6  1  0.29452400  0.52815300  0.25000000  1
  Ce  Ce7  1  0.79452400  0.97184700  0.25000000  1
  Ce  Ce8  1  0.66143900  0.11704200  0.94713700  1
  Ce  Ce9  1  0.16143900  0.38295800  0.55286300  1
  Ce  Ce10  1  0.33856100  0.88295800  0.44713700  1
  Ce  Ce11  1  0.83856100  0.61704200  0.05286300  1
  Ce  Ce12  1  0.33856100  0.88295800  0.05286300  1
  Ce  Ce13  1  0.83856100  0.61704200  0.44713700  1
  Ce  Ce14  1  0.66143900  0.11704200  0.55286300  1
  Ce  Ce15  1  0.16143900  0.38295800  0.94713700  1
  Se  Se16  1  0.92477900  0.23774100  0.75000000  1
  Se  Se17  1  0.42477900  0.26225900  0.75000000  1
  Se  Se18  1  0.07522100  0.76225900  0.25000000  1
  Se  Se19  1  0.57522100  0.73774100  0.25000000  1
  Se  Se20  1  0.55991100  0.36363800  0.07999700  1
  Se  Se21  1  0.05991100  0.13636200  0.42000300  1
  Se  Se22  1  0.44008900  0.63636200  0.57999700  1
  Se  Se23  1  0.94008900  0.86363800  0.92000300  1
  Se  Se24  1  0.44008900  0.63636200  0.92000300  1
  Se  Se25  1  0.94008900  0.86363800  0.57999700  1
  Se  Se26  1  0.55991100  0.36363800  0.42000300  1
  Se  Se27  1  0.05991100  0.13636200  0.07999700  1
  N  N28  1  0.55522900  0.03337800  0.11947000  1
  N  N29  1  0.05522900  0.46662200  0.38053000  1
  N  N30  1  0.44477100  0.96662200  0.61947000  1
  N  N31  1  0.94477100  0.53337800  0.88053000  1
  N  N32  1  0.44477100  0.96662200  0.88053000  1
  N  N33  1  0.94477100  0.53337800  0.61947000  1
  N  N34  1  0.55522900  0.03337800  0.38053000  1
  N  N35  1  0.05522900  0.46662200  0.11947000  1
