# generated using pymatgen
data_K2ZrSi3O11
_symmetry_space_group_name_H-M   'P 1'
_cell_length_a   6.77302289
_cell_length_b   6.77302289
_cell_length_c   12.10596800
_cell_angle_alpha   90.00000000
_cell_angle_beta   90.00000000
_cell_angle_gamma   105.46499007
_symmetry_Int_Tables_number   1
_chemical_formula_structural   K2ZrSi3O11
_chemical_formula_sum   'K4 Zr2 Si6 O22'
_cell_volume   535.24008441
_cell_formula_units_Z   2
loop_
 _symmetry_equiv_pos_site_id
 _symmetry_equiv_pos_as_xyz
  1  'x, y, z'
loop_
 _atom_site_type_symbol
 _atom_site_label
 _atom_site_symmetry_multiplicity
 _atom_site_fract_x
 _atom_site_fract_y
 _atom_site_fract_z
 _atom_site_occupancy
  K  K0  1  0.52767900  0.12522200  0.54991200  1
  K  K1  1  0.12522200  0.52767900  0.45008800  1
  K  K2  1  0.47232100  0.87477800  0.04991200  1
  K  K3  1  0.87477800  0.47232100  0.95008800  1
  Zr  Zr4  1  0.40753700  0.59246300  0.75000000  1
  Zr  Zr5  1  0.59246300  0.40753700  0.25000000  1
  Si  Si6  1  0.67322100  0.67322100  0.50000000  1
  Si  Si7  1  0.32677900  0.32677900  0.00000000  1
  Si  Si8  1  0.28960900  0.06547500  0.79112500  1
  Si  Si9  1  0.06547500  0.28960900  0.20887500  1
  Si  Si10  1  0.71039100  0.93452500  0.29112500  1
  Si  Si11  1  0.93452500  0.71039100  0.70887500  1
  O  O12  1  0.47479100  0.65220000  0.57873000  1
  O  O13  1  0.65220000  0.47479100  0.42127000  1
  O  O14  1  0.52520900  0.34780000  0.07873000  1
  O  O15  1  0.34780000  0.52520900  0.92127000  1
  O  O16  1  0.36645700  0.27791800  0.72345600  1
  O  O17  1  0.27791800  0.36645700  0.27654400  1
  O  O18  1  0.63354300  0.72208200  0.22345600  1
  O  O19  1  0.72208200  0.63354300  0.77654400  1
  O  O20  1  0.28897400  0.11451200  0.92537400  1
  O  O21  1  0.11451200  0.28897400  0.07462600  1
  O  O22  1  0.71102600  0.88548800  0.42537400  1
  O  O23  1  0.88548800  0.71102600  0.57462600  1
  O  O24  1  0.43384100  0.91034200  0.77427700  1
  O  O25  1  0.91034200  0.43384100  0.22572300  1
  O  O26  1  0.56615900  0.08965800  0.27427700  1
  O  O27  1  0.08965800  0.56615900  0.72572300  1
  O  O28  1  0.05296800  0.94703200  0.75000000  1
  O  O29  1  0.94703200  0.05296800  0.25000000  1
  O  O30  1  0.79327400  0.05031000  0.90260600  1
  O  O31  1  0.05031000  0.79327400  0.09739400  1
  O  O32  1  0.20672600  0.94969000  0.40260600  1
  O  O33  1  0.94969000  0.20672600  0.59739400  1
