# generated using pymatgen
data_Nd16(Mo3O8)7
_symmetry_space_group_name_H-M   'P 1'
_cell_length_a   13.59582486
_cell_length_b   13.78060747
_cell_length_c   13.78867552
_cell_angle_alpha   90.00000000
_cell_angle_beta   101.18628674
_cell_angle_gamma   90.00000000
_symmetry_Int_Tables_number   1
_chemical_formula_structural   Nd16(Mo3O8)7
_chemical_formula_sum   'Nd32 Mo42 O112'
_cell_volume   2534.34770215
_cell_formula_units_Z   2
loop_
 _symmetry_equiv_pos_site_id
 _symmetry_equiv_pos_as_xyz
  1  'x, y, z'
loop_
 _atom_site_type_symbol
 _atom_site_label
 _atom_site_symmetry_multiplicity
 _atom_site_fract_x
 _atom_site_fract_y
 _atom_site_fract_z
 _atom_site_occupancy
  Nd  Nd0  1  0.22865848  0.62168793  0.62682051  1
  Nd  Nd1  1  0.27134152  0.12168793  0.37317949  1
  Nd  Nd2  1  0.77134152  0.37831207  0.37317949  1
  Nd  Nd3  1  0.72865848  0.87831207  0.62682051  1
  Nd  Nd4  1  0.22687284  0.80248947  0.86590958  1
  Nd  Nd5  1  0.27312716  0.30248947  0.13409042  1
  Nd  Nd6  1  0.77312716  0.19751053  0.13409042  1
  Nd  Nd7  1  0.72687284  0.69751053  0.86590958  1
  Nd  Nd8  1  0.42879170  0.81113292  0.68469079  1
  Nd  Nd9  1  0.07120830  0.31113292  0.31530921  1
  Nd  Nd10  1  0.57120830  0.18886708  0.31530921  1
  Nd  Nd11  1  0.92879170  0.68886708  0.68469079  1
  Nd  Nd12  1  0.45521429  0.61140463  0.89573657  1
  Nd  Nd13  1  0.04478571  0.11140463  0.10426343  1
  Nd  Nd14  1  0.54478571  0.38859537  0.10426343  1
  Nd  Nd15  1  0.95521429  0.88859537  0.89573657  1
  Nd  Nd16  1  0.85581337  0.66313973  0.35012751  1
  Nd  Nd17  1  0.64418663  0.16313973  0.64987249  1
  Nd  Nd18  1  0.14418663  0.33686027  0.64987249  1
  Nd  Nd19  1  0.35581337  0.83686027  0.35012751  1
  Nd  Nd20  1  0.37459312  0.58625185  0.14991325  1
  Nd  Nd21  1  0.12540688  0.08625185  0.85008675  1
  Nd  Nd22  1  0.62540688  0.41374815  0.85008675  1
  Nd  Nd23  1  0.87459312  0.91374815  0.14991325  1
  Nd  Nd24  1  0.36285712  0.33081116  0.87380990  1
  Nd  Nd25  1  0.13714288  0.83081116  0.12619010  1
  Nd  Nd26  1  0.63714288  0.66918884  0.12619010  1
  Nd  Nd27  1  0.86285712  0.16918884  0.87380990  1
  Nd  Nd28  1  0.13886797  0.62957130  0.30671766  1
  Nd  Nd29  1  0.36113203  0.12957130  0.69328234  1
  Nd  Nd30  1  0.86113203  0.37042870  0.69328234  1
  Nd  Nd31  1  0.63886797  0.87042870  0.30671766  1
  Mo  Mo32  1  0.26934230  0.41841974  0.47240640  1
  Mo  Mo33  1  0.23065770  0.91841974  0.52759360  1
  Mo  Mo34  1  0.73065770  0.58158026  0.52759360  1
  Mo  Mo35  1  0.76934230  0.08158026  0.47240640  1
  Mo  Mo36  1  0.07202576  0.77622720  0.47672700  1
  Mo  Mo37  1  0.42797424  0.27622720  0.52327300  1
  Mo  Mo38  1  0.92797424  0.22377280  0.52327300  1
  Mo  Mo39  1  0.57202576  0.72377280  0.47672700  1
  Mo  Mo40  1  0.42981984  0.44087045  0.65309383  1
  Mo  Mo41  1  0.07018016  0.94087045  0.34690617  1
  Mo  Mo42  1  0.57018016  0.55912955  0.34690617  1
  Mo  Mo43  1  0.92981984  0.05912955  0.65309383  1
  Mo  Mo44  1  0.58304088  0.60072534  0.65037803  1
  Mo  Mo45  1  0.91695912  0.10072534  0.34962197  1
  Mo  Mo46  1  0.41695912  0.39927466  0.34962197  1
  Mo  Mo47  1  0.08304088  0.89927466  0.65037803  1
  Mo  Mo48  1  0.58514532  0.42822439  0.52390219  1
  Mo  Mo49  1  0.91485468  0.92822439  0.47609781  1
  Mo  Mo50  1  0.41485468  0.57177561  0.47609781  1
  Mo  Mo51  1  0.08514532  0.07177561  0.52390219  1
  Mo  Mo52  1  0.22769765  0.49614714  0.95934872  1
  Mo  Mo53  1  0.27230235  0.99614714  0.04065128  1
  Mo  Mo54  1  0.77230235  0.50385286  0.04065128  1
  Mo  Mo55  1  0.72769765  0.00385286  0.95934872  1
  Mo  Mo56  1  0.08189454  0.51202015  0.79388390  1
  Mo  Mo57  1  0.41810546  0.01202015  0.20611610  1
  Mo  Mo58  1  0.91810546  0.48797985  0.20611610  1
  Mo  Mo59  1  0.58189454  0.98797985  0.79388390  1
  Mo  Mo60  1  0.93519294  0.65481070  0.07470042  1
  Mo  Mo61  1  0.56480706  0.15481070  0.92529958  1
  Mo  Mo62  1  0.06480706  0.34518930  0.92529958  1
  Mo  Mo63  1  0.43519294  0.84518930  0.07470042  1
  Mo  Mo64  1  0.08183231  0.64343074  0.95142785  1
  Mo  Mo65  1  0.41816769  0.14343074  0.04857215  1
  Mo  Mo66  1  0.91816769  0.35656926  0.04857215  1
  Mo  Mo67  1  0.58183231  0.85656926  0.95142785  1
  Mo  Mo68  1  0.07965037  0.48954399  0.09252509  1
  Mo  Mo69  1  0.42034963  0.98954399  0.90747491  1
  Mo  Mo70  1  0.92034963  0.51045601  0.90747491  1
  Mo  Mo71  1  0.57965037  0.01045601  0.09252509  1
  Mo  Mo72  1  0.00000000  0.50000000  0.50000000  1
  Mo  Mo73  1  0.50000000  0.00000000  0.50000000  1
  O  O74  1  0.73248854  0.60671993  0.67149830  1
  O  O75  1  0.76751146  0.10671993  0.32850170  1
  O  O76  1  0.26751146  0.39328007  0.32850170  1
  O  O77  1  0.23248854  0.89328007  0.67149830  1
  O  O78  1  0.27490893  0.44160577  0.61928128  1
  O  O79  1  0.22509107  0.94160577  0.38071872  1
  O  O80  1  0.72509107  0.55839423  0.38071872  1
  O  O81  1  0.77490893  0.05839423  0.61928128  1
  O  O82  1  0.24214023  0.06674991  0.54455198  1
  O  O83  1  0.25785977  0.56674991  0.45544802  1
  O  O84  1  0.75785977  0.93325009  0.45544802  1
  O  O85  1  0.74214023  0.43325009  0.54455198  1
  O  O86  1  0.22591147  0.76697869  0.51481827  1
  O  O87  1  0.27408853  0.26697869  0.48518173  1
  O  O88  1  0.77408853  0.23302131  0.48518173  1
  O  O89  1  0.72591147  0.73302131  0.51481827  1
  O  O90  1  0.88900746  0.59051178  0.53763710  1
  O  O91  1  0.61099254  0.09051178  0.46236290  1
  O  O92  1  0.11099254  0.40948822  0.46236290  1
  O  O93  1  0.38900746  0.90948822  0.53763710  1
  O  O94  1  0.07915123  0.75077515  0.62676237  1
  O  O95  1  0.42084877  0.25077515  0.37323763  1
  O  O96  1  0.92084877  0.24922485  0.37323763  1
  O  O97  1  0.57915123  0.74922485  0.62676237  1
  O  O98  1  0.92864908  0.21206766  0.66882065  1
  O  O99  1  0.57135092  0.71206766  0.33117935  1
  O  O100  1  0.07135092  0.78793234  0.33117935  1
  O  O101  1  0.42864908  0.28793234  0.66882065  1
  O  O102  1  0.07641014  0.21929845  0.53697794  1
  O  O103  1  0.42358986  0.71929845  0.46302206  1
  O  O104  1  0.92358986  0.78070155  0.46302206  1
  O  O105  1  0.57641014  0.28070155  0.53697794  1
  O  O106  1  0.94336018  0.37381365  0.55339871  1
  O  O107  1  0.55663982  0.87381365  0.44660129  1
  O  O108  1  0.05663982  0.62618635  0.44660129  1
  O  O109  1  0.44336018  0.12618635  0.55339871  1
  O  O110  1  0.92310174  0.90118045  0.63055891  1
  O  O111  1  0.57689826  0.40118045  0.36944109  1
  O  O112  1  0.07689826  0.09881955  0.36944109  1
  O  O113  1  0.42310174  0.59881955  0.63055891  1
  O  O114  1  0.09234427  0.04965524  0.67743513  1
  O  O115  1  0.40765573  0.54965524  0.32256487  1
  O  O116  1  0.90765573  0.95034476  0.32256487  1
  O  O117  1  0.59234427  0.45034476  0.67743513  1
  O  O118  1  0.95309532  0.04459736  0.80595776  1
  O  O119  1  0.54690468  0.54459736  0.19404224  1
  O  O120  1  0.04690468  0.95540264  0.19404224  1
  O  O121  1  0.45309532  0.45540264  0.80595776  1
  O  O122  1  0.07995936  0.88579651  0.79370925  1
  O  O123  1  0.42004064  0.38579651  0.20629075  1
  O  O124  1  0.92004064  0.11420349  0.20629075  1
  O  O125  1  0.57995936  0.61420349  0.79370925  1
  O  O126  1  0.23592870  0.64193116  0.97038208  1
  O  O127  1  0.26407130  0.14193116  0.02961792  1
  O  O128  1  0.76407130  0.35806884  0.02961792  1
  O  O129  1  0.73592870  0.85806884  0.97038208  1
  O  O130  1  0.21918554  0.34670363  0.95809521  1
  O  O131  1  0.28081446  0.84670363  0.04190479  1
  O  O132  1  0.78081446  0.65329637  0.04190479  1
  O  O133  1  0.71918554  0.15329637  0.95809521  1
  O  O134  1  0.26444330  0.97861076  0.88883343  1
  O  O135  1  0.23555670  0.47861076  0.11116657  1
  O  O136  1  0.73555670  0.02138924  0.11116657  1
  O  O137  1  0.76444330  0.52138924  0.88883343  1
  O  O138  1  0.23113619  0.48199326  0.81313611  1
  O  O139  1  0.26886381  0.98199326  0.18686389  1
  O  O140  1  0.76886381  0.51800674  0.18686389  1
  O  O141  1  0.73113619  0.01800674  0.81313611  1
  O  O142  1  0.88845679  0.00624284  0.99663721  1
  O  O143  1  0.61154321  0.50624284  0.00336279  1
  O  O144  1  0.11154321  0.99375716  0.00336279  1
  O  O145  1  0.38845679  0.49375716  0.99663721  1
  O  O146  1  0.08196261  0.66073575  0.80305912  1
  O  O147  1  0.41803739  0.16073575  0.19694088  1
  O  O148  1  0.91803739  0.33926425  0.19694088  1
  O  O149  1  0.58196261  0.83926425  0.80305912  1
  O  O150  1  0.04942954  0.36475382  0.77182412  1
  O  O151  1  0.45057046  0.86475382  0.22817588  1
  O  O152  1  0.95057046  0.63524618  0.22817588  1
  O  O153  1  0.54942954  0.13524618  0.77182412  1
  O  O154  1  0.92436821  0.52766688  0.75512298  1
  O  O155  1  0.57563179  0.02766688  0.24487702  1
  O  O156  1  0.07563179  0.47233312  0.24487702  1
  O  O157  1  0.42436821  0.97233312  0.75512298  1
  O  O158  1  0.09038900  0.51821577  0.63778463  1
  O  O159  1  0.40961100  0.01821577  0.36221537  1
  O  O160  1  0.90961100  0.48178423  0.36221537  1
  O  O161  1  0.59038900  0.98178423  0.63778463  1
  O  O162  1  0.92401496  0.66591166  0.91623310  1
  O  O163  1  0.57598504  0.16591166  0.08376690  1
  O  O164  1  0.07598504  0.33408834  0.08376690  1
  O  O165  1  0.42401496  0.83408834  0.91623310  1
  O  O166  1  0.90403011  0.35349388  0.88983802  1
  O  O167  1  0.59596989  0.85349388  0.11016198  1
  O  O168  1  0.09596989  0.64650612  0.11016198  1
  O  O169  1  0.40403011  0.14650612  0.88983802  1
  O  O170  1  0.04433950  0.19606954  0.92772056  1
  O  O171  1  0.45566050  0.69606954  0.07227944  1
  O  O172  1  0.95566050  0.80393046  0.07227944  1
  O  O173  1  0.54433950  0.30393046  0.92772056  1
  O  O174  1  0.09490916  0.79037761  0.95859381  1
  O  O175  1  0.40509084  0.29037761  0.04140619  1
  O  O176  1  0.90509084  0.20962239  0.04140619  1
  O  O177  1  0.59490916  0.70962239  0.95859381  1
  O  O178  1  0.74761793  0.26709391  0.75191406  1
  O  O179  1  0.75238207  0.76709391  0.24808594  1
  O  O180  1  0.25238207  0.73290609  0.24808594  1
  O  O181  1  0.24761793  0.23290609  0.75191406  1
  O  O182  1  0.82476968  0.79322865  0.76085537  1
  O  O183  1  0.67523032  0.29322865  0.23914463  1
  O  O184  1  0.17523032  0.20677135  0.23914463  1
  O  O185  1  0.32476968  0.70677135  0.76085537  1
