# generated using pymatgen
data_Cs2LaN5O17
_symmetry_space_group_name_H-M   'P 1'
_cell_length_a   10.48116323
_cell_length_b   10.48116323
_cell_length_c   10.79749701
_cell_angle_alpha   70.32882791
_cell_angle_beta   70.32882791
_cell_angle_gamma   51.75620346
_symmetry_Int_Tables_number   1
_chemical_formula_structural   Cs2LaN5O17
_chemical_formula_sum   'Cs4 La2 N10 O34'
_cell_volume   863.92985588
_cell_formula_units_Z   2
loop_
 _symmetry_equiv_pos_site_id
 _symmetry_equiv_pos_as_xyz
  1  'x, y, z'
loop_
 _atom_site_type_symbol
 _atom_site_label
 _atom_site_symmetry_multiplicity
 _atom_site_fract_x
 _atom_site_fract_y
 _atom_site_fract_z
 _atom_site_occupancy
  Cs  Cs0  1  0.91638500  0.57588700  0.20695600  1
  Cs  Cs1  1  0.42411300  0.08361500  0.29304400  1
  Cs  Cs2  1  0.08361500  0.42411300  0.79304400  1
  Cs  Cs3  1  0.57588700  0.91638500  0.70695600  1
  La  La4  1  0.24044300  0.75955700  0.25000000  1
  La  La5  1  0.75955700  0.24044300  0.75000000  1
  N  N6  1  0.20335900  0.47069900  0.42858700  1
  N  N7  1  0.52930100  0.79664100  0.07141300  1
  N  N8  1  0.79664100  0.52930100  0.57141300  1
  N  N9  1  0.47069900  0.20335900  0.92858700  1
  N  N10  1  0.92559900  0.86216200  0.85792800  1
  N  N11  1  0.13783800  0.07440100  0.64207200  1
  N  N12  1  0.07440100  0.13783800  0.14207200  1
  N  N13  1  0.86216200  0.92559900  0.35792800  1
  N  N14  1  0.41509000  0.58491000  0.75000000  1
  N  N15  1  0.58491000  0.41509000  0.25000000  1
  O  O16  1  0.16502100  0.58579800  0.47915000  1
  O  O17  1  0.41420200  0.83497900  0.02085000  1
  O  O18  1  0.83497900  0.41420200  0.52085000  1
  O  O19  1  0.58579800  0.16502100  0.97915000  1
  O  O20  1  0.21053400  0.34523700  0.50044000  1
  O  O21  1  0.65476300  0.78946600  0.99956000  1
  O  O22  1  0.78946600  0.65476300  0.49956000  1
  O  O23  1  0.34523700  0.21053400  0.00044000  1
  O  O24  1  0.23555200  0.48492600  0.30080100  1
  O  O25  1  0.51507400  0.76444800  0.19919900  1
  O  O26  1  0.76444800  0.51507400  0.69919900  1
  O  O27  1  0.48492600  0.23555200  0.80080100  1
  O  O28  1  0.94577500  0.94498500  0.40259500  1
  O  O29  1  0.05501500  0.05422500  0.09740500  1
  O  O30  1  0.05422500  0.05501500  0.59740500  1
  O  O31  1  0.94498500  0.94577500  0.90259500  1
  O  O32  1  0.93770300  0.83840200  0.26525000  1
  O  O33  1  0.16159800  0.06229700  0.23475000  1
  O  O34  1  0.06229700  0.16159800  0.73475000  1
  O  O35  1  0.83840200  0.93770300  0.76525000  1
  O  O36  1  0.98727400  0.71271500  0.90216700  1
  O  O37  1  0.28728500  0.01272600  0.59783300  1
  O  O38  1  0.01272600  0.28728500  0.09783300  1
  O  O39  1  0.71271500  0.98727400  0.40216700  1
  O  O40  1  0.47921000  0.50254400  0.85629900  1
  O  O41  1  0.49745600  0.52079000  0.64370100  1
  O  O42  1  0.52079000  0.49745600  0.14370100  1
  O  O43  1  0.50254400  0.47921000  0.35629900  1
  O  O44  1  0.28009800  0.71990200  0.75000000  1
  O  O45  1  0.71990200  0.28009800  0.25000000  1
  O  O46  1  0.20506600  0.70266100  0.05115900  1
  O  O47  1  0.29733900  0.79493400  0.44884100  1
  O  O48  1  0.79493400  0.29733900  0.94884100  1
  O  O49  1  0.70266100  0.20506600  0.55115900  1
