# generated using pymatgen
data_Mg(BH3)2
_symmetry_space_group_name_H-M   'P 1'
_cell_length_a   8.30631507
_cell_length_b   8.32120700
_cell_length_c   9.21849431
_cell_angle_alpha   90.00009180
_cell_angle_beta   89.91900229
_cell_angle_gamma   90.00027570
_symmetry_Int_Tables_number   1
_chemical_formula_structural   Mg(BH3)2
_chemical_formula_sum   'Mg4 B8 H24'
_cell_volume   637.16848077
_cell_formula_units_Z   4
loop_
 _symmetry_equiv_pos_site_id
 _symmetry_equiv_pos_as_xyz
  1  'x, y, z'
loop_
 _atom_site_type_symbol
 _atom_site_label
 _atom_site_symmetry_multiplicity
 _atom_site_fract_x
 _atom_site_fract_y
 _atom_site_fract_z
 _atom_site_occupancy
  Mg  Mg0  1  0.11046200  0.47403300  0.19206600  1
  Mg  Mg1  1  0.39002000  0.80389500  0.05788100  1
  Mg  Mg2  1  0.88958000  0.97401900  0.05792900  1
  Mg  Mg3  1  0.60996400  0.30388100  0.19210400  1
  B  B4  1  0.14601400  0.87945600  0.98060400  1
  B  B5  1  0.57413400  0.01619200  0.12718500  1
  B  B6  1  0.07315900  0.76162700  0.12800200  1
  B  B7  1  0.92685900  0.26162000  0.12200100  1
  B  B8  1  0.85400600  0.37950300  0.26935700  1
  B  B9  1  0.42580100  0.51612300  0.12279800  1
  B  B10  1  0.35393200  0.39813400  0.27059200  1
  B  B11  1  0.64608600  0.89816600  0.97945600  1
  H  H12  1  0.46937300  0.96058500  0.20942900  1
  H  H13  1  0.22081600  0.79388300  0.89399700  1
  H  H14  1  0.82143200  0.22737700  0.03245100  1
  H  H15  1  0.96813900  0.81760400  0.20980000  1
  H  H16  1  0.48711200  0.63833900  0.17694300  1
  H  H17  1  0.76477400  0.48954600  0.22896200  1
  H  H18  1  0.72091900  0.98355700  0.89278400  1
  H  H19  1  0.44965700  0.33263400  0.35314800  1
  H  H20  1  0.23522900  0.98952700  0.02096900  1
  H  H21  1  0.68006100  0.05030700  0.21631800  1
  H  H22  1  0.01166400  0.63959500  0.07378600  1
  H  H23  1  0.98832200  0.13959700  0.17625600  1
  H  H24  1  0.05097300  0.94549000  0.89780400  1
  H  H25  1  0.51284200  0.13838400  0.07300400  1
  H  H26  1  0.03192700  0.31755500  0.04021000  1
  H  H27  1  0.17860800  0.72738600  0.21753200  1
  H  H28  1  0.77919700  0.29394000  0.35599300  1
  H  H29  1  0.31985000  0.55021700  0.03368700  1
  H  H30  1  0.27911300  0.48355000  0.35726100  1
  H  H31  1  0.55040000  0.83262500  0.89688900  1
  H  H32  1  0.94902700  0.44557100  0.35214300  1
  H  H33  1  0.53054100  0.46051500  0.04054600  1
  H  H34  1  0.73512600  0.78780800  0.01944600  1
  H  H35  1  0.26488000  0.28775700  0.23066300  1
