# generated using pymatgen
data_MoRhN5ClO4
_symmetry_space_group_name_H-M   'P 1'
_cell_length_a   5.47736300
_cell_length_b   11.49864900
_cell_length_c   13.53225800
_cell_angle_alpha   90.00000000
_cell_angle_beta   90.00000000
_cell_angle_gamma   90.00000000
_symmetry_Int_Tables_number   1
_chemical_formula_structural   MoRhN5ClO4
_chemical_formula_sum   'Mo4 Rh4 N20 Cl4 O16'
_cell_volume   852.29238908
_cell_formula_units_Z   4
loop_
 _symmetry_equiv_pos_site_id
 _symmetry_equiv_pos_as_xyz
  1  'x, y, z'
loop_
 _atom_site_type_symbol
 _atom_site_label
 _atom_site_symmetry_multiplicity
 _atom_site_fract_x
 _atom_site_fract_y
 _atom_site_fract_z
 _atom_site_occupancy
  Mo  Mo0  1  0.25000000  0.41368600  0.58836200  1
  Mo  Mo1  1  0.25000000  0.08631400  0.08836200  1
  Mo  Mo2  1  0.75000000  0.58631400  0.41163800  1
  Mo  Mo3  1  0.75000000  0.91368600  0.91163800  1
  Rh  Rh4  1  0.75000000  0.36190400  0.84344200  1
  Rh  Rh5  1  0.75000000  0.13809600  0.34344200  1
  Rh  Rh6  1  0.25000000  0.63809600  0.15655800  1
  Rh  Rh7  1  0.25000000  0.86190400  0.65655800  1
  N  N8  1  0.49154800  0.51838800  0.83442600  1
  N  N9  1  0.00845200  0.98161200  0.33442600  1
  N  N10  1  0.99154800  0.48161200  0.16557400  1
  N  N11  1  0.50845200  0.01838800  0.66557400  1
  N  N12  1  0.50845200  0.48161200  0.16557400  1
  N  N13  1  0.99154800  0.01838800  0.66557400  1
  N  N14  1  0.00845200  0.51838800  0.83442600  1
  N  N15  1  0.49154800  0.98161200  0.33442600  1
  N  N16  1  0.75000000  0.30121400  0.67989100  1
  N  N17  1  0.75000000  0.19878600  0.17989100  1
  N  N18  1  0.25000000  0.69878600  0.32010900  1
  N  N19  1  0.25000000  0.80121400  0.82010900  1
  N  N20  1  0.48983300  0.28106700  0.86767700  1
  N  N21  1  0.01016700  0.21893300  0.36767700  1
  N  N22  1  0.98983300  0.71893300  0.13232300  1
  N  N23  1  0.51016700  0.78106700  0.63232300  1
  N  N24  1  0.51016700  0.71893300  0.13232300  1
  N  N25  1  0.98983300  0.78106700  0.63232300  1
  N  N26  1  0.01016700  0.28106700  0.86767700  1
  N  N27  1  0.48983300  0.21893300  0.36767700  1
  Cl  Cl28  1  0.75000000  0.52465200  0.12433700  1
  Cl  Cl29  1  0.75000000  0.97534800  0.62433700  1
  Cl  Cl30  1  0.25000000  0.47534800  0.87566300  1
  Cl  Cl31  1  0.25000000  0.02465200  0.37566300  1
  O  O32  1  0.95191800  0.33401100  0.62918300  1
  O  O33  1  0.54808200  0.16598900  0.12918300  1
  O  O34  1  0.45191800  0.66598900  0.37081700  1
  O  O35  1  0.04808200  0.83401100  0.87081700  1
  O  O36  1  0.04808200  0.66598900  0.37081700  1
  O  O37  1  0.45191800  0.83401100  0.87081700  1
  O  O38  1  0.54808200  0.33401100  0.62918300  1
  O  O39  1  0.95191800  0.16598900  0.12918300  1
  O  O40  1  0.25000000  0.55367200  0.62947000  1
  O  O41  1  0.25000000  0.94632800  0.12947000  1
  O  O42  1  0.75000000  0.44632800  0.37053000  1
  O  O43  1  0.75000000  0.05367200  0.87053000  1
  O  O44  1  0.25000000  0.42290500  0.46157700  1
  O  O45  1  0.25000000  0.07709500  0.96157700  1
  O  O46  1  0.75000000  0.57709500  0.53842300  1
  O  O47  1  0.75000000  0.92290500  0.03842300  1
