# generated using pymatgen
data_PH11(C2Cl)2
_symmetry_space_group_name_H-M   'P 1'
_cell_length_a   10.81784100
_cell_length_b   12.75878000
_cell_length_c   13.75408300
_cell_angle_alpha   90.00000000
_cell_angle_beta   90.00000000
_cell_angle_gamma   90.00000000
_symmetry_Int_Tables_number   1
_chemical_formula_structural   PH11(C2Cl)2
_chemical_formula_sum   'P8 H88 C32 Cl16'
_cell_volume   1898.37227984
_cell_formula_units_Z   8
loop_
 _symmetry_equiv_pos_site_id
 _symmetry_equiv_pos_as_xyz
  1  'x, y, z'
loop_
 _atom_site_type_symbol
 _atom_site_label
 _atom_site_symmetry_multiplicity
 _atom_site_fract_x
 _atom_site_fract_y
 _atom_site_fract_z
 _atom_site_occupancy
  P  P0  1  0.80141100  0.40276800  0.13165600  1
  P  P1  1  0.69858900  0.90276800  0.86834400  1
  P  P2  1  0.30141100  0.59723200  0.36834400  1
  P  P3  1  0.19858900  0.09723200  0.63165600  1
  P  P4  1  0.19858900  0.59723200  0.86834400  1
  P  P5  1  0.30141100  0.09723200  0.13165600  1
  P  P6  1  0.69858900  0.40276800  0.63165600  1
  P  P7  1  0.80141100  0.90276800  0.36834400  1
  H  H8  1  0.86385700  0.36792000  0.97097000  1
  H  H9  1  0.63614300  0.86792000  0.02903000  1
  H  H10  1  0.36385700  0.63208000  0.52903000  1
  H  H11  1  0.13614300  0.13208000  0.47097000  1
  H  H12  1  0.13614300  0.63208000  0.02903000  1
  H  H13  1  0.36385700  0.13208000  0.97097000  1
  H  H14  1  0.63614300  0.36792000  0.47097000  1
  H  H15  1  0.86385700  0.86792000  0.52903000  1
  H  H16  1  0.83650800  0.24805000  0.03947300  1
  H  H17  1  0.66349200  0.74805000  0.96052700  1
  H  H18  1  0.33650800  0.75195000  0.46052700  1
  H  H19  1  0.16349200  0.25195000  0.53947300  1
  H  H20  1  0.16349200  0.75195000  0.96052700  1
  H  H21  1  0.33650800  0.25195000  0.03947300  1
  H  H22  1  0.66349200  0.24805000  0.53947300  1
  H  H23  1  0.83650800  0.74805000  0.46052700  1
  H  H24  1  0.97670300  0.32466700  0.05758700  1
  H  H25  1  0.52329700  0.82466700  0.94241300  1
  H  H26  1  0.47670300  0.67533300  0.44241300  1
  H  H27  1  0.02329700  0.17533300  0.55758700  1
  H  H28  1  0.02329700  0.67533300  0.94241300  1
  H  H29  1  0.47670300  0.17533300  0.05758700  1
  H  H30  1  0.52329700  0.32466700  0.55758700  1
  H  H31  1  0.97670300  0.82466700  0.44241300  1
  H  H32  1  0.97648400  0.50997900  0.15933200  1
  H  H33  1  0.52351600  0.00997900  0.84066800  1
  H  H34  1  0.47648400  0.49002100  0.34066800  1
  H  H35  1  0.02351600  0.99002100  0.65933200  1
  H  H36  1  0.02351600  0.49002100  0.84066800  1
  H  H37  1  0.47648400  0.99002100  0.15933200  1
  H  H38  1  0.52351600  0.50997900  0.65933200  1
  H  H39  1  0.97648400  0.00997900  0.34066800  1
  H  H40  1  0.83666300  0.56213700  0.21463800  1
  H  H41  1  0.66333700  0.06213700  0.78536200  1
  H  H42  1  0.33666300  0.43786300  0.28536200  1
  H  H43  1  0.16333700  0.93786300  0.71463800  1
  H  H44  1  0.16333700  0.43786300  0.78536200  1
  H  H45  1  0.33666300  0.93786300  0.21463800  1
  H  H46  1  0.66333700  0.56213700  0.71463800  1
  H  H47  1  0.83666300  0.06213700  0.28536200  1
  H  H48  1  0.86178500  0.57227600  0.08386700  1
  H  H49  1  0.63821500  0.07227600  0.91613300  1
  H  H50  1  0.36178500  0.42772400  0.41613300  1
  H  H51  1  0.13821500  0.92772400  0.58386700  1
  H  H52  1  0.13821500  0.42772400  0.91613300  1
  H  H53  1  0.36178500  0.92772400  0.08386700  1
  H  H54  1  0.63821500  0.57227600  0.58386700  1
  H  H55  1  0.86178500  0.07227600  0.41613300  1
  H  H56  1  0.59775300  0.47203500  0.15572300  1
  H  H57  1  0.90224700  0.97203500  0.84427700  1
  H  H58  1  0.09775300  0.52796500  0.34427700  1
  H  H59  1  0.40224700  0.02796500  0.65572300  1
  H  H60  1  0.40224700  0.52796500  0.84427700  1
  H  H61  1  0.09775300  0.02796500  0.15572300  1
  H  H62  1  0.90224700  0.47203500  0.65572300  1
  H  H63  1  0.59775300  0.97203500  0.34427700  1
  H  H64  1  0.59439400  0.34578600  0.09837800  1
  H  H65  1  0.90560600  0.84578600  0.90162200  1
  H  H66  1  0.09439400  0.65421400  0.40162200  1
  H  H67  1  0.40560600  0.15421400  0.59837800  1
  H  H68  1  0.40560600  0.65421400  0.90162200  1
  H  H69  1  0.09439400  0.15421400  0.09837800  1
  H  H70  1  0.90560600  0.34578600  0.59837800  1
  H  H71  1  0.59439400  0.84578600  0.40162200  1
  H  H72  1  0.63842400  0.46017700  0.02940000  1
  H  H73  1  0.86157600  0.96017700  0.97060000  1
  H  H74  1  0.13842400  0.53982300  0.47060000  1
  H  H75  1  0.36157600  0.03982300  0.52940000  1
  H  H76  1  0.36157600  0.53982300  0.97060000  1
  H  H77  1  0.13842400  0.03982300  0.02940000  1
  H  H78  1  0.86157600  0.46017700  0.52940000  1
  H  H79  1  0.63842400  0.96017700  0.47060000  1
  H  H80  1  0.74791900  0.37722700  0.29858800  1
  H  H81  1  0.75208100  0.87722700  0.70141200  1
  H  H82  1  0.24791900  0.62277300  0.20141200  1
  H  H83  1  0.25208100  0.12277300  0.79858800  1
  H  H84  1  0.25208100  0.62277300  0.70141200  1
  H  H85  1  0.24791900  0.12277300  0.29858800  1
  H  H86  1  0.75208100  0.37722700  0.79858800  1
  H  H87  1  0.74791900  0.87722700  0.20141200  1
  H  H88  1  0.75801700  0.25316000  0.23156600  1
  H  H89  1  0.74198300  0.75316000  0.76843400  1
  H  H90  1  0.25801700  0.74684000  0.26843400  1
  H  H91  1  0.24198300  0.24684000  0.73156600  1
  H  H92  1  0.24198300  0.74684000  0.76843400  1
  H  H93  1  0.25801700  0.24684000  0.23156600  1
  H  H94  1  0.74198300  0.25316000  0.73156600  1
  H  H95  1  0.75801700  0.75316000  0.26843400  1
  C  C96  1  0.80033200  0.33000200  0.24587700  1
  C  C97  1  0.69966800  0.83000200  0.75412300  1
  C  C98  1  0.30033200  0.66999800  0.25412300  1
  C  C99  1  0.19966800  0.16999800  0.74587700  1
  C  C100  1  0.19966800  0.66999800  0.75412300  1
  C  C101  1  0.30033200  0.16999800  0.24587700  1
  C  C102  1  0.69966800  0.33000200  0.74587700  1
  C  C103  1  0.80033200  0.83000200  0.25412300  1
  C  C104  1  0.87748200  0.32703800  0.04036500  1
  C  C105  1  0.62251800  0.82703800  0.95963500  1
  C  C106  1  0.37748200  0.67296200  0.45963500  1
  C  C107  1  0.12251800  0.17296200  0.54036500  1
  C  C108  1  0.12251800  0.67296200  0.95963500  1
  C  C109  1  0.37748200  0.17296200  0.04036500  1
  C  C110  1  0.62251800  0.32703800  0.54036500  1
  C  C111  1  0.87748200  0.82703800  0.45963500  1
  C  C112  1  0.87700700  0.52516500  0.14972400  1
  C  C113  1  0.62299300  0.02516500  0.85027600  1
  C  C114  1  0.37700700  0.47483500  0.35027600  1
  C  C115  1  0.12299300  0.97483500  0.64972400  1
  C  C116  1  0.12299300  0.47483500  0.85027600  1
  C  C117  1  0.37700700  0.97483500  0.14972400  1
  C  C118  1  0.62299300  0.52516500  0.64972400  1
  C  C119  1  0.87700700  0.02516500  0.35027600  1
  C  C120  1  0.64173100  0.42174300  0.10113800  1
  C  C121  1  0.85826900  0.92174300  0.89886200  1
  C  C122  1  0.14173100  0.57825700  0.39886200  1
  C  C123  1  0.35826900  0.07825700  0.60113800  1
  C  C124  1  0.35826900  0.57825700  0.89886200  1
  C  C125  1  0.14173100  0.07825700  0.10113800  1
  C  C126  1  0.85826900  0.42174300  0.60113800  1
  C  C127  1  0.64173100  0.92174300  0.39886200  1
  Cl  Cl128  1  0.95185500  0.31033600  0.29344600  1
  Cl  Cl129  1  0.54814500  0.81033600  0.70655400  1
  Cl  Cl130  1  0.45185500  0.68966400  0.20655400  1
  Cl  Cl131  1  0.04814500  0.18966400  0.79344600  1
  Cl  Cl132  1  0.04814500  0.68966400  0.70655400  1
  Cl  Cl133  1  0.45185500  0.18966400  0.29344600  1
  Cl  Cl134  1  0.54814500  0.31033600  0.79344600  1
  Cl  Cl135  1  0.95185500  0.81033600  0.20655400  1
  Cl  Cl136  1  0.71408100  0.57506200  0.38598500  1
  Cl  Cl137  1  0.78591900  0.07506200  0.61401500  1
  Cl  Cl138  1  0.21408100  0.42493800  0.11401500  1
  Cl  Cl139  1  0.28591900  0.92493800  0.88598500  1
  Cl  Cl140  1  0.28591900  0.42493800  0.61401500  1
  Cl  Cl141  1  0.21408100  0.92493800  0.38598500  1
  Cl  Cl142  1  0.78591900  0.57506200  0.88598500  1
  Cl  Cl143  1  0.71408100  0.07506200  0.11401500  1
