# generated using pymatgen
data_Hf3Ge
_symmetry_space_group_name_H-M   'P 1'
_cell_length_a   10.98422800
_cell_length_b   10.98422800
_cell_length_c   5.41447200
_cell_angle_alpha   90.00000000
_cell_angle_beta   90.00000000
_cell_angle_gamma   90.00000000
_symmetry_Int_Tables_number   1
_chemical_formula_structural   Hf3Ge
_chemical_formula_sum   'Hf24 Ge8'
_cell_volume   653.27372373
_cell_formula_units_Z   8
loop_
 _symmetry_equiv_pos_site_id
 _symmetry_equiv_pos_as_xyz
  1  'x, y, z'
loop_
 _atom_site_type_symbol
 _atom_site_label
 _atom_site_symmetry_multiplicity
 _atom_site_fract_x
 _atom_site_fract_y
 _atom_site_fract_z
 _atom_site_occupancy
  Hf  Hf0  1  0.71680700  0.81610100  0.50310500  1
  Hf  Hf1  1  0.28319300  0.18389900  0.50310500  1
  Hf  Hf2  1  0.21680700  0.31610100  0.99689500  1
  Hf  Hf3  1  0.78319300  0.68389900  0.99689500  1
  Hf  Hf4  1  0.18389900  0.71680700  0.49689500  1
  Hf  Hf5  1  0.81610100  0.28319300  0.49689500  1
  Hf  Hf6  1  0.68389900  0.21680700  0.00310500  1
  Hf  Hf7  1  0.31610100  0.78319300  0.00310500  1
  Hf  Hf8  1  0.64159600  0.47492700  0.72402400  1
  Hf  Hf9  1  0.35840400  0.52507300  0.72402400  1
  Hf  Hf10  1  0.14159600  0.97492700  0.77597600  1
  Hf  Hf11  1  0.85840400  0.02507300  0.77597600  1
  Hf  Hf12  1  0.52507300  0.64159600  0.27597600  1
  Hf  Hf13  1  0.47492700  0.35840400  0.27597600  1
  Hf  Hf14  1  0.02507300  0.14159600  0.22402400  1
  Hf  Hf15  1  0.97492700  0.85840400  0.22402400  1
  Hf  Hf16  1  0.60553600  0.91651200  0.02547900  1
  Hf  Hf17  1  0.39446400  0.08348800  0.02547900  1
  Hf  Hf18  1  0.10553600  0.41651200  0.47452100  1
  Hf  Hf19  1  0.89446400  0.58348800  0.47452100  1
  Hf  Hf20  1  0.08348800  0.60553600  0.97452100  1
  Hf  Hf21  1  0.91651200  0.39446400  0.97452100  1
  Hf  Hf22  1  0.58348800  0.10553600  0.52547900  1
  Hf  Hf23  1  0.41651200  0.89446400  0.52547900  1
  Ge  Ge24  1  0.70412100  0.46185600  0.21823000  1
  Ge  Ge25  1  0.29587900  0.53814400  0.21823000  1
  Ge  Ge26  1  0.20412100  0.96185600  0.28177000  1
  Ge  Ge27  1  0.79587900  0.03814400  0.28177000  1
  Ge  Ge28  1  0.53814400  0.70412100  0.78177000  1
  Ge  Ge29  1  0.46185600  0.29587900  0.78177000  1
  Ge  Ge30  1  0.03814400  0.20412100  0.71823000  1
  Ge  Ge31  1  0.96185600  0.79587900  0.71823000  1
