# generated using pymatgen
data_UB6H36(C2N)3
_symmetry_space_group_name_H-M   'P 1'
_cell_length_a   16.14871600
_cell_length_b   10.38047000
_cell_length_c   11.79787619
_cell_angle_alpha   90.00000000
_cell_angle_beta   95.81379666
_cell_angle_gamma   90.00000000
_symmetry_Int_Tables_number   1
_chemical_formula_structural   UB6H36(C2N)3
_chemical_formula_sum   'U4 B24 H144 C24 N12'
_cell_volume   1967.52030702
_cell_formula_units_Z   4
loop_
 _symmetry_equiv_pos_site_id
 _symmetry_equiv_pos_as_xyz
  1  'x, y, z'
loop_
 _atom_site_type_symbol
 _atom_site_label
 _atom_site_symmetry_multiplicity
 _atom_site_fract_x
 _atom_site_fract_y
 _atom_site_fract_z
 _atom_site_occupancy
  U  U0  1  0.26379600  0.34047300  0.33618500  1
  U  U1  1  0.73620400  0.84047300  0.16381500  1
  U  U2  1  0.73620400  0.65952700  0.66381500  1
  U  U3  1  0.26379600  0.15952700  0.83618500  1
  B  B4  1  0.17232100  0.12346100  0.38875900  1
  B  B5  1  0.82767900  0.62346100  0.11124100  1
  B  B6  1  0.82767900  0.87653900  0.61124100  1
  B  B7  1  0.17232100  0.37653900  0.88875900  1
  B  B8  1  0.10294500  0.27613700  0.24060300  1
  B  B9  1  0.89705500  0.77613700  0.25939700  1
  B  B10  1  0.89705500  0.72386300  0.75939700  1
  B  B11  1  0.10294500  0.22386300  0.74060300  1
  B  B12  1  0.26225500  0.52505500  0.50934600  1
  B  B13  1  0.73774500  0.02505500  0.99065400  1
  B  B14  1  0.73774500  0.47494500  0.49065400  1
  B  B15  1  0.26225500  0.97494500  0.00934600  1
  B  B16  1  0.23996900  0.60885800  0.30681700  1
  B  B17  1  0.76003100  0.10885800  0.19318300  1
  B  B18  1  0.76003100  0.39114200  0.69318300  1
  B  B19  1  0.23996900  0.89114200  0.80681700  1
  B  B20  1  0.43364100  0.29524000  0.30969100  1
  B  B21  1  0.56635900  0.79524000  0.19030900  1
  B  B22  1  0.56635900  0.70476000  0.69030900  1
  B  B23  1  0.43364100  0.20476000  0.80969100  1
  B  B24  1  0.33558000  0.28821600  0.12817500  1
  B  B25  1  0.66442000  0.78821600  0.37182500  1
  B  B26  1  0.66442000  0.71178400  0.87182500  1
  B  B27  1  0.33558000  0.21178400  0.62817500  1
  H  H28  1  0.00906000  0.05078100  0.40505000  1
  H  H29  1  0.99094000  0.55078100  0.09495000  1
  H  H30  1  0.99094000  0.94921900  0.59495000  1
  H  H31  1  0.00906000  0.44921900  0.90505000  1
  H  H32  1  0.02250800  0.21999600  0.42909400  1
  H  H33  1  0.97749200  0.71999600  0.07090600  1
  H  H34  1  0.97749200  0.78000400  0.57090600  1
  H  H35  1  0.02250800  0.28000400  0.92909400  1
  H  H36  1  0.96074200  0.16350700  0.30396100  1
  H  H37  1  0.03925800  0.66350700  0.19603900  1
  H  H38  1  0.03925800  0.83649300  0.69603900  1
  H  H39  1  0.96074200  0.33649300  0.80396100  1
  H  H40  1  0.02622600  0.05489800  0.15725100  1
  H  H41  1  0.97377400  0.55489800  0.34274900  1
  H  H42  1  0.97377400  0.94510200  0.84274900  1
  H  H43  1  0.02622600  0.44510200  0.65725100  1
  H  H44  1  0.13690800  0.03366100  0.16901400  1
  H  H45  1  0.86309200  0.53366100  0.33098600  1
  H  H46  1  0.86309200  0.96633900  0.83098600  1
  H  H47  1  0.13690800  0.46633900  0.66901400  1
  H  H48  1  0.07485900  0.94429900  0.25959200  1
  H  H49  1  0.92514100  0.44429900  0.24040800  1
  H  H50  1  0.92514100  0.05570100  0.74040800  1
  H  H51  1  0.07485900  0.55570100  0.75959200  1
  H  H52  1  0.14246000  0.78659300  0.40439400  1
  H  H53  1  0.85754000  0.28659300  0.09560600  1
  H  H54  1  0.85754000  0.21340700  0.59560600  1
  H  H55  1  0.14246000  0.71340700  0.90439400  1
  H  H56  1  0.11023200  0.62706100  0.43788300  1
  H  H57  1  0.88976800  0.12706100  0.06211700  1
  H  H58  1  0.88976800  0.37293900  0.56211700  1
  H  H59  1  0.11023200  0.87293900  0.93788300  1
  H  H60  1  0.15840300  0.72902800  0.54828800  1
  H  H61  1  0.84159700  0.22902800  0.95171200  1
  H  H62  1  0.84159700  0.27097200  0.45171200  1
  H  H63  1  0.15840300  0.77097200  0.04828800  1
  H  H64  1  0.30161500  0.77918800  0.55689600  1
  H  H65  1  0.69838500  0.27918800  0.94310400  1
  H  H66  1  0.69838500  0.22081200  0.44310400  1
  H  H67  1  0.30161500  0.72081200  0.05689600  1
  H  H68  1  0.36492900  0.71800200  0.45333600  1
  H  H69  1  0.63507100  0.21800200  0.04666400  1
  H  H70  1  0.63507100  0.28199800  0.54666400  1
  H  H71  1  0.36492900  0.78199800  0.95333600  1
  H  H72  1  0.28795000  0.83889200  0.41322600  1
  H  H73  1  0.71205000  0.33889200  0.08677400  1
  H  H74  1  0.71205000  0.16110800  0.58677400  1
  H  H75  1  0.28795000  0.66110800  0.91322600  1
  H  H76  1  0.47778600  0.37487600  0.03491300  1
  H  H77  1  0.52221400  0.87487600  0.46508700  1
  H  H78  1  0.52221400  0.62512400  0.96508700  1
  H  H79  1  0.47778600  0.12512400  0.53491300  1
  H  H80  1  0.45032100  0.48063700  0.14510400  1
  H  H81  1  0.54967900  0.98063700  0.35489600  1
  H  H82  1  0.54967900  0.51936300  0.85489600  1
  H  H83  1  0.45032100  0.01936300  0.64510400  1
  H  H84  1  0.54331700  0.38618000  0.16710300  1
  H  H85  1  0.45668300  0.88618000  0.33289700  1
  H  H86  1  0.45668300  0.61382000  0.83289700  1
  H  H87  1  0.54331700  0.11382000  0.66710300  1
  H  H88  1  0.53370800  0.15424000  0.18544000  1
  H  H89  1  0.46629200  0.65424000  0.31456000  1
  H  H90  1  0.46629200  0.84576000  0.81456000  1
  H  H91  1  0.53370800  0.34576000  0.68544000  1
  H  H92  1  0.43381800  0.07784600  0.17863100  1
  H  H93  1  0.56618200  0.57784600  0.32136900  1
  H  H94  1  0.56618200  0.92215400  0.82136900  1
  H  H95  1  0.43381800  0.42215400  0.67863100  1
  H  H96  1  0.46774000  0.14850300  0.05329600  1
  H  H97  1  0.53226000  0.64850300  0.44670400  1
  H  H98  1  0.53226000  0.85149700  0.94670400  1
  H  H99  1  0.46774000  0.35149700  0.55329600  1
  H  H100  1  0.23439300  0.11606000  0.33372300  1
  H  H101  1  0.76560700  0.61606000  0.16627700  1
  H  H102  1  0.76560700  0.88394000  0.66627700  1
  H  H103  1  0.23439300  0.38394000  0.83372300  1
  H  H104  1  0.18002100  0.22055700  0.45097500  1
  H  H105  1  0.81997900  0.72055700  0.04902500  1
  H  H106  1  0.81997900  0.77944300  0.54902500  1
  H  H107  1  0.18002100  0.27944300  0.95097500  1
  H  H108  1  0.16843300  0.02890100  0.44791500  1
  H  H109  1  0.83156700  0.52890100  0.05208500  1
  H  H110  1  0.83156700  0.97109900  0.55208500  1
  H  H111  1  0.16843300  0.47109900  0.94791500  1
  H  H112  1  0.04372000  0.30405200  0.17367800  1
  H  H113  1  0.95628000  0.80405200  0.32632200  1
  H  H114  1  0.95628000  0.69594800  0.82632200  1
  H  H115  1  0.04372000  0.19594800  0.67367800  1
  H  H116  1  0.11426200  0.35979900  0.31610800  1
  H  H117  1  0.88573800  0.85979900  0.18389200  1
  H  H118  1  0.88573800  0.64020100  0.68389200  1
  H  H119  1  0.11426200  0.14020100  0.81610800  1
  H  H120  1  0.16594300  0.27005400  0.18796000  1
  H  H121  1  0.83405700  0.77005400  0.31204000  1
  H  H122  1  0.83405700  0.72994600  0.81204000  1
  H  H123  1  0.16594300  0.22994600  0.68796000  1
  H  H124  1  0.20554400  0.44462300  0.48502100  1
  H  H125  1  0.79445600  0.94462300  0.01497900  1
  H  H126  1  0.79445600  0.55537700  0.51497900  1
  H  H127  1  0.20554400  0.05537700  0.98502100  1
  H  H128  1  0.32876100  0.47989600  0.48161300  1
  H  H129  1  0.67123900  0.97989600  0.01838700  1
  H  H130  1  0.67123900  0.52010400  0.51838700  1
  H  H131  1  0.32876100  0.02010400  0.98161300  1
  H  H132  1  0.26847900  0.54600500  0.61087300  1
  H  H133  1  0.73152100  0.04600500  0.88912700  1
  H  H134  1  0.73152100  0.45399500  0.38912700  1
  H  H135  1  0.26847900  0.95399500  0.11087300  1
  H  H136  1  0.22733900  0.69864400  0.24180700  1
  H  H137  1  0.77266100  0.19864400  0.25819300  1
  H  H138  1  0.77266100  0.30135600  0.75819300  1
  H  H139  1  0.22733900  0.80135600  0.74180700  1
  H  H140  1  0.30814300  0.55771900  0.29440200  1
  H  H141  1  0.69185700  0.05771900  0.20559800  1
  H  H142  1  0.69185700  0.44228100  0.70559800  1
  H  H143  1  0.30814300  0.94228100  0.79440200  1
  H  H144  1  0.18408700  0.52717400  0.28530300  1
  H  H145  1  0.81591300  0.02717400  0.21469700  1
  H  H146  1  0.81591300  0.47282600  0.71469700  1
  H  H147  1  0.18408700  0.97282600  0.78530300  1
  H  H148  1  0.40490800  0.40269200  0.33201500  1
  H  H149  1  0.59509200  0.90269200  0.16798500  1
  H  H150  1  0.59509200  0.59730800  0.66798500  1
  H  H151  1  0.40490800  0.09730800  0.83201500  1
  H  H152  1  0.38899800  0.20931400  0.34498500  1
  H  H153  1  0.61100200  0.70931400  0.15501500  1
  H  H154  1  0.61100200  0.79068600  0.65501500  1
  H  H155  1  0.38899800  0.29068600  0.84498500  1
  H  H156  1  0.50392000  0.28650200  0.35577000  1
  H  H157  1  0.49608000  0.78650200  0.14423000  1
  H  H158  1  0.49608000  0.71349800  0.64423000  1
  H  H159  1  0.50392000  0.21349800  0.85577000  1
  H  H160  1  0.32618000  0.27313000  0.02393200  1
  H  H161  1  0.67382000  0.77313000  0.47606800  1
  H  H162  1  0.67382000  0.72687000  0.97606800  1
  H  H163  1  0.32618000  0.22687000  0.52393200  1
  H  H164  1  0.29768900  0.20348900  0.17547900  1
  H  H165  1  0.70231100  0.70348900  0.32452100  1
  H  H166  1  0.70231100  0.79651100  0.82452100  1
  H  H167  1  0.29768900  0.29651100  0.67547900  1
  H  H168  1  0.30742400  0.39606100  0.14955600  1
  H  H169  1  0.69257600  0.89606100  0.35044400  1
  H  H170  1  0.69257600  0.60393900  0.85044400  1
  H  H171  1  0.30742400  0.10393900  0.64955600  1
  C  C172  1  0.01606400  0.14455800  0.36390600  1
  C  C173  1  0.98393600  0.64455800  0.13609400  1
  C  C174  1  0.98393600  0.85544200  0.63609400  1
  C  C175  1  0.01606400  0.35544200  0.86390600  1
  C  C176  1  0.08216500  0.03688400  0.21649400  1
  C  C177  1  0.91783500  0.53688400  0.28350600  1
  C  C178  1  0.91783500  0.96311600  0.78350600  1
  C  C179  1  0.08216500  0.46311600  0.71649400  1
  C  C180  1  0.15742300  0.70148200  0.45809800  1
  C  C181  1  0.84257700  0.20148200  0.04190200  1
  C  C182  1  0.84257700  0.29851800  0.54190200  1
  C  C183  1  0.15742300  0.79851800  0.95809800  1
  C  C184  1  0.30286200  0.75335000  0.46656300  1
  C  C185  1  0.69713800  0.25335000  0.03343700  1
  C  C186  1  0.69713800  0.24665000  0.53343700  1
  C  C187  1  0.30286200  0.74665000  0.96656300  1
  C  C188  1  0.47866000  0.38786800  0.12758900  1
  C  C189  1  0.52134000  0.88786800  0.37241100  1
  C  C190  1  0.52134000  0.61213200  0.87241100  1
  C  C191  1  0.47866000  0.11213200  0.62758900  1
  C  C192  1  0.46898600  0.15754700  0.14633000  1
  C  C193  1  0.53101400  0.65754700  0.35367000  1
  C  C194  1  0.53101400  0.84245300  0.85367000  1
  C  C195  1  0.46898600  0.34245300  0.64633000  1
  N  N196  1  0.09167000  0.14256100  0.30168700  1
  N  N197  1  0.90833000  0.64256100  0.19831300  1
  N  N198  1  0.90833000  0.85743900  0.69831300  1
  N  N199  1  0.09167000  0.35743900  0.80168700  1
  N  N200  1  0.24032500  0.65065800  0.43616600  1
  N  N201  1  0.75967500  0.15065800  0.06383400  1
  N  N202  1  0.75967500  0.34934200  0.56383400  1
  N  N203  1  0.24032500  0.84934200  0.93616600  1
  N  N204  1  0.43072900  0.28213400  0.17538700  1
  N  N205  1  0.56927100  0.78213400  0.32461300  1
  N  N206  1  0.56927100  0.71786600  0.82461300  1
  N  N207  1  0.43072900  0.21786600  0.67538700  1
