# generated using pymatgen
data_CuBi2Se3O11
_symmetry_space_group_name_H-M   'P 1'
_cell_length_a   8.74518218
_cell_length_b   8.74518218
_cell_length_c   11.00444000
_cell_angle_alpha   90.00000000
_cell_angle_beta   90.00000000
_cell_angle_gamma   142.03437852
_symmetry_Int_Tables_number   1
_chemical_formula_structural   CuBi2Se3O11
_chemical_formula_sum   'Cu2 Bi4 Se6 O22'
_cell_volume   517.74260983
_cell_formula_units_Z   2
loop_
 _symmetry_equiv_pos_site_id
 _symmetry_equiv_pos_as_xyz
  1  'x, y, z'
loop_
 _atom_site_type_symbol
 _atom_site_label
 _atom_site_symmetry_multiplicity
 _atom_site_fract_x
 _atom_site_fract_y
 _atom_site_fract_z
 _atom_site_occupancy
  Cu  Cu0  1  0.99950500  0.49950500  0.39606900  1
  Cu  Cu1  1  0.49950500  0.99950500  0.60393100  1
  Bi  Bi2  1  0.90417500  0.06995800  0.12106500  1
  Bi  Bi3  1  0.06995800  0.90417500  0.87893500  1
  Bi  Bi4  1  0.40417500  0.56995800  0.87893500  1
  Bi  Bi5  1  0.56995800  0.40417500  0.12106500  1
  Se  Se6  1  0.15945000  0.65945000  0.12231500  1
  Se  Se7  1  0.65945000  0.15945000  0.87768500  1
  Se  Se8  1  0.40816000  0.56667000  0.35155000  1
  Se  Se9  1  0.56667000  0.40816000  0.64845000  1
  Se  Se10  1  0.90816000  0.06667000  0.64845000  1
  Se  Se11  1  0.06667000  0.90816000  0.35155000  1
  O  O12  1  0.92289000  0.42289000  0.22682000  1
  O  O13  1  0.42289000  0.92289000  0.77318000  1
  O  O14  1  0.96832700  0.63162000  0.03605400  1
  O  O15  1  0.63162000  0.96832700  0.96394600  1
  O  O16  1  0.46832700  0.13162000  0.96394600  1
  O  O17  1  0.13162000  0.46832700  0.03605400  1
  O  O18  1  0.28953100  0.34625400  0.23838800  1
  O  O19  1  0.34625400  0.28953100  0.76161200  1
  O  O20  1  0.78953100  0.84625400  0.76161200  1
  O  O21  1  0.84625400  0.78953100  0.23838800  1
  O  O22  1  0.11406600  0.38642700  0.40954600  1
  O  O23  1  0.38642700  0.11406600  0.59045400  1
  O  O24  1  0.61406600  0.88642700  0.59045400  1
  O  O25  1  0.88642700  0.61406600  0.40954600  1
  O  O26  1  0.50244800  0.79224500  0.26879800  1
  O  O27  1  0.79224500  0.50244800  0.73120200  1
  O  O28  1  0.00244800  0.29224500  0.73120200  1
  O  O29  1  0.29224500  0.00244800  0.26879800  1
  O  O30  1  0.19962000  0.19962000  0.00000000  1
  O  O31  1  0.69962000  0.69962000  0.00000000  1
  O  O32  1  0.11465400  0.61465400  0.54588100  1
  O  O33  1  0.61465400  0.11465400  0.45411900  1
