# generated using pymatgen
data_Mg(BH4)2
_symmetry_space_group_name_H-M   'P 1'
_cell_length_a   8.77814945
_cell_length_b   8.77814945
_cell_length_c   8.77814945
_cell_angle_alpha   60.00000000
_cell_angle_beta   60.00000000
_cell_angle_gamma   60.00000000
_symmetry_Int_Tables_number   1
_chemical_formula_structural   Mg(BH4)2
_chemical_formula_sum   'Mg4 B8 H32'
_cell_volume   478.29287712
_cell_formula_units_Z   4
loop_
 _symmetry_equiv_pos_site_id
 _symmetry_equiv_pos_as_xyz
  1  'x, y, z'
loop_
 _atom_site_type_symbol
 _atom_site_label
 _atom_site_symmetry_multiplicity
 _atom_site_fract_x
 _atom_site_fract_y
 _atom_site_fract_z
 _atom_site_occupancy
  Mg  Mg0  1  0.25000000  0.25000000  0.25000000  1
  Mg  Mg1  1  0.00000000  0.00000000  0.00000000  1
  Mg  Mg2  1  0.50000000  0.50000000  0.50000000  1
  Mg  Mg3  1  0.75000000  0.75000000  0.75000000  1
  B  B4  1  0.92400000  0.35866700  0.35866700  1
  B  B5  1  0.35866700  0.92400000  0.35866700  1
  B  B6  1  0.35866700  0.35866700  0.92400000  1
  B  B7  1  0.35866700  0.35866700  0.35866700  1
  B  B8  1  0.32600000  0.89133300  0.89133300  1
  B  B9  1  0.89133300  0.32600000  0.89133300  1
  B  B10  1  0.89133300  0.89133300  0.32600000  1
  B  B11  1  0.89133300  0.89133300  0.89133300  1
  H  H12  1  0.75079300  0.41640200  0.41640200  1
  H  H13  1  0.41640200  0.75079300  0.41640200  1
  H  H14  1  0.41640200  0.41640200  0.75079300  1
  H  H15  1  0.41640200  0.41640200  0.41640200  1
  H  H16  1  0.49920700  0.83359800  0.83359800  1
  H  H17  1  0.83359800  0.49920700  0.83359800  1
  H  H18  1  0.83359800  0.83359800  0.49920700  1
  H  H19  1  0.83359800  0.83359800  0.83359800  1
  H  H20  1  0.49495900  0.26559700  0.26559700  1
  H  H21  1  0.26559700  0.49495900  0.97384700  1
  H  H22  1  0.26559700  0.97384700  0.49495900  1
  H  H23  1  0.97384700  0.26559700  0.26559700  1
  H  H24  1  0.26559700  0.26559700  0.49495900  1
  H  H25  1  0.49495900  0.97384700  0.26559700  1
  H  H26  1  0.97384700  0.49495900  0.26559700  1
  H  H27  1  0.26559700  0.26559700  0.97384700  1
  H  H28  1  0.26559700  0.49495900  0.26559700  1
  H  H29  1  0.97384700  0.26559700  0.49495900  1
  H  H30  1  0.49495900  0.26559700  0.97384700  1
  H  H31  1  0.26559700  0.97384700  0.26559700  1
  H  H32  1  0.75504100  0.98440300  0.98440300  1
  H  H33  1  0.98440300  0.75504100  0.27615300  1
  H  H34  1  0.98440300  0.27615300  0.75504100  1
  H  H35  1  0.27615300  0.98440300  0.98440300  1
  H  H36  1  0.98440300  0.98440300  0.75504100  1
  H  H37  1  0.75504100  0.27615300  0.98440300  1
  H  H38  1  0.27615300  0.75504100  0.98440300  1
  H  H39  1  0.98440300  0.98440300  0.27615300  1
  H  H40  1  0.98440300  0.75504100  0.98440300  1
  H  H41  1  0.27615300  0.98440300  0.75504100  1
  H  H42  1  0.75504100  0.98440300  0.27615300  1
  H  H43  1  0.98440300  0.27615300  0.98440300  1
