# generated using pymatgen
data_Ga6P8H56C14N7O32F
_symmetry_space_group_name_H-M   'P 1'
_cell_length_a   11.27333755
_cell_length_b   11.52945697
_cell_length_c   21.65782126
_cell_angle_alpha   100.49647300
_cell_angle_beta   99.73058873
_cell_angle_gamma   108.80142121
_symmetry_Int_Tables_number   1
_chemical_formula_structural   Ga6P8H56C14N7O32F
_chemical_formula_sum   'Ga12 P16 H112 C28 N14 O64 F2'
_cell_volume   2540.55946445
_cell_formula_units_Z   2
loop_
 _symmetry_equiv_pos_site_id
 _symmetry_equiv_pos_as_xyz
  1  'x, y, z'
loop_
 _atom_site_type_symbol
 _atom_site_label
 _atom_site_symmetry_multiplicity
 _atom_site_fract_x
 _atom_site_fract_y
 _atom_site_fract_z
 _atom_site_occupancy
  Ga  Ga0  1  0.66134593  0.57891916  0.07331712  1
  Ga  Ga1  1  0.33865407  0.42108084  0.92668288  1
  Ga  Ga2  1  0.32786073  0.92746500  0.42509499  1
  Ga  Ga3  1  0.67213927  0.07253500  0.57490501  1
  Ga  Ga4  1  0.16356915  0.91636808  0.25570946  1
  Ga  Ga5  1  0.83643085  0.08363192  0.74429054  1
  Ga  Ga6  1  0.49059779  0.15469960  0.32692436  1
  Ga  Ga7  1  0.50940221  0.84530040  0.67307564  1
  Ga  Ga8  1  0.53515457  0.68764242  0.82921430  1
  Ga  Ga9  1  0.46484543  0.31235758  0.17078570  1
  Ga  Ga10  1  0.85163032  0.57372138  0.25607940  1
  Ga  Ga11  1  0.14836968  0.42627862  0.74392060  1
  P  P12  1  0.24749183  0.13853389  0.37870306  1
  P  P13  1  0.75250817  0.86146611  0.62129694  1
  P  P14  1  0.72928140  0.36080041  0.12243889  1
  P  P15  1  0.27071860  0.63919959  0.87756111  1
  P  P16  1  0.85173920  0.80385361  0.19359839  1
  P  P17  1  0.14826080  0.19614639  0.80640161  1
  P  P18  1  0.39245756  0.55744255  0.68256660  1
  P  P19  1  0.60754244  0.44255745  0.31743340  1
  P  P20  1  0.62498851  0.52606048  0.92141463  1
  P  P21  1  0.37501149  0.47393952  0.07858537  1
  P  P22  1  0.62148602  0.02007321  0.42378723  1
  P  P23  1  0.37851398  0.97992679  0.57621277  1
  P  P24  1  0.14718206  0.68243835  0.31162095  1
  P  P25  1  0.85281794  0.31756165  0.68837905  1
  P  P26  1  0.37150406  0.03916752  0.17821312  1
  P  P27  1  0.62849594  0.96083248  0.82178688  1
  H  H28  1  0.25463480  0.16344565  0.55816022  1
  H  H29  1  0.74536520  0.83655435  0.44183978  1
  H  H30  1  0.21693484  0.23344650  0.49790266  1
  H  H31  1  0.78306516  0.76655350  0.50209734  1
  H  H32  1  0.29112214  0.32266906  0.57546655  1
  H  H33  1  0.70887786  0.67733094  0.42453345  1
  H  H34  1  0.25739517  0.66138650  0.05852730  1
  H  H35  1  0.74260483  0.33861350  0.94147270  1
  H  H36  1  0.22441013  0.72989290  0.99732109  1
  H  H37  1  0.77558987  0.27010710  0.00267891  1
  H  H38  1  0.29134183  0.82135508  0.07468411  1
  H  H39  1  0.70865817  0.17864492  0.92531589  1
  H  H40  1  0.56481769  0.99417862  0.12159401  1
  H  H41  1  0.43518231  0.00582138  0.87840599  1
  H  H42  1  0.70656630  0.96989874  0.14589930  1
  H  H43  1  0.29343370  0.03010126  0.85410070  1
  H  H44  1  0.70564469  0.09352366  0.11177694  1
  H  H45  1  0.29435531  0.90647634  0.88822306  1
  H  H46  1  0.41465490  0.48197032  0.38327233  1
  H  H47  1  0.58534510  0.51802968  0.61672767  1
  H  H48  1  0.27333222  0.38725696  0.39529258  1
  H  H49  1  0.72666778  0.61274304  0.60470742  1
  H  H50  1  0.27967299  0.51586470  0.36357199  1
  H  H51  1  0.72032701  0.48413530  0.63642801  1
  H  H52  1  0.83247373  0.99070291  0.27596703  1
  H  H53  1  0.16752627  0.00929709  0.72403297  1
  H  H54  1  0.96613754  0.08051030  0.33572769  1
  H  H55  1  0.03386246  0.91948970  0.66427231  1
  H  H56  1  0.81896384  0.03451338  0.35379237  1
  H  H57  1  0.18103616  0.96548662  0.64620763  1
  H  H58  1  0.46765417  0.35765298  0.66677175  1
  H  H59  1  0.53234583  0.64234702  0.33322825  1
  H  H60  1  0.59478368  0.31089817  0.68339168  1
  H  H61  1  0.40521632  0.68910183  0.31660832  1
  H  H62  1  0.43989057  0.20178219  0.65885731  1
  H  H63  1  0.56010943  0.79821781  0.34114269  1
  H  H64  1  0.14841750  0.51159770  0.21450284  1
  H  H65  1  0.85158250  0.48840230  0.78549716  1
  H  H66  1  0.18086721  0.45907996  0.14307971  1
  H  H67  1  0.81913279  0.54092004  0.85692029  1
  H  H68  1  0.02639272  0.41541293  0.15058690  1
  H  H69  1  0.97360728  0.58458707  0.84941310  1
  H  H70  1  0.02979196  0.11880340  0.53640678  1
  H  H71  1  0.97020804  0.88119660  0.46359322  1
  H  H72  1  0.10757986  0.22433979  0.61409710  1
  H  H73  1  0.89242014  0.77566021  0.38590290  1
  H  H74  1  0.94705843  0.29613970  0.55495873  1
  H  H75  1  0.05294157  0.70386030  0.44504127  1
  H  H76  1  0.10460500  0.40829255  0.56661996  1
  H  H77  1  0.89539500  0.59170745  0.43338004  1
  H  H78  1  0.02228022  0.29930302  0.48917262  1
  H  H79  1  0.97771978  0.70069698  0.51082738  1
  H  H80  1  0.10307825  0.71804828  0.10945886  1
  H  H81  1  0.89692175  0.28195172  0.89054114  1
  H  H82  1  0.03348269  0.60978605  0.03174323  1
  H  H83  1  0.96651731  0.39021395  0.96825677  1
  H  H84  1  0.94051537  0.77989718  0.04688273  1
  H  H85  1  0.05948463  0.22010282  0.95311727  1
  H  H86  1  0.01978340  0.78713655  0.98246706  1
  H  H87  1  0.98021660  0.21286345  0.01753294  1
  H  H88  1  0.09538491  0.89761168  0.05990770  1
  H  H89  1  0.90461509  0.10238832  0.94009230  1
  H  H90  1  0.56620782  0.94368321  0.01163965  1
  H  H91  1  0.43379218  0.05631679  0.98836035  1
  H  H92  1  0.57949165  0.81918997  0.04639323  1
  H  H93  1  0.42050835  0.18081003  0.95360677  1
  H  H94  1  0.73380751  0.88684142  0.97204967  1
  H  H95  1  0.26619249  0.11315858  0.02795033  1
  H  H96  1  0.81653604  0.03003589  0.03304984  1
  H  H97  1  0.18346396  0.96996411  0.96695016  1
  H  H98  1  0.81078505  0.88297887  0.05001122  1
  H  H99  1  0.18921495  0.11702113  0.94998878  1
  H  H100  1  0.42766954  0.65768458  0.46447705  1
  H  H101  1  0.57233046  0.34231542  0.53552295  1
  H  H102  1  0.41228432  0.52360408  0.49638649  1
  H  H103  1  0.58771568  0.47639592  0.50361351  1
  H  H104  1  0.26692341  0.64998622  0.52611607  1
  H  H105  1  0.73307659  0.35001378  0.47388393  1
  H  H106  1  0.17565550  0.58615120  0.44455952  1
  H  H107  1  0.82434450  0.41384880  0.55544048  1
  H  H108  1  0.18717808  0.48344007  0.49543465  1
  H  H109  1  0.81282192  0.51655993  0.50456535  1
  H  H110  1  0.74757600  0.15678717  0.28618325  1
  H  H111  1  0.25242400  0.84321283  0.71381675  1
  H  H112  1  0.89792818  0.19866870  0.26471611  1
  H  H113  1  0.10207182  0.80133130  0.73528389  1
  H  H114  1  0.89743449  0.37791147  0.34862273  1
  H  H115  1  0.10256551  0.62208853  0.65137727  1
  H  H116  1  0.85519258  0.27752640  0.40052610  1
  H  H117  1  0.14480742  0.72247360  0.59947390  1
  H  H118  1  0.01045277  0.31421773  0.38253970  1
  H  H119  1  0.98954723  0.68578227  0.61746030  1
  H  H120  1  0.55844860  0.40505987  0.78130914  1
  H  H121  1  0.44155140  0.59494013  0.21869086  1
  H  H122  1  0.39499805  0.30014596  0.75786450  1
  H  H123  1  0.60500195  0.69985404  0.24213550  1
  H  H124  1  0.51313656  0.21636809  0.83169597  1
  H  H125  1  0.48686344  0.78363191  0.16830403  1
  H  H126  1  0.47576595  0.11485982  0.75351225  1
  H  H127  1  0.52423405  0.88514018  0.24648775  1
  H  H128  1  0.63484981  0.22723456  0.78807289  1
  H  H129  1  0.36515019  0.77276544  0.21192711  1
  H  H130  1  0.08102642  0.32466518  0.24065298  1
  H  H131  1  0.91897358  0.67533482  0.75934702  1
  H  H132  1  0.23081167  0.34349710  0.22028823  1
  H  H133  1  0.76918833  0.65650290  0.77971177  1
  H  H134  1  0.06579147  0.12060138  0.17011181  1
  H  H135  1  0.93420853  0.87939862  0.82988819  1
  H  H136  1  0.11537436  0.19735777  0.11015476  1
  H  H137  1  0.88462564  0.80264223  0.88984524  1
  H  H138  1  0.96294575  0.18551996  0.12810402  1
  H  H139  1  0.03705425  0.81448004  0.87189598  1
  C  C140  1  0.09399692  0.21616353  0.56191668  1
  C  C141  1  0.90600308  0.78383647  0.43808332  1
  C  C142  1  0.03926105  0.31106017  0.54168554  1
  C  C143  1  0.96073895  0.68893983  0.45831446  1
  C  C144  1  0.09350854  0.70843622  0.05737856  1
  C  C145  1  0.90649146  0.29156378  0.94262144  1
  C  C146  1  0.03446599  0.79900181  0.03496732  1
  C  C147  1  0.96553401  0.20099819  0.96503268  1
  C  C148  1  0.63122080  0.91682769  0.04498681  1
  C  C149  1  0.36877920  0.08317231  0.95501319  1
  C  C150  1  0.75578610  0.92992748  0.02414353  1
  C  C151  1  0.24421390  0.07007252  0.97585647  1
  C  C152  1  0.36092824  0.56369077  0.46366183  1
  C  C153  1  0.63907176  0.43630923  0.53633817  1
  C  C154  1  0.24025987  0.57069370  0.48347354  1
  C  C155  1  0.75974013  0.42930630  0.51652646  1
  C  C156  1  0.85160479  0.18100445  0.30456572  1
  C  C157  1  0.14839521  0.81899555  0.69543428  1
  C  C158  1  0.90761214  0.29435790  0.36274683  1
  C  C159  1  0.09238786  0.70564210  0.63725317  1
  C  C160  1  0.49368401  0.30832886  0.75577069  1
  C  C161  1  0.50631599  0.69167114  0.24422931  1
  C  C162  1  0.53204492  0.21110396  0.78359986  1
  C  C163  1  0.46795508  0.78889604  0.21640014  1
  C  C164  1  0.12820299  0.32352201  0.20026611  1
  C  C165  1  0.87179701  0.67647799  0.79973389  1
  C  C166  1  0.06399797  0.19955731  0.14881003  1
  C  C167  1  0.93600203  0.80044269  0.85118997  1
  N  N168  1  0.22302483  0.23509722  0.54700913  1
  N  N169  1  0.77697517  0.76490278  0.45299087  1
  N  N170  1  0.22556938  0.73209315  0.04585316  1
  N  N171  1  0.77443062  0.26790685  0.95414684  1
  N  N172  1  0.65505578  -0.00007222  0.11113203  1
  N  N173  1  0.34494422  0.00007222  0.88886797  1
  N  N174  1  0.32915857  0.48095828  0.39660256  1
  N  N175  1  0.67084143  0.51904172  0.60339744  1
  N  N176  1  0.86933338  0.06513172  0.31971432  1
  N  N177  1  0.13066662  0.93486828  0.68028568  1
  N  N178  1  0.49915753  0.29258752  0.68637687  1
  N  N179  1  0.50084247  0.70741248  0.31362313  1
  N  N180  1  0.12042938  0.43424799  0.17455843  1
  N  N181  1  0.87957062  0.56575201  0.82544157  1
  O  O182  1  0.80186601  0.71370870  0.12356034  1
  O  O183  1  0.19813399  0.28629130  0.87643966  1
  O  O184  1  0.64507269  0.60451171  0.99164201  1
  O  O185  1  0.35492731  0.39548829  0.00835799  1
  O  O186  1  0.48617074  0.42041566  0.90018713  1
  O  O187  1  0.51382926  0.57958434  0.09981287  1
  O  O188  1  0.68733577  0.42827624  0.07084683  1
  O  O189  1  0.31266423  0.57172376  0.92915317  1
  O  O190  1  0.19245947  0.78156620  0.37789500  1
  O  O191  1  0.80754053  0.21843380  0.62210500  1
  O  O192  1  0.29374531  0.07520027  0.43164127  1
  O  O193  1  0.70625469  0.92479973  0.56835873  1
  O  O194  1  0.48770290  0.91925642  0.42230630  1
  O  O195  1  0.51229710  0.08074358  0.57769370  1
  O  O196  1  0.68821992  0.10218549  0.49390303  1
  O  O197  1  0.31178008  0.89781451  0.50609697  1
  O  O198  1  0.14004681  0.74678087  0.25470248  1
  O  O199  1  0.85995319  0.25321913  0.74529752  1
  O  O200  1  0.13886296  0.03545993  0.32115610  1
  O  O201  1  0.86113704  0.96454007  0.67884390  1
  O  O202  1  0.24328068  0.95636470  0.19007307  1
  O  O203  1  0.75671932  0.04363530  0.80992693  1
  O  O204  1  0.99625412  0.87559377  0.20154503  1
  O  O205  1  0.00374588  0.12440623  0.79845497  1
  O  O206  1  0.36430024  0.21046197  0.35283558  1
  O  O207  1  0.63569976  0.78953803  0.64716442  1
  O  O208  1  0.48513018  0.09152550  0.24063923  1
  O  O209  1  0.51486982  0.90847450  0.75936077  1
  O  O210  1  0.38839608  0.67762732  0.66268227  1
  O  O211  1  0.61160392  0.32237268  0.33731773  1
  O  O212  1  0.60429841  0.11379858  0.38295843  1
  O  O213  1  0.39570159  0.88620142  0.61704157  1
  O  O214  1  0.34419634  0.15540721  0.15981066  1
  O  O215  1  0.65580366  0.84459279  0.84018934  1
  O  O216  1  0.50061159  0.59009957  0.74607226  1
  O  O217  1  0.49938841  0.40990043  0.25392774  1
  O  O218  1  0.63197729  0.62086442  0.87817135  1
  O  O219  1  0.36802271  0.37913558  0.12182865  1
  O  O220  1  0.61164555  0.29841820  0.14972984  1
  O  O221  1  0.38835445  0.70158180  0.85027016  1
  O  O222  1  0.82951813  0.72005373  0.24399513  1
  O  O223  1  0.17048187  0.27994627  0.75600487  1
  O  O224  1  0.83952026  0.46235197  0.17982371  1
  O  O225  1  0.16047974  0.53764803  0.82017629  1
  O  O226  1  0.00706028  0.59370494  0.30861847  1
  O  O227  1  0.99293972  0.40629506  0.69138153  1
  O  O228  1  0.25797423  0.48874342  0.69433088  1
  O  O229  1  0.74202577  0.51125658  0.30566912  1
  O  O230  1  0.19490131  0.23420775  0.41052622  1
  O  O231  1  0.80509869  0.76579225  0.58947378  1
  O  O232  1  0.77830000  0.26240267  0.09148135  1
  O  O233  1  0.22170000  0.73759733  0.90851865  1
  O  O234  1  0.77836131  0.89348479  0.20308243  1
  O  O235  1  0.22163869  0.10651521  0.79691757  1
  O  O236  1  0.72757727  0.46966988  0.91283855  1
  O  O237  1  0.27242273  0.53033012  0.08716145  1
  O  O238  1  0.23175617  0.60237764  0.30493449  1
  O  O239  1  0.76824383  0.39762236  0.69506551  1
  O  O240  1  0.40796963  0.96553098  0.12346115  1
  O  O241  1  0.59203037  0.03446902  0.87653885  1
  O  O242  1  0.41992787  0.46572103  0.63057601  1
  O  O243  1  0.58007213  0.53427897  0.36942399  1
  O  O244  1  0.70161902  0.94721385  0.39684010  1
  O  O245  1  0.29838098  0.05278615  0.60315990  1
  F  F246  1  0.34355289  0.96622259  0.31767023  1
  F  F247  1  0.65644711  0.03377741  0.68232977  1
