# generated using pymatgen
data_TaVO5
_symmetry_space_group_name_H-M   'P 1'
_cell_length_a   5.58378400
_cell_length_b   13.92423100
_cell_length_c   14.05088892
_cell_angle_alpha   59.93409809
_cell_angle_beta   90.00000000
_cell_angle_gamma   90.00000000
_symmetry_Int_Tables_number   1
_chemical_formula_structural   TaVO5
_chemical_formula_sum   'Ta8 V8 O40'
_cell_volume   945.46504243
_cell_formula_units_Z   8
loop_
 _symmetry_equiv_pos_site_id
 _symmetry_equiv_pos_as_xyz
  1  'x, y, z'
loop_
 _atom_site_type_symbol
 _atom_site_label
 _atom_site_symmetry_multiplicity
 _atom_site_fract_x
 _atom_site_fract_y
 _atom_site_fract_z
 _atom_site_occupancy
  Ta  Ta0  1  0.75425400  0.56018300  0.79737300  1
  Ta  Ta1  1  0.25425400  0.43981700  0.70262700  1
  Ta  Ta2  1  0.24574600  0.43981700  0.20262700  1
  Ta  Ta3  1  0.74574600  0.56018300  0.29737300  1
  Ta  Ta4  1  0.75584800  0.05724600  0.64334500  1
  Ta  Ta5  1  0.25584800  0.94275400  0.85665500  1
  Ta  Ta6  1  0.24415200  0.94275400  0.35665500  1
  Ta  Ta7  1  0.74415200  0.05724600  0.14334500  1
  V  V8  1  0.73716400  0.84675200  0.55951100  1
  V  V9  1  0.23716400  0.15324800  0.94048900  1
  V  V10  1  0.26283600  0.15324800  0.44048900  1
  V  V11  1  0.76283600  0.84675200  0.05951100  1
  V  V12  1  0.76218300  0.34621200  0.59136300  1
  V  V13  1  0.26218300  0.65378800  0.90863700  1
  V  V14  1  0.23781700  0.65378800  0.40863700  1
  V  V15  1  0.73781700  0.34621200  0.09136300  1
  O  O16  1  0.47501500  0.00466100  0.73516500  1
  O  O17  1  0.97501500  0.99533900  0.76483500  1
  O  O18  1  0.52498500  0.99533900  0.26483500  1
  O  O19  1  0.02498500  0.00466100  0.23516500  1
  O  O20  1  0.97860200  0.49198800  0.74601800  1
  O  O21  1  0.47860200  0.50801200  0.75398200  1
  O  O22  1  0.02139800  0.50801200  0.25398200  1
  O  O23  1  0.52139800  0.49198800  0.24601800  1
  O  O24  1  0.53589000  0.12283400  0.50568300  1
  O  O25  1  0.03589000  0.87716600  0.99431700  1
  O  O26  1  0.46411000  0.87716600  0.49431700  1
  O  O27  1  0.96411000  0.12283400  0.00568300  1
  O  O28  1  0.03768000  0.11958300  0.53551700  1
  O  O29  1  0.53768000  0.88041700  0.96448300  1
  O  O30  1  0.96232000  0.88041700  0.46448300  1
  O  O31  1  0.46232000  0.11958300  0.03551700  1
  O  O32  1  0.02893300  0.61823300  0.85181800  1
  O  O33  1  0.52893300  0.38176700  0.64818200  1
  O  O34  1  0.97106700  0.38176700  0.14818200  1
  O  O35  1  0.47106700  0.61823300  0.35181800  1
  O  O36  1  0.53011200  0.62992800  0.86376300  1
  O  O37  1  0.03011200  0.37007200  0.63623700  1
  O  O38  1  0.46988800  0.37007200  0.13623700  1
  O  O39  1  0.96988800  0.62992800  0.36376300  1
  O  O40  1  0.74329700  0.20420300  0.63211300  1
  O  O41  1  0.24329700  0.79579700  0.86788700  1
  O  O42  1  0.25670300  0.79579700  0.36788700  1
  O  O43  1  0.75670300  0.20420300  0.13211300  1
  O  O44  1  0.75501100  0.70482700  0.65929700  1
  O  O45  1  0.25501100  0.29517300  0.84070300  1
  O  O46  1  0.24498900  0.29517300  0.34070300  1
  O  O47  1  0.74498900  0.70482700  0.15929700  1
  O  O48  1  0.75164200  0.42572700  0.94839600  1
  O  O49  1  0.25164200  0.57427300  0.55160400  1
  O  O50  1  0.24835800  0.57427300  0.05160400  1
  O  O51  1  0.74835800  0.42572700  0.44839600  1
  O  O52  1  0.77574500  0.92440300  0.62496300  1
  O  O53  1  0.27574500  0.07559700  0.87503700  1
  O  O54  1  0.22425500  0.07559700  0.37503700  1
  O  O55  1  0.72425500  0.92440300  0.12496300  1
