# generated using pymatgen
data_AgH6C2N5O4
_symmetry_space_group_name_H-M   'P 1'
_cell_length_a   8.89712600
_cell_length_b   9.18628200
_cell_length_c   11.06388964
_cell_angle_alpha   61.45143196
_cell_angle_beta   90.00000000
_cell_angle_gamma   90.00000000
_symmetry_Int_Tables_number   1
_chemical_formula_structural   AgH6C2N5O4
_chemical_formula_sum   'Ag4 H24 C8 N20 O16'
_cell_volume   794.32049648
_cell_formula_units_Z   4
loop_
 _symmetry_equiv_pos_site_id
 _symmetry_equiv_pos_as_xyz
  1  'x, y, z'
loop_
 _atom_site_type_symbol
 _atom_site_label
 _atom_site_symmetry_multiplicity
 _atom_site_fract_x
 _atom_site_fract_y
 _atom_site_fract_z
 _atom_site_occupancy
  Ag  Ag0  1  0.45323000  0.31114500  0.54765300  1
  Ag  Ag1  1  0.04677000  0.31114500  0.04765300  1
  Ag  Ag2  1  0.54677000  0.68885500  0.45234700  1
  Ag  Ag3  1  0.95323000  0.68885500  0.95234700  1
  H  H4  1  0.40567500  0.39120300  0.27898600  1
  H  H5  1  0.09432500  0.39120300  0.77898600  1
  H  H6  1  0.59432500  0.60879700  0.72101400  1
  H  H7  1  0.90567500  0.60879700  0.22101400  1
  H  H8  1  0.65865600  0.08154500  0.51247600  1
  H  H9  1  0.84134400  0.08154500  0.01247600  1
  H  H10  1  0.34134400  0.91845500  0.48752400  1
  H  H11  1  0.15865600  0.91845500  0.98752400  1
  H  H12  1  0.72370300  0.04555000  0.37929000  1
  H  H13  1  0.77629700  0.04555000  0.87929000  1
  H  H14  1  0.27629700  0.95445000  0.62071000  1
  H  H15  1  0.22370300  0.95445000  0.12071000  1
  H  H16  1  0.39209100  0.40402800  0.73607800  1
  H  H17  1  0.10790900  0.40402800  0.23607800  1
  H  H18  1  0.60790900  0.59597200  0.26392200  1
  H  H19  1  0.89209100  0.59597200  0.76392200  1
  H  H20  1  0.33851000  0.20935600  0.79814800  1
  H  H21  1  0.16149000  0.20935600  0.29814800  1
  H  H22  1  0.66149000  0.79064400  0.20185200  1
  H  H23  1  0.83851000  0.79064400  0.70185200  1
  H  H24  1  0.51509600  0.25423800  0.80899000  1
  H  H25  1  0.98490400  0.25423800  0.30899000  1
  H  H26  1  0.48490400  0.74576200  0.19101000  1
  H  H27  1  0.01509600  0.74576200  0.69101000  1
  C  C28  1  0.54964300  0.23330400  0.18499100  1
  C  C29  1  0.95035700  0.23330400  0.68499100  1
  C  C30  1  0.45035700  0.76669600  0.81500900  1
  C  C31  1  0.04964300  0.76669600  0.31500900  1
  C  C32  1  0.55796100  0.22060800  0.32440300  1
  C  C33  1  0.94203900  0.22060800  0.82440300  1
  C  C34  1  0.44203900  0.77939200  0.67559700  1
  C  C35  1  0.05796100  0.77939200  0.17559700  1
  N  N36  1  0.44833000  0.13321500  0.16445700  1
  N  N37  1  0.05167000  0.13321500  0.66445700  1
  N  N38  1  0.55167000  0.86678500  0.83554300  1
  N  N39  1  0.94833000  0.86678500  0.33554300  1
  N  N40  1  0.63776900  0.35395500  0.08154100  1
  N  N41  1  0.86223100  0.35395500  0.58154100  1
  N  N42  1  0.36223100  0.64604500  0.91845900  1
  N  N43  1  0.13776900  0.64604500  0.41845900  1
  N  N44  1  0.47423200  0.31338200  0.35741500  1
  N  N45  1  0.02576800  0.31338200  0.85741500  1
  N  N46  1  0.52576800  0.68661800  0.64258500  1
  N  N47  1  0.97423200  0.68661800  0.14258500  1
  N  N48  1  0.65452200  0.10822500  0.41176600  1
  N  N49  1  0.84547800  0.10822500  0.91176600  1
  N  N50  1  0.34547800  0.89177500  0.58823400  1
  N  N51  1  0.15452200  0.89177500  0.08823400  1
  N  N52  1  0.42273600  0.29131500  0.74618600  1
  N  N53  1  0.07726400  0.29131500  0.24618600  1
  N  N54  1  0.57726400  0.70868500  0.25381400  1
  N  N55  1  0.92273600  0.70868500  0.75381400  1
  O  O56  1  0.36160400  0.04463200  0.26646200  1
  O  O57  1  0.13839600  0.04463200  0.76646200  1
  O  O58  1  0.63839600  0.95536800  0.73353800  1
  O  O59  1  0.86160400  0.95536800  0.23353800  1
  O  O60  1  0.43888100  0.12572400  0.05446000  1
  O  O61  1  0.06111900  0.12572400  0.55446000  1
  O  O62  1  0.56111900  0.87427600  0.94554000  1
  O  O63  1  0.93888100  0.87427600  0.44554000  1
  O  O64  1  0.72289100  0.43454600  0.12078000  1
  O  O65  1  0.77710900  0.43454600  0.62078000  1
  O  O66  1  0.27710900  0.56545400  0.87922000  1
  O  O67  1  0.22289100  0.56545400  0.37922000  1
  O  O68  1  0.63305100  0.38252500  0.95893900  1
  O  O69  1  0.86694900  0.38252500  0.45893900  1
  O  O70  1  0.36694900  0.61747500  0.04106100  1
  O  O71  1  0.13305100  0.61747500  0.54106100  1
