# generated using pymatgen
data_YbH4I3O11
_symmetry_space_group_name_H-M   'P 1'
_cell_length_a   7.18686990
_cell_length_b   7.54698903
_cell_length_c   10.77988267
_cell_angle_alpha   94.58665540
_cell_angle_beta   106.02582794
_cell_angle_gamma   108.62887485
_symmetry_Int_Tables_number   1
_chemical_formula_structural   YbH4I3O11
_chemical_formula_sum   'Yb2 H8 I6 O22'
_cell_volume   523.37208145
_cell_formula_units_Z   2
loop_
 _symmetry_equiv_pos_site_id
 _symmetry_equiv_pos_as_xyz
  1  'x, y, z'
loop_
 _atom_site_type_symbol
 _atom_site_label
 _atom_site_symmetry_multiplicity
 _atom_site_fract_x
 _atom_site_fract_y
 _atom_site_fract_z
 _atom_site_occupancy
  Yb  Yb0  1  0.60143000  0.91677100  0.78421700  1
  Yb  Yb1  1  0.39857000  0.08322900  0.21578300  1
  H  H2  1  0.77943100  0.59977200  0.71375100  1
  H  H3  1  0.22056900  0.40022800  0.28624900  1
  H  H4  1  0.73932800  0.60627600  0.85200100  1
  H  H5  1  0.26067200  0.39372400  0.14799900  1
  H  H6  1  0.30018500  0.42855300  0.62159500  1
  H  H7  1  0.69981500  0.57144700  0.37840500  1
  H  H8  1  0.35993900  0.24512900  0.60327100  1
  H  H9  1  0.64006100  0.75487100  0.39672900  1
  I  I10  1  0.19856000  0.65315300  0.93212000  1
  I  I11  1  0.80144000  0.34684700  0.06788000  1
  I  I12  1  0.20946300  0.13308800  0.83243800  1
  I  I13  1  0.79053700  0.86691200  0.16756300  1
  I  I14  1  0.76804200  0.23163900  0.55316100  1
  I  I15  1  0.23195800  0.76836100  0.44683900  1
  O  O16  1  0.36658200  0.78142600  0.09841500  1
  O  O17  1  0.63341800  0.21857400  0.90158500  1
  O  O18  1  0.14173200  0.41024900  0.97118700  1
  O  O19  1  0.85826800  0.58975100  0.02881300  1
  O  O20  1  0.40308300  0.65649400  0.86311400  1
  O  O21  1  0.59691700  0.34350600  0.13688600  1
  O  O22  1  0.20408900  0.03074400  0.98178900  1
  O  O23  1  0.79591100  0.96925600  0.01821100  1
  O  O24  1  0.93074000  0.06497400  0.74642400  1
  O  O25  1  0.06926000  0.93502600  0.25357600  1
  O  O26  1  0.25771200  0.94062200  0.74750300  1
  O  O27  1  0.74228800  0.05937800  0.25249700  1
  O  O28  1  0.91422600  0.46281800  0.65987200  1
  O  O29  1  0.08577400  0.53718200  0.34012800  1
  O  O30  1  0.61265600  0.30445900  0.41528400  1
  O  O31  1  0.38734400  0.69554100  0.58471600  1
  O  O32  1  0.56174600  0.12921500  0.62556900  1
  O  O33  1  0.43825400  0.87078500  0.37443100  1
  O  O34  1  0.73440500  0.66886900  0.77482200  1
  O  O35  1  0.26559500  0.33113100  0.22517800  1
  O  O36  1  0.24989900  0.28961100  0.61733200  1
  O  O37  1  0.75010100  0.71038900  0.38266800  1
