# generated using pymatgen
data_GaAu(I4N)2
_symmetry_space_group_name_H-M   'P 1'
_cell_length_a   6.76751600
_cell_length_b   13.10241100
_cell_length_c   22.22992500
_cell_angle_alpha   90.00000000
_cell_angle_beta   90.00000000
_cell_angle_gamma   90.00000000
_symmetry_Int_Tables_number   1
_chemical_formula_structural   GaAu(I4N)2
_chemical_formula_sum   'Ga4 Au4 I32 N8'
_cell_volume   1971.14470197
_cell_formula_units_Z   4
loop_
 _symmetry_equiv_pos_site_id
 _symmetry_equiv_pos_as_xyz
  1  'x, y, z'
loop_
 _atom_site_type_symbol
 _atom_site_label
 _atom_site_symmetry_multiplicity
 _atom_site_fract_x
 _atom_site_fract_y
 _atom_site_fract_z
 _atom_site_occupancy
  Ga  Ga0  1  0.58992500  0.77905700  0.25000000  1
  Ga  Ga1  1  0.91007500  0.27905700  0.25000000  1
  Ga  Ga2  1  0.41007500  0.22094300  0.75000000  1
  Ga  Ga3  1  0.08992500  0.72094300  0.75000000  1
  Au  Au4  1  0.50000000  0.50000000  0.00000000  1
  Au  Au5  1  0.00000000  0.00000000  0.50000000  1
  Au  Au6  1  0.50000000  0.50000000  0.50000000  1
  Au  Au7  1  0.00000000  0.00000000  0.00000000  1
  I  I8  1  0.73910000  0.61706700  0.93444300  1
  I  I9  1  0.76090000  0.11706700  0.56555700  1
  I  I10  1  0.26090000  0.38293300  0.43444300  1
  I  I11  1  0.23910000  0.88293300  0.06555700  1
  I  I12  1  0.26090000  0.38293300  0.06555700  1
  I  I13  1  0.23910000  0.88293300  0.43444300  1
  I  I14  1  0.73910000  0.61706700  0.56555700  1
  I  I15  1  0.76090000  0.11706700  0.93444300  1
  I  I16  1  0.75614000  0.38067000  0.05851100  1
  I  I17  1  0.74386000  0.88067000  0.44148900  1
  I  I18  1  0.24386000  0.61933000  0.55851100  1
  I  I19  1  0.25614000  0.11933000  0.94148900  1
  I  I20  1  0.24386000  0.61933000  0.94148900  1
  I  I21  1  0.25614000  0.11933000  0.55851100  1
  I  I22  1  0.75614000  0.38067000  0.44148900  1
  I  I23  1  0.74386000  0.88067000  0.05851100  1
  I  I24  1  0.96915500  0.79956600  0.25000000  1
  I  I25  1  0.53084500  0.29956600  0.25000000  1
  I  I26  1  0.03084500  0.20043400  0.75000000  1
  I  I27  1  0.46915500  0.70043400  0.75000000  1
  I  I28  1  0.43437200  0.95857100  0.25000000  1
  I  I29  1  0.06562800  0.45857100  0.25000000  1
  I  I30  1  0.56562800  0.04142900  0.75000000  1
  I  I31  1  0.93437200  0.54142900  0.75000000  1
  I  I32  1  0.49417700  0.67924800  0.15309100  1
  I  I33  1  0.00582300  0.17924800  0.34690900  1
  I  I34  1  0.50582300  0.32075200  0.65309100  1
  I  I35  1  0.99417700  0.82075200  0.84690900  1
  I  I36  1  0.50582300  0.32075200  0.84690900  1
  I  I37  1  0.99417700  0.82075200  0.65309100  1
  I  I38  1  0.49417700  0.67924800  0.34690900  1
  I  I39  1  0.00582300  0.17924800  0.15309100  1
  N  N40  1  0.49097100  0.86712500  0.89725500  1
  N  N41  1  0.00902900  0.36712500  0.60274500  1
  N  N42  1  0.50902900  0.13287500  0.39725500  1
  N  N43  1  0.99097100  0.63287500  0.10274500  1
  N  N44  1  0.50902900  0.13287500  0.10274500  1
  N  N45  1  0.99097100  0.63287500  0.39725500  1
  N  N46  1  0.49097100  0.86712500  0.60274500  1
  N  N47  1  0.00902900  0.36712500  0.89725500  1
