# generated using pymatgen
data_LuMnSn2
_symmetry_space_group_name_H-M   'P 1'
_cell_length_a   8.96046400
_cell_length_b   10.25735000
_cell_length_c   11.27879000
_cell_angle_alpha   90.00000000
_cell_angle_beta   90.00000000
_cell_angle_gamma   90.00000000
_symmetry_Int_Tables_number   1
_chemical_formula_structural   LuMnSn2
_chemical_formula_sum   'Lu12 Mn12 Sn24'
_cell_volume   1036.64052998
_cell_formula_units_Z   12
loop_
 _symmetry_equiv_pos_site_id
 _symmetry_equiv_pos_as_xyz
  1  'x, y, z'
loop_
 _atom_site_type_symbol
 _atom_site_label
 _atom_site_symmetry_multiplicity
 _atom_site_fract_x
 _atom_site_fract_y
 _atom_site_fract_z
 _atom_site_occupancy
  Lu  Lu0  1  0.24043300  0.82851300  0.45234600  1
  Lu  Lu1  1  0.24043300  0.17148700  0.54765400  1
  Lu  Lu2  1  0.75956700  0.32851300  0.04765400  1
  Lu  Lu3  1  0.75956700  0.67148700  0.95234600  1
  Lu  Lu4  1  0.75956700  0.17148700  0.54765400  1
  Lu  Lu5  1  0.75956700  0.82851300  0.45234600  1
  Lu  Lu6  1  0.24043300  0.67148700  0.95234600  1
  Lu  Lu7  1  0.24043300  0.32851300  0.04765400  1
  Lu  Lu8  1  0.00000000  0.83471500  0.17902900  1
  Lu  Lu9  1  0.00000000  0.16528500  0.82097100  1
  Lu  Lu10  1  0.00000000  0.33471500  0.32097100  1
  Lu  Lu11  1  0.00000000  0.66528500  0.67902900  1
  Mn  Mn12  1  0.24919800  0.58860100  0.25092700  1
  Mn  Mn13  1  0.24919800  0.41139900  0.74907300  1
  Mn  Mn14  1  0.75080200  0.08860100  0.24907300  1
  Mn  Mn15  1  0.75080200  0.91139900  0.75092700  1
  Mn  Mn16  1  0.75080200  0.41139900  0.74907300  1
  Mn  Mn17  1  0.75080200  0.58860100  0.25092700  1
  Mn  Mn18  1  0.24919800  0.91139900  0.75092700  1
  Mn  Mn19  1  0.24919800  0.08860100  0.24907300  1
  Mn  Mn20  1  0.24404900  0.50000000  0.50000000  1
  Mn  Mn21  1  0.75595100  0.00000000  0.00000000  1
  Mn  Mn22  1  0.75595100  0.50000000  0.50000000  1
  Mn  Mn23  1  0.24404900  0.00000000  0.00000000  1
  Sn  Sn24  1  0.33665200  0.83776600  0.18128200  1
  Sn  Sn25  1  0.33665200  0.16223400  0.81871800  1
  Sn  Sn26  1  0.66334800  0.33776600  0.31871800  1
  Sn  Sn27  1  0.66334800  0.66223400  0.68128200  1
  Sn  Sn28  1  0.66334800  0.16223400  0.81871800  1
  Sn  Sn29  1  0.66334800  0.83776600  0.18128200  1
  Sn  Sn30  1  0.33665200  0.66223400  0.68128200  1
  Sn  Sn31  1  0.33665200  0.33776600  0.31871800  1
  Sn  Sn32  1  0.50000000  0.54223100  0.12362800  1
  Sn  Sn33  1  0.50000000  0.45776900  0.87637200  1
  Sn  Sn34  1  0.50000000  0.04223100  0.37637200  1
  Sn  Sn35  1  0.50000000  0.95776900  0.62362800  1
  Sn  Sn36  1  0.00000000  0.54054600  0.12277100  1
  Sn  Sn37  1  0.00000000  0.45945400  0.87722900  1
  Sn  Sn38  1  0.00000000  0.04054600  0.37722900  1
  Sn  Sn39  1  0.00000000  0.95945400  0.62277100  1
  Sn  Sn40  1  0.50000000  0.62825600  0.40573500  1
  Sn  Sn41  1  0.50000000  0.37174400  0.59426500  1
  Sn  Sn42  1  0.50000000  0.12825600  0.09426500  1
  Sn  Sn43  1  0.50000000  0.87174400  0.90573500  1
  Sn  Sn44  1  0.00000000  0.62887900  0.39781100  1
  Sn  Sn45  1  0.00000000  0.37112100  0.60218900  1
  Sn  Sn46  1  0.00000000  0.12887900  0.10218900  1
  Sn  Sn47  1  0.00000000  0.87112100  0.89781100  1
