# generated using pymatgen
data_FeCuH4S2O13
_symmetry_space_group_name_H-M   'P 1'
_cell_length_a   7.22822400
_cell_length_b   7.43005000
_cell_length_c   10.08086301
_cell_angle_alpha   74.13997735
_cell_angle_beta   90.00000000
_cell_angle_gamma   90.00000000
_symmetry_Int_Tables_number   1
_chemical_formula_structural   FeCuH4S2O13
_chemical_formula_sum   'Fe2 Cu2 H8 S4 O26'
_cell_volume   520.79346594
_cell_formula_units_Z   2
loop_
 _symmetry_equiv_pos_site_id
 _symmetry_equiv_pos_as_xyz
  1  'x, y, z'
loop_
 _atom_site_type_symbol
 _atom_site_label
 _atom_site_symmetry_multiplicity
 _atom_site_fract_x
 _atom_site_fract_y
 _atom_site_fract_z
 _atom_site_occupancy
  Fe  Fe0  1  0.50000000  0.00000000  0.00000000  1
  Fe  Fe1  1  0.00000000  0.00000000  0.00000000  1
  Cu  Cu2  1  0.25000000  0.39621600  0.34796500  1
  Cu  Cu3  1  0.75000000  0.60378400  0.65203500  1
  H  H4  1  0.25000000  0.74997500  0.05048700  1
  H  H5  1  0.75000000  0.25002500  0.94951300  1
  H  H6  1  0.44380400  0.57452700  0.73374400  1
  H  H7  1  0.94380400  0.42547300  0.26625600  1
  H  H8  1  0.55619600  0.42547300  0.26625600  1
  H  H9  1  0.05619600  0.57452700  0.73374400  1
  H  H10  1  0.25000000  0.07412900  0.44686900  1
  H  H11  1  0.75000000  0.92587100  0.55313100  1
  S  S12  1  0.25000000  0.36062100  0.01418800  1
  S  S13  1  0.75000000  0.63937900  0.98581200  1
  S  S14  1  0.25000000  0.11842400  0.71104900  1
  S  S15  1  0.75000000  0.88157600  0.28895100  1
  O  O16  1  0.25000000  0.48470400  0.10821000  1
  O  O17  1  0.75000000  0.51529600  0.89179000  1
  O  O18  1  0.41872200  0.23973300  0.04273400  1
  O  O19  1  0.91872200  0.76026700  0.95726600  1
  O  O20  1  0.58127800  0.76026700  0.95726600  1
  O  O21  1  0.08127800  0.23973300  0.04273400  1
  O  O22  1  0.25000000  0.48049400  0.87123300  1
  O  O23  1  0.75000000  0.51950600  0.12876700  1
  O  O24  1  0.41965800  0.10346000  0.79776400  1
  O  O25  1  0.91965800  0.89654000  0.20223600  1
  O  O26  1  0.58034200  0.89654000  0.20223600  1
  O  O27  1  0.08034200  0.10346000  0.79776400  1
  O  O28  1  0.25000000  0.30474400  0.60751900  1
  O  O29  1  0.75000000  0.69525600  0.39248100  1
  O  O30  1  0.25000000  0.97776300  0.63239300  1
  O  O31  1  0.75000000  0.02223700  0.36760700  1
  O  O32  1  0.25000000  0.88534300  0.04279000  1
  O  O33  1  0.75000000  0.11465700  0.95721000  1
  O  O34  1  0.25000000  0.62935000  0.35639600  1
  O  O35  1  0.75000000  0.37065000  0.64360400  1
  O  O36  1  0.49707800  0.62589300  0.63992800  1
  O  O37  1  0.99707800  0.37410700  0.36007200  1
  O  O38  1  0.50292200  0.37410700  0.36007200  1
  O  O39  1  0.00292200  0.62589300  0.63992800  1
  O  O40  1  0.25000000  0.15059200  0.34793800  1
  O  O41  1  0.75000000  0.84940800  0.65206200  1
