# generated using pymatgen
data_U2B6Os
_symmetry_space_group_name_H-M   'P 1'
_cell_length_a   3.59245100
_cell_length_b   9.31605500
_cell_length_c   11.39649800
_cell_angle_alpha   90.00000000
_cell_angle_beta   90.00000000
_cell_angle_gamma   90.00000000
_symmetry_Int_Tables_number   1
_chemical_formula_structural   U2B6Os
_chemical_formula_sum   'U8 B24 Os4'
_cell_volume   381.41196747
_cell_formula_units_Z   4
loop_
 _symmetry_equiv_pos_site_id
 _symmetry_equiv_pos_as_xyz
  1  'x, y, z'
loop_
 _atom_site_type_symbol
 _atom_site_label
 _atom_site_symmetry_multiplicity
 _atom_site_fract_x
 _atom_site_fract_y
 _atom_site_fract_z
 _atom_site_occupancy
  U  U0  1  0.00000000  0.33737900  0.40702300  1
  U  U1  1  0.00000000  0.66262100  0.59297700  1
  U  U2  1  0.00000000  0.83737900  0.09297700  1
  U  U3  1  0.00000000  0.16262100  0.90702300  1
  U  U4  1  0.00000000  0.95694700  0.39556900  1
  U  U5  1  0.00000000  0.04305300  0.60443100  1
  U  U6  1  0.00000000  0.45694700  0.10443100  1
  U  U7  1  0.00000000  0.54305300  0.89556900  1
  B  B8  1  0.50000000  0.54930800  0.43356000  1
  B  B9  1  0.50000000  0.45069200  0.56644000  1
  B  B10  1  0.50000000  0.04930800  0.06644000  1
  B  B11  1  0.50000000  0.95069200  0.93356000  1
  B  B12  1  0.50000000  0.74224600  0.42379000  1
  B  B13  1  0.50000000  0.25775400  0.57621000  1
  B  B14  1  0.50000000  0.24224600  0.07621000  1
  B  B15  1  0.50000000  0.75775400  0.92379000  1
  B  B16  1  0.50000000  0.80521100  0.27278800  1
  B  B17  1  0.50000000  0.19478900  0.72721200  1
  B  B18  1  0.50000000  0.30521100  0.22721200  1
  B  B19  1  0.50000000  0.69478900  0.77278800  1
  B  B20  1  0.50000000  0.64570800  0.18873000  1
  B  B21  1  0.50000000  0.35429200  0.81127000  1
  B  B22  1  0.50000000  0.14570800  0.31127000  1
  B  B23  1  0.50000000  0.85429200  0.68873000  1
  B  B24  1  0.50000000  0.98499900  0.21893400  1
  B  B25  1  0.50000000  0.01500100  0.78106600  1
  B  B26  1  0.50000000  0.48499900  0.28106600  1
  B  B27  1  0.50000000  0.51500100  0.71893400  1
  B  B28  1  0.50000000  0.64455900  0.04020000  1
  B  B29  1  0.50000000  0.35544100  0.95980000  1
  B  B30  1  0.50000000  0.14455900  0.45980000  1
  B  B31  1  0.50000000  0.85544100  0.54020000  1
  Os  Os32  1  0.00000000  0.64453600  0.31959900  1
  Os  Os33  1  0.00000000  0.35546400  0.68040100  1
  Os  Os34  1  0.00000000  0.14453600  0.18040100  1
  Os  Os35  1  0.00000000  0.85546400  0.81959900  1
