# generated using pymatgen
data_NaH12AuC4(SO3)4
_symmetry_space_group_name_H-M   'P 1'
_cell_length_a   5.63167600
_cell_length_b   9.12322150
_cell_length_c   10.17542146
_cell_angle_alpha   71.47892937
_cell_angle_beta   74.64879996
_cell_angle_gamma   76.27187205
_symmetry_Int_Tables_number   1
_chemical_formula_structural   NaH12AuC4(SO3)4
_chemical_formula_sum   'Na1 H12 Au1 C4 S4 O12'
_cell_volume   471.27947300
_cell_formula_units_Z   1
loop_
 _symmetry_equiv_pos_site_id
 _symmetry_equiv_pos_as_xyz
  1  'x, y, z'
loop_
 _atom_site_type_symbol
 _atom_site_label
 _atom_site_symmetry_multiplicity
 _atom_site_fract_x
 _atom_site_fract_y
 _atom_site_fract_z
 _atom_site_occupancy
  Na  Na0  1  0.00000000  0.50000000  0.50000000  1
  H  H1  1  0.34583600  0.17624200  0.88317600  1
  H  H2  1  0.65416400  0.82375800  0.11682400  1
  H  H3  1  0.25864400  0.06537200  0.79088200  1
  H  H4  1  0.74135600  0.93462800  0.20911800  1
  H  H5  1  0.55511900  0.00241000  0.84722600  1
  H  H6  1  0.44488100  0.99759000  0.15277400  1
  H  H7  1  0.70605300  0.48841700  0.14308100  1
  H  H8  1  0.29394700  0.51158300  0.85691900  1
  H  H9  1  0.66343600  0.30775000  0.12524400  1
  H  H10  1  0.33656400  0.69225000  0.87475600  1
  H  H11  1  0.57332900  0.34331100  0.29784500  1
  H  H12  1  0.42667100  0.65668900  0.70215500  1
  Au  Au13  1  0.00000000  0.00000000  0.50000000  1
  C  C14  1  0.41494600  0.10276800  0.80959300  1
  C  C15  1  0.58505400  0.89723200  0.19040700  1
  C  C16  1  0.70446300  0.36342200  0.19543600  1
  C  C17  1  0.29553700  0.63657800  0.80456400  1
  S  S18  1  0.01021000  0.28068000  0.22339800  1
  S  S19  1  0.98979000  0.71932000  0.77660200  1
  S  S20  1  0.55497800  0.22173800  0.64569500  1
  S  S21  1  0.44502200  0.77826200  0.35430500  1
  O  O22  1  0.00062900  0.10128300  0.29045400  1
  O  O23  1  0.99937100  0.89871700  0.70954600  1
  O  O24  1  0.64215400  0.11200600  0.54553600  1
  O  O25  1  0.35784600  0.88799400  0.45446400  1
  O  O26  1  0.76420300  0.27427200  0.66489300  1
  O  O27  1  0.23579700  0.72572800  0.33510700  1
  O  O28  1  0.18006000  0.29254400  0.08666700  1
  O  O29  1  0.81994000  0.70745600  0.91333300  1
  O  O30  1  0.06289300  0.34757300  0.32219700  1
  O  O31  1  0.93710700  0.65242700  0.67780300  1
  O  O32  1  0.35863200  0.34042000  0.58824900  1
  O  O33  1  0.64136800  0.65958000  0.41175100  1
