# generated using pymatgen
data_C10I3N4
_symmetry_space_group_name_H-M   'P 1'
_cell_length_a   7.50368900
_cell_length_b   8.45970200
_cell_length_c   11.33160861
_cell_angle_alpha   87.21908719
_cell_angle_beta   90.00000000
_cell_angle_gamma   90.00000000
_symmetry_Int_Tables_number   1
_chemical_formula_structural   C10I3N4
_chemical_formula_sum   'C20 I6 N8'
_cell_volume   718.47177306
_cell_formula_units_Z   2
loop_
 _symmetry_equiv_pos_site_id
 _symmetry_equiv_pos_as_xyz
  1  'x, y, z'
loop_
 _atom_site_type_symbol
 _atom_site_label
 _atom_site_symmetry_multiplicity
 _atom_site_fract_x
 _atom_site_fract_y
 _atom_site_fract_z
 _atom_site_occupancy
  C  C0  1  0.07856800  0.04710500  0.50337400  1
  C  C1  1  0.57856800  0.95289500  0.49662600  1
  C  C2  1  0.92143200  0.95289500  0.49662600  1
  C  C3  1  0.42143200  0.04710500  0.50337400  1
  C  C4  1  0.09452700  0.33496400  0.55145000  1
  C  C5  1  0.59452700  0.66503600  0.44855000  1
  C  C6  1  0.90547300  0.66503600  0.44855000  1
  C  C7  1  0.40547300  0.33496400  0.55145000  1
  C  C8  1  0.25000000  0.99267200  0.49595200  1
  C  C9  1  0.75000000  0.00732800  0.50404800  1
  C  C10  1  0.25000000  0.46175900  0.70267200  1
  C  C11  1  0.75000000  0.53824100  0.29732800  1
  C  C12  1  0.25000000  0.29454000  0.88506300  1
  C  C13  1  0.75000000  0.70546000  0.11493700  1
  C  C14  1  0.25000000  0.20814000  0.97869900  1
  C  C15  1  0.75000000  0.79186000  0.02130100  1
  C  C16  1  0.25000000  0.12518600  0.07994800  1
  C  C17  1  0.75000000  0.87481400  0.92005200  1
  C  C18  1  0.25000000  0.04239100  0.17797700  1
  C  C19  1  0.75000000  0.95760900  0.82202300  1
  I  I20  1  0.25000000  0.55992600  0.26229100  1
  I  I21  1  0.75000000  0.44007400  0.73770900  1
  I  I22  1  0.25000000  0.65274100  0.02583500  1
  I  I23  1  0.75000000  0.34725900  0.97416500  1
  I  I24  1  0.25000000  0.70671500  0.73700900  1
  I  I25  1  0.75000000  0.29328500  0.26299100  1
  N  N26  1  0.25000000  0.34737400  0.77912900  1
  N  N27  1  0.75000000  0.65262600  0.22087100  1
  N  N28  1  0.04659600  0.20798600  0.52009700  1
  N  N29  1  0.54659600  0.79201400  0.47990300  1
  N  N30  1  0.95340400  0.79201400  0.47990300  1
  N  N31  1  0.45340400  0.20798600  0.52009700  1
  N  N32  1  0.25000000  0.41817900  0.57933700  1
  N  N33  1  0.75000000  0.58182100  0.42066300  1
