# generated using pymatgen
data_Sr3WO6
_symmetry_space_group_name_H-M   'P 1'
_cell_length_a   10.30841716
_cell_length_b   10.30841716
_cell_length_c   10.32535700
_cell_angle_alpha   80.94001597
_cell_angle_beta   80.94001597
_cell_angle_gamma   120.58378030
_symmetry_Int_Tables_number   1
_chemical_formula_structural   Sr3WO6
_chemical_formula_sum   'Sr18 W6 O36'
_cell_volume   895.62012747
_cell_formula_units_Z   6
loop_
 _symmetry_equiv_pos_site_id
 _symmetry_equiv_pos_as_xyz
  1  'x, y, z'
loop_
 _atom_site_type_symbol
 _atom_site_label
 _atom_site_symmetry_multiplicity
 _atom_site_fract_x
 _atom_site_fract_y
 _atom_site_fract_z
 _atom_site_occupancy
  Sr  Sr0  1  0.81340400  0.25957700  0.21262500  1
  Sr  Sr1  1  0.25957700  0.81340400  0.71262500  1
  Sr  Sr2  1  0.94144900  0.09844200  0.78642000  1
  Sr  Sr3  1  0.09844200  0.94144900  0.28642000  1
  Sr  Sr4  1  0.38419700  0.52186900  0.24187100  1
  Sr  Sr5  1  0.52186900  0.38419700  0.74187100  1
  Sr  Sr6  1  0.28630200  0.49436200  0.62753600  1
  Sr  Sr7  1  0.49436200  0.28630200  0.12753600  1
  Sr  Sr8  1  0.38770700  0.85320200  0.34884900  1
  Sr  Sr9  1  0.85320200  0.38770700  0.84884900  1
  Sr  Sr10  1  0.65264200  0.13341200  0.61321300  1
  Sr  Sr11  1  0.13341200  0.65264200  0.11321300  1
  Sr  Sr12  1  0.02269800  0.20457600  0.42835300  1
  Sr  Sr13  1  0.20457600  0.02269800  0.92835300  1
  Sr  Sr14  1  0.93124000  0.78275400  0.64502600  1
  Sr  Sr15  1  0.78275400  0.93124000  0.14502600  1
  Sr  Sr16  1  0.72082800  0.53677900  0.37023400  1
  Sr  Sr17  1  0.53677900  0.72082800  0.87023400  1
  W  W18  1  0.98882900  0.49678600  0.50436500  1
  W  W19  1  0.49678600  0.98882900  0.00436500  1
  W  W20  1  0.16617800  0.33532700  0.99385700  1
  W  W21  1  0.33532700  0.16617800  0.49385700  1
  W  W22  1  0.83179600  0.66822200  0.00011100  1
  W  W23  1  0.66822200  0.83179600  0.50011100  1
  O  O24  1  0.06817100  0.60800000  0.63650000  1
  O  O25  1  0.60800000  0.06817100  0.13650000  1
  O  O26  1  0.87276300  0.34662600  0.40942900  1
  O  O27  1  0.34662600  0.87276300  0.90942900  1
  O  O28  1  0.95291600  0.30847500  0.63694900  1
  O  O29  1  0.30847500  0.95291600  0.13694900  1
  O  O30  1  0.03406500  0.66530100  0.36164400  1
  O  O31  1  0.66530100  0.03406500  0.86164400  1
  O  O32  1  0.78048100  0.45146000  0.60200500  1
  O  O33  1  0.45146000  0.78048100  0.10200500  1
  O  O34  1  0.19289600  0.52995900  0.41896700  1
  O  O35  1  0.52995900  0.19289600  0.91896700  1
  O  O36  1  0.22402500  0.53406100  0.87133400  1
  O  O37  1  0.53406100  0.22402500  0.37133400  1
  O  O38  1  0.86462000  0.49668200  0.05888100  1
  O  O39  1  0.49668200  0.86462000  0.55888100  1
  O  O40  1  0.03000500  0.78993400  0.85455500  1
  O  O41  1  0.78993400  0.03000500  0.35455500  1
  O  O42  1  0.38062900  0.42865000  0.00753100  1
  O  O43  1  0.42865000  0.38062900  0.50753100  1
  O  O44  1  0.64150000  0.55897200  0.15272000  1
  O  O45  1  0.55897200  0.64150000  0.65272000  1
  O  O46  1  0.72924200  0.56030500  0.87219300  1
  O  O47  1  0.56030500  0.72924200  0.37219300  1
  O  O48  1  0.79208900  0.83146100  0.94230900  1
  O  O49  1  0.83146100  0.79208900  0.44230900  1
  O  O50  1  0.11370800  0.39069900  0.15967800  1
  O  O51  1  0.39069900  0.11370800  0.65967800  1
  O  O52  1  0.94584700  0.23501900  0.98454500  1
  O  O53  1  0.23501900  0.94584700  0.48454500  1
  O  O54  1  0.22166000  0.27597300  0.82661500  1
  O  O55  1  0.27597300  0.22166000  0.32661500  1
  O  O56  1  0.95036600  0.77838200  0.12088700  1
  O  O57  1  0.77838200  0.95036600  0.62088700  1
  O  O58  1  0.09952300  0.12323700  0.09578800  1
  O  O59  1  0.12323700  0.09952300  0.59578800  1
