# generated using pymatgen
data_KBCNF3
_symmetry_space_group_name_H-M   'P 1'
_cell_length_a   6.61699200
_cell_length_b   10.27516100
_cell_length_c   13.67203300
_cell_angle_alpha   90.00000000
_cell_angle_beta   90.00000000
_cell_angle_gamma   90.00000000
_symmetry_Int_Tables_number   1
_chemical_formula_structural   KBCNF3
_chemical_formula_sum   'K8 B8 C8 N8 F24'
_cell_volume   929.57052172
_cell_formula_units_Z   8
loop_
 _symmetry_equiv_pos_site_id
 _symmetry_equiv_pos_as_xyz
  1  'x, y, z'
loop_
 _atom_site_type_symbol
 _atom_site_label
 _atom_site_symmetry_multiplicity
 _atom_site_fract_x
 _atom_site_fract_y
 _atom_site_fract_z
 _atom_site_occupancy
  K  K0  1  0.00249600  0.61999000  0.12455100  1
  K  K1  1  0.49750400  0.11999000  0.37544900  1
  K  K2  1  0.49750400  0.38001000  0.62455100  1
  K  K3  1  0.00249600  0.88001000  0.87544900  1
  K  K4  1  0.99750400  0.38001000  0.87544900  1
  K  K5  1  0.50249600  0.88001000  0.62455100  1
  K  K6  1  0.50249600  0.61999000  0.37544900  1
  K  K7  1  0.99750400  0.11999000  0.12455100  1
  B  B8  1  0.62810400  0.36998300  0.15058500  1
  B  B9  1  0.87189600  0.86998300  0.34941500  1
  B  B10  1  0.87189600  0.63001700  0.65058500  1
  B  B11  1  0.62810400  0.13001700  0.84941500  1
  B  B12  1  0.37189600  0.63001700  0.84941500  1
  B  B13  1  0.12810400  0.13001700  0.65058500  1
  B  B14  1  0.12810400  0.36998300  0.34941500  1
  B  B15  1  0.37189600  0.86998300  0.15058500  1
  C  C16  1  0.58449800  0.88308600  0.09359000  1
  C  C17  1  0.91550200  0.38308600  0.40641000  1
  C  C18  1  0.91550200  0.11691400  0.59359000  1
  C  C19  1  0.58449800  0.61691400  0.90641000  1
  C  C20  1  0.41550200  0.11691400  0.90641000  1
  C  C21  1  0.08449800  0.61691400  0.59359000  1
  C  C22  1  0.08449800  0.88308600  0.40641000  1
  C  C23  1  0.41550200  0.38308600  0.09359000  1
  N  N24  1  0.73871300  0.89381800  0.05298600  1
  N  N25  1  0.76128700  0.39381800  0.44701400  1
  N  N26  1  0.76128700  0.10618200  0.55298600  1
  N  N27  1  0.73871300  0.60618200  0.94701400  1
  N  N28  1  0.26128700  0.10618200  0.94701400  1
  N  N29  1  0.23871300  0.60618200  0.55298600  1
  N  N30  1  0.23871300  0.89381800  0.44701400  1
  N  N31  1  0.26128700  0.39381800  0.05298600  1
  F  F32  1  0.87437600  0.75776500  0.28902600  1
  F  F33  1  0.62562400  0.25776500  0.21097400  1
  F  F34  1  0.62562400  0.24223500  0.78902600  1
  F  F35  1  0.87437600  0.74223500  0.71097400  1
  F  F36  1  0.12562400  0.24223500  0.71097400  1
  F  F37  1  0.37437600  0.74223500  0.78902600  1
  F  F38  1  0.37437600  0.75776500  0.21097400  1
  F  F39  1  0.12562400  0.25776500  0.28902600  1
  F  F40  1  0.65945600  0.48366300  0.20774400  1
  F  F41  1  0.84054400  0.98366300  0.29225600  1
  F  F42  1  0.84054400  0.51633700  0.70774400  1
  F  F43  1  0.65945600  0.01633700  0.79225600  1
  F  F44  1  0.34054400  0.51633700  0.79225600  1
  F  F45  1  0.15945600  0.01633700  0.70774400  1
  F  F46  1  0.15945600  0.48366300  0.29225600  1
  F  F47  1  0.34054400  0.98366300  0.20774400  1
  F  F48  1  0.78938400  0.35762900  0.08244400  1
  F  F49  1  0.71061600  0.85762900  0.41755600  1
  F  F50  1  0.71061600  0.64237100  0.58244400  1
  F  F51  1  0.78938400  0.14237100  0.91755600  1
  F  F52  1  0.21061600  0.64237100  0.91755600  1
  F  F53  1  0.28938400  0.14237100  0.58244400  1
  F  F54  1  0.28938400  0.35762900  0.41755600  1
  F  F55  1  0.21061600  0.85762900  0.08244400  1
