# generated using pymatgen
data_Li3V2(PO4)3
_symmetry_space_group_name_H-M   'P 1'
_cell_length_a   8.70318900
_cell_length_b   8.82861341
_cell_length_c   12.21150112
_cell_angle_alpha   89.81560071
_cell_angle_beta   90.00000000
_cell_angle_gamma   90.00000000
_symmetry_Int_Tables_number   1
_chemical_formula_structural   Li3V2(PO4)3
_chemical_formula_sum   'Li12 V8 P12 O48'
_cell_volume   938.29136531
_cell_formula_units_Z   4
loop_
 _symmetry_equiv_pos_site_id
 _symmetry_equiv_pos_as_xyz
  1  'x, y, z'
loop_
 _atom_site_type_symbol
 _atom_site_label
 _atom_site_symmetry_multiplicity
 _atom_site_fract_x
 _atom_site_fract_y
 _atom_site_fract_z
 _atom_site_occupancy
  Li  Li0  1  0.21027700  0.85931000  0.95567300  1
  Li  Li1  1  0.71027700  0.64069000  0.54432700  1
  Li  Li2  1  0.78972300  0.14069000  0.04432700  1
  Li  Li3  1  0.28972300  0.35931000  0.45567300  1
  Li  Li4  1  0.70726200  0.07714500  0.75522900  1
  Li  Li5  1  0.20726200  0.42285500  0.74477100  1
  Li  Li6  1  0.29273800  0.92285500  0.24477100  1
  Li  Li7  1  0.79273800  0.57714500  0.25522900  1
  Li  Li8  1  0.67425000  0.48197600  0.79295600  1
  Li  Li9  1  0.17425000  0.01802400  0.70704400  1
  Li  Li10  1  0.32575000  0.51802400  0.20704400  1
  Li  Li11  1  0.82575000  0.98197600  0.29295600  1
  V  V12  1  0.03105800  0.74910300  0.61434800  1
  V  V13  1  0.53105800  0.75089700  0.88565200  1
  V  V14  1  0.96894200  0.25089700  0.38565200  1
  V  V15  1  0.46894200  0.24910300  0.11434800  1
  V  V16  1  0.02964100  0.25843300  0.88873300  1
  V  V17  1  0.52964100  0.24156700  0.61126700  1
  V  V18  1  0.97035900  0.74156700  0.11126700  1
  V  V19  1  0.47035900  0.75843300  0.38873300  1
  P  P20  1  0.39559300  0.60324300  0.64635500  1
  P  P21  1  0.89559300  0.89675700  0.85364500  1
  P  P22  1  0.60440700  0.39675700  0.35364500  1
  P  P23  1  0.10440700  0.10324300  0.14635500  1
  P  P24  1  0.39550000  0.10856200  0.85458800  1
  P  P25  1  0.89550000  0.39143800  0.64541200  1
  P  P26  1  0.60450000  0.89143800  0.14541200  1
  P  P27  1  0.10450000  0.60856200  0.35458800  1
  P  P28  1  0.25238400  0.53516100  0.99377600  1
  P  P29  1  0.75238400  0.96483900  0.50622400  1
  P  P30  1  0.74761600  0.46483900  0.00622400  1
  P  P31  1  0.24761600  0.03516100  0.49377600  1
  O  O32  1  0.39788100  0.93382400  0.83905200  1
  O  O33  1  0.89788100  0.56617600  0.66094800  1
  O  O34  1  0.60211900  0.06617600  0.16094800  1
  O  O35  1  0.10211900  0.43382400  0.33905200  1
  O  O36  1  0.37605900  0.42680300  0.62978200  1
  O  O37  1  0.87605900  0.07319700  0.87021800  1
  O  O38  1  0.62394100  0.57319700  0.37021800  1
  O  O39  1  0.12394100  0.92680300  0.12978200  1
  O  O40  1  0.01046800  0.87069500  0.75852900  1
  O  O41  1  0.51046800  0.62930500  0.74147100  1
  O  O42  1  0.98953200  0.12930500  0.24147100  1
  O  O43  1  0.48953200  0.37069500  0.25852900  1
  O  O44  1  0.01111800  0.31437800  0.72612100  1
  O  O45  1  0.51111800  0.18562200  0.77387900  1
  O  O46  1  0.98888200  0.68562200  0.27387900  1
  O  O47  1  0.48888200  0.81437800  0.22612100  1
  O  O48  1  0.46789100  0.67620900  0.54308000  1
  O  O49  1  0.96789100  0.82379100  0.95692000  1
  O  O50  1  0.53210900  0.32379100  0.45692000  1
  O  O51  1  0.03210900  0.17620900  0.04308000  1
  O  O52  1  0.43807600  0.15177500  0.97086900  1
  O  O53  1  0.93807600  0.34822500  0.52913100  1
  O  O54  1  0.56192400  0.84822500  0.02913100  1
  O  O55  1  0.06192400  0.65177500  0.47086900  1
  O  O56  1  0.13035300  0.94294400  0.56054100  1
  O  O57  1  0.63035300  0.55705600  0.93945900  1
  O  O58  1  0.86964700  0.05705600  0.43945900  1
  O  O59  1  0.36964700  0.44294400  0.06054100  1
  O  O60  1  0.17335900  0.43767400  0.90548800  1
  O  O61  1  0.67335900  0.06232600  0.59451200  1
  O  O62  1  0.82664100  0.56232600  0.09451200  1
  O  O63  1  0.32664100  0.93767400  0.40548800  1
  O  O64  1  0.32439000  0.67313100  0.93484000  1
  O  O65  1  0.82439000  0.82686900  0.56516000  1
  O  O66  1  0.67561000  0.32686900  0.06516000  1
  O  O67  1  0.17561000  0.17313100  0.43484000  1
  O  O68  1  0.35621700  0.10099500  0.58210600  1
  O  O69  1  0.85621700  0.39900500  0.91789400  1
  O  O70  1  0.64378300  0.89900500  0.41789400  1
  O  O71  1  0.14378300  0.60099500  0.08210600  1
  O  O72  1  0.23306500  0.65953400  0.67428000  1
  O  O73  1  0.73306500  0.84046600  0.82572000  1
  O  O74  1  0.76693500  0.34046600  0.32572000  1
  O  O75  1  0.26693500  0.15953400  0.17428000  1
  O  O76  1  0.22644300  0.15282800  0.82676100  1
  O  O77  1  0.72644300  0.34717200  0.67323900  1
  O  O78  1  0.77355700  0.84717200  0.17323900  1
  O  O79  1  0.27355700  0.65282800  0.32676100  1
