# generated using pymatgen
data_CoH7C3NO7
_symmetry_space_group_name_H-M   'P 1'
_cell_length_a   7.74537500
_cell_length_b   7.73605900
_cell_length_c   13.38435800
_cell_angle_alpha   90.00000000
_cell_angle_beta   90.00000000
_cell_angle_gamma   90.00000000
_symmetry_Int_Tables_number   1
_chemical_formula_structural   CoH7C3NO7
_chemical_formula_sum   'Co4 H28 C12 N4 O28'
_cell_volume   801.97303693
_cell_formula_units_Z   4
loop_
 _symmetry_equiv_pos_site_id
 _symmetry_equiv_pos_as_xyz
  1  'x, y, z'
loop_
 _atom_site_type_symbol
 _atom_site_label
 _atom_site_symmetry_multiplicity
 _atom_site_fract_x
 _atom_site_fract_y
 _atom_site_fract_z
 _atom_site_occupancy
  Co  Co0  1  0.45079700  0.99541400  0.41631400  1
  Co  Co1  1  0.04920300  0.00458600  0.91631400  1
  Co  Co2  1  0.95079700  0.50458600  0.58368600  1
  Co  Co3  1  0.54920300  0.49541400  0.08368600  1
  H  H4  1  0.44800700  0.67164300  0.27550900  1
  H  H5  1  0.05199300  0.32835800  0.77550900  1
  H  H6  1  0.94800700  0.82835700  0.72449100  1
  H  H7  1  0.55199300  0.17164300  0.22449100  1
  H  H8  1  0.63564900  0.27673200  0.54473400  1
  H  H9  1  0.86435100  0.72326800  0.04473400  1
  H  H10  1  0.13564900  0.22326800  0.45526600  1
  H  H11  1  0.36435100  0.77673200  0.95526600  1
  H  H12  1  0.76817400  0.77466900  0.46738200  1
  H  H13  1  0.73182600  0.22533100  0.96738200  1
  H  H14  1  0.26817400  0.72533100  0.53261800  1
  H  H15  1  0.23182600  0.27466900  0.03261800  1
  H  H16  1  0.80022800  0.97370700  0.29176100  1
  H  H17  1  0.69977200  0.02629300  0.79176100  1
  H  H18  1  0.30022800  0.52629300  0.70823900  1
  H  H19  1  0.19977200  0.47370700  0.20823900  1
  H  H20  1  0.90848600  0.76707300  0.22452900  1
  H  H21  1  0.59151400  0.23292700  0.72452900  1
  H  H22  1  0.40848600  0.73292700  0.77547100  1
  H  H23  1  0.09151400  0.26707400  0.27547100  1
  H  H24  1  0.09259700  0.82562100  0.28947100  1
  H  H25  1  0.40740300  0.17437900  0.78947100  1
  H  H26  1  0.59259700  0.67437900  0.71052900  1
  H  H27  1  0.90740300  0.32562100  0.21052900  1
  H  H28  1  0.06114500  0.88545900  0.16561700  1
  H  H29  1  0.43885500  0.11454100  0.66561700  1
  H  H30  1  0.56114500  0.61454100  0.83438300  1
  H  H31  1  0.93885500  0.38545900  0.33438300  1
  C  C32  1  0.57543100  0.73002300  0.26055300  1
  C  C33  1  0.92456900  0.26997700  0.76055300  1
  C  C34  1  0.07543100  0.76997700  0.73944700  1
  C  C35  1  0.42456900  0.23002300  0.23944700  1
  C  C36  1  0.70905800  0.26867700  0.47413300  1
  C  C37  1  0.79094200  0.73132300  0.97413300  1
  C  C38  1  0.20905800  0.23132300  0.52586700  1
  C  C39  1  0.29094200  0.76867700  0.02586700  1
  C  C40  1  0.68581500  0.76596100  0.53453400  1
  C  C41  1  0.81418500  0.23403900  0.03453400  1
  C  C42  1  0.18581500  0.73403900  0.46546600  1
  C  C43  1  0.31418500  0.26596100  0.96546600  1
  N  N44  1  0.00129000  0.86301100  0.23495100  1
  N  N45  1  0.49871000  0.13698900  0.73495100  1
  N  N46  1  0.50129000  0.63698900  0.76504900  1
  N  N47  1  0.99871000  0.36301100  0.26504900  1
  O  O48  1  0.61450300  0.86541300  0.31017500  1
  O  O49  1  0.88549700  0.13458700  0.81017500  1
  O  O50  1  0.11450300  0.63458700  0.68982500  1
  O  O51  1  0.38549700  0.36541300  0.18982500  1
  O  O52  1  0.67351000  0.65951100  0.19664300  1
  O  O53  1  0.82649000  0.34048900  0.69664300  1
  O  O54  1  0.17351000  0.84048900  0.80335700  1
  O  O55  1  0.32649000  0.15951100  0.30335700  1
  O  O56  1  0.65868200  0.16369400  0.40792100  1
  O  O57  1  0.84131800  0.83630600  0.90792100  1
  O  O58  1  0.15868200  0.33630600  0.59207900  1
  O  O59  1  0.34131800  0.66369400  0.09207900  1
  O  O60  1  0.83943900  0.36748200  0.46373200  1
  O  O61  1  0.66056100  0.63251800  0.96373200  1
  O  O62  1  0.33943900  0.13251800  0.53626800  1
  O  O63  1  0.16056100  0.86748200  0.03626800  1
  O  O64  1  0.54627300  0.85048200  0.53749700  1
  O  O65  1  0.95372700  0.14951800  0.03749700  1
  O  O66  1  0.04627300  0.64951800  0.46250300  1
  O  O67  1  0.45372700  0.35048200  0.96250300  1
  O  O68  1  0.73908600  0.66935400  0.60574900  1
  O  O69  1  0.76091400  0.33064600  0.10574900  1
  O  O70  1  0.23908600  0.83064600  0.39425100  1
  O  O71  1  0.26091400  0.16935400  0.89425100  1
  O  O72  1  0.91807600  0.01536300  0.26931800  1
  O  O73  1  0.58192400  0.98463700  0.76931800  1
  O  O74  1  0.41807600  0.48463700  0.73068200  1
  O  O75  1  0.08192400  0.51536300  0.23068200  1
