# generated using pymatgen
data_Sb2H5C3SCl6O5F3
_symmetry_space_group_name_H-M   'P 1'
_cell_length_a   14.48053000
_cell_length_b   7.06909200
_cell_length_c   10.04084583
_cell_angle_alpha   74.90112065
_cell_angle_beta   90.00000000
_cell_angle_gamma   90.00000000
_symmetry_Int_Tables_number   1
_chemical_formula_structural   Sb2H5C3SCl6O5F3
_chemical_formula_sum   'Sb4 H10 C6 S2 Cl12 O10 F6'
_cell_volume   992.34034654
_cell_formula_units_Z   2
loop_
 _symmetry_equiv_pos_site_id
 _symmetry_equiv_pos_as_xyz
  1  'x, y, z'
loop_
 _atom_site_type_symbol
 _atom_site_label
 _atom_site_symmetry_multiplicity
 _atom_site_fract_x
 _atom_site_fract_y
 _atom_site_fract_z
 _atom_site_occupancy
  Sb  Sb0  1  0.36127000  0.66026000  0.72716700  1
  Sb  Sb1  1  0.86127000  0.33974000  0.27283300  1
  Sb  Sb2  1  0.63873000  0.33974000  0.27283300  1
  Sb  Sb3  1  0.13873000  0.66026000  0.72716700  1
  H  H4  1  0.31151200  0.13248300  0.66040800  1
  H  H5  1  0.81151200  0.86751700  0.33959200  1
  H  H6  1  0.68848800  0.86751700  0.33959200  1
  H  H7  1  0.18848800  0.13248300  0.66040800  1
  H  H8  1  0.25000000  0.30176600  0.42687500  1
  H  H9  1  0.75000000  0.69823400  0.57312500  1
  H  H10  1  0.18804400  0.08755000  0.41915100  1
  H  H11  1  0.68804400  0.91245000  0.58084900  1
  H  H12  1  0.81195600  0.91245000  0.58084900  1
  H  H13  1  0.31195600  0.08755000  0.41915100  1
  C  C14  1  0.25000000  0.08004400  0.61679700  1
  C  C15  1  0.75000000  0.91995600  0.38320300  1
  C  C16  1  0.25000000  0.14071000  0.46107000  1
  C  C17  1  0.75000000  0.85929000  0.53893000  1
  C  C18  1  0.25000000  0.91584600  0.07881200  1
  C  C19  1  0.75000000  0.08415400  0.92118800  1
  S  S20  1  0.25000000  0.67818800  0.02630200  1
  S  S21  1  0.75000000  0.32181200  0.97369800  1
  Cl  Cl22  1  0.38475400  0.64132200  0.50032500  1
  Cl  Cl23  1  0.88475400  0.35867800  0.49967500  1
  Cl  Cl24  1  0.61524600  0.35867800  0.49967500  1
  Cl  Cl25  1  0.11524600  0.64132200  0.50032500  1
  Cl  Cl26  1  0.45832300  0.40005700  0.83065400  1
  Cl  Cl27  1  0.95832300  0.59994300  0.16934600  1
  Cl  Cl28  1  0.54167700  0.59994300  0.16934600  1
  Cl  Cl29  1  0.04167700  0.40005700  0.83065400  1
  Cl  Cl30  1  0.47007300  0.90833300  0.71664700  1
  Cl  Cl31  1  0.97007300  0.09166700  0.28335300  1
  Cl  Cl32  1  0.52992700  0.09166700  0.28335300  1
  Cl  Cl33  1  0.02992700  0.90833300  0.71664700  1
  O  O34  1  0.25000000  0.86455200  0.67267500  1
  O  O35  1  0.75000000  0.13544800  0.32732500  1
  O  O36  1  0.25000000  0.49294000  0.76233800  1
  O  O37  1  0.75000000  0.50706000  0.23766200  1
  O  O38  1  0.33563800  0.69509200  0.94032200  1
  O  O39  1  0.83563800  0.30490800  0.05967800  1
  O  O40  1  0.66436200  0.30490800  0.05967800  1
  O  O41  1  0.16436200  0.69509200  0.94032200  1
  O  O42  1  0.25000000  0.52477400  0.15124100  1
  O  O43  1  0.75000000  0.47522600  0.84875900  1
  F  F44  1  0.25000000  0.06945000  0.96666000  1
  F  F45  1  0.75000000  0.93055000  0.03334000  1
  F  F46  1  0.32596100  0.92252000  0.15498600  1
  F  F47  1  0.82596100  0.07748000  0.84501400  1
  F  F48  1  0.67403900  0.07748000  0.84501400  1
  F  F49  1  0.17403900  0.92252000  0.15498600  1
