# generated using pymatgen
data_K3Mo4(P2O11)2
_symmetry_space_group_name_H-M   'P 1'
_cell_length_a   10.01609700
_cell_length_b   9.86031500
_cell_length_c   12.55789724
_cell_angle_alpha   51.37040020
_cell_angle_beta   90.00000000
_cell_angle_gamma   90.00000000
_symmetry_Int_Tables_number   1
_chemical_formula_structural   K3Mo4(P2O11)2
_chemical_formula_sum   'K6 Mo8 P8 O44'
_cell_volume   968.87420551
_cell_formula_units_Z   2
loop_
 _symmetry_equiv_pos_site_id
 _symmetry_equiv_pos_as_xyz
  1  'x, y, z'
loop_
 _atom_site_type_symbol
 _atom_site_label
 _atom_site_symmetry_multiplicity
 _atom_site_fract_x
 _atom_site_fract_y
 _atom_site_fract_z
 _atom_site_occupancy
  K  K0  1  0.00000000  0.50000000  0.00000000  1
  K  K1  1  0.50000000  0.50000000  0.50000000  1
  K  K2  1  0.34657500  0.31414700  0.15669200  1
  K  K3  1  0.84657500  0.68585300  0.34330800  1
  K  K4  1  0.65342500  0.68585300  0.84330800  1
  K  K5  1  0.15342500  0.31414700  0.65669200  1
  Mo  Mo6  1  0.03439500  0.01657500  0.39141700  1
  Mo  Mo7  1  0.53439500  0.98342500  0.10858300  1
  Mo  Mo8  1  0.96560500  0.98342500  0.60858300  1
  Mo  Mo9  1  0.46560500  0.01657500  0.89141700  1
  Mo  Mo10  1  0.20022100  0.75380400  0.16608600  1
  Mo  Mo11  1  0.70022100  0.24619600  0.33391400  1
  Mo  Mo12  1  0.79977900  0.24619600  0.83391400  1
  Mo  Mo13  1  0.29977900  0.75380400  0.66608600  1
  P  P14  1  0.30937300  0.84870400  0.35975800  1
  P  P15  1  0.80937300  0.15129600  0.14024200  1
  P  P16  1  0.69062700  0.15129600  0.64024200  1
  P  P17  1  0.19062700  0.84870400  0.85975800  1
  P  P18  1  0.01224500  0.37004200  0.34246800  1
  P  P19  1  0.51224500  0.62995800  0.15753200  1
  P  P20  1  0.98775500  0.62995800  0.65753200  1
  P  P21  1  0.48775500  0.37004200  0.84246800  1
  O  O22  1  0.07405200  0.89502800  0.12469100  1
  O  O23  1  0.57405200  0.10497200  0.37530900  1
  O  O24  1  0.92594800  0.10497200  0.87530900  1
  O  O25  1  0.42594800  0.89502800  0.62469100  1
  O  O26  1  0.25532900  0.71748400  0.34056500  1
  O  O27  1  0.75532900  0.28251600  0.15943500  1
  O  O28  1  0.74467100  0.28251600  0.65943500  1
  O  O29  1  0.24467100  0.71748400  0.84056500  1
  O  O30  1  0.16135500  0.73531100  0.01416400  1
  O  O31  1  0.66135500  0.26468900  0.48583600  1
  O  O32  1  0.83864500  0.26468900  0.98583600  1
  O  O33  1  0.33864500  0.73531100  0.51416400  1
  O  O34  1  0.35437600  0.93499600  0.05743400  1
  O  O35  1  0.85437600  0.06500400  0.44256600  1
  O  O36  1  0.64562400  0.06500400  0.94256600  1
  O  O37  1  0.14562400  0.93499600  0.55743400  1
  O  O38  1  0.09321500  0.52783100  0.30114500  1
  O  O39  1  0.59321500  0.47216900  0.19885500  1
  O  O40  1  0.90678500  0.47216900  0.69885500  1
  O  O41  1  0.40678500  0.52783100  0.80114500  1
  O  O42  1  0.36969500  0.57759600  0.21332500  1
  O  O43  1  0.86969500  0.42240400  0.28667500  1
  O  O44  1  0.63030500  0.42240400  0.78667500  1
  O  O45  1  0.13030500  0.57759600  0.71332500  1
  O  O46  1  0.21132500  0.99713900  0.31330200  1
  O  O47  1  0.71132500  0.00286100  0.18669800  1
  O  O48  1  0.78867500  0.00286100  0.68669800  1
  O  O49  1  0.28867500  0.99713900  0.81330200  1
  O  O50  1  0.93976100  0.06891800  0.22365000  1
  O  O51  1  0.43976100  0.93108200  0.27635000  1
  O  O52  1  0.06023900  0.93108200  0.77635000  1
  O  O53  1  0.56023900  0.06891800  0.72365000  1
  O  O54  1  0.99209500  0.75853000  0.49679800  1
  O  O55  1  0.49209500  0.24147000  0.00320200  1
  O  O56  1  0.00790500  0.24147000  0.50320200  1
  O  O57  1  0.50790500  0.75853000  0.99679800  1
  O  O58  1  0.08120600  0.27495900  0.29184300  1
  O  O59  1  0.58120600  0.72504100  0.20815700  1
  O  O60  1  0.91879400  0.72504100  0.70815700  1
  O  O61  1  0.41879400  0.27495900  0.79184300  1
  O  O62  1  0.33102900  0.28078100  0.50663200  1
  O  O63  1  0.83102900  0.71921900  0.99336800  1
  O  O64  1  0.66897100  0.71921900  0.49336800  1
  O  O65  1  0.16897100  0.28078100  0.00663200  1
