# generated using pymatgen
data_MgZn2P2(H6O5)4
_symmetry_space_group_name_H-M   'P 1'
_cell_length_a   7.25883700
_cell_length_b   10.87817800
_cell_length_c   11.73744100
_cell_angle_alpha   74.27675373
_cell_angle_beta   90.00000000
_cell_angle_gamma   90.00000000
_symmetry_Int_Tables_number   1
_chemical_formula_structural   MgZn2P2(H6O5)4
_chemical_formula_sum   'Mg2 Zn4 P4 H48 O40'
_cell_volume   892.14266380
_cell_formula_units_Z   2
loop_
 _symmetry_equiv_pos_site_id
 _symmetry_equiv_pos_as_xyz
  1  'x, y, z'
loop_
 _atom_site_type_symbol
 _atom_site_label
 _atom_site_symmetry_multiplicity
 _atom_site_fract_x
 _atom_site_fract_y
 _atom_site_fract_z
 _atom_site_occupancy
  Mg  Mg0  1  0.00000000  0.50000000  0.50000000  1
  Mg  Mg1  1  0.50000000  0.50000000  0.00000000  1
  Zn  Zn2  1  0.19357500  0.06803100  0.61300500  1
  Zn  Zn3  1  0.69357500  0.93196900  0.88699500  1
  Zn  Zn4  1  0.80642500  0.93196900  0.38699500  1
  Zn  Zn5  1  0.30642500  0.06803100  0.11300500  1
  P  P6  1  0.36862800  0.14063800  0.83582000  1
  P  P7  1  0.86862800  0.85936200  0.66418000  1
  P  P8  1  0.63137200  0.85936200  0.16418000  1
  P  P9  1  0.13137200  0.14063800  0.33582000  1
  H  H10  1  0.48407600  0.90558400  0.67621600  1
  H  H11  1  0.98407600  0.09441600  0.82378400  1
  H  H12  1  0.51592400  0.09441600  0.32378400  1
  H  H13  1  0.01592400  0.90558400  0.17621600  1
  H  H14  1  0.29319100  0.83431100  0.67145600  1
  H  H15  1  0.79319100  0.16568900  0.82854400  1
  H  H16  1  0.70680900  0.16568900  0.32854400  1
  H  H17  1  0.20680900  0.83431100  0.17145600  1
  H  H18  1  0.08713200  0.30133700  0.69816100  1
  H  H19  1  0.58713200  0.69866300  0.80183900  1
  H  H20  1  0.91286800  0.69866300  0.30183900  1
  H  H21  1  0.41286800  0.30133700  0.19816100  1
  H  H22  1  0.99356200  0.41957000  0.73470000  1
  H  H23  1  0.49356200  0.58043000  0.76530000  1
  H  H24  1  0.00643800  0.58043000  0.26530000  1
  H  H25  1  0.50643800  0.41957000  0.23470000  1
  H  H26  1  0.88719100  0.32851900  0.38344000  1
  H  H27  1  0.38719100  0.67148100  0.11656000  1
  H  H28  1  0.11280900  0.67148100  0.61656000  1
  H  H29  1  0.61280900  0.32851900  0.88344000  1
  H  H30  1  0.75991200  0.30001100  0.49934400  1
  H  H31  1  0.25991200  0.69998900  0.00065600  1
  H  H32  1  0.24008800  0.69998900  0.50065600  1
  H  H33  1  0.74008800  0.30001100  0.99934400  1
  H  H34  1  0.65920100  0.54568000  0.58661400  1
  H  H35  1  0.15920100  0.45432000  0.91338600  1
  H  H36  1  0.34079900  0.45432000  0.41338600  1
  H  H37  1  0.84079900  0.54568000  0.08661400  1
  H  H38  1  0.77379000  0.67610000  0.54975700  1
  H  H39  1  0.27379000  0.32390000  0.95024300  1
  H  H40  1  0.22621000  0.32390000  0.45024300  1
  H  H41  1  0.72621000  0.67610000  0.04975600  1
  H  H42  1  0.75471400  0.11979700  0.61037900  1
  H  H43  1  0.25471400  0.88020300  0.88962100  1
  H  H44  1  0.24528600  0.88020300  0.38962100  1
  H  H45  1  0.74528600  0.11979700  0.11037900  1
  H  H46  1  0.61441700  0.20824100  0.65737700  1
  H  H47  1  0.11441700  0.79175900  0.84262300  1
  H  H48  1  0.38558300  0.79175900  0.34262300  1
  H  H49  1  0.88558300  0.20824100  0.15737700  1
  H  H50  1  0.35420200  0.52292900  0.62626800  1
  H  H51  1  0.85420200  0.47707100  0.87373200  1
  H  H52  1  0.64579800  0.47707100  0.37373200  1
  H  H53  1  0.14579800  0.52292900  0.12626800  1
  H  H54  1  0.46985300  0.39864100  0.70118300  1
  H  H55  1  0.96985300  0.60135900  0.79881700  1
  H  H56  1  0.53014700  0.60135900  0.29881700  1
  H  H57  1  0.03014700  0.39864100  0.20118300  1
  O  O58  1  0.20588000  0.15331600  0.74379700  1
  O  O59  1  0.70588000  0.84668400  0.75620300  1
  O  O60  1  0.79412000  0.84668400  0.25620300  1
  O  O61  1  0.29412000  0.15331600  0.24379700  1
  O  O62  1  0.36012600  0.91463500  0.63941300  1
  O  O63  1  0.86012600  0.08536500  0.86058700  1
  O  O64  1  0.63987400  0.08536500  0.36058700  1
  O  O65  1  0.13987400  0.91463500  0.13941300  1
  O  O66  1  0.93961800  0.99890500  0.63539300  1
  O  O67  1  0.43961800  0.00109500  0.86460700  1
  O  O68  1  0.06038200  0.00109500  0.36460700  1
  O  O69  1  0.56038200  0.99890500  0.13539300  1
  O  O70  1  0.21343200  0.16991600  0.44843000  1
  O  O71  1  0.71343200  0.83008400  0.05157000  1
  O  O72  1  0.78656800  0.83008400  0.55157000  1
  O  O73  1  0.28656800  0.16991600  0.94843000  1
  O  O74  1  0.52278400  0.23860900  0.78412000  1
  O  O75  1  0.02278400  0.76139100  0.71588000  1
  O  O76  1  0.47721600  0.76139100  0.21588000  1
  O  O77  1  0.97721600  0.23860900  0.28412000  1
  O  O78  1  0.00062300  0.37397300  0.67156700  1
  O  O79  1  0.50062300  0.62602700  0.82843300  1
  O  O80  1  0.99937700  0.62602700  0.32843300  1
  O  O81  1  0.49937700  0.37397300  0.17156700  1
  O  O82  1  0.82893400  0.37137300  0.43904400  1
  O  O83  1  0.32893400  0.62862700  0.06095600  1
  O  O84  1  0.17106600  0.62862700  0.56095600  1
  O  O85  1  0.67106600  0.37137300  0.93904400  1
  O  O86  1  0.77220000  0.58638400  0.54421700  1
  O  O87  1  0.27220000  0.41361600  0.95578300  1
  O  O88  1  0.22780000  0.41361600  0.45578300  1
  O  O89  1  0.72780000  0.58638400  0.04421700  1
  O  O90  1  0.65759300  0.18570700  0.58526500  1
  O  O91  1  0.15759300  0.81429300  0.91473500  1
  O  O92  1  0.34240700  0.81429300  0.41473500  1
  O  O93  1  0.84240700  0.18570700  0.08526500  1
  O  O94  1  0.47312000  0.49267100  0.66609800  1
  O  O95  1  0.97312000  0.50732900  0.83390200  1
  O  O96  1  0.52688000  0.50732900  0.33390200  1
  O  O97  1  0.02688000  0.49267100  0.16609800  1
