# generated using pymatgen
data_BaTmCo4O7
_symmetry_space_group_name_H-M   'P 1'
_cell_length_a   6.37052500
_cell_length_b   10.24844800
_cell_length_c   11.04359300
_cell_angle_alpha   90.00000000
_cell_angle_beta   90.00000000
_cell_angle_gamma   90.00000000
_symmetry_Int_Tables_number   1
_chemical_formula_structural   BaTmCo4O7
_chemical_formula_sum   'Ba4 Tm4 Co16 O28'
_cell_volume   721.01403568
_cell_formula_units_Z   4
loop_
 _symmetry_equiv_pos_site_id
 _symmetry_equiv_pos_as_xyz
  1  'x, y, z'
loop_
 _atom_site_type_symbol
 _atom_site_label
 _atom_site_symmetry_multiplicity
 _atom_site_fract_x
 _atom_site_fract_y
 _atom_site_fract_z
 _atom_site_occupancy
  Ba  Ba0  1  0.50112200  0.50009200  0.16490700  1
  Ba  Ba1  1  0.49887800  0.00009200  0.83509300  1
  Ba  Ba2  1  0.00112200  0.00009200  0.33509300  1
  Ba  Ba3  1  0.99887800  0.50009200  0.66490700  1
  Tm  Tm4  1  0.51050600  0.87014000  0.16911400  1
  Tm  Tm5  1  0.48949400  0.37014000  0.83088600  1
  Tm  Tm6  1  0.01050600  0.37014000  0.33088600  1
  Tm  Tm7  1  0.98949400  0.87014000  0.66911400  1
  Co  Co8  1  0.49227300  0.68873100  0.67139400  1
  Co  Co9  1  0.50772700  0.18873100  0.32860600  1
  Co  Co10  1  0.99227300  0.18873100  0.82860600  1
  Co  Co11  1  0.00772700  0.68873100  0.17139400  1
  Co  Co12  1  0.75590600  0.19246200  0.58594800  1
  Co  Co13  1  0.24409400  0.69246200  0.41405200  1
  Co  Co14  1  0.25590600  0.69246200  0.91405200  1
  Co  Co15  1  0.74409400  0.19246200  0.08594800  1
  Co  Co16  1  0.75418600  0.68513900  0.41887900  1
  Co  Co17  1  0.24581400  0.18513900  0.58112100  1
  Co  Co18  1  0.25418600  0.18513900  0.08112100  1
  Co  Co19  1  0.74581400  0.68513900  0.91887900  1
  Co  Co20  1  0.49721300  0.94539300  0.50102100  1
  Co  Co21  1  0.50278700  0.44539300  0.49897900  1
  Co  Co22  1  0.99721300  0.44539300  0.99897900  1
  Co  Co23  1  0.00278700  0.94539300  0.00102100  1
  O  O24  1  0.50163800  0.25556900  0.49825100  1
  O  O25  1  0.49836200  0.75556900  0.50174900  1
  O  O26  1  0.00163800  0.75556900  0.00174900  1
  O  O27  1  0.99836200  0.25556900  0.99825100  1
  O  O28  1  0.44325900  0.49687000  0.66008600  1
  O  O29  1  0.55674100  0.99687000  0.33991400  1
  O  O30  1  0.94325900  0.99687000  0.83991400  1
  O  O31  1  0.05674100  0.49687000  0.16008600  1
  O  O32  1  0.72790400  0.99921600  0.59613200  1
  O  O33  1  0.27209600  0.49921600  0.40386800  1
  O  O34  1  0.22790400  0.49921600  0.90386800  1
  O  O35  1  0.77209600  0.99921600  0.09613200  1
  O  O36  1  0.76654400  0.49197700  0.43945100  1
  O  O37  1  0.23345600  0.99197700  0.56054900  1
  O  O38  1  0.26654400  0.99197700  0.06054900  1
  O  O39  1  0.73345600  0.49197700  0.93945100  1
  O  O40  1  0.49930800  0.24447800  0.99177900  1
  O  O41  1  0.50069200  0.74447800  0.00822100  1
  O  O42  1  0.99930800  0.74447800  0.50822100  1
  O  O43  1  0.00069200  0.24447800  0.49177900  1
  O  O44  1  0.26616300  0.78091500  0.75701300  1
  O  O45  1  0.73383700  0.28091500  0.24298700  1
  O  O46  1  0.76616300  0.28091500  0.74298700  1
  O  O47  1  0.23383700  0.78091500  0.25701300  1
  O  O48  1  0.23682200  0.22861900  0.25263900  1
  O  O49  1  0.76317800  0.72861900  0.74736100  1
  O  O50  1  0.73682200  0.72861900  0.24736100  1
  O  O51  1  0.26317800  0.22861900  0.75263900  1
