# generated using pymatgen
data_Cu3P4Pb3O16
_symmetry_space_group_name_H-M   'P 1'
_cell_length_a   9.29311791
_cell_length_b   9.29311791
_cell_length_c   18.12942481
_cell_angle_alpha   65.01748039
_cell_angle_beta   65.01748039
_cell_angle_gamma   31.16271340
_symmetry_Int_Tables_number   1
_chemical_formula_structural   Cu3P4Pb3O16
_chemical_formula_sum   'Cu6 P8 Pb6 O32'
_cell_volume   728.16993301
_cell_formula_units_Z   2
loop_
 _symmetry_equiv_pos_site_id
 _symmetry_equiv_pos_as_xyz
  1  'x, y, z'
loop_
 _atom_site_type_symbol
 _atom_site_label
 _atom_site_symmetry_multiplicity
 _atom_site_fract_x
 _atom_site_fract_y
 _atom_site_fract_z
 _atom_site_occupancy
  Cu  Cu0  1  0.50000000  0.00000000  0.50000000  1
  Cu  Cu1  1  0.00000000  0.50000000  0.00000000  1
  Cu  Cu2  1  0.99604300  0.55407500  0.35281600  1
  Cu  Cu3  1  0.44592500  0.00395700  0.14718400  1
  Cu  Cu4  1  0.00395700  0.44592500  0.64718400  1
  Cu  Cu5  1  0.55407500  0.99604300  0.85281600  1
  P  P6  1  0.10851300  0.62114600  0.46991300  1
  P  P7  1  0.37885400  0.89148700  0.03008700  1
  P  P8  1  0.89148700  0.37885400  0.53008700  1
  P  P9  1  0.62114600  0.10851300  0.96991300  1
  P  P10  1  0.87689200  0.42438800  0.26192200  1
  P  P11  1  0.57561200  0.12310800  0.23807800  1
  P  P12  1  0.12310800  0.57561200  0.73807800  1
  P  P13  1  0.42438800  0.87689200  0.76192200  1
  Pb  Pb14  1  0.21163000  0.78837000  0.25000000  1
  Pb  Pb15  1  0.78837000  0.21163000  0.75000000  1
  Pb  Pb16  1  0.30305400  0.91126000  0.40523600  1
  Pb  Pb17  1  0.08874000  0.69694600  0.09476400  1
  Pb  Pb18  1  0.69694600  0.08874000  0.59476400  1
  Pb  Pb19  1  0.91126000  0.30305400  0.90523600  1
  O  O20  1  0.85796000  0.72816700  0.53694500  1
  O  O21  1  0.27183300  0.14204000  0.96305500  1
  O  O22  1  0.14204000  0.27183300  0.46305500  1
  O  O23  1  0.72816700  0.85796000  0.03694500  1
  O  O24  1  0.04931400  0.68596300  0.38493600  1
  O  O25  1  0.31403700  0.95068600  0.11506400  1
  O  O26  1  0.95068600  0.31403700  0.61506400  1
  O  O27  1  0.68596300  0.04931400  0.88493600  1
  O  O28  1  0.38783700  0.30100400  0.49454000  1
  O  O29  1  0.69899600  0.61216300  0.00546000  1
  O  O30  1  0.61216300  0.69899600  0.50546000  1
  O  O31  1  0.30100400  0.38783700  0.99454000  1
  O  O32  1  0.11478300  0.77814400  0.47286900  1
  O  O33  1  0.22185600  0.88521700  0.02713100  1
  O  O34  1  0.88521700  0.22185600  0.52713100  1
  O  O35  1  0.77814400  0.11478300  0.97286900  1
  O  O36  1  0.55852000  0.72193500  0.25845500  1
  O  O37  1  0.27806500  0.44148000  0.24154500  1
  O  O38  1  0.44148000  0.27806500  0.74154500  1
  O  O39  1  0.72193500  0.55852000  0.75845500  1
  O  O40  1  0.96372500  0.39094900  0.33319000  1
  O  O41  1  0.60905100  0.03627500  0.16681000  1
  O  O42  1  0.03627500  0.60905100  0.66681000  1
  O  O43  1  0.39094900  0.96372500  0.83319000  1
  O  O44  1  0.04376400  0.39067200  0.17788500  1
  O  O45  1  0.60932800  0.95623600  0.32211500  1
  O  O46  1  0.95623600  0.60932800  0.82211500  1
  O  O47  1  0.39067200  0.04376400  0.67788500  1
  O  O48  1  0.93408900  0.19724800  0.29189400  1
  O  O49  1  0.80275200  0.06591100  0.20810600  1
  O  O50  1  0.06591100  0.80275200  0.70810600  1
  O  O51  1  0.19724800  0.93408900  0.79189400  1
