# generated using pymatgen
data_CsPr(SO6)2
_symmetry_space_group_name_H-M   'P 1'
_cell_length_a   19.78784300
_cell_length_b   6.49597000
_cell_length_c   9.06236571
_cell_angle_alpha   89.38108954
_cell_angle_beta   90.00000000
_cell_angle_gamma   90.00000000
_symmetry_Int_Tables_number   1
_chemical_formula_structural   CsPr(SO6)2
_chemical_formula_sum   'Cs4 Pr4 S8 O48'
_cell_volume   1164.81971475
_cell_formula_units_Z   4
loop_
 _symmetry_equiv_pos_site_id
 _symmetry_equiv_pos_as_xyz
  1  'x, y, z'
loop_
 _atom_site_type_symbol
 _atom_site_label
 _atom_site_symmetry_multiplicity
 _atom_site_fract_x
 _atom_site_fract_y
 _atom_site_fract_z
 _atom_site_occupancy
  Cs  Cs0  1  0.20869200  0.35502000  0.13882500  1
  Cs  Cs1  1  0.70869200  0.64498000  0.36117500  1
  Cs  Cs2  1  0.79130800  0.64498000  0.86117500  1
  Cs  Cs3  1  0.29130800  0.35502000  0.63882500  1
  Pr  Pr4  1  0.13080800  0.86185700  0.78372000  1
  Pr  Pr5  1  0.63080800  0.13814300  0.71628000  1
  Pr  Pr6  1  0.86919200  0.13814300  0.21628000  1
  Pr  Pr7  1  0.36919200  0.86185700  0.28372000  1
  S  S8  1  0.28005400  0.87289900  0.90277600  1
  S  S9  1  0.78005400  0.12710100  0.59722400  1
  S  S10  1  0.71994600  0.12710100  0.09722400  1
  S  S11  1  0.21994600  0.87289900  0.40277600  1
  S  S12  1  0.06630300  0.29842300  0.78332600  1
  S  S13  1  0.56630300  0.70157700  0.71667400  1
  S  S14  1  0.93369700  0.70157700  0.21667400  1
  S  S15  1  0.43369700  0.29842300  0.28332600  1
  O  O16  1  0.33730900  0.89071800  0.80296500  1
  O  O17  1  0.83730900  0.10928200  0.69703500  1
  O  O18  1  0.66269100  0.10928200  0.19703500  1
  O  O19  1  0.16269100  0.89071800  0.30296500  1
  O  O20  1  0.30121000  0.86019200  0.06070600  1
  O  O21  1  0.80121000  0.13980800  0.43929400  1
  O  O22  1  0.69879000  0.13980800  0.93929400  1
  O  O23  1  0.19879000  0.86019200  0.56070600  1
  O  O24  1  0.23104600  0.05055100  0.88337800  1
  O  O25  1  0.73104600  0.94944900  0.61662200  1
  O  O26  1  0.76895400  0.94944900  0.11662200  1
  O  O27  1  0.26895400  0.05055100  0.38337800  1
  O  O28  1  0.23742200  0.68365000  0.87054800  1
  O  O29  1  0.73742200  0.31635000  0.62945200  1
  O  O30  1  0.76257800  0.31635000  0.12945200  1
  O  O31  1  0.26257800  0.68365000  0.37054800  1
  O  O32  1  0.10577600  0.49609700  0.80087500  1
  O  O33  1  0.60577600  0.50390300  0.69912500  1
  O  O34  1  0.89422400  0.50390300  0.19912500  1
  O  O35  1  0.39422400  0.49609700  0.30087500  1
  O  O36  1  0.99495800  0.33479600  0.76131600  1
  O  O37  1  0.49495800  0.66520400  0.73868400  1
  O  O38  1  0.00504200  0.66520400  0.23868400  1
  O  O39  1  0.50504200  0.33479600  0.26131600  1
  O  O40  1  0.10040800  0.19309300  0.65253000  1
  O  O41  1  0.60040800  0.80690700  0.84747000  1
  O  O42  1  0.89959200  0.80690700  0.34747000  1
  O  O43  1  0.39959200  0.19309300  0.15253000  1
  O  O44  1  0.08083100  0.15864000  0.91284400  1
  O  O45  1  0.58083100  0.84136000  0.58715600  1
  O  O46  1  0.91916900  0.84136000  0.08715600  1
  O  O47  1  0.41916900  0.15864000  0.41284400  1
  O  O48  1  0.06106500  0.88623100  0.54578900  1
  O  O49  1  0.56106500  0.11376900  0.95421100  1
  O  O50  1  0.93893500  0.11376900  0.45421100  1
  O  O51  1  0.43893500  0.88623100  0.04578900  1
  O  O52  1  0.11624600  0.69942000  0.03624700  1
  O  O53  1  0.61624600  0.30058000  0.46375300  1
  O  O54  1  0.88375400  0.30058000  0.96375300  1
  O  O55  1  0.38375400  0.69942000  0.53624700  1
  O  O56  1  0.06558800  0.26448900  0.31910800  1
  O  O57  1  0.56558800  0.73551100  0.18089200  1
  O  O58  1  0.93441200  0.73551100  0.68089200  1
  O  O59  1  0.43441200  0.26448900  0.81910800  1
  O  O60  1  0.97173000  0.79555300  0.78081900  1
  O  O61  1  0.47173000  0.20444700  0.71918100  1
  O  O62  1  0.02827000  0.20444700  0.21918100  1
  O  O63  1  0.52827000  0.79555300  0.28081900  1
