# generated using pymatgen
data_K3B3O10
_symmetry_space_group_name_H-M   'P 1'
_cell_length_a   8.48039800
_cell_length_b   8.82888600
_cell_length_c   13.94433200
_cell_angle_alpha   90.00000000
_cell_angle_beta   90.00000000
_cell_angle_gamma   90.00000000
_symmetry_Int_Tables_number   1
_chemical_formula_structural   K3B3O10
_chemical_formula_sum   'K12 B12 O40'
_cell_volume   1044.04653997
_cell_formula_units_Z   4
loop_
 _symmetry_equiv_pos_site_id
 _symmetry_equiv_pos_as_xyz
  1  'x, y, z'
loop_
 _atom_site_type_symbol
 _atom_site_label
 _atom_site_symmetry_multiplicity
 _atom_site_fract_x
 _atom_site_fract_y
 _atom_site_fract_z
 _atom_site_occupancy
  K  K0  1  0.46623500  0.76071900  0.50685600  1
  K  K1  1  0.53376500  0.26071900  0.49314400  1
  K  K2  1  0.03376500  0.26071900  0.00685600  1
  K  K3  1  0.96623500  0.76071900  0.99314400  1
  K  K4  1  0.03105000  0.77018700  0.28788500  1
  K  K5  1  0.96895000  0.27018700  0.71211500  1
  K  K6  1  0.46895000  0.27018700  0.78788500  1
  K  K7  1  0.53105000  0.77018700  0.21211500  1
  K  K8  1  0.00206000  0.72012500  0.70729500  1
  K  K9  1  0.99794000  0.22012500  0.29270500  1
  K  K10  1  0.49794000  0.22012500  0.20729500  1
  K  K11  1  0.50206000  0.72012500  0.79270500  1
  B  B12  1  0.77379800  0.96608700  0.41442700  1
  B  B13  1  0.22620200  0.46608700  0.58557300  1
  B  B14  1  0.72620200  0.46608700  0.91442700  1
  B  B15  1  0.27379800  0.96608700  0.08557300  1
  B  B16  1  0.02758900  0.99761100  0.50434600  1
  B  B17  1  0.97241100  0.49761100  0.49565400  1
  B  B18  1  0.47241100  0.49761100  0.00434600  1
  B  B19  1  0.52758900  0.99761100  0.99565400  1
  B  B20  1  0.26748200  0.02193000  0.40315500  1
  B  B21  1  0.73251800  0.52193000  0.59684500  1
  B  B22  1  0.23251800  0.52193000  0.90315500  1
  B  B23  1  0.76748200  0.02193000  0.09684500  1
  O  O24  1  0.69325300  0.06888300  0.34950500  1
  O  O25  1  0.30674700  0.56888300  0.65049500  1
  O  O26  1  0.80674700  0.56888300  0.84950500  1
  O  O27  1  0.19325300  0.06888300  0.15049500  1
  O  O28  1  0.71533600  0.82579000  0.37401200  1
  O  O29  1  0.28466400  0.32579000  0.62598800  1
  O  O30  1  0.78466400  0.32579000  0.87401200  1
  O  O31  1  0.21533600  0.82579000  0.12598800  1
  O  O32  1  0.69531900  0.98571000  0.50567400  1
  O  O33  1  0.30468100  0.48571000  0.49432600  1
  O  O34  1  0.80468100  0.48571000  0.00567400  1
  O  O35  1  0.19531900  0.98571000  0.99432600  1
  O  O36  1  0.94563800  0.98468800  0.41763100  1
  O  O37  1  0.05436200  0.48468800  0.58236900  1
  O  O38  1  0.55436200  0.48468800  0.91763100  1
  O  O39  1  0.44563800  0.98468800  0.08236900  1
  O  O40  1  0.96100600  0.00131900  0.59188800  1
  O  O41  1  0.03899400  0.50131900  0.40811200  1
  O  O42  1  0.53899400  0.50131900  0.09188800  1
  O  O43  1  0.46100600  0.00131900  0.90811200  1
  O  O44  1  0.19322200  0.00633400  0.49372300  1
  O  O45  1  0.80677800  0.50633400  0.50627700  1
  O  O46  1  0.30677800  0.50633400  0.99372300  1
  O  O47  1  0.69322200  0.00633400  0.00627700  1
  O  O48  1  0.30002300  0.15881000  0.36416100  1
  O  O49  1  0.69997700  0.65881000  0.63583900  1
  O  O50  1  0.19997700  0.65881000  0.86416100  1
  O  O51  1  0.80002300  0.15881000  0.13583900  1
  O  O52  1  0.31747500  0.89896600  0.35436100  1
  O  O53  1  0.68252500  0.39896600  0.64563900  1
  O  O54  1  0.18252500  0.39896600  0.85436100  1
  O  O55  1  0.81747500  0.89896600  0.14563900  1
  O  O56  1  0.29049800  0.96968000  0.71741500  1
  O  O57  1  0.70950200  0.46968000  0.28258500  1
  O  O58  1  0.20950200  0.46968000  0.21741500  1
  O  O59  1  0.79049800  0.96968000  0.78258500  1
  O  O60  1  0.69010400  0.01515700  0.72538700  1
  O  O61  1  0.30989600  0.51515700  0.27461300  1
  O  O62  1  0.80989600  0.51515700  0.22538700  1
  O  O63  1  0.19010400  0.01515700  0.77461300  1
