# generated using pymatgen
data_Na3Gd(PO4)2
_symmetry_space_group_name_H-M   'P 1'
_cell_length_a   14.18895101
_cell_length_b   14.18895101
_cell_length_c   14.06430581
_cell_angle_alpha   88.71721160
_cell_angle_beta   88.71721160
_cell_angle_gamma   21.82305389
_symmetry_Int_Tables_number   1
_chemical_formula_structural   Na3Gd(PO4)2
_chemical_formula_sum   'Na18 Gd6 P12 O48'
_cell_volume   1052.31776681
_cell_formula_units_Z   6
loop_
 _symmetry_equiv_pos_site_id
 _symmetry_equiv_pos_as_xyz
  1  'x, y, z'
loop_
 _atom_site_type_symbol
 _atom_site_label
 _atom_site_symmetry_multiplicity
 _atom_site_fract_x
 _atom_site_fract_y
 _atom_site_fract_z
 _atom_site_occupancy
  Na  Na0  1  0.39067700  0.37231400  0.13683700  1
  Na  Na1  1  0.62768600  0.60932300  0.36316300  1
  Na  Na2  1  0.60932300  0.62768600  0.86316300  1
  Na  Na3  1  0.37231400  0.39067700  0.63683700  1
  Na  Na4  1  0.98394800  0.90707300  0.41994400  1
  Na  Na5  1  0.09292700  0.01605200  0.08005600  1
  Na  Na6  1  0.01605200  0.09292700  0.58005600  1
  Na  Na7  1  0.90707300  0.98394800  0.91994400  1
  Na  Na8  1  0.50000000  0.50000000  0.00000000  1
  Na  Na9  1  0.50000000  0.50000000  0.50000000  1
  Na  Na10  1  0.27450600  0.28304600  0.32295100  1
  Na  Na11  1  0.71695400  0.72549400  0.17704900  1
  Na  Na12  1  0.72549400  0.71695400  0.67704900  1
  Na  Na13  1  0.28304600  0.27450600  0.82295100  1
  Na  Na14  1  0.84618700  0.85081400  0.26613100  1
  Na  Na15  1  0.14918600  0.15381300  0.23386900  1
  Na  Na16  1  0.15381300  0.14918600  0.73386900  1
  Na  Na17  1  0.85081400  0.84618700  0.76613100  1
  Gd  Gd18  1  0.59607200  0.40392800  0.25000000  1
  Gd  Gd19  1  0.40392800  0.59607200  0.75000000  1
  Gd  Gd20  1  0.80943300  0.83473700  0.01483700  1
  Gd  Gd21  1  0.16526300  0.19056700  0.48516300  1
  Gd  Gd22  1  0.19056700  0.16526300  0.98516300  1
  Gd  Gd23  1  0.83473700  0.80943300  0.51483700  1
  P  P24  1  0.97772300  0.90631700  0.15213900  1
  P  P25  1  0.09368300  0.02227700  0.34786100  1
  P  P26  1  0.02227700  0.09368300  0.84786100  1
  P  P27  1  0.90631700  0.97772300  0.65213900  1
  P  P28  1  0.40125800  0.37540900  0.38996100  1
  P  P29  1  0.62459100  0.59874200  0.11003900  1
  P  P30  1  0.59874200  0.62459100  0.61003900  1
  P  P31  1  0.37540900  0.40125800  0.88996100  1
  P  P32  1  0.73268800  0.72536300  0.89619400  1
  P  P33  1  0.27463700  0.26731200  0.60380600  1
  P  P34  1  0.26731200  0.27463700  0.10380600  1
  P  P35  1  0.72536300  0.73268800  0.39619400  1
  O  O36  1  0.43628500  0.45158500  0.37552300  1
  O  O37  1  0.54841600  0.56371500  0.12447700  1
  O  O38  1  0.56371500  0.54841600  0.62447700  1
  O  O39  1  0.45158500  0.43628500  0.87552300  1
  O  O40  1  0.77994000  0.78556700  0.86358700  1
  O  O41  1  0.21443300  0.22006000  0.63641300  1
  O  O42  1  0.22006000  0.21443300  0.13641300  1
  O  O43  1  0.78556700  0.77994000  0.36358700  1
  O  O44  1  0.92124700  0.85687100  0.11973800  1
  O  O45  1  0.14312900  0.07875300  0.38026200  1
  O  O46  1  0.07875300  0.14312900  0.88026200  1
  O  O47  1  0.85687100  0.92124700  0.61973800  1
  O  O48  1  0.47774500  0.92663400  0.85471400  1
  O  O49  1  0.07336600  0.52225500  0.64528600  1
  O  O50  1  0.52225500  0.07336600  0.14528600  1
  O  O51  1  0.92663400  0.47774500  0.35471400  1
  O  O52  1  0.27160400  0.64794900  0.14960300  1
  O  O53  1  0.35205100  0.72839600  0.35039700  1
  O  O54  1  0.72839600  0.35205100  0.85039700  1
  O  O55  1  0.64794900  0.27160400  0.64960300  1
  O  O56  1  0.84090500  0.10877300  0.08931800  1
  O  O57  1  0.89122700  0.15909500  0.41068200  1
  O  O58  1  0.15909500  0.89122700  0.91068200  1
  O  O59  1  0.10877300  0.84090500  0.58931800  1
  O  O60  1  0.94877000  0.46091200  0.85981600  1
  O  O61  1  0.53908800  0.05123000  0.64018400  1
  O  O62  1  0.05123000  0.53908800  0.14018400  1
  O  O63  1  0.46091200  0.94877000  0.35981600  1
  O  O64  1  0.31225400  0.41132500  0.29846100  1
  O  O65  1  0.58867500  0.68774600  0.20153900  1
  O  O66  1  0.68774600  0.58867500  0.70153900  1
  O  O67  1  0.41132500  0.31225400  0.79846100  1
  O  O68  1  0.65700900  0.09308200  0.42320000  1
  O  O69  1  0.90691800  0.34299100  0.07680000  1
  O  O70  1  0.34299100  0.90691800  0.57680000  1
  O  O71  1  0.09308200  0.65700900  0.92320000  1
  O  O72  1  0.86926300  0.01708500  0.25464500  1
  O  O73  1  0.98291500  0.13073700  0.24535500  1
  O  O74  1  0.13073700  0.98291500  0.74535500  1
  O  O75  1  0.01708500  0.86926300  0.75464500  1
  O  O76  1  0.20080700  0.54821300  0.47145200  1
  O  O77  1  0.45178700  0.79919300  0.02854800  1
  O  O78  1  0.79919300  0.45178700  0.52854800  1
  O  O79  1  0.54821300  0.20080700  0.97145200  1
  O  O80  1  0.72213300  0.73324600  0.00648100  1
  O  O81  1  0.26675400  0.27786700  0.49351900  1
  O  O82  1  0.27786700  0.26675400  0.99351900  1
  O  O83  1  0.73324600  0.72213300  0.50648100  1
