# generated using pymatgen
data_ZnH14C2(NO)12
_symmetry_space_group_name_H-M   'P 1'
_cell_length_a   7.39960990
_cell_length_b   7.56790705
_cell_length_c   9.01632209
_cell_angle_alpha   96.45741970
_cell_angle_beta   96.56759919
_cell_angle_gamma   116.58316980
_symmetry_Int_Tables_number   1
_chemical_formula_structural   ZnH14C2(NO)12
_chemical_formula_sum   'Zn1 H14 C2 N12 O12'
_cell_volume   440.89504257
_cell_formula_units_Z   1
loop_
 _symmetry_equiv_pos_site_id
 _symmetry_equiv_pos_as_xyz
  1  'x, y, z'
loop_
 _atom_site_type_symbol
 _atom_site_label
 _atom_site_symmetry_multiplicity
 _atom_site_fract_x
 _atom_site_fract_y
 _atom_site_fract_z
 _atom_site_occupancy
  Zn  Zn0  1  0.50000000  0.50000000  0.00000000  1
  H  H1  1  0.11867700  0.39090700  0.86228400  1
  H  H2  1  0.88132300  0.60909300  0.13771600  1
  H  H3  1  0.27185800  0.62122600  0.83597700  1
  H  H4  1  0.72814200  0.37877400  0.16402300  1
  H  H5  1  0.16194900  0.38969800  0.59750000  1
  H  H6  1  0.83805100  0.61030200  0.40250000  1
  H  H7  1  0.48404300  0.17940000  0.51552500  1
  H  H8  1  0.51595700  0.82060000  0.48447500  1
  H  H9  1  0.26063600  0.19902600  0.44119700  1
  H  H10  1  0.73936400  0.80097400  0.55880300  1
  H  H11  1  0.26209800  0.07782600  0.96266900  1
  H  H12  1  0.73790200  0.92217400  0.03733100  1
  H  H13  1  0.21830300  0.16115700  0.11832300  1
  H  H14  1  0.78169700  0.83884300  0.88167700  1
  C  C15  1  0.39862500  0.32683700  0.66636100  1
  C  C16  1  0.60137500  0.67316300  0.33363900  1
  N  N17  1  0.25876300  0.47973300  0.83495700  1
  N  N18  1  0.74123700  0.52026700  0.16504300  1
  N  N19  1  0.26616600  0.40027300  0.68849600  1
  N  N20  1  0.73383400  0.59972700  0.31150400  1
  N  N21  1  0.38418200  0.23587800  0.52729500  1
  N  N22  1  0.61581800  0.76412200  0.47270500  1
  N  N23  1  0.53962200  0.35939300  0.79196700  1
  N  N24  1  0.46037800  0.64060700  0.20803300  1
  N  N25  1  0.67758300  0.28704300  0.78555700  1
  N  N26  1  0.32241700  0.71295700  0.21444300  1
  N  N27  1  0.05722000  0.80918800  0.71210600  1
  N  N28  1  0.94278000  0.19081200  0.28789400  1
  O  O29  1  0.80030200  0.32818300  0.90679300  1
  O  O30  1  0.19969800  0.67181700  0.09320700  1
  O  O31  1  0.68334800  0.18769700  0.66666700  1
  O  O32  1  0.31665200  0.81230300  0.33333300  1
  O  O33  1  0.30693100  0.19836900  0.04201900  1
  O  O34  1  0.69306900  0.80163100  0.95798100  1
  O  O35  1  0.21844200  0.87228300  0.81199900  1
  O  O36  1  0.78155800  0.12771700  0.18800100  1
  O  O37  1  0.94289600  0.89561500  0.72014500  1
  O  O38  1  0.05710400  0.10438500  0.27985500  1
  O  O39  1  0.00969600  0.66325000  0.60670400  1
  O  O40  1  0.99030400  0.33675000  0.39329600  1
