# generated using pymatgen
data_Na2Co7H16(CO2)16
_symmetry_space_group_name_H-M   'P 1'
_cell_length_a   8.45419900
_cell_length_b   8.55304389
_cell_length_c   12.98599625
_cell_angle_alpha   90.65528688
_cell_angle_beta   95.99846397
_cell_angle_gamma   100.84292193
_symmetry_Int_Tables_number   1
_chemical_formula_structural   Na2Co7H16(CO2)16
_chemical_formula_sum   'Na2 Co7 H16 C16 O32'
_cell_volume   916.72727063
_cell_formula_units_Z   1
loop_
 _symmetry_equiv_pos_site_id
 _symmetry_equiv_pos_as_xyz
  1  'x, y, z'
loop_
 _atom_site_type_symbol
 _atom_site_label
 _atom_site_symmetry_multiplicity
 _atom_site_fract_x
 _atom_site_fract_y
 _atom_site_fract_z
 _atom_site_occupancy
  Na  Na0  1  0.26952500  0.22581500  0.91187900  1
  Na  Na1  1  0.73047500  0.77418500  0.08812100  1
  Co  Co2  1  0.00000000  0.00000000  0.50000000  1
  Co  Co3  1  0.61605900  0.27301800  0.76489000  1
  Co  Co4  1  0.38394100  0.72698200  0.23511000  1
  Co  Co5  1  0.93091400  0.03435600  0.74229100  1
  Co  Co6  1  0.06908600  0.96564400  0.25770900  1
  Co  Co7  1  0.76809200  0.64399500  0.83633900  1
  Co  Co8  1  0.23190800  0.35600500  0.16366100  1
  H  H9  1  0.73132700  0.21246700  0.47583000  1
  H  H10  1  0.26867300  0.78753300  0.52417000  1
  H  H11  1  0.08619600  0.50479600  0.82588800  1
  H  H12  1  0.91380400  0.49520400  0.17411200  1
  H  H13  1  0.35382400  0.08839000  0.59692500  1
  H  H14  1  0.64617600  0.91161000  0.40307500  1
  H  H15  1  0.18006600  0.87416200  0.99049500  1
  H  H16  1  0.81993400  0.12583800  0.00950500  1
  H  H17  1  0.78898000  0.58939000  0.61387100  1
  H  H18  1  0.21102000  0.41061000  0.38612900  1
  H  H19  1  0.62706300  0.35607700  0.07115100  1
  H  H20  1  0.37293700  0.64392300  0.92884900  1
  H  H21  1  0.51029300  0.97630500  0.87269800  1
  H  H22  1  0.48970700  0.02369500  0.12730200  1
  H  H23  1  0.36056700  0.46056900  0.65255300  1
  H  H24  1  0.63943300  0.53943100  0.34744700  1
  C  C25  1  0.74143800  0.18822800  0.55950400  1
  C  C26  1  0.25856200  0.81177200  0.44049600  1
  C  C27  1  0.99019300  0.40001700  0.80359700  1
  C  C28  1  0.00980700  0.59998300  0.19640300  1
  C  C29  1  0.28685200  0.09276600  0.66523900  1
  C  C30  1  0.71314800  0.90723400  0.33476100  1
  C  C31  1  0.07740400  0.86173900  0.92872900  1
  C  C32  1  0.92259600  0.13826100  0.07127100  1
  C  C33  1  0.84165500  0.71758100  0.61863800  1
  C  C34  1  0.15834500  0.28241900  0.38136200  1
  C  C35  1  0.63924300  0.39180600  0.99025600  1
  C  C36  1  0.36075700  0.60819400  0.00974400  1
  C  C37  1  0.62794600  0.95141700  0.85494800  1
  C  C38  1  0.37205400  0.04858300  0.14505200  1
  C  C39  1  0.44275100  0.55666900  0.70091300  1
  C  C40  1  0.55724900  0.44333100  0.29908700  1
  O  O41  1  0.65303100  0.24976900  0.61355900  1
  O  O42  1  0.34696900  0.75023100  0.38644100  1
  O  O43  1  0.84231500  0.09935400  0.59130500  1
  O  O44  1  0.15768500  0.90064600  0.40869500  1
  O  O45  1  0.84571800  0.42554400  0.79368800  1
  O  O46  1  0.15428200  0.57445600  0.20631200  1
  O  O47  1  0.03373100  0.26874500  0.79070200  1
  O  O48  1  0.96626900  0.73125500  0.20929800  1
  O  O49  1  0.13550100  0.03343400  0.65191900  1
  O  O50  1  0.86449900  0.96656600  0.34808100  1
  O  O51  1  0.36487300  0.15582600  0.74856400  1
  O  O52  1  0.63512700  0.84417400  0.25143600  1
  O  O53  1  0.06547000  0.98555500  0.87783200  1
  O  O54  1  0.93453000  0.01444500  0.12216800  1
  O  O55  1  0.98723700  0.72558600  0.91919500  1
  O  O56  1  0.01276300  0.27441400  0.08080500  1
  O  O57  1  0.88940900  0.77987000  0.53773300  1
  O  O58  1  0.11059100  0.22013000  0.46226700  1
  O  O59  1  0.84729800  0.78687700  0.70786000  1
  O  O60  1  0.15270200  0.21312300  0.29214000  1
  O  O61  1  0.58230800  0.28305400  0.92115700  1
  O  O62  1  0.41769200  0.71694600  0.07884300  1
  O  O63  1  0.70515800  0.53462900  0.97710900  1
  O  O64  1  0.29484200  0.46537100  0.02289100  1
  O  O65  1  0.67487300  0.83265000  0.89496400  1
  O  O66  1  0.32512700  0.16735000  0.10503600  1
  O  O67  1  0.70572500  0.05178500  0.79672800  1
  O  O68  1  0.29427500  0.94821500  0.20327200  1
  O  O69  1  0.56689500  0.50801800  0.75098800  1
  O  O70  1  0.43310500  0.49198200  0.24901200  1
  O  O71  1  0.41457700  0.69257900  0.70418800  1
  O  O72  1  0.58542300  0.30742100  0.29581200  1
