data_image0
_chemical_formula_structural       Nb3Si6
_chemical_formula_sum              "Nb3 Si6"
_cell_length_a       4.81034
_cell_length_b       4.81033
_cell_length_c       6.61904
_cell_angle_alpha    90
_cell_angle_beta     90
_cell_angle_gamma    120

_space_group_name_H-M_alt    "P 1"
_space_group_IT_number       1

loop_
  _space_group_symop_operation_xyz
  'x, y, z'

loop_
  _atom_site_type_symbol
  _atom_site_label
  _atom_site_symmetry_multiplicity
  _atom_site_fract_x
  _atom_site_fract_y
  _atom_site_fract_z
  _atom_site_occupancy
  Nb  Nb1       1.0  0.00000  0.50000  0.16700  1.0000
  Nb  Nb2       1.0  0.50000  0.00000  0.50000  1.0000
  Nb  Nb3       1.0  0.50000  0.50000  0.83300  1.0000
  Si  Si1       1.0  0.31900  0.15900  0.16700  1.0000
  Si  Si2       1.0  0.68100  0.84100  0.16700  1.0000
  Si  Si3       1.0  0.15900  0.31900  0.50000  1.0000
  Si  Si4       1.0  0.84100  0.68100  0.50000  1.0000
  Si  Si5       1.0  0.84100  0.15900  0.83300  1.0000
  Si  Si6       1.0  0.15900  0.84100  0.83300  1.0000
