# generated using pymatgen
data_MgB12(H3O)12
_symmetry_space_group_name_H-M   'P 1'
_cell_length_a   11.72755830
_cell_length_b   11.72755830
_cell_length_c   11.72755830
_cell_angle_alpha   60.00000000
_cell_angle_beta   60.00000000
_cell_angle_gamma   60.00000000
_symmetry_Int_Tables_number   1
_chemical_formula_structural   MgB12(H3O)12
_chemical_formula_sum   'Mg2 B24 H72 O24'
_cell_volume   1140.53286402
_cell_formula_units_Z   2
loop_
 _symmetry_equiv_pos_site_id
 _symmetry_equiv_pos_as_xyz
  1  'x, y, z'
loop_
 _atom_site_type_symbol
 _atom_site_label
 _atom_site_symmetry_multiplicity
 _atom_site_fract_x
 _atom_site_fract_y
 _atom_site_fract_z
 _atom_site_occupancy
  Mg  Mg0  1  0.25000000  0.25000000  0.25000000  1
  Mg  Mg1  1  0.00000000  0.00000000  0.00000000  1
  B  B2  1  0.89032000  0.78374000  0.60929800  1
  B  B3  1  0.71664200  0.89032000  0.60929800  1
  B  B4  1  0.78374000  0.71664200  0.60929800  1
  B  B5  1  0.46626000  0.35968000  0.64070200  1
  B  B6  1  0.53335800  0.46626000  0.64070200  1
  B  B7  1  0.35968000  0.53335800  0.64070200  1
  B  B8  1  0.60929800  0.71664200  0.89032000  1
  B  B9  1  0.60929800  0.78374000  0.71664200  1
  B  B10  1  0.60929800  0.89032000  0.78374000  1
  B  B11  1  0.64070200  0.53335800  0.46626000  1
  B  B12  1  0.64070200  0.35968000  0.53335800  1
  B  B13  1  0.64070200  0.46626000  0.35968000  1
  B  B14  1  0.71664200  0.60929800  0.78374000  1
  B  B15  1  0.78374000  0.60929800  0.89032000  1
  B  B16  1  0.89032000  0.60929800  0.71664200  1
  B  B17  1  0.53335800  0.64070200  0.35968000  1
  B  B18  1  0.35968000  0.64070200  0.46626000  1
  B  B19  1  0.46626000  0.64070200  0.53335800  1
  B  B20  1  0.78374000  0.89032000  0.71664200  1
  B  B21  1  0.89032000  0.71664200  0.78374000  1
  B  B22  1  0.71664200  0.78374000  0.89032000  1
  B  B23  1  0.35968000  0.46626000  0.53335800  1
  B  B24  1  0.46626000  0.53335800  0.35968000  1
  B  B25  1  0.53335800  0.35968000  0.46626000  1
  H  H26  1  0.02506200  0.14721600  0.38735700  1
  H  H27  1  0.44036500  0.02506200  0.38735700  1
  H  H28  1  0.14721600  0.44036500  0.38735700  1
  H  H29  1  0.10278400  0.22493800  0.86264300  1
  H  H30  1  0.80963500  0.10278400  0.86264300  1
  H  H31  1  0.22493800  0.80963500  0.86264300  1
  H  H32  1  0.38735700  0.44036500  0.02506200  1
  H  H33  1  0.38735700  0.14721600  0.44036500  1
  H  H34  1  0.38735700  0.02506200  0.14721600  1
  H  H35  1  0.86264300  0.80963500  0.10278400  1
  H  H36  1  0.86264300  0.22493800  0.80963500  1
  H  H37  1  0.86264300  0.10278400  0.22493800  1
  H  H38  1  0.44036500  0.38735700  0.14721600  1
  H  H39  1  0.14721600  0.38735700  0.02506200  1
  H  H40  1  0.02506200  0.38735700  0.44036500  1
  H  H41  1  0.80963500  0.86264300  0.22493800  1
  H  H42  1  0.22493800  0.86264300  0.10278400  1
  H  H43  1  0.10278400  0.86264300  0.80963500  1
  H  H44  1  0.14721600  0.02506200  0.44036500  1
  H  H45  1  0.02506200  0.44036500  0.14721600  1
  H  H46  1  0.44036500  0.14721600  0.02506200  1
  H  H47  1  0.22493800  0.10278400  0.80963500  1
  H  H48  1  0.10278400  0.80963500  0.22493800  1
  H  H49  1  0.80963500  0.22493800  0.10278400  1
  H  H50  1  0.97231800  0.34411800  0.64142500  1
  H  H51  1  0.04213900  0.97231800  0.64142500  1
  H  H52  1  0.34411800  0.04213900  0.64142500  1
  H  H53  1  0.90588200  0.27768200  0.60857500  1
  H  H54  1  0.20786100  0.90588200  0.60857500  1
  H  H55  1  0.27768200  0.20786100  0.60857500  1
  H  H56  1  0.64142500  0.04213900  0.97231800  1
  H  H57  1  0.64142500  0.34411800  0.04213900  1
  H  H58  1  0.64142500  0.97231800  0.34411800  1
  H  H59  1  0.60857500  0.20786100  0.90588200  1
  H  H60  1  0.60857500  0.27768200  0.20786100  1
  H  H61  1  0.60857500  0.90588200  0.27768200  1
  H  H62  1  0.04213900  0.64142500  0.34411800  1
  H  H63  1  0.34411800  0.64142500  0.97231800  1
  H  H64  1  0.97231800  0.64142500  0.04213900  1
  H  H65  1  0.20786100  0.60857500  0.27768200  1
  H  H66  1  0.27768200  0.60857500  0.90588200  1
  H  H67  1  0.90588200  0.60857500  0.20786100  1
  H  H68  1  0.34411800  0.97231800  0.04213900  1
  H  H69  1  0.97231800  0.04213900  0.34411800  1
  H  H70  1  0.04213900  0.34411800  0.97231800  1
  H  H71  1  0.27768200  0.90588200  0.20786100  1
  H  H72  1  0.90588200  0.20786100  0.27768200  1
  H  H73  1  0.20786100  0.27768200  0.90588200  1
  H  H74  1  0.98981900  0.80898000  0.50854900  1
  H  H75  1  0.69265200  0.98981900  0.50854900  1
  H  H76  1  0.80898000  0.69265200  0.50854900  1
  H  H77  1  0.44102000  0.26018100  0.74145100  1
  H  H78  1  0.55734800  0.44102000  0.74145100  1
  H  H79  1  0.26018100  0.55734800  0.74145100  1
  H  H80  1  0.50854900  0.69265200  0.98981900  1
  H  H81  1  0.50854900  0.80898000  0.69265200  1
  H  H82  1  0.50854900  0.98981900  0.80898000  1
  H  H83  1  0.74145100  0.55734800  0.44102000  1
  H  H84  1  0.74145100  0.26018100  0.55734800  1
  H  H85  1  0.74145100  0.44102000  0.26018100  1
  H  H86  1  0.69265200  0.50854900  0.80898000  1
  H  H87  1  0.80898000  0.50854900  0.98981900  1
  H  H88  1  0.98981900  0.50854900  0.69265200  1
  H  H89  1  0.55734800  0.74145100  0.26018100  1
  H  H90  1  0.26018100  0.74145100  0.44102000  1
  H  H91  1  0.44102000  0.74145100  0.55734800  1
  H  H92  1  0.80898000  0.98981900  0.69265200  1
  H  H93  1  0.98981900  0.69265200  0.80898000  1
  H  H94  1  0.69265200  0.80898000  0.98981900  1
  H  H95  1  0.26018100  0.44102000  0.55734800  1
  H  H96  1  0.44102000  0.55734800  0.26018100  1
  H  H97  1  0.55734800  0.26018100  0.44102000  1
  O  O98  1  0.12287900  0.12287900  0.37712100  1
  O  O99  1  0.37712100  0.12287900  0.37712100  1
  O  O100  1  0.12287900  0.37712100  0.37712100  1
  O  O101  1  0.12712100  0.12712100  0.87287900  1
  O  O102  1  0.87287900  0.12712100  0.87287900  1
  O  O103  1  0.12712100  0.87287900  0.87287900  1
  O  O104  1  0.37712100  0.37712100  0.12287900  1
  O  O105  1  0.37712100  0.12287900  0.12287900  1
  O  O106  1  0.87287900  0.87287900  0.12712100  1
  O  O107  1  0.87287900  0.12712100  0.12712100  1
  O  O108  1  0.12287900  0.37712100  0.12287900  1
  O  O109  1  0.12712100  0.87287900  0.12712100  1
  O  O110  1  0.89193000  0.35807000  0.62500000  1
  O  O111  1  0.12500000  0.89193000  0.62500000  1
  O  O112  1  0.35807000  0.12500000  0.62500000  1
  O  O113  1  0.62500000  0.12500000  0.89193000  1
  O  O114  1  0.62500000  0.35807000  0.12500000  1
  O  O115  1  0.62500000  0.89193000  0.35807000  1
  O  O116  1  0.12500000  0.62500000  0.35807000  1
  O  O117  1  0.35807000  0.62500000  0.89193000  1
  O  O118  1  0.89193000  0.62500000  0.12500000  1
  O  O119  1  0.35807000  0.89193000  0.12500000  1
  O  O120  1  0.89193000  0.12500000  0.35807000  1
  O  O121  1  0.12500000  0.35807000  0.89193000  1
