# generated using pymatgen
data_Ni(CO)4
_symmetry_space_group_name_H-M   'P 1'
_cell_length_a   11.02351800
_cell_length_b   11.02351800
_cell_length_c   11.02351800
_cell_angle_alpha   90.00000000
_cell_angle_beta   90.00000000
_cell_angle_gamma   90.00000000
_symmetry_Int_Tables_number   1
_chemical_formula_structural   Ni(CO)4
_chemical_formula_sum   'Ni8 C32 O32'
_cell_volume   1339.55529919
_cell_formula_units_Z   8
loop_
 _symmetry_equiv_pos_site_id
 _symmetry_equiv_pos_as_xyz
  1  'x, y, z'
loop_
 _atom_site_type_symbol
 _atom_site_label
 _atom_site_symmetry_multiplicity
 _atom_site_fract_x
 _atom_site_fract_y
 _atom_site_fract_z
 _atom_site_occupancy
  Ni  Ni0  1  0.37812300  0.62187700  0.12187700  1
  Ni  Ni1  1  0.62187700  0.12187700  0.37812300  1
  Ni  Ni2  1  0.12187700  0.37812300  0.62187700  1
  Ni  Ni3  1  0.87812300  0.87812300  0.87812300  1
  Ni  Ni4  1  0.62187700  0.37812300  0.87812300  1
  Ni  Ni5  1  0.37812300  0.87812300  0.62187700  1
  Ni  Ni6  1  0.87812300  0.62187700  0.37812300  1
  Ni  Ni7  1  0.12187700  0.12187700  0.12187700  1
  C  C8  1  0.28410800  0.71589200  0.21589200  1
  C  C9  1  0.71589200  0.21589200  0.28410800  1
  C  C10  1  0.21589200  0.28410800  0.71589200  1
  C  C11  1  0.78410800  0.78410800  0.78410800  1
  C  C12  1  0.71589200  0.28410800  0.78410800  1
  C  C13  1  0.28410800  0.78410800  0.71589200  1
  C  C14  1  0.78410800  0.71589200  0.28410800  1
  C  C15  1  0.21589200  0.21589200  0.21589200  1
  C  C16  1  0.28379400  0.52604900  0.03031400  1
  C  C17  1  0.71620600  0.02604900  0.46968600  1
  C  C18  1  0.21620600  0.47395100  0.53031400  1
  C  C19  1  0.78379400  0.97395100  0.96968600  1
  C  C20  1  0.03031400  0.28379400  0.52604900  1
  C  C21  1  0.46968600  0.71620600  0.02604900  1
  C  C22  1  0.53031400  0.21620600  0.47395100  1
  C  C23  1  0.96968600  0.78379400  0.97395100  1
  C  C24  1  0.52604900  0.03031400  0.28379400  1
  C  C25  1  0.02604900  0.46968600  0.71620600  1
  C  C26  1  0.47395100  0.53031400  0.21620600  1
  C  C27  1  0.97395100  0.96968600  0.78379400  1
  C  C28  1  0.71620600  0.47395100  0.96968600  1
  C  C29  1  0.28379400  0.97395100  0.53031400  1
  C  C30  1  0.78379400  0.52604900  0.46968600  1
  C  C31  1  0.21620600  0.02604900  0.03031400  1
  C  C32  1  0.96968600  0.71620600  0.47395100  1
  C  C33  1  0.53031400  0.28379400  0.97395100  1
  C  C34  1  0.46968600  0.78379400  0.52604900  1
  C  C35  1  0.03031400  0.21620600  0.02604900  1
  C  C36  1  0.47395100  0.96968600  0.71620600  1
  C  C37  1  0.97395100  0.53031400  0.28379400  1
  C  C38  1  0.52604900  0.46968600  0.78379400  1
  C  C39  1  0.02604900  0.03031400  0.21620600  1
  O  O40  1  0.22368400  0.77631600  0.27631600  1
  O  O41  1  0.77631600  0.27631600  0.22368400  1
  O  O42  1  0.27631600  0.22368400  0.77631600  1
  O  O43  1  0.72368400  0.72368400  0.72368400  1
  O  O44  1  0.77631600  0.22368400  0.72368400  1
  O  O45  1  0.22368400  0.72368400  0.77631600  1
  O  O46  1  0.72368400  0.77631600  0.22368400  1
  O  O47  1  0.27631600  0.27631600  0.27631600  1
  O  O48  1  0.22356700  0.46386600  0.97144600  1
  O  O49  1  0.77643300  0.96386600  0.52855400  1
  O  O50  1  0.27643300  0.53613400  0.47144600  1
  O  O51  1  0.72356700  0.03613400  0.02855400  1
  O  O52  1  0.97144600  0.22356700  0.46386600  1
  O  O53  1  0.52855400  0.77643300  0.96386600  1
  O  O54  1  0.47144600  0.27643300  0.53613400  1
  O  O55  1  0.02855400  0.72356700  0.03613400  1
  O  O56  1  0.46386600  0.97144600  0.22356700  1
  O  O57  1  0.96386600  0.52855400  0.77643300  1
  O  O58  1  0.53613400  0.47144600  0.27643300  1
  O  O59  1  0.03613400  0.02855400  0.72356700  1
  O  O60  1  0.77643300  0.53613400  0.02855400  1
  O  O61  1  0.22356700  0.03613400  0.47144600  1
  O  O62  1  0.72356700  0.46386600  0.52855400  1
  O  O63  1  0.27643300  0.96386600  0.97144600  1
  O  O64  1  0.02855400  0.77643300  0.53613400  1
  O  O65  1  0.47144600  0.22356700  0.03613400  1
  O  O66  1  0.52855400  0.72356700  0.46386600  1
  O  O67  1  0.97144600  0.27643300  0.96386600  1
  O  O68  1  0.53613400  0.02855400  0.77643300  1
  O  O69  1  0.03613400  0.47144600  0.22356700  1
  O  O70  1  0.46386600  0.52855400  0.72356700  1
  O  O71  1  0.96386600  0.97144600  0.27643300  1
