# generated using pymatgen
data_Na6Mn2V4O15
_symmetry_space_group_name_H-M   'P 1'
_cell_length_a   5.78506700
_cell_length_b   7.47150918
_cell_length_c   17.52506234
_cell_angle_alpha   90.11304969
_cell_angle_beta   90.00000000
_cell_angle_gamma   90.00000000
_symmetry_Int_Tables_number   1
_chemical_formula_structural   Na6Mn2V4O15
_chemical_formula_sum   'Na12 Mn4 V8 O30'
_cell_volume   757.48747059
_cell_formula_units_Z   2
loop_
 _symmetry_equiv_pos_site_id
 _symmetry_equiv_pos_as_xyz
  1  'x, y, z'
loop_
 _atom_site_type_symbol
 _atom_site_label
 _atom_site_symmetry_multiplicity
 _atom_site_fract_x
 _atom_site_fract_y
 _atom_site_fract_z
 _atom_site_occupancy
  Na  Na0  1  0.73017200  0.50000000  0.25000000  1
  Na  Na1  1  0.26982800  0.50000000  0.75000000  1
  Na  Na2  1  0.74871100  0.00000000  0.25000000  1
  Na  Na3  1  0.25128900  0.00000000  0.75000000  1
  Na  Na4  1  0.23363700  0.99767000  0.42186200  1
  Na  Na5  1  0.23363700  0.00233000  0.07813800  1
  Na  Na6  1  0.76636300  0.00233000  0.57813800  1
  Na  Na7  1  0.76636300  0.99767000  0.92186200  1
  Na  Na8  1  0.21085200  0.45934100  0.41837900  1
  Na  Na9  1  0.21085200  0.54065900  0.08162100  1
  Na  Na10  1  0.78914800  0.54065900  0.58162100  1
  Na  Na11  1  0.78914800  0.45934100  0.91837900  1
  Mn  Mn12  1  0.74189000  0.74988600  0.40849800  1
  Mn  Mn13  1  0.74189000  0.25011400  0.09150200  1
  Mn  Mn14  1  0.25811000  0.25011400  0.59150200  1
  Mn  Mn15  1  0.25811000  0.74988600  0.90849800  1
  V  V16  1  0.25509300  0.74585500  0.55684600  1
  V  V17  1  0.25509300  0.25414500  0.94315400  1
  V  V18  1  0.74490700  0.25414500  0.44315400  1
  V  V19  1  0.74490700  0.74585500  0.05684600  1
  V  V20  1  0.24288200  0.73796000  0.26869400  1
  V  V21  1  0.24288200  0.26204000  0.23130600  1
  V  V22  1  0.75711800  0.26204000  0.73130600  1
  V  V23  1  0.75711800  0.73796000  0.76869400  1
  O  O24  1  0.26788600  0.94941300  0.60298300  1
  O  O25  1  0.26788600  0.05058700  0.89701700  1
  O  O26  1  0.73211400  0.05058700  0.39701700  1
  O  O27  1  0.73211400  0.94941300  0.10298300  1
  O  O28  1  0.23310500  0.55501400  0.61483300  1
  O  O29  1  0.23310500  0.44498600  0.88516700  1
  O  O30  1  0.76689500  0.44498600  0.38516700  1
  O  O31  1  0.76689500  0.55501400  0.11483300  1
  O  O32  1  0.01024000  0.75003400  0.49668900  1
  O  O33  1  0.01024000  0.24996600  0.00331100  1
  O  O34  1  0.98976000  0.24996600  0.50331100  1
  O  O35  1  0.98976000  0.75003400  0.99668900  1
  O  O36  1  0.49966600  0.72897200  0.49811900  1
  O  O37  1  0.49966600  0.27102800  0.00188100  1
  O  O38  1  0.50033400  0.27102800  0.50188100  1
  O  O39  1  0.50033400  0.72897200  0.99811900  1
  O  O40  1  0.49699000  0.77772200  0.31761800  1
  O  O41  1  0.49699000  0.22227800  0.18238200  1
  O  O42  1  0.50301000  0.22227800  0.68238200  1
  O  O43  1  0.50301000  0.77772200  0.81761800  1
  O  O44  1  0.25297800  0.50000000  0.25000000  1
  O  O45  1  0.74702200  0.50000000  0.75000000  1
  O  O46  1  0.99928800  0.77036800  0.32371000  1
  O  O47  1  0.99928800  0.22963200  0.17629000  1
  O  O48  1  0.00071200  0.22963200  0.67629000  1
  O  O49  1  0.00071200  0.77036800  0.82371000  1
  O  O50  1  0.22601700  0.84100000  0.18332700  1
  O  O51  1  0.22601700  0.15900000  0.31667300  1
  O  O52  1  0.77398300  0.15900000  0.81667300  1
  O  O53  1  0.77398300  0.84100000  0.68332700  1
