# generated using pymatgen
data_Cs7(InAs2)3
_symmetry_space_group_name_H-M   'P 1'
_cell_length_a   8.89206700
_cell_length_b   9.87481720
_cell_length_c   15.07299393
_cell_angle_alpha   85.36745295
_cell_angle_beta   85.60890373
_cell_angle_gamma   87.32450991
_symmetry_Int_Tables_number   1
_chemical_formula_structural   Cs7(InAs2)3
_chemical_formula_sum   'Cs14 In6 As12'
_cell_volume   1314.23400451
_cell_formula_units_Z   2
loop_
 _symmetry_equiv_pos_site_id
 _symmetry_equiv_pos_as_xyz
  1  'x, y, z'
loop_
 _atom_site_type_symbol
 _atom_site_label
 _atom_site_symmetry_multiplicity
 _atom_site_fract_x
 _atom_site_fract_y
 _atom_site_fract_z
 _atom_site_occupancy
  Cs  Cs0  1  0.81388100  0.81510100  0.12910800  1
  Cs  Cs1  1  0.18611900  0.18489900  0.87089200  1
  Cs  Cs2  1  0.27659300  0.26165100  0.25022800  1
  Cs  Cs3  1  0.72340700  0.73834900  0.74977200  1
  Cs  Cs4  1  0.74476400  0.50234500  0.98120300  1
  Cs  Cs5  1  0.25523600  0.49765500  0.01879700  1
  Cs  Cs6  1  0.68961800  0.08470600  0.88351600  1
  Cs  Cs7  1  0.31038200  0.91529400  0.11648400  1
  Cs  Cs8  1  0.69128600  0.65613100  0.39395700  1
  Cs  Cs9  1  0.30871400  0.34386900  0.60604300  1
  Cs  Cs10  1  0.75665800  0.99157900  0.53226300  1
  Cs  Cs11  1  0.24334200  0.00842100  0.46773700  1
  Cs  Cs12  1  0.82586600  0.37217400  0.63697100  1
  Cs  Cs13  1  0.17413400  0.62782600  0.36302900  1
  In  In14  1  0.91484100  0.27249800  0.37748700  1
  In  In15  1  0.08515900  0.72750200  0.62251300  1
  In  In16  1  0.94255100  0.18290000  0.13190000  1
  In  In17  1  0.05744900  0.81710000  0.86810000  1
  In  In18  1  0.63528500  0.04403200  0.29653200  1
  In  In19  1  0.36471500  0.95596800  0.70346800  1
  As  As20  1  0.63930000  0.40100300  0.22679400  1
  As  As21  1  0.36070000  0.59899700  0.77320600  1
  As  As22  1  0.48646500  0.59986100  0.19178800  1
  As  As23  1  0.51353500  0.40013900  0.80821200  1
  As  As24  1  0.91075500  0.44787900  0.21250500  1
  As  As25  1  0.08924500  0.55212100  0.78749500  1
  As  As26  1  0.58941500  0.30137400  0.38486700  1
  As  As27  1  0.41058500  0.69862600  0.61513300  1
  As  As28  1  0.62098700  0.20793600  0.12508500  1
  As  As29  1  0.37901300  0.79206400  0.87491500  1
  As  As30  1  0.96049900  0.01012400  0.29831200  1
  As  As31  1  0.03950100  0.98987600  0.70168800  1
