# generated using pymatgen
data_Co2AsO5
_symmetry_space_group_name_H-M   'P 1'
_cell_length_a   5.95827700
_cell_length_b   8.40891300
_cell_length_c   8.41697300
_cell_angle_alpha   90.00000000
_cell_angle_beta   90.00000000
_cell_angle_gamma   90.00000000
_symmetry_Int_Tables_number   1
_chemical_formula_structural   Co2AsO5
_chemical_formula_sum   'Co8 As4 O20'
_cell_volume   421.71250854
_cell_formula_units_Z   4
loop_
 _symmetry_equiv_pos_site_id
 _symmetry_equiv_pos_as_xyz
  1  'x, y, z'
loop_
 _atom_site_type_symbol
 _atom_site_label
 _atom_site_symmetry_multiplicity
 _atom_site_fract_x
 _atom_site_fract_y
 _atom_site_fract_z
 _atom_site_occupancy
  Co  Co0  1  0.74516200  0.50000000  0.50000000  1
  Co  Co1  1  0.75483800  0.00000000  0.00000000  1
  Co  Co2  1  0.25483800  0.50000000  0.50000000  1
  Co  Co3  1  0.24516200  0.00000000  0.00000000  1
  Co  Co4  1  0.00000000  0.87840900  0.34731900  1
  Co  Co5  1  0.00000000  0.12159100  0.65268100  1
  Co  Co6  1  0.50000000  0.37840900  0.15268100  1
  Co  Co7  1  0.50000000  0.62159100  0.84731900  1
  As  As8  1  0.50000000  0.74757700  0.24462600  1
  As  As9  1  0.50000000  0.25242300  0.75537400  1
  As  As10  1  0.00000000  0.24757700  0.25537400  1
  As  As11  1  0.00000000  0.75242300  0.74462600  1
  O  O12  1  0.00000000  0.93035200  0.12461500  1
  O  O13  1  0.00000000  0.06964800  0.87538500  1
  O  O14  1  0.50000000  0.43035200  0.37538500  1
  O  O15  1  0.50000000  0.56964800  0.62461500  1
  O  O16  1  0.50000000  0.92915600  0.14086800  1
  O  O17  1  0.50000000  0.07084400  0.85913200  1
  O  O18  1  0.00000000  0.42915600  0.35913200  1
  O  O19  1  0.00000000  0.57084400  0.64086800  1
  O  O20  1  0.50000000  0.60616500  0.09742200  1
  O  O21  1  0.50000000  0.39383500  0.90257800  1
  O  O22  1  0.00000000  0.10616500  0.40257800  1
  O  O23  1  0.00000000  0.89383500  0.59742200  1
  O  O24  1  0.73519800  0.73337700  0.36257600  1
  O  O25  1  0.73519800  0.26662300  0.63742400  1
  O  O26  1  0.76480200  0.23337700  0.13742400  1
  O  O27  1  0.76480200  0.76662300  0.86257600  1
  O  O28  1  0.26480200  0.26662300  0.63742400  1
  O  O29  1  0.26480200  0.73337700  0.36257600  1
  O  O30  1  0.23519800  0.76662300  0.86257600  1
  O  O31  1  0.23519800  0.23337700  0.13742400  1
