# generated using pymatgen
data_TiH24C6I3(N2O)6
_symmetry_space_group_name_H-M   'P 1'
_cell_length_a   11.46738108
_cell_length_b   11.46738108
_cell_length_c   11.46738111
_cell_angle_alpha   104.11706017
_cell_angle_beta   104.11706017
_cell_angle_gamma   104.11705999
_symmetry_Int_Tables_number   1
_chemical_formula_structural   TiH24C6I3(N2O)6
_chemical_formula_sum   'Ti2 H48 C12 I6 N24 O12'
_cell_volume   1342.44376971
_cell_formula_units_Z   2
loop_
 _symmetry_equiv_pos_site_id
 _symmetry_equiv_pos_as_xyz
  1  'x, y, z'
loop_
 _atom_site_type_symbol
 _atom_site_label
 _atom_site_symmetry_multiplicity
 _atom_site_fract_x
 _atom_site_fract_y
 _atom_site_fract_z
 _atom_site_occupancy
  Ti  Ti0  1  0.25000000  0.25000000  0.25000000  1
  Ti  Ti1  1  0.75000000  0.75000000  0.75000000  1
  H  H2  1  0.13452900  0.61019800  0.51013700  1
  H  H3  1  0.51013700  0.13452900  0.61019800  1
  H  H4  1  0.61019800  0.51013700  0.13452900  1
  H  H5  1  0.01013700  0.11019800  0.63452900  1
  H  H6  1  0.63452900  0.01013700  0.11019800  1
  H  H7  1  0.11019800  0.63452900  0.01013700  1
  H  H8  1  0.86547100  0.38980200  0.48986300  1
  H  H9  1  0.48986300  0.86547100  0.38980200  1
  H  H10  1  0.38980200  0.48986300  0.86547100  1
  H  H11  1  0.98986300  0.88980200  0.36547100  1
  H  H12  1  0.36547100  0.98986300  0.88980200  1
  H  H13  1  0.88980200  0.36547100  0.98986300  1
  H  H14  1  0.13336300  0.47184300  0.55017000  1
  H  H15  1  0.55017000  0.13336300  0.47184300  1
  H  H16  1  0.47184300  0.55017000  0.13336300  1
  H  H17  1  0.05017000  0.97184300  0.63336300  1
  H  H18  1  0.63336300  0.05017000  0.97184300  1
  H  H19  1  0.97184300  0.63336300  0.05017000  1
  H  H20  1  0.86663700  0.52815700  0.44983000  1
  H  H21  1  0.44983000  0.86663700  0.52815700  1
  H  H22  1  0.52815700  0.44983000  0.86663700  1
  H  H23  1  0.94983000  0.02815700  0.36663700  1
  H  H24  1  0.36663700  0.94983000  0.02815700  1
  H  H25  1  0.02815700  0.36663700  0.94983000  1
  H  H26  1  0.21151400  0.64026200  0.34057900  1
  H  H27  1  0.34057900  0.21151400  0.64026200  1
  H  H28  1  0.64026200  0.34057900  0.21151400  1
  H  H29  1  0.84057900  0.14026200  0.71151400  1
  H  H30  1  0.71151400  0.84057900  0.14026200  1
  H  H31  1  0.14026200  0.71151400  0.84057900  1
  H  H32  1  0.78848600  0.35973800  0.65942100  1
  H  H33  1  0.65942100  0.78848600  0.35973800  1
  H  H34  1  0.35973800  0.65942100  0.78848600  1
  H  H35  1  0.15942100  0.85973800  0.28848600  1
  H  H36  1  0.28848600  0.15942100  0.85973800  1
  H  H37  1  0.85973800  0.28848600  0.15942100  1
  H  H38  1  0.27294700  0.52887500  0.26711300  1
  H  H39  1  0.26711300  0.27294700  0.52887500  1
  H  H40  1  0.52887500  0.26711300  0.27294700  1
  H  H41  1  0.76711300  0.02887500  0.77294700  1
  H  H42  1  0.77294700  0.76711300  0.02887500  1
  H  H43  1  0.02887500  0.77294700  0.76711300  1
  H  H44  1  0.72705300  0.47112500  0.73288700  1
  H  H45  1  0.73288700  0.72705300  0.47112500  1
  H  H46  1  0.47112500  0.73288700  0.72705300  1
  H  H47  1  0.23288700  0.97112500  0.22705300  1
  H  H48  1  0.22705300  0.23288700  0.97112500  1
  H  H49  1  0.97112500  0.22705300  0.23288700  1
  C  C50  1  0.20262300  0.48618700  0.40470300  1
  C  C51  1  0.40470300  0.20262300  0.48618700  1
  C  C52  1  0.48618700  0.40470300  0.20262300  1
  C  C53  1  0.90470300  0.98618700  0.70262300  1
  C  C54  1  0.70262300  0.90470300  0.98618700  1
  C  C55  1  0.98618700  0.70262300  0.90470300  1
  C  C56  1  0.79737700  0.51381300  0.59529700  1
  C  C57  1  0.59529700  0.79737700  0.51381300  1
  C  C58  1  0.51381300  0.59529700  0.79737700  1
  C  C59  1  0.09529700  0.01381300  0.29737700  1
  C  C60  1  0.29737700  0.09529700  0.01381300  1
  C  C61  1  0.01381300  0.29737700  0.09529700  1
  I  I62  1  0.88066400  0.61933600  0.25000000  1
  I  I63  1  0.25000000  0.88066400  0.61933600  1
  I  I64  1  0.61933600  0.25000000  0.88066400  1
  I  I65  1  0.75000000  0.11933600  0.38066400  1
  I  I66  1  0.38066400  0.75000000  0.11933600  1
  I  I67  1  0.11933600  0.38066400  0.75000000  1
  N  N68  1  0.14536200  0.52236900  0.48956300  1
  N  N69  1  0.48956300  0.14536200  0.52236900  1
  N  N70  1  0.52236900  0.48956300  0.14536200  1
  N  N71  1  0.98956300  0.02236900  0.64536200  1
  N  N72  1  0.64536200  0.98956300  0.02236900  1
  N  N73  1  0.02236900  0.64536200  0.98956300  1
  N  N74  1  0.85463800  0.47763100  0.51043700  1
  N  N75  1  0.51043700  0.85463800  0.47763100  1
  N  N76  1  0.47763100  0.51043700  0.85463800  1
  N  N77  1  0.01043700  0.97763100  0.35463800  1
  N  N78  1  0.35463800  0.01043700  0.97763100  1
  N  N79  1  0.97763100  0.35463800  0.01043700  1
  N  N80  1  0.23414600  0.55951400  0.33467600  1
  N  N81  1  0.33467600  0.23414600  0.55951400  1
  N  N82  1  0.55951400  0.33467600  0.23414600  1
  N  N83  1  0.83467600  0.05951400  0.73414600  1
  N  N84  1  0.73414600  0.83467600  0.05951400  1
  N  N85  1  0.05951400  0.73414600  0.83467600  1
  N  N86  1  0.76585400  0.44048600  0.66532400  1
  N  N87  1  0.66532400  0.76585400  0.44048600  1
  N  N88  1  0.44048600  0.66532400  0.76585400  1
  N  N89  1  0.16532400  0.94048600  0.26585400  1
  N  N90  1  0.26585400  0.16532400  0.94048600  1
  N  N91  1  0.94048600  0.26585400  0.16532400  1
  O  O92  1  0.22572400  0.38052900  0.39064600  1
  O  O93  1  0.39064600  0.22572400  0.38052900  1
  O  O94  1  0.38052900  0.39064600  0.22572400  1
  O  O95  1  0.89064600  0.88052900  0.72572400  1
  O  O96  1  0.72572400  0.89064600  0.88052900  1
  O  O97  1  0.88052900  0.72572400  0.89064600  1
  O  O98  1  0.77427600  0.61947100  0.60935400  1
  O  O99  1  0.60935400  0.77427600  0.61947100  1
  O  O100  1  0.61947100  0.60935400  0.77427600  1
  O  O101  1  0.10935400  0.11947100  0.27427600  1
  O  O102  1  0.27427600  0.10935400  0.11947100  1
  O  O103  1  0.11947100  0.27427600  0.10935400  1
