# generated using pymatgen
data_NaSmP2H4CO7
_symmetry_space_group_name_H-M   'P 1'
_cell_length_a   15.28634400
_cell_length_b   6.74606200
_cell_length_c   6.78712372
_cell_angle_alpha   88.89563828
_cell_angle_beta   90.00000000
_cell_angle_gamma   90.00000000
_symmetry_Int_Tables_number   1
_chemical_formula_structural   NaSmP2H4CO7
_chemical_formula_sum   'Na4 Sm4 P8 H16 C4 O28'
_cell_volume   699.77600123
_cell_formula_units_Z   4
loop_
 _symmetry_equiv_pos_site_id
 _symmetry_equiv_pos_as_xyz
  1  'x, y, z'
loop_
 _atom_site_type_symbol
 _atom_site_label
 _atom_site_symmetry_multiplicity
 _atom_site_fract_x
 _atom_site_fract_y
 _atom_site_fract_z
 _atom_site_occupancy
  Na  Na0  1  0.02733300  0.86510200  0.19613500  1
  Na  Na1  1  0.52733300  0.63489800  0.80386500  1
  Na  Na2  1  0.97266700  0.13489800  0.80386500  1
  Na  Na3  1  0.47266700  0.36510200  0.19613500  1
  Sm  Sm4  1  0.90037100  0.39864500  0.32606900  1
  Sm  Sm5  1  0.40037100  0.10135500  0.67393100  1
  Sm  Sm6  1  0.09962900  0.60135500  0.67393100  1
  Sm  Sm7  1  0.59962900  0.89864500  0.32606900  1
  P  P8  1  0.09521500  0.36748000  0.17929200  1
  P  P9  1  0.59521500  0.13252000  0.82070800  1
  P  P10  1  0.90478500  0.63252000  0.82070800  1
  P  P11  1  0.40478500  0.86748000  0.17929200  1
  P  P12  1  0.84000100  0.89394300  0.46874800  1
  P  P13  1  0.34000100  0.60605700  0.53125200  1
  P  P14  1  0.15999900  0.10605700  0.53125200  1
  P  P15  1  0.65999900  0.39394300  0.46874800  1
  H  H16  1  0.79792800  0.89050500  0.81249000  1
  H  H17  1  0.29792800  0.60949500  0.18751000  1
  H  H18  1  0.20207200  0.10949500  0.18751000  1
  H  H19  1  0.70207200  0.39050500  0.81249000  1
  H  H20  1  0.78937200  0.07121700  0.13283800  1
  H  H21  1  0.28937200  0.42878300  0.86716200  1
  H  H22  1  0.21062800  0.92878300  0.86716200  1
  H  H23  1  0.71062800  0.57121700  0.13283800  1
  H  H24  1  0.81134300  0.25639700  0.99238800  1
  H  H25  1  0.31134300  0.24360300  0.00761200  1
  H  H26  1  0.18865700  0.74360300  0.00761200  1
  H  H27  1  0.68865700  0.75639700  0.99238800  1
  H  H28  1  0.76130800  0.67681100  0.68446800  1
  H  H29  1  0.26130800  0.82318900  0.31553200  1
  H  H30  1  0.23869200  0.32318900  0.31553200  1
  H  H31  1  0.73869200  0.17681100  0.68446800  1
  C  C32  1  0.81724800  0.77609600  0.70755400  1
  C  C33  1  0.31724800  0.72390400  0.29244600  1
  C  C34  1  0.18275200  0.22390400  0.29244600  1
  C  C35  1  0.68275200  0.27609600  0.70755400  1
  O  O36  1  0.89872600  0.75225000  0.35455500  1
  O  O37  1  0.39872600  0.74775000  0.64544500  1
  O  O38  1  0.10127400  0.24775000  0.64544500  1
  O  O39  1  0.60127400  0.25225000  0.35455500  1
  O  O40  1  0.93928300  0.47605100  0.67254200  1
  O  O41  1  0.43928300  0.02394900  0.32745800  1
  O  O42  1  0.06071700  0.52394900  0.32745800  1
  O  O43  1  0.56071700  0.97605100  0.67254200  1
  O  O44  1  0.86578600  0.53122700  0.00442400  1
  O  O45  1  0.36578600  0.96877300  0.99557600  1
  O  O46  1  0.13421400  0.46877300  0.99557600  1
  O  O47  1  0.63421400  0.03122700  0.00442400  1
  O  O48  1  0.74993100  0.42793800  0.36924800  1
  O  O49  1  0.24993100  0.07206200  0.63075200  1
  O  O50  1  0.25006900  0.57206200  0.63075200  1
  O  O51  1  0.75006900  0.92793800  0.36924800  1
  O  O52  1  0.83743500  0.14681800  0.06959500  1
  O  O53  1  0.33743500  0.35318200  0.93040500  1
  O  O54  1  0.16256500  0.85318200  0.93040500  1
  O  O55  1  0.66256500  0.64681800  0.06959500  1
  O  O56  1  0.01690100  0.22847400  0.13834800  1
  O  O57  1  0.51690100  0.27152600  0.86165200  1
  O  O58  1  0.98309900  0.77152600  0.86165200  1
  O  O59  1  0.48309900  0.72847400  0.13834800  1
  O  O60  1  0.88655100  0.09331700  0.50583000  1
  O  O61  1  0.38655100  0.40668300  0.49417000  1
  O  O62  1  0.11344900  0.90668300  0.49417000  1
  O  O63  1  0.61344900  0.59331700  0.50583000  1
