# generated using pymatgen
data_Na2Mo2As3O16
_symmetry_space_group_name_H-M   'P 1'
_cell_length_a   8.97077393
_cell_length_b   8.35005477
_cell_length_c   11.63163609
_cell_angle_alpha   107.41713581
_cell_angle_beta   104.46224685
_cell_angle_gamma   98.37035722
_symmetry_Int_Tables_number   1
_chemical_formula_structural   Na2Mo2As3O16
_chemical_formula_sum   'Na4 Mo4 As6 O32'
_cell_volume   781.76986513
_cell_formula_units_Z   2
loop_
 _symmetry_equiv_pos_site_id
 _symmetry_equiv_pos_as_xyz
  1  'x, y, z'
loop_
 _atom_site_type_symbol
 _atom_site_label
 _atom_site_symmetry_multiplicity
 _atom_site_fract_x
 _atom_site_fract_y
 _atom_site_fract_z
 _atom_site_occupancy
  Na  Na0  1  0.18690600  0.79212100  0.92836000  1
  Na  Na1  1  0.81309400  0.20787900  0.07164000  1
  Na  Na2  1  0.46867000  0.29562200  0.38361000  1
  Na  Na3  1  0.53133000  0.70437800  0.61639000  1
  Mo  Mo4  1  0.83298400  0.54566900  0.90868900  1
  Mo  Mo5  1  0.16701600  0.45433100  0.09131100  1
  Mo  Mo6  1  0.93100200  0.75407800  0.19596200  1
  Mo  Mo7  1  0.06899800  0.24592200  0.80403800  1
  As  As8  1  0.17838600  0.10158700  0.44814200  1
  As  As9  1  0.82161400  0.89841300  0.55185800  1
  As  As10  1  0.38103000  0.80354400  0.32951100  1
  As  As11  1  0.61897000  0.19645600  0.67048900  1
  As  As12  1  0.12437400  0.53591100  0.38775200  1
  As  As13  1  0.87562600  0.46408900  0.61224800  1
  O  O14  1  0.88830900  0.60052600  0.77226700  1
  O  O15  1  0.11169100  0.39947400  0.22773300  1
  O  O16  1  0.63370100  0.53434500  0.87123600  1
  O  O17  1  0.36629900  0.46565500  0.12876400  1
  O  O18  1  0.92950000  0.77633200  0.02696500  1
  O  O19  1  0.07050000  0.22366800  0.97303500  1
  O  O20  1  0.89559100  0.49787500  0.06788400  1
  O  O21  1  0.10440900  0.50212500  0.93211600  1
  O  O22  1  0.73838700  0.74616200  0.19075800  1
  O  O23  1  0.26161300  0.25383800  0.80924200  1
  O  O24  1  0.02696000  0.98801500  0.28255300  1
  O  O25  1  0.97304000  0.01198500  0.71744700  1
  O  O26  1  0.19801600  0.70891300  0.19057200  1
  O  O27  1  0.80198400  0.29108700  0.80942800  1
  O  O28  1  0.00527700  0.68306600  0.33605200  1
  O  O29  1  0.99472300  0.31693400  0.66394800  1
  O  O30  1  0.24751500  0.29992300  0.44444100  1
  O  O31  1  0.75248500  0.70007700  0.55555900  1
  O  O32  1  0.34566800  0.00907700  0.40345200  1
  O  O33  1  0.65433200  0.99092300  0.59654800  1
  O  O34  1  0.32162600  0.67799200  0.42700000  1
  O  O35  1  0.67837400  0.32200800  0.57300000  1
  O  O36  1  0.46219500  0.87417400  0.00314100  1
  O  O37  1  0.53780500  0.12582600  0.99685900  1
  O  O38  1  0.20137200  0.66973200  0.70166500  1
  O  O39  1  0.79862800  0.33026800  0.29833500  1
  O  O40  1  0.36461800  0.08282200  0.14790400  1
  O  O41  1  0.63538200  0.91717800  0.85209600  1
  O  O42  1  0.50216300  0.08065300  0.21051000  1
  O  O43  1  0.49783700  0.91934700  0.78949000  1
  O  O44  1  0.69333100  0.41302700  0.31683900  1
  O  O45  1  0.30666900  0.58697300  0.68316100  1
