# generated using pymatgen
data_V2Se2O13
_symmetry_space_group_name_H-M   'P 1'
_cell_length_a   10.89710551
_cell_length_b   10.89710551
_cell_length_c   10.98298673
_cell_angle_alpha   59.95299389
_cell_angle_beta   59.95299389
_cell_angle_gamma   36.73374652
_symmetry_Int_Tables_number   1
_chemical_formula_structural   V2Se2O13
_chemical_formula_sum   'V4 Se4 O26'
_cell_volume   662.64155687
_cell_formula_units_Z   2
loop_
 _symmetry_equiv_pos_site_id
 _symmetry_equiv_pos_as_xyz
  1  'x, y, z'
loop_
 _atom_site_type_symbol
 _atom_site_label
 _atom_site_symmetry_multiplicity
 _atom_site_fract_x
 _atom_site_fract_y
 _atom_site_fract_z
 _atom_site_occupancy
  V  V0  1  0.60733800  0.04315600  0.70677300  1
  V  V1  1  0.95684400  0.39266200  0.79322700  1
  V  V2  1  0.39266200  0.95684400  0.29322700  1
  V  V3  1  0.04315600  0.60733800  0.20677300  1
  Se  Se4  1  0.08845800  0.58361400  0.78619900  1
  Se  Se5  1  0.41638600  0.91154200  0.71380100  1
  Se  Se6  1  0.91154200  0.41638600  0.21380100  1
  Se  Se7  1  0.58361400  0.08845800  0.28619900  1
  O  O8  1  0.21254100  0.63609300  0.63948500  1
  O  O9  1  0.36390700  0.78745900  0.86051500  1
  O  O10  1  0.78745900  0.36390700  0.36051500  1
  O  O11  1  0.63609300  0.21254100  0.13948500  1
  O  O12  1  0.47808400  0.96582400  0.79132600  1
  O  O13  1  0.03417600  0.52191600  0.70867400  1
  O  O14  1  0.52191600  0.03417600  0.20867400  1
  O  O15  1  0.96582400  0.47808400  0.29132600  1
  O  O16  1  0.83396900  0.84895500  0.79081200  1
  O  O17  1  0.15104500  0.16603100  0.70918800  1
  O  O18  1  0.16603100  0.15104500  0.20918800  1
  O  O19  1  0.84895500  0.83396900  0.29081200  1
  O  O20  1  0.79648000  0.21015100  0.64694900  1
  O  O21  1  0.78984900  0.20352000  0.85305100  1
  O  O22  1  0.20352000  0.78984900  0.35305100  1
  O  O23  1  0.21015100  0.79648000  0.14694900  1
  O  O24  1  0.42941300  0.28310300  0.74868800  1
  O  O25  1  0.71689700  0.57058700  0.75131200  1
  O  O26  1  0.57058700  0.71689700  0.25131200  1
  O  O27  1  0.28310300  0.42941300  0.24868800  1
  O  O28  1  0.66768700  0.05527500  0.53511600  1
  O  O29  1  0.94472500  0.33231300  0.96488400  1
  O  O30  1  0.33231300  0.94472500  0.46488400  1
  O  O31  1  0.05527500  0.66768700  0.03511600  1
  O  O32  1  0.89010100  0.10989900  0.75000000  1
  O  O33  1  0.10989900  0.89010100  0.25000000  1
