# generated using pymatgen
data_NdCrO5
_symmetry_space_group_name_H-M   'P 1'
_cell_length_a   11.60952300
_cell_length_b   8.51852500
_cell_length_c   11.97584671
_cell_angle_alpha   46.02059542
_cell_angle_beta   90.00000000
_cell_angle_gamma   90.00000000
_symmetry_Int_Tables_number   1
_chemical_formula_structural   NdCrO5
_chemical_formula_sum   'Nd8 Cr8 O40'
_cell_volume   852.25546960
_cell_formula_units_Z   8
loop_
 _symmetry_equiv_pos_site_id
 _symmetry_equiv_pos_as_xyz
  1  'x, y, z'
loop_
 _atom_site_type_symbol
 _atom_site_label
 _atom_site_symmetry_multiplicity
 _atom_site_fract_x
 _atom_site_fract_y
 _atom_site_fract_z
 _atom_site_occupancy
  Nd  Nd0  1  0.05570600  0.20290900  0.66811000  1
  Nd  Nd1  1  0.55570600  0.79709100  0.83189000  1
  Nd  Nd2  1  0.94429400  0.79709100  0.33189000  1
  Nd  Nd3  1  0.44429400  0.20290900  0.16811000  1
  Nd  Nd4  1  0.07724000  0.74513300  0.68166700  1
  Nd  Nd5  1  0.57724000  0.25486700  0.81833300  1
  Nd  Nd6  1  0.92276000  0.25486700  0.31833300  1
  Nd  Nd7  1  0.42276000  0.74513300  0.18166700  1
  Cr  Cr8  1  0.32186700  0.14041800  0.49657800  1
  Cr  Cr9  1  0.82186700  0.85958200  0.00342200  1
  Cr  Cr10  1  0.67813300  0.85958200  0.50342200  1
  Cr  Cr11  1  0.17813300  0.14041800  0.99657800  1
  Cr  Cr12  1  0.30895000  0.60283300  0.53919700  1
  Cr  Cr13  1  0.80895000  0.39716700  0.96080300  1
  Cr  Cr14  1  0.69105000  0.39716700  0.46080300  1
  Cr  Cr15  1  0.19105000  0.60283300  0.03919700  1
  O  O16  1  0.18494100  0.09205700  0.56375300  1
  O  O17  1  0.68494100  0.90794300  0.93624700  1
  O  O18  1  0.81505900  0.90794300  0.43624700  1
  O  O19  1  0.31505900  0.09205700  0.06375300  1
  O  O20  1  0.36247300  0.38492500  0.41785100  1
  O  O21  1  0.86247300  0.61507500  0.08214900  1
  O  O22  1  0.63752700  0.61507500  0.58214900  1
  O  O23  1  0.13752700  0.38492500  0.91785100  1
  O  O24  1  0.32719800  0.13733400  0.36088900  1
  O  O25  1  0.82719800  0.86266600  0.13911100  1
  O  O26  1  0.67280200  0.86266600  0.63911100  1
  O  O27  1  0.17280200  0.13733400  0.86088900  1
  O  O28  1  0.40997500  0.95591700  0.64227600  1
  O  O29  1  0.90997500  0.04408300  0.85772400  1
  O  O30  1  0.59002500  0.04408300  0.35772400  1
  O  O31  1  0.09002500  0.95591700  0.14227600  1
  O  O32  1  0.26452300  0.70761800  0.60635600  1
  O  O33  1  0.76452300  0.29238200  0.89364400  1
  O  O34  1  0.73547700  0.29238200  0.39364400  1
  O  O35  1  0.23547700  0.70761800  0.10635600  1
  O  O36  1  0.37661400  0.79156700  0.36711800  1
  O  O37  1  0.87661400  0.20843300  0.13288200  1
  O  O38  1  0.62338600  0.20843300  0.63288200  1
  O  O39  1  0.12338600  0.79156700  0.86711800  1
  O  O40  1  0.18939400  0.51356700  0.51622200  1
  O  O41  1  0.68939400  0.48643300  0.98377800  1
  O  O42  1  0.81060600  0.48643300  0.48377800  1
  O  O43  1  0.31060600  0.51356700  0.01622200  1
  O  O44  1  0.39941500  0.40249200  0.66720400  1
  O  O45  1  0.89941500  0.59750800  0.83279600  1
  O  O46  1  0.60058500  0.59750800  0.33279600  1
  O  O47  1  0.10058500  0.40249200  0.16720400  1
  O  O48  1  0.95587000  0.05295800  0.58532800  1
  O  O49  1  0.45587000  0.94704200  0.91467200  1
  O  O50  1  0.04413000  0.94704200  0.41467200  1
  O  O51  1  0.54413000  0.05295800  0.08532800  1
  O  O52  1  0.98893100  0.44828600  0.39602200  1
  O  O53  1  0.48893100  0.55171400  0.10397800  1
  O  O54  1  0.01106900  0.55171400  0.60397800  1
  O  O55  1  0.51106900  0.44828600  0.89602200  1
