# generated using pymatgen
data_Ba2InSbTe5
_symmetry_space_group_name_H-M   'P 1'
_cell_length_a   4.64721300
_cell_length_b   14.06871200
_cell_length_c   20.67456600
_cell_angle_alpha   90.00000000
_cell_angle_beta   90.00000000
_cell_angle_gamma   90.00000000
_symmetry_Int_Tables_number   1
_chemical_formula_structural   Ba2InSbTe5
_chemical_formula_sum   'Ba8 In4 Sb4 Te20'
_cell_volume   1351.70935432
_cell_formula_units_Z   4
loop_
 _symmetry_equiv_pos_site_id
 _symmetry_equiv_pos_as_xyz
  1  'x, y, z'
loop_
 _atom_site_type_symbol
 _atom_site_label
 _atom_site_symmetry_multiplicity
 _atom_site_fract_x
 _atom_site_fract_y
 _atom_site_fract_z
 _atom_site_occupancy
  Ba  Ba0  1  0.25000000  0.44958500  0.13398100  1
  Ba  Ba1  1  0.25000000  0.94958500  0.36601900  1
  Ba  Ba2  1  0.75000000  0.55041500  0.86601900  1
  Ba  Ba3  1  0.75000000  0.05041500  0.63398100  1
  Ba  Ba4  1  0.25000000  0.57346000  0.37489400  1
  Ba  Ba5  1  0.25000000  0.07346000  0.12510600  1
  Ba  Ba6  1  0.75000000  0.42654000  0.62510600  1
  Ba  Ba7  1  0.75000000  0.92654000  0.87489400  1
  In  In8  1  0.25000000  0.17837000  0.81829200  1
  In  In9  1  0.25000000  0.67837000  0.68170800  1
  In  In10  1  0.75000000  0.82163000  0.18170800  1
  In  In11  1  0.75000000  0.32163000  0.31829200  1
  Sb  Sb12  1  0.25000000  0.23123100  0.46622100  1
  Sb  Sb13  1  0.25000000  0.73123100  0.03377900  1
  Sb  Sb14  1  0.75000000  0.76876900  0.53377900  1
  Sb  Sb15  1  0.75000000  0.26876900  0.96622100  1
  Te  Te16  1  0.25000000  0.00110200  0.75617100  1
  Te  Te17  1  0.25000000  0.50110200  0.74382900  1
  Te  Te18  1  0.75000000  0.99889800  0.24382900  1
  Te  Te19  1  0.75000000  0.49889800  0.25617100  1
  Te  Te20  1  0.25000000  0.10506000  0.94863600  1
  Te  Te21  1  0.25000000  0.60506000  0.55136400  1
  Te  Te22  1  0.75000000  0.89494000  0.05136400  1
  Te  Te23  1  0.75000000  0.39494000  0.44863600  1
  Te  Te24  1  0.25000000  0.24032300  0.60547300  1
  Te  Te25  1  0.25000000  0.74032300  0.89452700  1
  Te  Te26  1  0.75000000  0.75967700  0.39452700  1
  Te  Te27  1  0.75000000  0.25967700  0.10547300  1
  Te  Te28  1  0.25000000  0.40880700  0.96442300  1
  Te  Te29  1  0.25000000  0.90880700  0.53557700  1
  Te  Te30  1  0.75000000  0.59119300  0.03557700  1
  Te  Te31  1  0.75000000  0.09119300  0.46442300  1
  Te  Te32  1  0.25000000  0.20814600  0.29411800  1
  Te  Te33  1  0.25000000  0.70814600  0.20588200  1
  Te  Te34  1  0.75000000  0.79185400  0.70588200  1
  Te  Te35  1  0.75000000  0.29185400  0.79411800  1
