# generated using pymatgen
data_UCu(Mo2O9)6
_symmetry_space_group_name_H-M   'P 1'
_cell_length_a   10.58493551
_cell_length_b   10.58493551
_cell_length_c   10.58493547
_cell_angle_alpha   76.52120659
_cell_angle_beta   76.52120659
_cell_angle_gamma   76.52121003
_symmetry_Int_Tables_number   1
_chemical_formula_structural   UCu(Mo2O9)6
_chemical_formula_sum   'U1 Cu1 Mo12 O54'
_cell_volume   1101.29565946
_cell_formula_units_Z   1
loop_
 _symmetry_equiv_pos_site_id
 _symmetry_equiv_pos_as_xyz
  1  'x, y, z'
loop_
 _atom_site_type_symbol
 _atom_site_label
 _atom_site_symmetry_multiplicity
 _atom_site_fract_x
 _atom_site_fract_y
 _atom_site_fract_z
 _atom_site_occupancy
  U  U0  1  0.00000000  0.00000000  0.00000000  1
  Cu  Cu1  1  0.50000000  0.50000000  0.50000000  1
  Mo  Mo2  1  0.65500400  0.14973200  0.07471300  1
  Mo  Mo3  1  0.07471300  0.65500400  0.14973200  1
  Mo  Mo4  1  0.14973200  0.07471300  0.65500400  1
  Mo  Mo5  1  0.34499600  0.85026800  0.92528700  1
  Mo  Mo6  1  0.92528700  0.34499600  0.85026800  1
  Mo  Mo7  1  0.85026800  0.92528700  0.34499600  1
  Mo  Mo8  1  0.72185900  0.83985400  0.06264200  1
  Mo  Mo9  1  0.06264200  0.72185900  0.83985400  1
  Mo  Mo10  1  0.83985400  0.06264200  0.72185900  1
  Mo  Mo11  1  0.27814100  0.16014600  0.93735800  1
  Mo  Mo12  1  0.93735800  0.27814100  0.16014600  1
  Mo  Mo13  1  0.16014600  0.93735800  0.27814100  1
  O  O14  1  0.06301900  0.32047800  0.21202200  1
  O  O15  1  0.21202200  0.06301900  0.32047900  1
  O  O16  1  0.32047800  0.21202200  0.06301900  1
  O  O17  1  0.93698100  0.67952100  0.78797800  1
  O  O18  1  0.78797800  0.93698100  0.67952100  1
  O  O19  1  0.67952100  0.78797800  0.93698100  1
  O  O20  1  0.79847300  0.32033700  0.27717600  1
  O  O21  1  0.27717600  0.79847300  0.32033700  1
  O  O22  1  0.32033700  0.27717600  0.79847300  1
  O  O23  1  0.20152700  0.67966300  0.72282400  1
  O  O24  1  0.72282400  0.20152700  0.67966300  1
  O  O25  1  0.67966300  0.72282400  0.20152700  1
  O  O26  1  0.08039600  0.20282800  0.97656600  1
  O  O27  1  0.97656600  0.08039600  0.20282800  1
  O  O28  1  0.20282800  0.97656600  0.08039600  1
  O  O29  1  0.91960400  0.79717200  0.02343400  1
  O  O30  1  0.02343400  0.91960400  0.79717200  1
  O  O31  1  0.79717200  0.02343400  0.91960400  1
  O  O32  1  0.90545000  0.41899600  0.00755600  1
  O  O33  1  0.00755600  0.90545000  0.41899600  1
  O  O34  1  0.41899600  0.00755600  0.90545000  1
  O  O35  1  0.09455000  0.58100400  0.99244400  1
  O  O36  1  0.99244400  0.09455000  0.58100400  1
  O  O37  1  0.58100400  0.99244400  0.09455000  1
  O  O38  1  0.83345600  0.20123200  0.02948600  1
  O  O39  1  0.02948600  0.83345600  0.20123200  1
  O  O40  1  0.20123200  0.02948600  0.83345600  1
  O  O41  1  0.16654400  0.79876800  0.97051400  1
  O  O42  1  0.97051400  0.16654400  0.79876800  1
  O  O43  1  0.79876800  0.97051400  0.16654400  1
  O  O44  1  0.04915300  0.41930000  0.74180600  1
  O  O45  1  0.74180600  0.04915300  0.41930000  1
  O  O46  1  0.41930000  0.74180600  0.04915300  1
  O  O47  1  0.95084700  0.58070000  0.25819400  1
  O  O48  1  0.25819400  0.95084700  0.58070000  1
  O  O49  1  0.58070000  0.25819400  0.95084700  1
  O  O50  1  0.78450900  0.41981400  0.78588000  1
  O  O51  1  0.78588000  0.78450900  0.41981400  1
  O  O52  1  0.41981400  0.78588000  0.78450900  1
  O  O53  1  0.21549100  0.58018600  0.21412000  1
  O  O54  1  0.21412000  0.21549100  0.58018600  1
  O  O55  1  0.58018600  0.21412000  0.21549100  1
  O  O56  1  0.47605800  0.54824700  0.29305300  1
  O  O57  1  0.29305300  0.47605800  0.54824700  1
  O  O58  1  0.54824700  0.29305300  0.47605800  1
  O  O59  1  0.52394200  0.45175300  0.70694700  1
  O  O60  1  0.70694700  0.52394200  0.45175300  1
  O  O61  1  0.45175300  0.70694700  0.52394200  1
  O  O62  1  0.47843200  0.80907400  0.45138700  1
  O  O63  1  0.45138700  0.47843200  0.80907400  1
  O  O64  1  0.80907400  0.45138700  0.47843200  1
  O  O65  1  0.52156800  0.19092600  0.54861300  1
  O  O66  1  0.54861300  0.52156800  0.19092600  1
  O  O67  1  0.19092600  0.54861300  0.52156800  1
