# generated using pymatgen
data_C3S4O
_symmetry_space_group_name_H-M   'P 1'
_cell_length_a   16.00418800
_cell_length_b   9.90090600
_cell_length_c   8.26536271
_cell_angle_alpha   90.00000000
_cell_angle_beta   100.02676206
_cell_angle_gamma   90.00000000
_symmetry_Int_Tables_number   1
_chemical_formula_structural   C3S4O
_chemical_formula_sum   'C24 S32 O8'
_cell_volume   1289.69239816
_cell_formula_units_Z   8
loop_
 _symmetry_equiv_pos_site_id
 _symmetry_equiv_pos_as_xyz
  1  'x, y, z'
loop_
 _atom_site_type_symbol
 _atom_site_label
 _atom_site_symmetry_multiplicity
 _atom_site_fract_x
 _atom_site_fract_y
 _atom_site_fract_z
 _atom_site_occupancy
  C  C0  1  0.34551800  0.58867600  0.06505300  1
  C  C1  1  0.65448200  0.08867600  0.43494700  1
  C  C2  1  0.65448200  0.41132400  0.93494700  1
  C  C3  1  0.34551800  0.91132400  0.56505300  1
  C  C4  1  0.35352000  0.47531800  0.97380500  1
  C  C5  1  0.64648000  0.97531800  0.52619500  1
  C  C6  1  0.64648000  0.52468200  0.02619500  1
  C  C7  1  0.35352000  0.02468200  0.47380500  1
  C  C8  1  0.21233100  0.33750100  0.82561700  1
  C  C9  1  0.78766900  0.83750100  0.67438300  1
  C  C10  1  0.78766900  0.66249900  0.17438300  1
  C  C11  1  0.21233100  0.16249900  0.32561700  1
  C  C12  1  0.13590700  0.38338800  0.85719200  1
  C  C13  1  0.86409300  0.88338800  0.64280800  1
  C  C14  1  0.86409300  0.61661200  0.14280800  1
  C  C15  1  0.13590700  0.11661200  0.35719200  1
  C  C16  1  0.46823800  0.44765400  0.24522900  1
  C  C17  1  0.53176200  0.94765400  0.25477100  1
  C  C18  1  0.53176200  0.55234600  0.75477100  1
  C  C19  1  0.46823800  0.05234600  0.74522900  1
  C  C20  1  0.12803200  0.11649100  0.88577300  1
  C  C21  1  0.87196800  0.61649100  0.61422700  1
  C  C22  1  0.87196800  0.88350900  0.11422700  1
  C  C23  1  0.12803200  0.38350900  0.38577300  1
  S  S24  1  0.16071700  0.64566600  0.05611400  1
  S  S25  1  0.83928300  0.14566600  0.44388600  1
  S  S26  1  0.83928300  0.35433400  0.94388600  1
  S  S27  1  0.16071700  0.85433400  0.55611400  1
  S  S28  1  0.27402300  0.72255400  0.00899800  1
  S  S29  1  0.72597700  0.22255400  0.49100200  1
  S  S30  1  0.72597700  0.27744600  0.99100200  1
  S  S31  1  0.27402300  0.77744600  0.50899800  1
  S  S32  1  0.41076400  0.60025000  0.25646100  1
  S  S33  1  0.58923600  0.10025000  0.24353900  1
  S  S34  1  0.58923600  0.39975000  0.74353900  1
  S  S35  1  0.41076400  0.89975000  0.75646100  1
  S  S36  1  0.42977800  0.35796300  0.05887400  1
  S  S37  1  0.57022200  0.85796300  0.44112600  1
  S  S38  1  0.57022200  0.64203700  0.94112600  1
  S  S39  1  0.42977800  0.14203700  0.55887400  1
  S  S40  1  0.29447200  0.44114800  0.77634000  1
  S  S41  1  0.70552800  0.94114800  0.72366000  1
  S  S42  1  0.70552800  0.55885200  0.22366000  1
  S  S43  1  0.29447200  0.05885200  0.27634000  1
  S  S44  1  0.22793300  0.16312800  0.83154300  1
  S  S45  1  0.77206700  0.66312800  0.66845700  1
  S  S46  1  0.77206700  0.83687200  0.16845700  1
  S  S47  1  0.22793300  0.33687200  0.33154300  1
  S  S48  1  0.06469700  0.26254800  0.90417300  1
  S  S49  1  0.93530300  0.76254800  0.59582700  1
  S  S50  1  0.93530300  0.73745200  0.09582700  1
  S  S51  1  0.06469700  0.23745200  0.40417300  1
  S  S52  1  0.09995800  0.55161400  0.84446700  1
  S  S53  1  0.90004200  0.05161400  0.65553300  1
  S  S54  1  0.90004200  0.44838600  0.15553300  1
  S  S55  1  0.09995800  0.94838600  0.34446700  1
  O  O56  1  0.52670600  0.40918600  0.35005100  1
  O  O57  1  0.47329400  0.90918600  0.14994900  1
  O  O58  1  0.47329400  0.59081400  0.64994900  1
  O  O59  1  0.52670600  0.09081400  0.85005100  1
  O  O60  1  0.10645800  0.00113100  0.90795700  1
  O  O61  1  0.89354200  0.50113100  0.59204300  1
  O  O62  1  0.89354200  0.99886900  0.09204300  1
  O  O63  1  0.10645800  0.49886900  0.40795700  1
