# generated using pymatgen
data_NbAgO3
_symmetry_space_group_name_H-M   'P 1'
_cell_length_a   5.66224500
_cell_length_b   5.76734800
_cell_length_c   15.76576500
_cell_angle_alpha   90.00000000
_cell_angle_beta   90.00000000
_cell_angle_gamma   90.00000000
_symmetry_Int_Tables_number   1
_chemical_formula_structural   NbAgO3
_chemical_formula_sum   'Nb8 Ag8 O24'
_cell_volume   514.84898768
_cell_formula_units_Z   8
loop_
 _symmetry_equiv_pos_site_id
 _symmetry_equiv_pos_as_xyz
  1  'x, y, z'
loop_
 _atom_site_type_symbol
 _atom_site_label
 _atom_site_symmetry_multiplicity
 _atom_site_fract_x
 _atom_site_fract_y
 _atom_site_fract_z
 _atom_site_occupancy
  Nb  Nb0  1  0.24468800  0.23347600  0.62482300  1
  Nb  Nb1  1  0.24468800  0.23347600  0.37517700  1
  Nb  Nb2  1  0.75531200  0.73347600  0.37517700  1
  Nb  Nb3  1  0.75531200  0.73347600  0.62482300  1
  Nb  Nb4  1  0.75638200  0.79977200  0.12521700  1
  Nb  Nb5  1  0.75638200  0.79977200  0.87478300  1
  Nb  Nb6  1  0.24361800  0.29977200  0.87478300  1
  Nb  Nb7  1  0.24361800  0.29977200  0.12521700  1
  Ag  Ag8  1  0.25641900  0.76252100  0.74966400  1
  Ag  Ag9  1  0.25641900  0.76252100  0.25033600  1
  Ag  Ag10  1  0.74358100  0.26252100  0.25033600  1
  Ag  Ag11  1  0.74358100  0.26252100  0.74966400  1
  Ag  Ag12  1  0.25926400  0.74180900  0.50000000  1
  Ag  Ag13  1  0.74073600  0.24180900  0.50000000  1
  Ag  Ag14  1  0.25922800  0.78969700  0.00000000  1
  Ag  Ag15  1  0.74077200  0.28969700  0.00000000  1
  O  O16  1  0.31599800  0.26585000  0.74984900  1
  O  O17  1  0.31599800  0.26585000  0.25015100  1
  O  O18  1  0.68400200  0.76585000  0.25015100  1
  O  O19  1  0.68400200  0.76585000  0.74984900  1
  O  O20  1  0.18445000  0.28641300  0.50000000  1
  O  O21  1  0.81555000  0.78641300  0.50000000  1
  O  O22  1  0.47005400  0.99424500  0.60752000  1
  O  O23  1  0.47005400  0.99424500  0.39248000  1
  O  O24  1  0.52994600  0.49424500  0.39248000  1
  O  O25  1  0.52994600  0.49424500  0.60752000  1
  O  O26  1  0.97060200  0.04836200  0.64217700  1
  O  O27  1  0.97060200  0.04836200  0.35782300  1
  O  O28  1  0.02939800  0.54836200  0.35782300  1
  O  O29  1  0.02939800  0.54836200  0.64217700  1
  O  O30  1  0.80078700  0.74069500  0.00000000  1
  O  O31  1  0.19921300  0.24069500  0.00000000  1
  O  O32  1  0.95957300  0.47136700  0.14054000  1
  O  O33  1  0.95957300  0.47136700  0.85946000  1
  O  O34  1  0.04042700  0.97136700  0.85946000  1
  O  O35  1  0.04042700  0.97136700  0.14054000  1
  O  O36  1  0.54316300  0.04880900  0.10993800  1
  O  O37  1  0.54316300  0.04880900  0.89006200  1
  O  O38  1  0.45683700  0.54880900  0.89006200  1
  O  O39  1  0.45683700  0.54880900  0.10993800  1
