# generated using pymatgen
data_H10C3N3Cl
_symmetry_space_group_name_H-M   'P 1'
_cell_length_a   7.71655500
_cell_length_b   8.84043461
_cell_length_c   12.56234050
_cell_angle_alpha   82.29673803
_cell_angle_beta   72.11361371
_cell_angle_gamma   64.12333861
_symmetry_Int_Tables_number   1
_chemical_formula_structural   H10C3N3Cl
_chemical_formula_sum   'H40 C12 N12 Cl4'
_cell_volume   733.78317093
_cell_formula_units_Z   4
loop_
 _symmetry_equiv_pos_site_id
 _symmetry_equiv_pos_as_xyz
  1  'x, y, z'
loop_
 _atom_site_type_symbol
 _atom_site_label
 _atom_site_symmetry_multiplicity
 _atom_site_fract_x
 _atom_site_fract_y
 _atom_site_fract_z
 _atom_site_occupancy
  H  H0  1  0.57565100  0.73659000  0.10223300  1
  H  H1  1  0.41447500  0.26341000  0.89776700  1
  H  H2  1  0.68775900  0.73659000  0.89776700  1
  H  H3  1  0.32211600  0.26341000  0.10223300  1
  H  H4  1  0.17434900  0.76341000  0.39776700  1
  H  H5  1  0.33552500  0.23659000  0.60223300  1
  H  H6  1  0.06224100  0.76341000  0.60223300  1
  H  H7  1  0.42788400  0.23659000  0.39776700  1
  H  H8  1  0.55611000  0.55432700  0.16320400  1
  H  H9  1  0.27364100  0.44567300  0.83679600  1
  H  H10  1  0.88956300  0.55432700  0.83679600  1
  H  H11  1  0.28068600  0.44567300  0.16320400  1
  H  H12  1  0.19389000  0.94567300  0.33679600  1
  H  H13  1  0.47635900  0.05432700  0.66320400  1
  H  H14  1  0.86043700  0.94567300  0.66320400  1
  H  H15  1  0.46931400  0.05432700  0.33679600  1
  H  H16  1  0.06869500  0.20320300  0.87244800  1
  H  H17  1  0.14434600  0.79679700  0.12755200  1
  H  H18  1  0.72810200  0.20320300  0.12755200  1
  H  H19  1  0.05885700  0.79679700  0.87244800  1
  H  H20  1  0.68130500  0.29679700  0.62755200  1
  H  H21  1  0.60565400  0.70320300  0.37244800  1
  H  H22  1  0.02189800  0.29679700  0.37244800  1
  H  H23  1  0.69114300  0.70320300  0.62755200  1
  H  H24  1  0.85053600  0.33557800  0.82914300  1
  H  H25  1  0.01525700  0.66442200  0.17085700  1
  H  H26  1  0.81388600  0.33557800  0.17085700  1
  H  H27  1  0.32032100  0.66442200  0.82914300  1
  H  H28  1  0.89946400  0.16442200  0.67085700  1
  H  H29  1  0.73474300  0.83557800  0.32914300  1
  H  H30  1  0.93611400  0.16442200  0.32914300  1
  H  H31  1  0.42967900  0.83557800  0.67085700  1
  H  H32  1  0.85328400  0.15614600  0.91229900  1
  H  H33  1  0.92172900  0.84385400  0.08770100  1
  H  H34  1  0.99057000  0.15614600  0.08770100  1
  H  H35  1  0.23441800  0.84385400  0.91229900  1
  H  H36  1  0.89671600  0.34385400  0.58770100  1
  H  H37  1  0.82827100  0.65614600  0.41229900  1
  H  H38  1  0.75943000  0.34385400  0.41229900  1
  H  H39  1  0.51558200  0.65614600  0.58770100  1
  C  C40  1  0.90382200  0.25773300  0.89777100  1
  C  C41  1  0.05932500  0.74226700  0.10222900  1
  C  C42  1  0.83844600  0.25773300  0.10222900  1
  C  C43  1  0.19840800  0.74226700  0.89777100  1
  C  C44  1  0.84617800  0.24226700  0.60222900  1
  C  C45  1  0.69067500  0.75773300  0.39777100  1
  C  C46  1  0.91155400  0.24226700  0.39777100  1
  C  C47  1  0.55159200  0.75773300  0.60222900  1
  C  C48  1  0.73711700  0.52576700  0.00000000  1
  C  C49  1  0.26288300  0.47423300  0.00000000  1
  C  C50  1  0.01288300  0.97423300  0.50000000  1
  C  C51  1  0.48711700  0.02576700  0.50000000  1
  N  N52  1  0.82189600  0.35620800  0.00000000  1
  N  N53  1  0.17810400  0.64379200  0.00000000  1
  N  N54  1  0.92810400  0.14379200  0.50000000  1
  N  N55  1  0.57189600  0.85620800  0.50000000  1
  N  N56  1  0.62518100  0.60918900  0.09651700  1
  N  N57  1  0.33088600  0.39081100  0.90348300  1
  N  N58  1  0.76563000  0.60918900  0.90348300  1
  N  N59  1  0.27830200  0.39081100  0.09651700  1
  N  N60  1  0.12481900  0.89081100  0.40348300  1
  N  N61  1  0.41911400  0.10918900  0.59651700  1
  N  N62  1  0.98437000  0.89081100  0.59651700  1
  N  N63  1  0.47169800  0.10918900  0.40348300  1
  Cl  Cl64  1  0.59540600  0.00000000  0.80918800  1
  Cl  Cl65  1  0.40459400  0.00000000  0.19081200  1
  Cl  Cl66  1  0.15459400  0.50000000  0.69081200  1
  Cl  Cl67  1  0.34540600  0.50000000  0.30918800  1
