# generated using pymatgen
data_Rb4Co(PO4)6
_symmetry_space_group_name_H-M   'P 1'
_cell_length_a   8.81987745
_cell_length_b   8.81987745
_cell_length_c   9.74795917
_cell_angle_alpha   108.80657821
_cell_angle_beta   115.61086160
_cell_angle_gamma   99.55312344
_symmetry_Int_Tables_number   1
_chemical_formula_structural   Rb4Co(PO4)6
_chemical_formula_sum   'Rb4 Co1 P6 O24'
_cell_volume   604.46823679
_cell_formula_units_Z   1
loop_
 _symmetry_equiv_pos_site_id
 _symmetry_equiv_pos_as_xyz
  1  'x, y, z'
loop_
 _atom_site_type_symbol
 _atom_site_label
 _atom_site_symmetry_multiplicity
 _atom_site_fract_x
 _atom_site_fract_y
 _atom_site_fract_z
 _atom_site_occupancy
  Rb  Rb0  1  0.22529400  0.72529400  0.50000000  1
  Rb  Rb1  1  0.77470600  0.27470600  0.50000000  1
  Rb  Rb2  1  0.27823500  0.67496400  0.95319800  1
  Rb  Rb3  1  0.72176500  0.32503600  0.04680200  1
  Co  Co4  1  0.00000000  0.00000000  0.00000000  1
  P  P5  1  0.49921900  0.48277900  0.71455000  1
  P  P6  1  0.23177100  0.21533000  0.71455000  1
  P  P7  1  0.50078100  0.51722100  0.28545000  1
  P  P8  1  0.76822900  0.78467000  0.28545000  1
  P  P9  1  0.15750000  0.23739100  0.39489100  1
  P  P10  1  0.84250000  0.76260900  0.60510900  1
  O  O11  1  0.41636800  0.37384000  0.79020800  1
  O  O12  1  0.58363200  0.62616000  0.20979200  1
  O  O13  1  0.36735400  0.36232000  0.51019600  1
  O  O14  1  0.14787600  0.14284200  0.51019600  1
  O  O15  1  0.63264600  0.63768000  0.48980400  1
  O  O16  1  0.85212400  0.85715800  0.48980400  1
  O  O17  1  0.68242500  0.47492500  0.76401700  1
  O  O18  1  0.28909200  0.08159100  0.76401700  1
  O  O19  1  0.31757500  0.52507500  0.23598300  1
  O  O20  1  0.71090800  0.91840900  0.23598300  1
  O  O21  1  0.46864300  0.64914700  0.76173400  1
  O  O22  1  0.11258700  0.29309000  0.76173400  1
  O  O23  1  0.53135700  0.35085300  0.23826600  1
  O  O24  1  0.88741300  0.70691000  0.23826600  1
  O  O25  1  0.15020800  0.09726900  0.24747700  1
  O  O26  1  0.84979200  0.90273100  0.75252300  1
  O  O27  1  0.03339900  0.33479700  0.36819600  1
  O  O28  1  0.96660100  0.66520300  0.63180400  1
  O  O29  1  0.00499500  0.79977800  0.99398300  1
  O  O30  1  0.19420500  0.98898800  0.99398300  1
  O  O31  1  0.99500500  0.20022200  0.00601700  1
  O  O32  1  0.80579500  0.01101200  0.00601700  1
  O  O33  1  0.45445600  0.96711100  0.42156700  1
  O  O34  1  0.54554400  0.03288900  0.57843300  1
