# generated using pymatgen
data_SmIO9
_symmetry_space_group_name_H-M   'P 1'
_cell_length_a   10.69343300
_cell_length_b   7.05835200
_cell_length_c   11.09012448
_cell_angle_alpha   51.11390285
_cell_angle_beta   90.00000000
_cell_angle_gamma   90.00000000
_symmetry_Int_Tables_number   1
_chemical_formula_structural   SmIO9
_chemical_formula_sum   'Sm4 I4 O36'
_cell_volume   651.56418404
_cell_formula_units_Z   4
loop_
 _symmetry_equiv_pos_site_id
 _symmetry_equiv_pos_as_xyz
  1  'x, y, z'
loop_
 _atom_site_type_symbol
 _atom_site_label
 _atom_site_symmetry_multiplicity
 _atom_site_fract_x
 _atom_site_fract_y
 _atom_site_fract_z
 _atom_site_occupancy
  Sm  Sm0  1  0.09881900  0.25001800  0.49907100  1
  Sm  Sm1  1  0.59881900  0.74998200  0.00092900  1
  Sm  Sm2  1  0.90118100  0.74998200  0.50092900  1
  Sm  Sm3  1  0.40118100  0.25001800  0.99907100  1
  I  I4  1  0.33281400  0.52996600  0.22524400  1
  I  I5  1  0.83281400  0.47003400  0.27475600  1
  I  I6  1  0.66718600  0.47003400  0.77475600  1
  I  I7  1  0.16718600  0.52996600  0.72524400  1
  O  O8  1  0.42436000  0.82872700  0.10551400  1
  O  O9  1  0.92436000  0.17127300  0.39448600  1
  O  O10  1  0.57564000  0.17127300  0.89448600  1
  O  O11  1  0.07564000  0.82872700  0.60551400  1
  O  O12  1  0.45478300  0.37564700  0.37902300  1
  O  O13  1  0.95478300  0.62435300  0.12097700  1
  O  O14  1  0.54521700  0.62435300  0.62097700  1
  O  O15  1  0.04521700  0.37564700  0.87902300  1
  O  O16  1  0.25400600  0.58067500  0.35544500  1
  O  O17  1  0.75400600  0.41932500  0.14455500  1
  O  O18  1  0.74599400  0.41932500  0.64455500  1
  O  O19  1  0.24599400  0.58067500  0.85544500  1
  O  O20  1  0.31735500  0.05964500  0.61626100  1
  O  O21  1  0.81735500  0.94035500  0.88373900  1
  O  O22  1  0.68264500  0.94035500  0.38373900  1
  O  O23  1  0.18264500  0.05964500  0.11626100  1
  O  O24  1  0.88934900  0.94615600  0.78829900  1
  O  O25  1  0.38934900  0.05384400  0.71170100  1
  O  O26  1  0.11065100  0.05384400  0.21170100  1
  O  O27  1  0.61065100  0.94615600  0.28829900  1
  O  O28  1  0.92832300  0.53827400  0.39079800  1
  O  O29  1  0.42832300  0.46172600  0.10920200  1
  O  O30  1  0.07167700  0.46172600  0.60920200  1
  O  O31  1  0.57167700  0.53827400  0.89079800  1
  O  O32  1  0.72716200  0.74259600  0.18435600  1
  O  O33  1  0.22716200  0.25740400  0.31564400  1
  O  O34  1  0.27283800  0.25740400  0.81564400  1
  O  O35  1  0.77283800  0.74259600  0.68435600  1
  O  O36  1  0.70377600  0.31560800  0.42047900  1
  O  O37  1  0.20377600  0.68439200  0.07952100  1
  O  O38  1  0.29622400  0.68439200  0.57952100  1
  O  O39  1  0.79622400  0.31560800  0.92047900  1
  O  O40  1  0.50189800  0.97775000  0.72047600  1
  O  O41  1  0.00189800  0.02225000  0.77952400  1
  O  O42  1  0.49810200  0.02225000  0.27952400  1
  O  O43  1  0.99810200  0.97775000  0.22047600  1
