# generated using pymatgen
data_UC2S(NO2)4
_symmetry_space_group_name_H-M   'P 1'
_cell_length_a   7.00553400
_cell_length_b   13.45885700
_cell_length_c   11.95111115
_cell_angle_alpha   90.00000000
_cell_angle_beta   91.34017225
_cell_angle_gamma   90.00000000
_symmetry_Int_Tables_number   1
_chemical_formula_structural   UC2S(NO2)4
_chemical_formula_sum   'U4 C8 S4 N16 O32'
_cell_volume   1126.51996954
_cell_formula_units_Z   4
loop_
 _symmetry_equiv_pos_site_id
 _symmetry_equiv_pos_as_xyz
  1  'x, y, z'
loop_
 _atom_site_type_symbol
 _atom_site_label
 _atom_site_symmetry_multiplicity
 _atom_site_fract_x
 _atom_site_fract_y
 _atom_site_fract_z
 _atom_site_occupancy
  U  U0  1  0.24682000  0.97961900  0.80278100  1
  U  U1  1  0.75318000  0.47961900  0.69721900  1
  U  U2  1  0.75318000  0.02038100  0.19721900  1
  U  U3  1  0.24682000  0.52038100  0.30278100  1
  C  C4  1  0.03665500  0.83845300  0.57766400  1
  C  C5  1  0.96334500  0.33845300  0.92233600  1
  C  C6  1  0.96334500  0.16154700  0.42233600  1
  C  C7  1  0.03665500  0.66154700  0.07766400  1
  C  C8  1  0.50591000  0.86506200  0.59033300  1
  C  C9  1  0.49409000  0.36506200  0.90966700  1
  C  C10  1  0.49409000  0.13493800  0.40966700  1
  C  C11  1  0.50591000  0.63493800  0.09033300  1
  S  S12  1  0.74788400  0.94047400  0.89541400  1
  S  S13  1  0.25211600  0.44047400  0.60458600  1
  S  S14  1  0.25211600  0.05952600  0.10458600  1
  S  S15  1  0.74788400  0.55952600  0.39541400  1
  N  N16  1  0.95763500  0.85570200  0.47636300  1
  N  N17  1  0.04236500  0.35570200  0.02363700  1
  N  N18  1  0.04236500  0.14429800  0.52363700  1
  N  N19  1  0.95763500  0.64429800  0.97636300  1
  N  N20  1  0.06333800  0.74789300  0.61896000  1
  N  N21  1  0.93666200  0.24789300  0.88104000  1
  N  N22  1  0.93666200  0.25210700  0.38104000  1
  N  N23  1  0.06333800  0.75210700  0.11896000  1
  N  N24  1  0.50663400  0.81631500  0.48869100  1
  N  N25  1  0.49336600  0.31631500  0.01130900  1
  N  N26  1  0.49336600  0.18368500  0.51130900  1
  N  N27  1  0.50663400  0.68368500  0.98869100  1
  N  N28  1  0.54345200  0.76486200  0.58155000  1
  N  N29  1  0.45654800  0.26486200  0.91845000  1
  N  N30  1  0.45654800  0.23513800  0.41845000  1
  N  N31  1  0.54345200  0.73513800  0.08155000  1
  O  O32  1  0.25405700  0.10250700  0.74666200  1
  O  O33  1  0.74594300  0.60250700  0.75333800  1
  O  O34  1  0.74594300  0.89749300  0.25333800  1
  O  O35  1  0.25405700  0.39749300  0.24666200  1
  O  O36  1  0.25315200  0.85376100  0.85196700  1
  O  O37  1  0.74684800  0.35376100  0.64803300  1
  O  O38  1  0.74684800  0.14623900  0.14803300  1
  O  O39  1  0.25315200  0.64623900  0.35196700  1
  O  O40  1  0.57138000  0.99737000  0.86490400  1
  O  O41  1  0.42862000  0.49737000  0.63509600  1
  O  O42  1  0.42862000  0.00263000  0.13509600  1
  O  O43  1  0.57138000  0.50263000  0.36490400  1
  O  O44  1  0.21503600  0.04724700  0.98130800  1
  O  O45  1  0.78496400  0.54724700  0.51869200  1
  O  O46  1  0.78496400  0.95275300  0.01869200  1
  O  O47  1  0.21503600  0.45275300  0.48130800  1
  O  O48  1  0.91140500  0.98764400  0.83625100  1
  O  O49  1  0.08859500  0.48764400  0.66374900  1
  O  O50  1  0.08859500  0.01235600  0.16374900  1
  O  O51  1  0.91140500  0.51235600  0.33625100  1
  O  O52  1  0.73587800  0.83580100  0.86537100  1
  O  O53  1  0.26412200  0.33580100  0.63462900  1
  O  O54  1  0.26412200  0.16419900  0.13462900  1
  O  O55  1  0.73587800  0.66419900  0.36537100  1
  O  O56  1  0.09157700  0.91789800  0.63475500  1
  O  O57  1  0.90842300  0.41789800  0.86524500  1
  O  O58  1  0.90842300  0.08210200  0.36524500  1
  O  O59  1  0.09157700  0.58210200  0.13475500  1
  O  O60  1  0.48460700  0.94031200  0.64367100  1
  O  O61  1  0.51539300  0.44031200  0.85632900  1
  O  O62  1  0.51539300  0.05968800  0.35632900  1
  O  O63  1  0.48460700  0.55968800  0.14367100  1
