# generated using pymatgen
data_Er2Co12Ni5
_symmetry_space_group_name_H-M   'P 1'
_cell_length_a   8.04852800
_cell_length_b   8.28656005
_cell_length_c   8.28656005
_cell_angle_alpha   120.00670681
_cell_angle_beta   90.00000000
_cell_angle_gamma   90.00000000
_symmetry_Int_Tables_number   1
_chemical_formula_structural   Er2Co12Ni5
_chemical_formula_sum   'Er4 Co24 Ni10'
_cell_volume   478.59295378
_cell_formula_units_Z   2
loop_
 _symmetry_equiv_pos_site_id
 _symmetry_equiv_pos_as_xyz
  1  'x, y, z'
loop_
 _atom_site_type_symbol
 _atom_site_label
 _atom_site_symmetry_multiplicity
 _atom_site_fract_x
 _atom_site_fract_y
 _atom_site_fract_z
 _atom_site_occupancy
  Er  Er0  1  0.75000000  0.00001100  0.99998900  1
  Er  Er1  1  0.25000000  0.99998900  0.00001100  1
  Er  Er2  1  0.25000000  0.66652600  0.33347400  1
  Er  Er3  1  0.75000000  0.33347400  0.66652600  1
  Co  Co4  1  0.75000000  0.67338900  0.04862800  1
  Co  Co5  1  0.75000000  0.37524600  0.32666800  1
  Co  Co6  1  0.75000000  0.95129900  0.62474000  1
  Co  Co7  1  0.75000000  0.37526000  0.04870100  1
  Co  Co8  1  0.75000000  0.95137200  0.32661100  1
  Co  Co9  1  0.75000000  0.67333200  0.62475400  1
  Co  Co10  1  0.25000000  0.32661100  0.95137200  1
  Co  Co11  1  0.25000000  0.62475400  0.67333200  1
  Co  Co12  1  0.25000000  0.04870100  0.37526000  1
  Co  Co13  1  0.25000000  0.62474000  0.95129900  1
  Co  Co14  1  0.25000000  0.04862800  0.67338900  1
  Co  Co15  1  0.25000000  0.32666800  0.37524600  1
  Co  Co16  1  0.47576800  0.83763100  0.67538700  1
  Co  Co17  1  0.47574600  0.83773600  0.16226400  1
  Co  Co18  1  0.47576800  0.32461300  0.16236900  1
  Co  Co19  1  0.52423200  0.16236900  0.32461300  1
  Co  Co20  1  0.52425400  0.16226400  0.83773600  1
  Co  Co21  1  0.52423200  0.67538700  0.83763100  1
  Co  Co22  1  0.97576800  0.16236900  0.32461300  1
  Co  Co23  1  0.97574600  0.16226400  0.83773600  1
  Co  Co24  1  0.97576800  0.67538700  0.83763100  1
  Co  Co25  1  0.02423200  0.83763100  0.67538700  1
  Co  Co26  1  0.02425400  0.83773600  0.16226400  1
  Co  Co27  1  0.02423200  0.32461300  0.16236900  1
  Ni  Ni28  1  0.59885400  0.66663100  0.33336900  1
  Ni  Ni29  1  0.40114600  0.33336900  0.66663100  1
  Ni  Ni30  1  0.09885400  0.33336900  0.66663100  1
  Ni  Ni31  1  0.90114600  0.66663100  0.33336900  1
  Ni  Ni32  1  0.50000000  0.50000000  0.00000000  1
  Ni  Ni33  1  0.50000000  0.50000000  0.50000000  1
  Ni  Ni34  1  0.50000000  0.00000000  0.50000000  1
  Ni  Ni35  1  0.00000000  0.50000000  0.00000000  1
  Ni  Ni36  1  0.00000000  0.50000000  0.50000000  1
  Ni  Ni37  1  0.00000000  0.00000000  0.50000000  1
