# generated using pymatgen
data_FeS4(NCl)4
_symmetry_space_group_name_H-M   'P 1'
_cell_length_a   8.38731700
_cell_length_b   10.65660800
_cell_length_c   15.61840214
_cell_angle_alpha   90.00000000
_cell_angle_beta   105.99026456
_cell_angle_gamma   90.00000000
_symmetry_Int_Tables_number   1
_chemical_formula_structural   FeS4(NCl)4
_chemical_formula_sum   'Fe4 S16 N16 Cl16'
_cell_volume   1341.96577268
_cell_formula_units_Z   4
loop_
 _symmetry_equiv_pos_site_id
 _symmetry_equiv_pos_as_xyz
  1  'x, y, z'
loop_
 _atom_site_type_symbol
 _atom_site_label
 _atom_site_symmetry_multiplicity
 _atom_site_fract_x
 _atom_site_fract_y
 _atom_site_fract_z
 _atom_site_occupancy
  Fe  Fe0  1  0.23298600  0.35840900  0.74358800  1
  Fe  Fe1  1  0.76701400  0.85840900  0.75641200  1
  Fe  Fe2  1  0.76701400  0.64159100  0.25641200  1
  Fe  Fe3  1  0.23298600  0.14159100  0.24358800  1
  S  S4  1  0.63502700  0.25364800  0.60588700  1
  S  S5  1  0.36497300  0.75364800  0.89411300  1
  S  S6  1  0.36497300  0.74635200  0.39411300  1
  S  S7  1  0.63502700  0.24635200  0.10588700  1
  S  S8  1  0.85437100  0.26278800  0.39109000  1
  S  S9  1  0.14562900  0.76278800  0.10891000  1
  S  S10  1  0.14562900  0.73721200  0.60891000  1
  S  S11  1  0.85437100  0.23721200  0.89109000  1
  S  S12  1  0.74554800  0.05851600  0.49468600  1
  S  S13  1  0.25445200  0.55851600  0.00531400  1
  S  S14  1  0.25445200  0.94148400  0.50531400  1
  S  S15  1  0.74554800  0.44148400  0.99468600  1
  S  S16  1  0.74338800  0.45573100  0.50047500  1
  S  S17  1  0.25661200  0.95573100  0.99952500  1
  S  S18  1  0.25661200  0.54426900  0.49952500  1
  S  S19  1  0.74338800  0.04426900  0.00047500  1
  N  N20  1  0.86514900  0.37669400  0.45874700  1
  N  N21  1  0.13485100  0.87669400  0.04125300  1
  N  N22  1  0.13485100  0.62330600  0.54125300  1
  N  N23  1  0.86514900  0.12330600  0.95874700  1
  N  N24  1  0.65191500  0.38275800  0.56074800  1
  N  N25  1  0.34808500  0.88275800  0.93925200  1
  N  N26  1  0.34808500  0.61724200  0.43925200  1
  N  N27  1  0.65191500  0.11724200  0.06074800  1
  N  N28  1  0.79796900  0.13263100  0.42012000  1
  N  N29  1  0.20203100  0.63263100  0.07988000  1
  N  N30  1  0.20203100  0.86736900  0.57988000  1
  N  N31  1  0.79796900  0.36736900  0.92012000  1
  N  N32  1  0.72570100  0.13421200  0.57947700  1
  N  N33  1  0.27429900  0.63421200  0.92052300  1
  N  N34  1  0.27429900  0.86578800  0.42052300  1
  N  N35  1  0.72570100  0.36578800  0.07947700  1
  Cl  Cl36  1  0.31571200  0.25924400  0.87331900  1
  Cl  Cl37  1  0.68428800  0.75924400  0.62668100  1
  Cl  Cl38  1  0.68428800  0.74075600  0.12668100  1
  Cl  Cl39  1  0.31571200  0.24075600  0.37331900  1
  Cl  Cl40  1  0.19879300  0.23067200  0.62817600  1
  Cl  Cl41  1  0.80120700  0.73067200  0.87182400  1
  Cl  Cl42  1  0.80120700  0.76932800  0.37182400  1
  Cl  Cl43  1  0.19879300  0.26932800  0.12817600  1
  Cl  Cl44  1  0.99760200  0.45440700  0.73805700  1
  Cl  Cl45  1  0.00239800  0.95440700  0.76194300  1
  Cl  Cl46  1  0.00239800  0.54559300  0.26194300  1
  Cl  Cl47  1  0.99760200  0.04559300  0.23805700  1
  Cl  Cl48  1  0.42170700  0.49994400  0.73454500  1
  Cl  Cl49  1  0.57829300  0.99994400  0.76545500  1
  Cl  Cl50  1  0.57829300  0.50005600  0.26545500  1
  Cl  Cl51  1  0.42170700  0.00005600  0.23454500  1
