# generated using pymatgen
data_Sr5Pt4
_symmetry_space_group_name_H-M   'P 1'
_cell_length_a   7.89637200
_cell_length_b   8.22340500
_cell_length_c   15.73410500
_cell_angle_alpha   90.00000000
_cell_angle_beta   90.00000000
_cell_angle_gamma   90.00000000
_symmetry_Int_Tables_number   1
_chemical_formula_structural   Sr5Pt4
_chemical_formula_sum   'Sr20 Pt16'
_cell_volume   1021.69513068
_cell_formula_units_Z   4
loop_
 _symmetry_equiv_pos_site_id
 _symmetry_equiv_pos_as_xyz
  1  'x, y, z'
loop_
 _atom_site_type_symbol
 _atom_site_label
 _atom_site_symmetry_multiplicity
 _atom_site_fract_x
 _atom_site_fract_y
 _atom_site_fract_z
 _atom_site_occupancy
  Sr  Sr0  1  0.34275400  0.82793100  0.87878000  1
  Sr  Sr1  1  0.84275400  0.67206900  0.62122000  1
  Sr  Sr2  1  0.65724600  0.17206900  0.37878100  1
  Sr  Sr3  1  0.15724600  0.32793100  0.12121900  1
  Sr  Sr4  1  0.65724600  0.17206900  0.12121900  1
  Sr  Sr5  1  0.15724600  0.32793100  0.37878100  1
  Sr  Sr6  1  0.34275400  0.82793100  0.62122000  1
  Sr  Sr7  1  0.84275400  0.67206900  0.87878000  1
  Sr  Sr8  1  0.49862000  0.31886700  0.90468400  1
  Sr  Sr9  1  0.99862000  0.18113300  0.59531600  1
  Sr  Sr10  1  0.50138000  0.68113300  0.40468400  1
  Sr  Sr11  1  0.00138000  0.81886700  0.09531600  1
  Sr  Sr12  1  0.50138000  0.68113300  0.09531600  1
  Sr  Sr13  1  0.00138000  0.81886700  0.40468400  1
  Sr  Sr14  1  0.49862000  0.31886700  0.59531600  1
  Sr  Sr15  1  0.99862000  0.18113300  0.90468400  1
  Sr  Sr16  1  0.18426500  0.48691200  0.75000000  1
  Sr  Sr17  1  0.68426500  0.01308800  0.75000000  1
  Sr  Sr18  1  0.81573500  0.51308800  0.25000000  1
  Sr  Sr19  1  0.31573500  0.98691200  0.25000000  1
  Pt  Pt20  1  0.33164000  0.03002500  0.03946600  1
  Pt  Pt21  1  0.83164000  0.46997500  0.46053400  1
  Pt  Pt22  1  0.66836000  0.96997500  0.53946600  1
  Pt  Pt23  1  0.16836000  0.53002500  0.96053400  1
  Pt  Pt24  1  0.66836000  0.96997500  0.96053400  1
  Pt  Pt25  1  0.16836000  0.53002500  0.53946600  1
  Pt  Pt26  1  0.33164000  0.03002500  0.46053400  1
  Pt  Pt27  1  0.83164000  0.46997500  0.03946600  1
  Pt  Pt28  1  0.55192100  0.60144100  0.75000000  1
  Pt  Pt29  1  0.05192100  0.89855900  0.75000000  1
  Pt  Pt30  1  0.44807900  0.39855900  0.25000000  1
  Pt  Pt31  1  0.94807900  0.10144100  0.25000000  1
  Pt  Pt32  1  0.29828200  0.13078800  0.75000000  1
  Pt  Pt33  1  0.79828200  0.36921200  0.75000000  1
  Pt  Pt34  1  0.70171800  0.86921200  0.25000000  1
  Pt  Pt35  1  0.20171800  0.63078800  0.25000000  1
