# generated using pymatgen
data_ZnFe8Ni3O16
_symmetry_space_group_name_H-M   'P 1'
_cell_length_a   8.36406630
_cell_length_b   8.36406630
_cell_length_c   8.36183732
_cell_angle_alpha   89.95430572
_cell_angle_beta   89.95430572
_cell_angle_gamma   90.00050376
_symmetry_Int_Tables_number   1
_chemical_formula_structural   ZnFe8Ni3O16
_chemical_formula_sum   'Zn2 Fe16 Ni6 O32'
_cell_volume   584.97374091
_cell_formula_units_Z   2
loop_
 _symmetry_equiv_pos_site_id
 _symmetry_equiv_pos_as_xyz
  1  'x, y, z'
loop_
 _atom_site_type_symbol
 _atom_site_label
 _atom_site_symmetry_multiplicity
 _atom_site_fract_x
 _atom_site_fract_y
 _atom_site_fract_z
 _atom_site_occupancy
  Zn  Zn0  1  0.99607500  0.99607500  0.00118500  1
  Zn  Zn1  1  0.75148200  0.75148200  0.74404600  1
  Fe  Fe2  1  0.50183700  0.99683700  0.50961300  1
  Fe  Fe3  1  0.99683700  0.50183700  0.50961300  1
  Fe  Fe4  1  0.50064600  0.50064600  0.00251600  1
  Fe  Fe5  1  0.24755000  0.24755000  0.74477800  1
  Fe  Fe6  1  0.75326900  0.24806900  0.24555000  1
  Fe  Fe7  1  0.24806900  0.75326900  0.24555000  1
  Fe  Fe8  1  0.12492700  0.12492700  0.37336600  1
  Fe  Fe9  1  0.87536000  0.37307000  0.87558600  1
  Fe  Fe10  1  0.37556300  0.12067500  0.12509800  1
  Fe  Fe11  1  0.12067500  0.37556300  0.12509800  1
  Fe  Fe12  1  0.62430900  0.62430900  0.37697000  1
  Fe  Fe13  1  0.62532600  0.12354800  0.87499400  1
  Fe  Fe14  1  0.12354800  0.62532600  0.87499400  1
  Fe  Fe15  1  0.37307000  0.87536000  0.87558600  1
  Fe  Fe16  1  0.37275400  0.37275400  0.37431700  1
  Fe  Fe17  1  0.87546500  0.87546500  0.37487800  1
  Ni  Ni18  1  0.37449800  0.62327500  0.62403500  1
  Ni  Ni19  1  0.62701100  0.87331600  0.12395400  1
  Ni  Ni20  1  0.87494300  0.12277300  0.62603300  1
  Ni  Ni21  1  0.87331600  0.62701100  0.12395400  1
  Ni  Ni22  1  0.12277300  0.87494300  0.62603300  1
  Ni  Ni23  1  0.62327600  0.37449800  0.62403500  1
  O  O24  1  0.60920300  0.37793000  0.37378500  1
  O  O25  1  0.38143600  0.11522100  0.88227900  1
  O  O26  1  0.88490600  0.88490600  0.60373500  1
  O  O27  1  0.12273400  0.60782600  0.11227900  1
  O  O28  1  0.87547000  0.63266700  0.37213900  1
  O  O29  1  0.14153100  0.85751400  0.87175000  1
  O  O30  1  0.36439100  0.36439100  0.13484100  1
  O  O31  1  0.62969200  0.12750400  0.64139600  1
  O  O32  1  0.11759700  0.88975300  0.37286400  1
  O  O33  1  0.11522100  0.38143600  0.88227900  1
  O  O34  1  0.60832400  0.89014600  0.87987900  1
  O  O35  1  0.89014600  0.60832400  0.87987900  1
  O  O36  1  0.88975300  0.11759700  0.37286400  1
  O  O37  1  0.37793000  0.60920300  0.37378500  1
  O  O38  1  0.37598400  0.37598400  0.60859500  1
  O  O39  1  0.37772000  0.88226300  0.11480300  1
  O  O40  1  0.88226300  0.37772000  0.11480300  1
  O  O41  1  0.60782600  0.12273400  0.11227900  1
  O  O42  1  0.61479700  0.61479700  0.60537400  1
  O  O43  1  0.12149700  0.12149700  0.60928800  1
  O  O44  1  0.36578500  0.13345900  0.36950200  1
  O  O45  1  0.36597400  0.63364700  0.87383000  1
  O  O46  1  0.85751400  0.14153100  0.87175000  1
  O  O47  1  0.63364700  0.36597400  0.87383000  1
  O  O48  1  0.63266700  0.87547000  0.37213900  1
  O  O49  1  0.13345900  0.36578500  0.36950200  1
  O  O50  1  0.86581100  0.86581100  0.14535100  1
  O  O51  1  0.87197900  0.36796400  0.64067100  1
  O  O52  1  0.36796400  0.87197900  0.64067100  1
  O  O53  1  0.12750400  0.62969200  0.64139600  1
  O  O54  1  0.13936500  0.13936500  0.13829900  1
  O  O55  1  0.62697800  0.62697800  0.13955600  1
