# generated using pymatgen
data_K4BaV6O18
_symmetry_space_group_name_H-M   'P 1'
_cell_length_a   10.26752767
_cell_length_b   10.26752767
_cell_length_c   10.26752721
_cell_angle_alpha   84.93982103
_cell_angle_beta   84.93982103
_cell_angle_gamma   84.93982531
_symmetry_Int_Tables_number   1
_chemical_formula_structural   K4BaV6O18
_chemical_formula_sum   'K8 Ba2 V12 O36'
_cell_volume   1070.47001774
_cell_formula_units_Z   2
loop_
 _symmetry_equiv_pos_site_id
 _symmetry_equiv_pos_as_xyz
  1  'x, y, z'
loop_
 _atom_site_type_symbol
 _atom_site_label
 _atom_site_symmetry_multiplicity
 _atom_site_fract_x
 _atom_site_fract_y
 _atom_site_fract_z
 _atom_site_occupancy
  K  K0  1  0.50014800  0.50014800  0.50014800  1
  K  K1  1  0.00014800  0.00014800  0.00014800  1
  K  K2  1  0.92285500  0.08497800  0.50413300  1
  K  K3  1  0.50413300  0.92285500  0.08497800  1
  K  K4  1  0.08497800  0.50413300  0.92285500  1
  K  K5  1  0.00413300  0.58497800  0.42285500  1
  K  K6  1  0.42285500  0.00413300  0.58497800  1
  K  K7  1  0.58497800  0.42285500  0.00413300  1
  Ba  Ba8  1  0.25535800  0.25535800  0.25535800  1
  Ba  Ba9  1  0.75535800  0.75535800  0.75535800  1
  V  V10  1  0.79412000  0.66492200  0.10240300  1
  V  V11  1  0.10240300  0.79412000  0.66492200  1
  V  V12  1  0.66492200  0.10240300  0.79412000  1
  V  V13  1  0.60240300  0.16492200  0.29412000  1
  V  V14  1  0.29412000  0.60240300  0.16492200  1
  V  V15  1  0.16492200  0.29412000  0.60240300  1
  V  V16  1  0.70621400  0.82959400  0.39836900  1
  V  V17  1  0.39836900  0.70621400  0.82959400  1
  V  V18  1  0.82959400  0.39836900  0.70621400  1
  V  V19  1  0.89836900  0.32959400  0.20621400  1
  V  V20  1  0.20621400  0.89836900  0.32959400  1
  V  V21  1  0.32959400  0.20621400  0.89836900  1
  O  O22  1  0.99354900  0.33764200  0.64795800  1
  O  O23  1  0.64795800  0.99354900  0.33764200  1
  O  O24  1  0.33764200  0.64795800  0.99354900  1
  O  O25  1  0.14795800  0.83764200  0.49354900  1
  O  O26  1  0.49354900  0.14795800  0.83764200  1
  O  O27  1  0.83764200  0.49354900  0.14795800  1
  O  O28  1  0.18082300  0.15716800  0.52206000  1
  O  O29  1  0.52206000  0.18082300  0.15716800  1
  O  O30  1  0.15716800  0.52206000  0.18082300  1
  O  O31  1  0.02206000  0.65716800  0.68082300  1
  O  O32  1  0.68082300  0.02206000  0.65716800  1
  O  O33  1  0.65716800  0.68082300  0.02206000  1
  O  O34  1  0.76179300  0.74213000  0.25502500  1
  O  O35  1  0.25502500  0.76179300  0.74213000  1
  O  O36  1  0.74213000  0.25502500  0.76179300  1
  O  O37  1  0.75502500  0.24213000  0.26179200  1
  O  O38  1  0.26179300  0.75502500  0.24213000  1
  O  O39  1  0.24213000  0.26179300  0.75502500  1
  O  O40  1  0.91448500  0.72863100  0.00189600  1
  O  O41  1  0.00189600  0.91448500  0.72863100  1
  O  O42  1  0.72863100  0.00189600  0.91448500  1
  O  O43  1  0.50189600  0.22863100  0.41448500  1
  O  O44  1  0.41448500  0.50189600  0.22863100  1
  O  O45  1  0.22863100  0.41448500  0.50189600  1
  O  O46  1  0.99057200  0.32817200  0.33410200  1
  O  O47  1  0.33410200  0.99057200  0.32817200  1
  O  O48  1  0.32817200  0.33410200  0.99057200  1
  O  O49  1  0.83410200  0.82817200  0.49057200  1
  O  O50  1  0.49057200  0.83410200  0.82817200  1
  O  O51  1  0.82817200  0.49057200  0.83410200  1
  O  O52  1  0.58384200  0.76191600  0.49094000  1
  O  O53  1  0.49094000  0.58384200  0.76191600  1
  O  O54  1  0.76191600  0.49094000  0.58384200  1
  O  O55  1  0.99094000  0.26191600  0.08384200  1
  O  O56  1  0.08384200  0.99094000  0.26191600  1
  O  O57  1  0.26191600  0.08384200  0.99094000  1
