# generated using pymatgen
data_CuH5C3NO4
_symmetry_space_group_name_H-M   'P 1'
_cell_length_a   13.28236000
_cell_length_b   9.51173400
_cell_length_c   9.98144854
_cell_angle_alpha   78.56780073
_cell_angle_beta   90.00000000
_cell_angle_gamma   90.00000000
_symmetry_Int_Tables_number   1
_chemical_formula_structural   CuH5C3NO4
_chemical_formula_sum   'Cu8 H40 C24 N8 O32'
_cell_volume   1236.01990312
_cell_formula_units_Z   8
loop_
 _symmetry_equiv_pos_site_id
 _symmetry_equiv_pos_as_xyz
  1  'x, y, z'
loop_
 _atom_site_type_symbol
 _atom_site_label
 _atom_site_symmetry_multiplicity
 _atom_site_fract_x
 _atom_site_fract_y
 _atom_site_fract_z
 _atom_site_occupancy
  Cu  Cu0  1  0.65205200  0.82232000  0.18669300  1
  Cu  Cu1  1  0.15205200  0.67768000  0.81330700  1
  Cu  Cu2  1  0.34794800  0.17768000  0.81330700  1
  Cu  Cu3  1  0.84794800  0.32232000  0.18669300  1
  Cu  Cu4  1  0.59651600  0.25822600  0.50244300  1
  Cu  Cu5  1  0.09651600  0.24177400  0.49755700  1
  Cu  Cu6  1  0.40348400  0.74177400  0.49755700  1
  Cu  Cu7  1  0.90348400  0.75822600  0.50244300  1
  H  H8  1  0.48079000  0.85827500  0.06493700  1
  H  H9  1  0.98079000  0.64172500  0.93506300  1
  H  H10  1  0.51921000  0.14172500  0.93506300  1
  H  H11  1  0.01921000  0.35827500  0.06493700  1
  H  H12  1  0.48658300  0.70017100  0.16558000  1
  H  H13  1  0.98658300  0.79982900  0.83442000  1
  H  H14  1  0.51341700  0.29982900  0.83442000  1
  H  H15  1  0.01341700  0.20017100  0.16558000  1
  H  H16  1  0.77781900  0.26067600  0.57761700  1
  H  H17  1  0.27781900  0.23932400  0.42238300  1
  H  H18  1  0.22218100  0.73932400  0.42238300  1
  H  H19  1  0.72218100  0.76067600  0.57761700  1
  H  H20  1  0.75454300  0.10844800  0.53398600  1
  H  H21  1  0.25454300  0.39155200  0.46601400  1
  H  H22  1  0.24545700  0.89155200  0.46601400  1
  H  H23  1  0.74545700  0.60844800  0.53398600  1
  H  H24  1  0.46417100  0.68023600  0.93035700  1
  H  H25  1  0.96417100  0.81976400  0.06964300  1
  H  H26  1  0.53582900  0.31976400  0.06964300  1
  H  H27  1  0.03582900  0.18023600  0.93035700  1
  H  H28  1  0.57754900  0.77894000  0.89067500  1
  H  H29  1  0.07754900  0.72106000  0.10932500  1
  H  H30  1  0.42245100  0.22106000  0.10932500  1
  H  H31  1  0.92245100  0.27894000  0.89067500  1
  H  H32  1  0.58192900  0.60532800  0.99726000  1
  H  H33  1  0.08192900  0.89467200  0.00274000  1
  H  H34  1  0.41807100  0.39467200  0.00274000  1
  H  H35  1  0.91807100  0.10532800  0.99726000  1
  H  H36  1  0.79993300  0.06805900  0.77174400  1
  H  H37  1  0.29993300  0.43194100  0.22825600  1
  H  H38  1  0.20006700  0.93194100  0.22825600  1
  H  H39  1  0.70006700  0.56805900  0.77174400  1
  H  H40  1  0.69965000  0.18371900  0.79945300  1
  H  H41  1  0.19965000  0.31628100  0.20054700  1
  H  H42  1  0.30035000  0.81628100  0.20054700  1
  H  H43  1  0.80035000  0.68371900  0.79945300  1
  H  H44  1  0.67257100  0.01708200  0.75179900  1
  H  H45  1  0.17257100  0.48291800  0.24820100  1
  H  H46  1  0.32742900  0.98291800  0.24820100  1
  H  H47  1  0.82742900  0.51708200  0.75179900  1
  C  C48  1  0.70892500  0.10523800  0.11902200  1
  C  C49  1  0.20892500  0.39476200  0.88097800  1
  C  C50  1  0.29107500  0.89476200  0.88097800  1
  C  C51  1  0.79107500  0.60523800  0.11902200  1
  C  C52  1  0.77050100  0.03986900  0.24768200  1
  C  C53  1  0.27050100  0.46013100  0.75231800  1
  C  C54  1  0.22949900  0.96013100  0.75231800  1
  C  C55  1  0.72949900  0.53986900  0.24768200  1
  C  C56  1  0.47030700  0.48980200  0.43702000  1
  C  C57  1  0.97030700  0.01019800  0.56298000  1
  C  C58  1  0.52969300  0.51019800  0.56298000  1
  C  C59  1  0.02969300  0.98980200  0.43702000  1
  C  C60  1  0.53112000  0.00022100  0.43354800  1
  C  C61  1  0.03112000  0.49977900  0.56645200  1
  C  C62  1  0.46888000  0.99977900  0.56645200  1
  C  C63  1  0.96888000  0.50022100  0.43354800  1
  C  C64  1  0.53777800  0.70409700  0.97060700  1
  C  C65  1  0.03777800  0.79590300  0.02939300  1
  C  C66  1  0.46222200  0.29590300  0.02939300  1
  C  C67  1  0.96222200  0.20409700  0.97060700  1
  C  C68  1  0.72491000  0.10777800  0.73719000  1
  C  C69  1  0.22491000  0.39222200  0.26281000  1
  C  C70  1  0.27509000  0.89222200  0.26281000  1
  C  C71  1  0.77509000  0.60777800  0.73719000  1
  N  N72  1  0.52555500  0.76924600  0.09217100  1
  N  N73  1  0.02555500  0.73075400  0.90782900  1
  N  N74  1  0.47444500  0.23075400  0.90782900  1
  N  N75  1  0.97444500  0.26924600  0.09217100  1
  N  N76  1  0.72717200  0.17813200  0.59135700  1
  N  N77  1  0.22717200  0.32186800  0.40864300  1
  N  N78  1  0.27282800  0.82186800  0.40864300  1
  N  N79  1  0.77282800  0.67813200  0.59135700  1
  O  O80  1  0.64462200  0.02075400  0.07957800  1
  O  O81  1  0.14462200  0.47924600  0.92042200  1
  O  O82  1  0.35537800  0.97924600  0.92042200  1
  O  O83  1  0.85537800  0.52075400  0.07957800  1
  O  O84  1  0.72470000  0.23205400  0.06140800  1
  O  O85  1  0.22470000  0.26794600  0.93859200  1
  O  O86  1  0.27530000  0.76794600  0.93859200  1
  O  O87  1  0.77530000  0.73205400  0.06140800  1
  O  O88  1  0.75730100  0.90772000  0.29777500  1
  O  O89  1  0.25730100  0.59228000  0.70222500  1
  O  O90  1  0.24269900  0.09228000  0.70222500  1
  O  O91  1  0.74269900  0.40772000  0.29777500  1
  O  O92  1  0.83109600  0.12056500  0.29616000  1
  O  O93  1  0.33109600  0.37943500  0.70384000  1
  O  O94  1  0.16890400  0.87943500  0.70384000  1
  O  O95  1  0.66890400  0.62056500  0.29616000  1
  O  O96  1  0.48862600  0.38006900  0.38796800  1
  O  O97  1  0.98862600  0.11993100  0.61203200  1
  O  O98  1  0.51137400  0.61993100  0.61203200  1
  O  O99  1  0.01137400  0.88006900  0.38796800  1
  O  O100  1  0.40560800  0.58573500  0.38980500  1
  O  O101  1  0.90560800  0.91426500  0.61019500  1
  O  O102  1  0.59439200  0.41426500  0.61019500  1
  O  O103  1  0.09439200  0.08573500  0.38980500  1
  O  O104  1  0.58888700  0.10801500  0.39285800  1
  O  O105  1  0.08888700  0.39198500  0.60714200  1
  O  O106  1  0.41111300  0.89198500  0.60714200  1
  O  O107  1  0.91111300  0.60801500  0.39285800  1
  O  O108  1  0.52131700  0.89598900  0.37460400  1
  O  O109  1  0.02131700  0.60401100  0.62539600  1
  O  O110  1  0.47868300  0.10401100  0.62539600  1
  O  O111  1  0.97868300  0.39598900  0.37460400  1
