# generated using pymatgen
data_Sm6Al43Cr4
_symmetry_space_group_name_H-M   'P 1'
_cell_length_a   10.99559200
_cell_length_b   10.99559200
_cell_length_c   17.67761300
_cell_angle_alpha   90.00000000
_cell_angle_beta   90.00000000
_cell_angle_gamma   119.99999999
_symmetry_Int_Tables_number   1
_chemical_formula_structural   Sm6Al43Cr4
_chemical_formula_sum   'Sm12 Al86 Cr8'
_cell_volume   1850.93636045
_cell_formula_units_Z   2
loop_
 _symmetry_equiv_pos_site_id
 _symmetry_equiv_pos_as_xyz
  1  'x, y, z'
loop_
 _atom_site_type_symbol
 _atom_site_label
 _atom_site_symmetry_multiplicity
 _atom_site_fract_x
 _atom_site_fract_y
 _atom_site_fract_z
 _atom_site_occupancy
  Sm  Sm0  1  0.47053000  0.47053000  0.90452700  1
  Sm  Sm1  1  0.52947000  0.00000000  0.90452700  1
  Sm  Sm2  1  0.00000000  0.52947000  0.90452700  1
  Sm  Sm3  1  0.52947000  0.52947000  0.09547300  1
  Sm  Sm4  1  0.47053000  0.00000000  0.09547300  1
  Sm  Sm5  1  0.00000000  0.47053000  0.09547300  1
  Sm  Sm6  1  0.52947000  0.52947000  0.40452700  1
  Sm  Sm7  1  0.47053000  0.00000000  0.40452700  1
  Sm  Sm8  1  0.00000000  0.47053000  0.40452700  1
  Sm  Sm9  1  0.47053000  0.47053000  0.59547300  1
  Sm  Sm10  1  0.52947000  0.00000000  0.59547300  1
  Sm  Sm11  1  0.00000000  0.52947000  0.59547300  1
  Al  Al12  1  0.84191300  0.23144400  0.83344600  1
  Al  Al13  1  0.76855600  0.61046900  0.83344600  1
  Al  Al14  1  0.38953100  0.15808700  0.83344600  1
  Al  Al15  1  0.23144400  0.84191300  0.83344600  1
  Al  Al16  1  0.61046900  0.76855600  0.83344600  1
  Al  Al17  1  0.15808700  0.38953100  0.83344600  1
  Al  Al18  1  0.15808700  0.76855600  0.16655400  1
  Al  Al19  1  0.23144400  0.38953100  0.16655400  1
  Al  Al20  1  0.61046900  0.84191300  0.16655400  1
  Al  Al21  1  0.76855600  0.15808700  0.16655400  1
  Al  Al22  1  0.38953100  0.23144400  0.16655400  1
  Al  Al23  1  0.84191300  0.61046900  0.16655400  1
  Al  Al24  1  0.15808700  0.76855600  0.33344600  1
  Al  Al25  1  0.23144400  0.38953100  0.33344600  1
  Al  Al26  1  0.61046900  0.84191300  0.33344600  1
  Al  Al27  1  0.76855600  0.15808700  0.33344600  1
  Al  Al28  1  0.38953100  0.23144400  0.33344600  1
  Al  Al29  1  0.84191300  0.61046900  0.33344600  1
  Al  Al30  1  0.84191300  0.23144400  0.66655400  1
  Al  Al31  1  0.76855600  0.61046900  0.66655400  1
  Al  Al32  1  0.38953100  0.15808700  0.66655400  1
  Al  Al33  1  0.23144400  0.84191300  0.66655400  1
  Al  Al34  1  0.61046900  0.76855600  0.66655400  1
  Al  Al35  1  0.15808700  0.38953100  0.66655400  1
  Al  Al36  1  0.84521100  0.84521100  0.38425600  1
  Al  Al37  1  0.15478900  0.00000000  0.38425600  1
  Al  Al38  1  0.00000000  0.15478900  0.38425600  1
  Al  Al39  1  0.15478900  0.15478900  0.61574400  1
  Al  Al40  1  0.84521100  0.00000000  0.61574400  1
  Al  Al41  1  0.00000000  0.84521100  0.61574400  1
  Al  Al42  1  0.15478900  0.15478900  0.88425600  1
  Al  Al43  1  0.84521100  0.00000000  0.88425600  1
  Al  Al44  1  0.00000000  0.84521100  0.88425600  1
  Al  Al45  1  0.84521100  0.84521100  0.11574400  1
  Al  Al46  1  0.15478900  0.00000000  0.11574400  1
  Al  Al47  1  0.00000000  0.15478900  0.11574400  1
  Al  Al48  1  0.75079900  0.75079900  0.96889700  1
  Al  Al49  1  0.24920100  0.00000000  0.96889700  1
  Al  Al50  1  0.00000000  0.24920100  0.96889700  1
  Al  Al51  1  0.24920100  0.24920100  0.03110300  1
  Al  Al52  1  0.75079900  0.00000000  0.03110300  1
  Al  Al53  1  0.00000000  0.75079900  0.03110300  1
  Al  Al54  1  0.24920100  0.24920100  0.46889700  1
  Al  Al55  1  0.75079900  0.00000000  0.46889700  1
  Al  Al56  1  0.00000000  0.75079900  0.46889700  1
  Al  Al57  1  0.75079900  0.75079900  0.53110300  1
  Al  Al58  1  0.24920100  0.00000000  0.53110300  1
  Al  Al59  1  0.00000000  0.24920100  0.53110300  1
  Al  Al60  1  0.85563700  0.45380700  0.75000000  1
  Al  Al61  1  0.54619300  0.40183000  0.75000000  1
  Al  Al62  1  0.59817000  0.14436300  0.75000000  1
  Al  Al63  1  0.45380700  0.85563700  0.75000000  1
  Al  Al64  1  0.40183000  0.54619300  0.75000000  1
  Al  Al65  1  0.14436300  0.59817000  0.75000000  1
  Al  Al66  1  0.14436300  0.54619300  0.25000000  1
  Al  Al67  1  0.45380700  0.59817000  0.25000000  1
  Al  Al68  1  0.40183000  0.85563700  0.25000000  1
  Al  Al69  1  0.54619300  0.14436300  0.25000000  1
  Al  Al70  1  0.59817000  0.45380700  0.25000000  1
  Al  Al71  1  0.85563700  0.40183000  0.25000000  1
  Al  Al72  1  0.75303300  0.24696700  0.00000000  1
  Al  Al73  1  0.75303300  0.50606700  0.00000000  1
  Al  Al74  1  0.49393300  0.24696700  0.00000000  1
  Al  Al75  1  0.24696700  0.75303300  0.00000000  1
  Al  Al76  1  0.50606700  0.75303300  0.00000000  1
  Al  Al77  1  0.24696700  0.49393300  0.00000000  1
  Al  Al78  1  0.24696700  0.75303300  0.50000000  1
  Al  Al79  1  0.24696700  0.49393300  0.50000000  1
  Al  Al80  1  0.50606700  0.75303300  0.50000000  1
  Al  Al81  1  0.75303300  0.24696700  0.50000000  1
  Al  Al82  1  0.49393300  0.24696700  0.50000000  1
  Al  Al83  1  0.75303300  0.50606700  0.50000000  1
  Al  Al84  1  0.66666700  0.33333300  0.87156600  1
  Al  Al85  1  0.33333300  0.66666700  0.87156600  1
  Al  Al86  1  0.33333300  0.66666700  0.12843400  1
  Al  Al87  1  0.66666700  0.33333300  0.12843400  1
  Al  Al88  1  0.33333300  0.66666700  0.37156600  1
  Al  Al89  1  0.66666700  0.33333300  0.37156600  1
  Al  Al90  1  0.66666700  0.33333300  0.62843400  1
  Al  Al91  1  0.33333300  0.66666700  0.62843400  1
  Al  Al92  1  0.85532700  0.85532700  0.75000000  1
  Al  Al93  1  0.14467300  0.00000000  0.75000000  1
  Al  Al94  1  0.00000000  0.14467300  0.75000000  1
  Al  Al95  1  0.14467300  0.14467300  0.25000000  1
  Al  Al96  1  0.85532700  0.00000000  0.25000000  1
  Al  Al97  1  0.00000000  0.85532700  0.25000000  1
  Cr  Cr98  1  0.26581600  0.26581600  0.75000000  1
  Cr  Cr99  1  0.73418400  0.00000000  0.75000000  1
  Cr  Cr100  1  0.00000000  0.73418400  0.75000000  1
  Cr  Cr101  1  0.73418400  0.73418400  0.25000000  1
  Cr  Cr102  1  0.26581600  0.00000000  0.25000000  1
  Cr  Cr103  1  0.00000000  0.26581600  0.25000000  1
  Cr  Cr104  1  0.00000000  0.00000000  0.00000000  1
  Cr  Cr105  1  0.00000000  0.00000000  0.50000000  1
