# generated using pymatgen
data_TiH16C4(NCl3)2
_symmetry_space_group_name_H-M   'P 1'
_cell_length_a   7.75802100
_cell_length_b   14.55314200
_cell_length_c   7.11216200
_cell_angle_alpha   90.00000000
_cell_angle_beta   90.00000000
_cell_angle_gamma   90.00000000
_symmetry_Int_Tables_number   1
_chemical_formula_structural   TiH16C4(NCl3)2
_chemical_formula_sum   'Ti2 H32 C8 N4 Cl12'
_cell_volume   802.98856024
_cell_formula_units_Z   2
loop_
 _symmetry_equiv_pos_site_id
 _symmetry_equiv_pos_as_xyz
  1  'x, y, z'
loop_
 _atom_site_type_symbol
 _atom_site_label
 _atom_site_symmetry_multiplicity
 _atom_site_fract_x
 _atom_site_fract_y
 _atom_site_fract_z
 _atom_site_occupancy
  Ti  Ti0  1  0.00000000  0.00000000  0.00000000  1
  Ti  Ti1  1  0.50000000  0.50000000  0.50000000  1
  H  H2  1  0.14455300  0.09284600  0.61642100  1
  H  H3  1  0.85544700  0.90715400  0.61642100  1
  H  H4  1  0.64455300  0.40715400  0.88357900  1
  H  H5  1  0.35544700  0.59284600  0.88357900  1
  H  H6  1  0.85544700  0.90715400  0.38357900  1
  H  H7  1  0.14455300  0.09284600  0.38357900  1
  H  H8  1  0.35544700  0.59284600  0.11642100  1
  H  H9  1  0.64455300  0.40715400  0.11642100  1
  H  H10  1  0.41366000  0.17493800  0.62638100  1
  H  H11  1  0.58634000  0.82506200  0.62638100  1
  H  H12  1  0.91366000  0.32506200  0.87361900  1
  H  H13  1  0.08634000  0.67493800  0.87361900  1
  H  H14  1  0.58634000  0.82506200  0.37361900  1
  H  H15  1  0.41366000  0.17493800  0.37361900  1
  H  H16  1  0.08634000  0.67493800  0.12638100  1
  H  H17  1  0.91366000  0.32506200  0.12638100  1
  H  H18  1  0.43232800  0.06857400  0.50000000  1
  H  H19  1  0.56767200  0.93142600  0.50000000  1
  H  H20  1  0.93232800  0.43142600  0.00000000  1
  H  H21  1  0.06767200  0.56857400  0.00000000  1
  H  H22  1  0.96159600  0.21557900  0.50000000  1
  H  H23  1  0.03840400  0.78442100  0.50000000  1
  H  H24  1  0.46159600  0.28442100  0.00000000  1
  H  H25  1  0.53840400  0.71557900  0.00000000  1
  H  H26  1  0.14604400  0.25957600  0.62560200  1
  H  H27  1  0.85395600  0.74042400  0.62560200  1
  H  H28  1  0.64604400  0.24042400  0.87439800  1
  H  H29  1  0.35395600  0.75957600  0.87439800  1
  H  H30  1  0.85395600  0.74042400  0.37439800  1
  H  H31  1  0.14604400  0.25957600  0.37439800  1
  H  H32  1  0.35395600  0.75957600  0.12560200  1
  H  H33  1  0.64604400  0.24042400  0.12560200  1
  C  C34  1  0.37554400  0.13723100  0.50000000  1
  C  C35  1  0.62445600  0.86276900  0.50000000  1
  C  C36  1  0.87554400  0.36276900  0.00000000  1
  C  C37  1  0.12445600  0.63723100  0.00000000  1
  C  C38  1  0.10235000  0.22305500  0.50000000  1
  C  C39  1  0.89765000  0.77694500  0.50000000  1
  C  C40  1  0.60235000  0.27694500  0.00000000  1
  C  C41  1  0.39765000  0.72305500  0.00000000  1
  N  N42  1  0.18381200  0.13029500  0.50000000  1
  N  N43  1  0.81618800  0.86970500  0.50000000  1
  N  N44  1  0.68381200  0.36970500  0.00000000  1
  N  N45  1  0.31618800  0.63029500  0.00000000  1
  Cl  Cl46  1  0.18275800  0.93883800  0.23401100  1
  Cl  Cl47  1  0.81724200  0.06116200  0.23401100  1
  Cl  Cl48  1  0.68275800  0.56116200  0.26598900  1
  Cl  Cl49  1  0.31724200  0.43883800  0.26598900  1
  Cl  Cl50  1  0.81724200  0.06116200  0.76598900  1
  Cl  Cl51  1  0.18275800  0.93883800  0.76598900  1
  Cl  Cl52  1  0.31724200  0.43883800  0.73401100  1
  Cl  Cl53  1  0.68275800  0.56116200  0.73401100  1
  Cl  Cl54  1  0.83549800  0.86280700  0.00000000  1
  Cl  Cl55  1  0.16450200  0.13719300  0.00000000  1
  Cl  Cl56  1  0.33549800  0.63719300  0.50000000  1
  Cl  Cl57  1  0.66450200  0.36280700  0.50000000  1
