# generated using pymatgen
data_KLa2N7
_symmetry_space_group_name_H-M   'P 1'
_cell_length_a   8.78054400
_cell_length_b   8.33384100
_cell_length_c   11.38536300
_cell_angle_alpha   90.00000000
_cell_angle_beta   90.00000000
_cell_angle_gamma   90.00000000
_symmetry_Int_Tables_number   1
_chemical_formula_structural   KLa2N7
_chemical_formula_sum   'K4 La8 N28'
_cell_volume   833.13142442
_cell_formula_units_Z   4
loop_
 _symmetry_equiv_pos_site_id
 _symmetry_equiv_pos_as_xyz
  1  'x, y, z'
loop_
 _atom_site_type_symbol
 _atom_site_label
 _atom_site_symmetry_multiplicity
 _atom_site_fract_x
 _atom_site_fract_y
 _atom_site_fract_z
 _atom_site_occupancy
  K  K0  1  0.83624800  0.79176400  0.50000000  1
  K  K1  1  0.16375200  0.20823600  0.50000000  1
  K  K2  1  0.33624800  0.70823600  0.00000000  1
  K  K3  1  0.66375200  0.29176400  0.00000000  1
  La  La4  1  0.70587800  0.24178300  0.67973500  1
  La  La5  1  0.29412200  0.75821700  0.67973500  1
  La  La6  1  0.20587800  0.25821700  0.82026500  1
  La  La7  1  0.79412200  0.74178300  0.82026500  1
  La  La8  1  0.29412200  0.75821700  0.32026500  1
  La  La9  1  0.70587800  0.24178300  0.32026500  1
  La  La10  1  0.79412200  0.74178300  0.17973500  1
  La  La11  1  0.20587800  0.25821700  0.17973500  1
  N  N12  1  0.50000000  0.50000000  0.74609000  1
  N  N13  1  0.00000000  0.00000000  0.75391000  1
  N  N14  1  0.50000000  0.50000000  0.25391000  1
  N  N15  1  0.00000000  0.00000000  0.24609000  1
  N  N16  1  0.97601700  0.33965900  0.70411000  1
  N  N17  1  0.02398300  0.66034100  0.70411000  1
  N  N18  1  0.47601700  0.16034100  0.79589000  1
  N  N19  1  0.52398300  0.83965900  0.79589000  1
  N  N20  1  0.02398300  0.66034100  0.29589000  1
  N  N21  1  0.97601700  0.33965900  0.29589000  1
  N  N22  1  0.52398300  0.83965900  0.20411000  1
  N  N23  1  0.47601700  0.16034100  0.20411000  1
  N  N24  1  0.42599700  0.18638600  0.69642700  1
  N  N25  1  0.57400300  0.81361400  0.69642700  1
  N  N26  1  0.92599700  0.31361400  0.80357300  1
  N  N27  1  0.07400300  0.68638600  0.80357300  1
  N  N28  1  0.57400300  0.81361400  0.30357300  1
  N  N29  1  0.42599700  0.18638600  0.30357300  1
  N  N30  1  0.07400300  0.68638600  0.19642700  1
  N  N31  1  0.92599700  0.31361400  0.19642700  1
  N  N32  1  0.36731100  0.49789700  0.79772600  1
  N  N33  1  0.63268900  0.50210300  0.79772600  1
  N  N34  1  0.86731100  0.00210300  0.70227400  1
  N  N35  1  0.13268900  0.99789700  0.70227400  1
  N  N36  1  0.63268900  0.50210300  0.20227400  1
  N  N37  1  0.36731100  0.49789700  0.20227400  1
  N  N38  1  0.13268900  0.99789700  0.29772600  1
  N  N39  1  0.86731100  0.00210300  0.29772600  1
