# generated using pymatgen
data_Na2Cd11
_symmetry_space_group_name_H-M   'P 1'
_cell_length_a   9.79341700
_cell_length_b   9.79341700
_cell_length_c   9.79341700
_cell_angle_alpha   90.00000000
_cell_angle_beta   90.00000000
_cell_angle_gamma   90.00000000
_symmetry_Int_Tables_number   1
_chemical_formula_structural   Na2Cd11
_chemical_formula_sum   'Na6 Cd33'
_cell_volume   939.29657983
_cell_formula_units_Z   3
loop_
 _symmetry_equiv_pos_site_id
 _symmetry_equiv_pos_as_xyz
  1  'x, y, z'
loop_
 _atom_site_type_symbol
 _atom_site_label
 _atom_site_symmetry_multiplicity
 _atom_site_fract_x
 _atom_site_fract_y
 _atom_site_fract_z
 _atom_site_occupancy
  Na  Na0  1  0.50000000  0.19727200  0.00000000  1
  Na  Na1  1  0.50000000  0.80272800  0.00000000  1
  Na  Na2  1  0.00000000  0.50000000  0.19727200  1
  Na  Na3  1  0.00000000  0.50000000  0.80272800  1
  Na  Na4  1  0.19727200  0.00000000  0.50000000  1
  Na  Na5  1  0.80272800  0.00000000  0.50000000  1
  Cd  Cd6  1  0.00000000  0.00000000  0.00000000  1
  Cd  Cd7  1  0.73353100  0.00000000  0.15694800  1
  Cd  Cd8  1  0.26646900  0.00000000  0.84305200  1
  Cd  Cd9  1  0.26646900  0.00000000  0.15694800  1
  Cd  Cd10  1  0.73353100  0.00000000  0.84305200  1
  Cd  Cd11  1  0.15694800  0.73353100  0.00000000  1
  Cd  Cd12  1  0.84305200  0.26646900  0.00000000  1
  Cd  Cd13  1  0.15694800  0.26646900  0.00000000  1
  Cd  Cd14  1  0.84305200  0.73353100  0.00000000  1
  Cd  Cd15  1  0.00000000  0.15694800  0.73353100  1
  Cd  Cd16  1  0.00000000  0.84305200  0.26646900  1
  Cd  Cd17  1  0.00000000  0.15694800  0.26646900  1
  Cd  Cd18  1  0.00000000  0.84305200  0.73353100  1
  Cd  Cd19  1  0.50000000  0.26754700  0.50000000  1
  Cd  Cd20  1  0.50000000  0.73245300  0.50000000  1
  Cd  Cd21  1  0.50000000  0.50000000  0.26754700  1
  Cd  Cd22  1  0.50000000  0.50000000  0.73245300  1
  Cd  Cd23  1  0.26754700  0.50000000  0.50000000  1
  Cd  Cd24  1  0.73245300  0.50000000  0.50000000  1
  Cd  Cd25  1  0.00000000  0.33940400  0.50000000  1
  Cd  Cd26  1  0.00000000  0.66059600  0.50000000  1
  Cd  Cd27  1  0.50000000  0.00000000  0.33940400  1
  Cd  Cd28  1  0.50000000  0.00000000  0.66059600  1
  Cd  Cd29  1  0.33940400  0.50000000  0.00000000  1
  Cd  Cd30  1  0.66059600  0.50000000  0.00000000  1
  Cd  Cd31  1  0.71859900  0.28140100  0.28140100  1
  Cd  Cd32  1  0.28140100  0.28140100  0.71859900  1
  Cd  Cd33  1  0.28140100  0.71859900  0.28140100  1
  Cd  Cd34  1  0.71859900  0.71859900  0.71859900  1
  Cd  Cd35  1  0.28140100  0.71859900  0.71859900  1
  Cd  Cd36  1  0.71859900  0.71859900  0.28140100  1
  Cd  Cd37  1  0.71859900  0.28140100  0.71859900  1
  Cd  Cd38  1  0.28140100  0.28140100  0.28140100  1
