# generated using pymatgen
data_KMo2C4O11
_symmetry_space_group_name_H-M   'P 1'
_cell_length_a   7.72177700
_cell_length_b   8.53061429
_cell_length_c   8.94411861
_cell_angle_alpha   93.90825688
_cell_angle_beta   91.98716595
_cell_angle_gamma   95.95114070
_symmetry_Int_Tables_number   1
_chemical_formula_structural   KMo2C4O11
_chemical_formula_sum   'K2 Mo4 C8 O22'
_cell_volume   584.10709665
_cell_formula_units_Z   2
loop_
 _symmetry_equiv_pos_site_id
 _symmetry_equiv_pos_as_xyz
  1  'x, y, z'
loop_
 _atom_site_type_symbol
 _atom_site_label
 _atom_site_symmetry_multiplicity
 _atom_site_fract_x
 _atom_site_fract_y
 _atom_site_fract_z
 _atom_site_occupancy
  K  K0  1  0.19872800  0.92715900  0.67223300  1
  K  K1  1  0.80127200  0.07284100  0.32776700  1
  Mo  Mo2  1  0.29702600  0.24995500  0.32219000  1
  Mo  Mo3  1  0.70297400  0.75004500  0.67781000  1
  Mo  Mo4  1  0.52107500  0.36030800  0.61973900  1
  Mo  Mo5  1  0.47892500  0.63969200  0.38026100  1
  C  C6  1  0.01716500  0.49370900  0.24805900  1
  C  C7  1  0.98283500  0.50629100  0.75194100  1
  C  C8  1  0.96450800  0.71800200  0.17977800  1
  C  C9  1  0.03549200  0.28199800  0.82022200  1
  C  C10  1  0.87826200  0.54403900  0.14685400  1
  C  C11  1  0.12173800  0.45596100  0.85314600  1
  C  C12  1  0.90829500  0.34426000  0.71531800  1
  C  C13  1  0.09170500  0.65574000  0.28468200  1
  O  O14  1  0.51778300  0.23228300  0.41891200  1
  O  O15  1  0.48221700  0.76771700  0.58108800  1
  O  O16  1  0.33467900  0.44819800  0.54549100  1
  O  O17  1  0.66532100  0.55180200  0.45450900  1
  O  O18  1  0.78564400  0.27658700  0.63043400  1
  O  O19  1  0.21435600  0.72341300  0.36956600  1
  O  O20  1  0.37750100  0.47147800  0.25473600  1
  O  O21  1  0.62249900  0.52852200  0.74526400  1
  O  O22  1  0.30180000  0.13931800  0.15427700  1
  O  O23  1  0.69820000  0.86068200  0.84572300  1
  O  O24  1  0.75460200  0.48041300  0.07159300  1
  O  O25  1  0.24539800  0.51958700  0.92840700  1
  O  O26  1  0.04584000  0.35816100  0.28161000  1
  O  O27  1  0.95416000  0.64183900  0.71839000  1
  O  O28  1  0.15782500  0.13554300  0.43355900  1
  O  O29  1  0.84217500  0.86445700  0.56644100  1
  O  O30  1  0.93806600  0.84424000  0.13539800  1
  O  O31  1  0.06193400  0.15576000  0.86460200  1
  O  O32  1  0.43349700  0.22366400  0.73681400  1
  O  O33  1  0.56650300  0.77633600  0.26318600  1
  O  O34  1  0.62902200  0.15780800  0.04684300  1
  O  O35  1  0.37097800  0.84219200  0.95315700  1
