# generated using pymatgen
data_Sm2ThS5
_symmetry_space_group_name_H-M   'P 1'
_cell_length_a   7.52708300
_cell_length_b   8.16579100
_cell_length_c   12.00259200
_cell_angle_alpha   90.00000000
_cell_angle_beta   90.00000000
_cell_angle_gamma   90.00000000
_symmetry_Int_Tables_number   1
_chemical_formula_structural   Sm2ThS5
_chemical_formula_sum   'Sm8 Th4 S20'
_cell_volume   737.73435562
_cell_formula_units_Z   4
loop_
 _symmetry_equiv_pos_site_id
 _symmetry_equiv_pos_as_xyz
  1  'x, y, z'
loop_
 _atom_site_type_symbol
 _atom_site_label
 _atom_site_symmetry_multiplicity
 _atom_site_fract_x
 _atom_site_fract_y
 _atom_site_fract_z
 _atom_site_occupancy
  Sm  Sm0  1  0.51839500  0.49932100  0.32126200  1
  Sm  Sm1  1  0.98160500  0.00067900  0.82126200  1
  Sm  Sm2  1  0.48160500  0.99932100  0.67873800  1
  Sm  Sm3  1  0.01839500  0.50067900  0.17873800  1
  Sm  Sm4  1  0.48160500  0.50067900  0.67873800  1
  Sm  Sm5  1  0.01839500  0.99932100  0.17873800  1
  Sm  Sm6  1  0.51839500  0.00067900  0.32126200  1
  Sm  Sm7  1  0.98160500  0.49932100  0.82126200  1
  Th  Th8  1  0.07610600  0.75000000  0.49053600  1
  Th  Th9  1  0.42389400  0.75000000  0.99053600  1
  Th  Th10  1  0.92389400  0.25000000  0.50946400  1
  Th  Th11  1  0.57610600  0.25000000  0.00946400  1
  S  S12  1  0.83621500  0.95636900  0.60218100  1
  S  S13  1  0.66378500  0.54363100  0.10218100  1
  S  S14  1  0.16378500  0.45636900  0.39781900  1
  S  S15  1  0.33621500  0.04363100  0.89781900  1
  S  S16  1  0.16378500  0.04363100  0.39781900  1
  S  S17  1  0.33621500  0.45636900  0.89781900  1
  S  S18  1  0.83621500  0.54363100  0.60218100  1
  S  S19  1  0.66378500  0.95636900  0.10218100  1
  S  S20  1  0.82715300  0.75000000  0.31228900  1
  S  S21  1  0.67284700  0.75000000  0.81228900  1
  S  S22  1  0.17284700  0.25000000  0.68771100  1
  S  S23  1  0.32715300  0.25000000  0.18771100  1
  S  S24  1  0.46049500  0.75000000  0.49984300  1
  S  S25  1  0.03950500  0.75000000  0.99984300  1
  S  S26  1  0.53950500  0.25000000  0.50015700  1
  S  S27  1  0.96049500  0.25000000  0.00015700  1
  S  S28  1  0.20060900  0.75000000  0.71797300  1
  S  S29  1  0.29939100  0.75000000  0.21797300  1
  S  S30  1  0.79939100  0.25000000  0.28202700  1
  S  S31  1  0.70060900  0.25000000  0.78202700  1
