# generated using pymatgen
data_KMo2C4ClO8
_symmetry_space_group_name_H-M   'P 1'
_cell_length_a   7.19669890
_cell_length_b   8.75384242
_cell_length_c   11.45088383
_cell_angle_alpha   94.00706530
_cell_angle_beta   90.43367371
_cell_angle_gamma   110.64699230
_symmetry_Int_Tables_number   1
_chemical_formula_structural   KMo2C4ClO8
_chemical_formula_sum   'K2 Mo4 C8 Cl2 O16'
_cell_volume   673.00586758
_cell_formula_units_Z   2
loop_
 _symmetry_equiv_pos_site_id
 _symmetry_equiv_pos_as_xyz
  1  'x, y, z'
loop_
 _atom_site_type_symbol
 _atom_site_label
 _atom_site_symmetry_multiplicity
 _atom_site_fract_x
 _atom_site_fract_y
 _atom_site_fract_z
 _atom_site_occupancy
  K  K0  1  0.79025700  0.11959300  0.60025600  1
  K  K1  1  0.20974300  0.88040700  0.39974400  1
  Mo  Mo2  1  0.40917900  0.36692900  0.56527900  1
  Mo  Mo3  1  0.59082100  0.63307100  0.43472100  1
  Mo  Mo4  1  0.08747400  0.01466700  0.87362300  1
  Mo  Mo5  1  0.91252600  0.98533300  0.12637700  1
  C  C6  1  0.14539500  0.45418400  0.39028400  1
  C  C7  1  0.85460500  0.54581600  0.60971600  1
  C  C8  1  0.42290400  0.70315400  0.66678900  1
  C  C9  1  0.57709600  0.29684600  0.33321100  1
  C  C10  1  0.25615200  0.85204300  0.06607600  1
  C  C11  1  0.74384800  0.14795700  0.93392400  1
  C  C12  1  0.26821000  0.29509000  0.07122200  1
  C  C13  1  0.73179000  0.70491000  0.92877800  1
  Cl  Cl14  1  0.23202800  0.08028500  0.65173700  1
  Cl  Cl15  1  0.76797200  0.91971500  0.34826300  1
  O  O16  1  0.13789800  0.35024000  0.46316600  1
  O  O17  1  0.86210200  0.64976000  0.53683400  1
  O  O18  1  0.36397600  0.55671400  0.68910100  1
  O  O19  1  0.63602400  0.44328600  0.31089900  1
  O  O20  1  0.71381300  0.42290500  0.64041500  1
  O  O21  1  0.28618700  0.57709500  0.35958500  1
  O  O22  1  0.48943800  0.22076500  0.41853300  1
  O  O23  1  0.51056200  0.77923500  0.58146700  1
  O  O24  1  0.26773400  0.88453100  0.96196500  1
  O  O25  1  0.73226600  0.11546900  0.03803500  1
  O  O26  1  0.28327700  0.25691500  0.96599500  1
  O  O27  1  0.71672300  0.74308500  0.03400500  1
  O  O28  1  0.84622600  0.12973100  0.84934100  1
  O  O29  1  0.15377400  0.87026900  0.15065900  1
  O  O30  1  0.83767900  0.76858700  0.84670700  1
  O  O31  1  0.16232100  0.23141300  0.15329300  1
