# generated using pymatgen
data_Ca6MnBe4Si6HO24
_symmetry_space_group_name_H-M   'P 1'
_cell_length_a   9.91006376
_cell_length_b   13.70765863
_cell_length_c   13.95485643
_cell_angle_alpha   90.00000000
_cell_angle_beta   90.00000000
_cell_angle_gamma   90.00000000
_symmetry_Int_Tables_number   1
_chemical_formula_structural   Ca6MnBe4Si6HO24
_chemical_formula_sum   'Ca24 Mn4 Be16 Si24 H4 O96'
_cell_volume   1895.68032154
_cell_formula_units_Z   4
loop_
 _symmetry_equiv_pos_site_id
 _symmetry_equiv_pos_as_xyz
  1  'x, y, z'
loop_
 _atom_site_type_symbol
 _atom_site_label
 _atom_site_symmetry_multiplicity
 _atom_site_fract_x
 _atom_site_fract_y
 _atom_site_fract_z
 _atom_site_occupancy
  Ca  Ca0  1  0.49636947  0.88811018  0.38371360  1
  Ca  Ca1  1  0.99636947  0.61188982  0.11628640  1
  Ca  Ca2  1  0.50363053  0.11188982  0.88371360  1
  Ca  Ca3  1  0.00363053  0.38811018  0.61628640  1
  Ca  Ca4  1  0.50363053  0.11188982  0.61628640  1
  Ca  Ca5  1  0.00363053  0.38811018  0.88371360  1
  Ca  Ca6  1  0.49636947  0.88811018  0.11628640  1
  Ca  Ca7  1  0.99636947  0.61188982  0.38371360  1
  Ca  Ca8  1  0.00963131  0.18399868  0.38823307  1
  Ca  Ca9  1  0.50963131  0.31600132  0.11176693  1
  Ca  Ca10  1  0.99036869  0.81600132  0.88823307  1
  Ca  Ca11  1  0.49036869  0.68399868  0.61176693  1
  Ca  Ca12  1  0.99036869  0.81600132  0.61176693  1
  Ca  Ca13  1  0.49036869  0.68399868  0.88823307  1
  Ca  Ca14  1  0.00963131  0.18399868  0.11176693  1
  Ca  Ca15  1  0.50963131  0.31600132  0.38823307  1
  Ca  Ca16  1  0.99949521  0.91011669  0.39212205  1
  Ca  Ca17  1  0.49949521  0.58988331  0.10787795  1
  Ca  Ca18  1  0.00050479  0.08988331  0.89212205  1
  Ca  Ca19  1  0.50050479  0.41011669  0.60787795  1
  Ca  Ca20  1  0.00050479  0.08988331  0.60787795  1
  Ca  Ca21  1  0.50050479  0.41011669  0.89212205  1
  Ca  Ca22  1  0.99949521  0.91011669  0.10787795  1
  Ca  Ca23  1  0.49949521  0.58988331  0.39212205  1
  Mn  Mn24  1  0.49933343  0.10509931  0.25000000  1
  Mn  Mn25  1  0.99933343  0.39490069  0.25000000  1
  Mn  Mn26  1  0.50066657  0.89490069  0.75000000  1
  Mn  Mn27  1  0.00066657  0.60509931  0.75000000  1
  Be  Be28  1  0.73727279  0.09831002  0.41570771  1
  Be  Be29  1  0.23727279  0.40168998  0.08429229  1
  Be  Be30  1  0.26272721  0.90168998  0.91570771  1
  Be  Be31  1  0.76272721  0.59831002  0.58429229  1
  Be  Be32  1  0.26272721  0.90168998  0.58429229  1
  Be  Be33  1  0.76272721  0.59831002  0.91570771  1
  Be  Be34  1  0.73727279  0.09831002  0.08429229  1
  Be  Be35  1  0.23727279  0.40168998  0.41570771  1
  Be  Be36  1  0.76228599  0.96166035  0.75000000  1
  Be  Be37  1  0.26228599  0.53833965  0.75000000  1
  Be  Be38  1  0.23771401  0.03833965  0.25000000  1
  Be  Be39  1  0.73771401  0.46166035  0.25000000  1
  Be  Be40  1  0.76752573  0.77144567  0.25000000  1
  Be  Be41  1  0.26752573  0.72855433  0.25000000  1
  Be  Be42  1  0.23247427  0.22855433  0.75000000  1
  Be  Be43  1  0.73247427  0.27144567  0.75000000  1
  Si  Si44  1  0.72825505  0.24269976  0.25000000  1
  Si  Si45  1  0.22825505  0.25730024  0.25000000  1
  Si  Si46  1  0.27174495  0.75730024  0.75000000  1
  Si  Si47  1  0.77174495  0.74269976  0.75000000  1
  Si  Si48  1  0.78281769  0.98471447  0.25000000  1
  Si  Si49  1  0.28281769  0.51528553  0.25000000  1
  Si  Si50  1  0.21718231  0.01528553  0.75000000  1
  Si  Si51  1  0.71718231  0.48471447  0.75000000  1
  Si  Si52  1  0.71459014  0.95055054  0.54887565  1
  Si  Si53  1  0.21459014  0.54944946  0.95112435  1
  Si  Si54  1  0.28540986  0.04944946  0.04887565  1
  Si  Si55  1  0.78540986  0.45055054  0.45112435  1
  Si  Si56  1  0.28540986  0.04944946  0.45112435  1
  Si  Si57  1  0.78540986  0.45055054  0.04887565  1
  Si  Si58  1  0.71459014  0.95055054  0.95112435  1
  Si  Si59  1  0.21459014  0.54944946  0.54887565  1
  Si  Si60  1  0.73318948  0.75154418  0.45219093  1
  Si  Si61  1  0.23318948  0.74845582  0.04780907  1
  Si  Si62  1  0.26681052  0.24845582  0.95219093  1
  Si  Si63  1  0.76681052  0.25154418  0.54780907  1
  Si  Si64  1  0.26681052  0.24845582  0.54780907  1
  Si  Si65  1  0.76681052  0.25154418  0.95219093  1
  Si  Si66  1  0.73318948  0.75154418  0.04780907  1
  Si  Si67  1  0.23318948  0.74845582  0.45219093  1
  H  H68  1  0.67957660  0.61332889  0.25000000  1
  H  H69  1  0.17957660  0.88667111  0.25000000  1
  H  H70  1  0.32042340  0.38667111  0.75000000  1
  H  H71  1  0.82042340  0.11332889  0.75000000  1
  O  O72  1  0.65767001  0.84140393  0.51445912  1
  O  O73  1  0.15767001  0.65859607  0.98554088  1
  O  O74  1  0.34232999  0.15859607  0.01445912  1
  O  O75  1  0.84232999  0.34140393  0.48554088  1
  O  O76  1  0.34232999  0.15859607  0.48554088  1
  O  O77  1  0.84232999  0.34140393  0.01445912  1
  O  O78  1  0.65767001  0.84140393  0.98554088  1
  O  O79  1  0.15767001  0.65859607  0.51445912  1
  O  O80  1  0.89577948  0.75865014  0.45642646  1
  O  O81  1  0.39577948  0.74134986  0.04357354  1
  O  O82  1  0.10422052  0.24134986  0.95642646  1
  O  O83  1  0.60422052  0.25865014  0.54357354  1
  O  O84  1  0.10422052  0.24134986  0.54357354  1
  O  O85  1  0.60422052  0.25865014  0.95642646  1
  O  O86  1  0.89577948  0.75865014  0.04357354  1
  O  O87  1  0.39577948  0.74134986  0.45642646  1
  O  O88  1  0.66924607  0.65466785  0.50443554  1
  O  O89  1  0.16924607  0.84533215  0.99556446  1
  O  O90  1  0.33075393  0.34533215  0.00443554  1
  O  O91  1  0.83075393  0.15466785  0.49556446  1
  O  O92  1  0.33075393  0.34533215  0.49556446  1
  O  O93  1  0.83075393  0.15466785  0.00443554  1
  O  O94  1  0.66924607  0.65466785  0.99556446  1
  O  O95  1  0.16924607  0.84533215  0.50443554  1
  O  O96  1  0.66826590  0.75991052  0.34469804  1
  O  O97  1  0.16826590  0.74008948  0.15530196  1
  O  O98  1  0.33173410  0.24008948  0.84469804  1
  O  O99  1  0.83173410  0.25991052  0.65530196  1
  O  O100  1  0.33173410  0.24008948  0.65530196  1
  O  O101  1  0.83173410  0.25991052  0.84469804  1
  O  O102  1  0.66826590  0.75991052  0.15530196  1
  O  O103  1  0.16826590  0.74008948  0.34469804  1
  O  O104  1  0.63820946  0.02695744  0.47588301  1
  O  O105  1  0.13820946  0.47304256  0.02411699  1
  O  O106  1  0.36179054  0.97304256  0.97588301  1
  O  O107  1  0.86179054  0.52695744  0.52411699  1
  O  O108  1  0.36179054  0.97304256  0.52411699  1
  O  O109  1  0.86179054  0.52695744  0.97588301  1
  O  O110  1  0.63820946  0.02695744  0.02411699  1
  O  O111  1  0.13820946  0.47304256  0.47588301  1
  O  O112  1  0.65332013  0.96882121  0.65788385  1
  O  O113  1  0.15332013  0.53117879  0.84211615  1
  O  O114  1  0.34667987  0.03117879  0.15788385  1
  O  O115  1  0.84667987  0.46882121  0.34211615  1
  O  O116  1  0.34667987  0.03117879  0.34211615  1
  O  O117  1  0.84667987  0.46882121  0.15788385  1
  O  O118  1  0.65332013  0.96882121  0.84211615  1
  O  O119  1  0.15332013  0.53117879  0.65788385  1
  O  O120  1  0.87801562  0.94990164  0.54755092  1
  O  O121  1  0.37801562  0.55009836  0.95244908  1
  O  O122  1  0.12198438  0.05009836  0.04755092  1
  O  O123  1  0.62198438  0.44990164  0.45244908  1
  O  O124  1  0.12198438  0.05009836  0.45244908  1
  O  O125  1  0.62198438  0.44990164  0.04755092  1
  O  O126  1  0.87801562  0.94990164  0.95244908  1
  O  O127  1  0.37801562  0.55009836  0.54755092  1
  O  O128  1  0.66083423  0.18311842  0.34311357  1
  O  O129  1  0.16083423  0.31688158  0.15688643  1
  O  O130  1  0.33916577  0.81688158  0.84311357  1
  O  O131  1  0.83916577  0.68311842  0.65688643  1
  O  O132  1  0.33916577  0.81688158  0.65688643  1
  O  O133  1  0.83916577  0.68311842  0.84311357  1
  O  O134  1  0.66083423  0.18311842  0.15688643  1
  O  O135  1  0.16083423  0.31688158  0.34311357  1
  O  O136  1  0.84222614  0.03965689  0.34632241  1
  O  O137  1  0.34222614  0.46034311  0.15367759  1
  O  O138  1  0.15777386  0.96034311  0.84632241  1
  O  O139  1  0.65777386  0.53965689  0.65367759  1
  O  O140  1  0.15777386  0.96034311  0.65367759  1
  O  O141  1  0.65777386  0.53965689  0.84632241  1
  O  O142  1  0.84222614  0.03965689  0.15367759  1
  O  O143  1  0.34222614  0.46034311  0.34632241  1
  O  O144  1  0.61632539  0.97706112  0.25000000  1
  O  O145  1  0.11632539  0.52293888  0.25000000  1
  O  O146  1  0.38367461  0.02293888  0.75000000  1
  O  O147  1  0.88367461  0.47706112  0.75000000  1
  O  O148  1  0.65966777  0.35289262  0.25000000  1
  O  O149  1  0.15966777  0.14710738  0.25000000  1
  O  O150  1  0.34033223  0.64710738  0.75000000  1
  O  O151  1  0.84033223  0.85289262  0.75000000  1
  O  O152  1  0.89279579  0.25320417  0.25000000  1
  O  O153  1  0.39279579  0.24679583  0.25000000  1
  O  O154  1  0.10720421  0.74679583  0.75000000  1
  O  O155  1  0.60720421  0.75320417  0.75000000  1
  O  O156  1  0.85102547  0.87485703  0.25000000  1
  O  O157  1  0.35102547  0.62514297  0.25000000  1
  O  O158  1  0.14897453  0.12514297  0.75000000  1
  O  O159  1  0.64897453  0.37485703  0.75000000  1
  O  O160  1  0.86876338  0.05077910  0.75000000  1
  O  O161  1  0.36876338  0.44922090  0.75000000  1
  O  O162  1  0.13123662  0.94922090  0.25000000  1
  O  O163  1  0.63123662  0.55077910  0.25000000  1
  O  O164  1  0.61788484  0.18310063  0.75000000  1
  O  O165  1  0.11788484  0.31689937  0.75000000  1
  O  O166  1  0.38211516  0.81689937  0.25000000  1
  O  O167  1  0.88211516  0.68310063  0.25000000  1
