# generated using pymatgen
data_Mn3(PO7)2
_symmetry_space_group_name_H-M   'P 1'
_cell_length_a   19.12877000
_cell_length_b   5.24644400
_cell_length_c   5.27944949
_cell_angle_alpha   70.10906746
_cell_angle_beta   90.00000000
_cell_angle_gamma   90.00000000
_symmetry_Int_Tables_number   1
_chemical_formula_structural   Mn3(PO7)2
_chemical_formula_sum   'Mn6 P4 O28'
_cell_volume   498.22618894
_cell_formula_units_Z   2
loop_
 _symmetry_equiv_pos_site_id
 _symmetry_equiv_pos_as_xyz
  1  'x, y, z'
loop_
 _atom_site_type_symbol
 _atom_site_label
 _atom_site_symmetry_multiplicity
 _atom_site_fract_x
 _atom_site_fract_y
 _atom_site_fract_z
 _atom_site_occupancy
  Mn  Mn0  1  0.50117200  0.22745000  0.57431500  1
  Mn  Mn1  1  0.00117200  0.77255000  0.42568500  1
  Mn  Mn2  1  0.50216200  0.72800900  0.07429200  1
  Mn  Mn3  1  0.00216200  0.27199100  0.92570800  1
  Mn  Mn4  1  0.75616600  0.53042400  0.54050000  1
  Mn  Mn5  1  0.25616600  0.46957600  0.45950000  1
  P  P6  1  0.59958700  0.70689500  0.55424100  1
  P  P7  1  0.09958700  0.29310500  0.44575900  1
  P  P8  1  0.40383600  0.74494800  0.59562900  1
  P  P9  1  0.90383600  0.25505200  0.40437100  1
  O  O10  1  0.57851300  0.40538500  0.68193200  1
  O  O11  1  0.07851300  0.59461500  0.31806800  1
  O  O12  1  0.42264000  0.04888100  0.47314200  1
  O  O13  1  0.92264000  0.95111900  0.52685800  1
  O  O14  1  0.55566700  0.87016000  0.70721600  1
  O  O15  1  0.05566700  0.12984000  0.29278400  1
  O  O16  1  0.45056000  0.58849800  0.44052600  1
  O  O17  1  0.95056000  0.41150200  0.55947400  1
  O  O18  1  0.58206800  0.82872200  0.25290300  1
  O  O19  1  0.08206800  0.17127800  0.74709700  1
  O  O20  1  0.42310100  0.62496000  0.89585700  1
  O  O21  1  0.92310100  0.37504000  0.10414300  1
  O  O22  1  0.67765900  0.74008800  0.60880300  1
  O  O23  1  0.17765900  0.25991200  0.39119700  1
  O  O24  1  0.82665700  0.29174900  0.45371200  1
  O  O25  1  0.32665700  0.70825100  0.54628800  1
  O  O26  1  0.53276000  0.36324100  0.21408100  1
  O  O27  1  0.03276000  0.63675900  0.78591900  1
  O  O28  1  0.47044600  0.09012100  0.93658800  1
  O  O29  1  0.97044600  0.90987900  0.06341200  1
  O  O30  1  0.69756000  0.45778600  0.20494600  1
  O  O31  1  0.19756000  0.54221400  0.79505400  1
  O  O32  1  0.80471800  0.59499200  0.75959500  1
  O  O33  1  0.30471800  0.40500800  0.24040500  1
  O  O34  1  0.70525400  0.24647900  0.63916300  1
  O  O35  1  0.20525400  0.75352100  0.36083700  1
  O  O36  1  0.76447400  0.76153000  0.21419900  1
  O  O37  1  0.26447400  0.23847000  0.78580100  1
