# generated using pymatgen
data_Sm3Sb4Se9
_symmetry_space_group_name_H-M   'P 1'
_cell_length_a   16.68904300
_cell_length_b   4.02732500
_cell_length_c   25.30980600
_cell_angle_alpha   90.00000000
_cell_angle_beta   90.00000000
_cell_angle_gamma   90.00000000
_symmetry_Int_Tables_number   1
_chemical_formula_structural   Sm3Sb4Se9
_chemical_formula_sum   'Sm12 Sb16 Se36'
_cell_volume   1701.12774536
_cell_formula_units_Z   4
loop_
 _symmetry_equiv_pos_site_id
 _symmetry_equiv_pos_as_xyz
  1  'x, y, z'
loop_
 _atom_site_type_symbol
 _atom_site_label
 _atom_site_symmetry_multiplicity
 _atom_site_fract_x
 _atom_site_fract_y
 _atom_site_fract_z
 _atom_site_occupancy
  Sm  Sm0  1  0.12614600  0.25000000  0.44199900  1
  Sm  Sm1  1  0.62614600  0.25000000  0.05800100  1
  Sm  Sm2  1  0.87385400  0.75000000  0.55800100  1
  Sm  Sm3  1  0.37385400  0.75000000  0.94199900  1
  Sm  Sm4  1  0.32843900  0.25000000  0.32106800  1
  Sm  Sm5  1  0.82843900  0.25000000  0.17893200  1
  Sm  Sm6  1  0.67156100  0.75000000  0.67893200  1
  Sm  Sm7  1  0.17156100  0.75000000  0.82106800  1
  Sm  Sm8  1  0.04437000  0.25000000  0.26894300  1
  Sm  Sm9  1  0.54437000  0.25000000  0.23105700  1
  Sm  Sm10  1  0.95563000  0.75000000  0.73105700  1
  Sm  Sm11  1  0.45563000  0.75000000  0.76894300  1
  Sb  Sb12  1  0.14296000  0.25000000  0.99792000  1
  Sb  Sb13  1  0.64296000  0.25000000  0.50208000  1
  Sb  Sb14  1  0.85704000  0.75000000  0.00208000  1
  Sb  Sb15  1  0.35704000  0.75000000  0.49792000  1
  Sb  Sb16  1  0.45666600  0.25000000  0.58130700  1
  Sb  Sb17  1  0.95666600  0.25000000  0.91869300  1
  Sb  Sb18  1  0.54333400  0.75000000  0.41869300  1
  Sb  Sb19  1  0.04333400  0.75000000  0.08130700  1
  Sb  Sb20  1  0.10677900  0.25000000  0.60590800  1
  Sb  Sb21  1  0.60677900  0.25000000  0.89409200  1
  Sb  Sb22  1  0.89322100  0.75000000  0.39409200  1
  Sb  Sb23  1  0.39322100  0.75000000  0.10590800  1
  Sb  Sb24  1  0.26852000  0.25000000  0.67321100  1
  Sb  Sb25  1  0.76852000  0.25000000  0.82678900  1
  Sb  Sb26  1  0.73148000  0.75000000  0.32678900  1
  Sb  Sb27  1  0.23148000  0.75000000  0.17321100  1
  Se  Se28  1  0.25012400  0.25000000  0.90109700  1
  Se  Se29  1  0.75012400  0.25000000  0.59890300  1
  Se  Se30  1  0.74987600  0.75000000  0.09890300  1
  Se  Se31  1  0.24987600  0.75000000  0.40109700  1
  Se  Se32  1  0.44846700  0.25000000  0.86403100  1
  Se  Se33  1  0.94846700  0.25000000  0.63596900  1
  Se  Se34  1  0.55153300  0.75000000  0.13596900  1
  Se  Se35  1  0.05153300  0.75000000  0.36403100  1
  Se  Se36  1  0.04565400  0.25000000  0.79307800  1
  Se  Se37  1  0.54565400  0.25000000  0.70692200  1
  Se  Se38  1  0.95434600  0.75000000  0.20692200  1
  Se  Se39  1  0.45434600  0.75000000  0.29307800  1
  Se  Se40  1  0.29489000  0.25000000  0.77666000  1
  Se  Se41  1  0.79489000  0.25000000  0.72334000  1
  Se  Se42  1  0.70511000  0.75000000  0.22334000  1
  Se  Se43  1  0.20511000  0.75000000  0.27666000  1
  Se  Se44  1  0.43076900  0.25000000  0.42195200  1
  Se  Se45  1  0.93076900  0.25000000  0.07804800  1
  Se  Se46  1  0.56923100  0.75000000  0.57804800  1
  Se  Se47  1  0.06923100  0.75000000  0.92195200  1
  Se  Se48  1  0.44000900  0.25000000  0.03104500  1
  Se  Se49  1  0.94000900  0.25000000  0.46895500  1
  Se  Se50  1  0.55999100  0.75000000  0.96895500  1
  Se  Se51  1  0.05999100  0.75000000  0.53104500  1
  Se  Se52  1  0.25106100  0.25000000  0.52737200  1
  Se  Se53  1  0.75106100  0.25000000  0.97262800  1
  Se  Se54  1  0.74893900  0.75000000  0.47262800  1
  Se  Se55  1  0.24893900  0.75000000  0.02737200  1
  Se  Se56  1  0.37449300  0.25000000  0.18974100  1
  Se  Se57  1  0.87449300  0.25000000  0.31025900  1
  Se  Se58  1  0.62550700  0.75000000  0.81025900  1
  Se  Se59  1  0.12550700  0.75000000  0.68974100  1
  Se  Se60  1  0.12416200  0.25000000  0.16048500  1
  Se  Se61  1  0.62416200  0.25000000  0.33951500  1
  Se  Se62  1  0.87583800  0.75000000  0.83951500  1
  Se  Se63  1  0.37583800  0.75000000  0.66048500  1
