# generated using pymatgen
data_LaRe3O16
_symmetry_space_group_name_H-M   'P 1'
_cell_length_a   7.56483200
_cell_length_b   11.57661200
_cell_length_c   16.26268982
_cell_angle_alpha   86.35255672
_cell_angle_beta   90.00000000
_cell_angle_gamma   90.00000000
_symmetry_Int_Tables_number   1
_chemical_formula_structural   LaRe3O16
_chemical_formula_sum   'La4 Re12 O64'
_cell_volume   1421.32220834
_cell_formula_units_Z   4
loop_
 _symmetry_equiv_pos_site_id
 _symmetry_equiv_pos_as_xyz
  1  'x, y, z'
loop_
 _atom_site_type_symbol
 _atom_site_label
 _atom_site_symmetry_multiplicity
 _atom_site_fract_x
 _atom_site_fract_y
 _atom_site_fract_z
 _atom_site_occupancy
  La  La0  1  0.39760500  0.20530300  0.84185400  1
  La  La1  1  0.89760500  0.79469700  0.65814600  1
  La  La2  1  0.60239500  0.79469700  0.15814600  1
  La  La3  1  0.10239500  0.20530300  0.34185400  1
  Re  Re4  1  0.38110400  0.94285300  0.66268200  1
  Re  Re5  1  0.88110400  0.05714700  0.83731800  1
  Re  Re6  1  0.61889600  0.05714700  0.33731800  1
  Re  Re7  1  0.11889600  0.94285300  0.16268200  1
  Re  Re8  1  0.37297600  0.85781300  0.92126000  1
  Re  Re9  1  0.87297600  0.14218700  0.57874000  1
  Re  Re10  1  0.62702400  0.14218700  0.07874000  1
  Re  Re11  1  0.12702400  0.85781300  0.42126000  1
  Re  Re12  1  0.22562300  0.56348500  0.57116200  1
  Re  Re13  1  0.72562300  0.43651500  0.92883800  1
  Re  Re14  1  0.77437700  0.43651500  0.42883800  1
  Re  Re15  1  0.27437700  0.56348500  0.07116200  1
  O  O16  1  0.49481400  0.80109000  0.84310800  1
  O  O17  1  0.99481400  0.19891000  0.65689200  1
  O  O18  1  0.50518600  0.19891000  0.15689200  1
  O  O19  1  0.00518600  0.80109000  0.34310800  1
  O  O20  1  0.48617900  0.33046800  0.69956900  1
  O  O21  1  0.98617900  0.66953200  0.80043100  1
  O  O22  1  0.51382100  0.66953200  0.30043100  1
  O  O23  1  0.01382100  0.33046800  0.19956900  1
  O  O24  1  0.41487300  0.64772500  0.58040200  1
  O  O25  1  0.91487300  0.35227500  0.91959800  1
  O  O26  1  0.58512700  0.35227500  0.41959800  1
  O  O27  1  0.08512700  0.64772500  0.08040200  1
  O  O28  1  0.39507100  0.01013700  0.90941300  1
  O  O29  1  0.89507100  0.98986300  0.59058700  1
  O  O30  1  0.60492900  0.98986300  0.09058700  1
  O  O31  1  0.10492900  0.01013700  0.40941300  1
  O  O32  1  0.38897900  0.05496200  0.73096700  1
  O  O33  1  0.88897900  0.94503800  0.76903300  1
  O  O34  1  0.61102100  0.94503800  0.26903300  1
  O  O35  1  0.11102100  0.05496200  0.23096700  1
  O  O36  1  0.34107800  0.57165500  0.96868200  1
  O  O37  1  0.84107800  0.42834500  0.53131800  1
  O  O38  1  0.65892200  0.42834500  0.03131800  1
  O  O39  1  0.15892200  0.57165500  0.46868200  1
  O  O40  1  0.33278000  0.00212700  0.56553000  1
  O  O41  1  0.83278000  0.99787300  0.93447000  1
  O  O42  1  0.66722000  0.99787300  0.43447000  1
  O  O43  1  0.16722000  0.00212700  0.06553000  1
  O  O44  1  0.28502600  0.51791300  0.77986900  1
  O  O45  1  0.78502600  0.48208700  0.72013100  1
  O  O46  1  0.71497400  0.48208700  0.22013100  1
  O  O47  1  0.21497400  0.51791300  0.27986900  1
  O  O48  1  0.27499300  0.41904300  0.60111700  1
  O  O49  1  0.77499300  0.58095700  0.89888300  1
  O  O50  1  0.72500700  0.58095700  0.39888300  1
  O  O51  1  0.22500700  0.41904300  0.10111700  1
  O  O52  1  0.20827200  0.25909800  0.97048800  1
  O  O53  1  0.70827200  0.74090200  0.52951200  1
  O  O54  1  0.79172800  0.74090200  0.02951200  1
  O  O55  1  0.29172800  0.25909800  0.47048800  1
  O  O56  1  0.20700600  0.84738200  0.69236500  1
  O  O57  1  0.70700600  0.15261800  0.80763500  1
  O  O58  1  0.79299400  0.15261800  0.30763500  1
  O  O59  1  0.29299400  0.84738200  0.19236500  1
  O  O60  1  0.20807400  0.42380400  0.78575200  1
  O  O61  1  0.70807400  0.57619600  0.71424800  1
  O  O62  1  0.79192600  0.57619600  0.21424800  1
  O  O63  1  0.29192600  0.42380400  0.28575200  1
  O  O64  1  0.15213000  0.82364100  0.90761000  1
  O  O65  1  0.65213000  0.17635900  0.59239000  1
  O  O66  1  0.84787000  0.17635900  0.09239000  1
  O  O67  1  0.34787000  0.82364100  0.40761000  1
  O  O68  1  0.04951600  0.80394700  0.51999800  1
  O  O69  1  0.54951600  0.19605300  0.98000200  1
  O  O70  1  0.95048400  0.19605300  0.48000200  1
  O  O71  1  0.45048400  0.80394700  0.01999800  1
  O  O72  1  0.08373900  0.13255100  0.83898400  1
  O  O73  1  0.58373900  0.86744900  0.66101600  1
  O  O74  1  0.91626100  0.86744900  0.16101600  1
  O  O75  1  0.41626100  0.13255100  0.33898400  1
  O  O76  1  0.05570300  0.61637400  0.63664500  1
  O  O77  1  0.55570300  0.38362600  0.86335500  1
  O  O78  1  0.94429700  0.38362600  0.36335500  1
  O  O79  1  0.44429700  0.61637400  0.13664500  1
