# generated using pymatgen
data_La4Co3O10
_symmetry_space_group_name_H-M   'P 1'
_cell_length_a   5.58137100
_cell_length_b   5.47809200
_cell_length_c   28.24844787
_cell_angle_alpha   89.35971121
_cell_angle_beta   90.00000000
_cell_angle_gamma   90.00000000
_symmetry_Int_Tables_number   1
_chemical_formula_structural   La4Co3O10
_chemical_formula_sum   'La16 Co12 O40'
_cell_volume   863.64981546
_cell_formula_units_Z   4
loop_
 _symmetry_equiv_pos_site_id
 _symmetry_equiv_pos_as_xyz
  1  'x, y, z'
loop_
 _atom_site_type_symbol
 _atom_site_label
 _atom_site_symmetry_multiplicity
 _atom_site_fract_x
 _atom_site_fract_y
 _atom_site_fract_z
 _atom_site_occupancy
  La  La0  1  0.48485200  0.49219700  0.30085300  1
  La  La1  1  0.98485200  0.00780300  0.69914700  1
  La  La2  1  0.51514800  0.50780300  0.69914700  1
  La  La3  1  0.01514800  0.99219700  0.30085300  1
  La  La4  1  0.48743000  0.00380100  0.80038000  1
  La  La5  1  0.98743000  0.49619900  0.19962000  1
  La  La6  1  0.51257000  0.99619900  0.19962000  1
  La  La7  1  0.01257000  0.50380100  0.80038000  1
  La  La8  1  0.49803100  0.47788400  0.43210100  1
  La  La9  1  0.99803100  0.02211600  0.56789900  1
  La  La10  1  0.50196900  0.52211600  0.56789900  1
  La  La11  1  0.00196900  0.97788400  0.43210100  1
  La  La12  1  0.50170000  0.98047500  0.93235200  1
  La  La13  1  0.00170000  0.51952500  0.06764800  1
  La  La14  1  0.49830000  0.01952500  0.06764800  1
  La  La15  1  0.99830000  0.48047500  0.93235200  1
  Co  Co16  1  0.00000000  0.50000000  0.50000000  1
  Co  Co17  1  0.50000000  0.00000000  0.50000000  1
  Co  Co18  1  0.50000000  0.50000000  0.00000000  1
  Co  Co19  1  0.00000000  0.00000000  0.00000000  1
  Co  Co20  1  0.49688700  0.49753600  0.13945200  1
  Co  Co21  1  0.99688700  0.00246400  0.86054800  1
  Co  Co22  1  0.50311300  0.50246400  0.86054800  1
  Co  Co23  1  0.00311300  0.99753600  0.13945200  1
  Co  Co24  1  0.49738100  0.00778800  0.63922600  1
  Co  Co25  1  0.99738100  0.49221200  0.36077400  1
  Co  Co26  1  0.50261900  0.99221200  0.36077400  1
  Co  Co27  1  0.00261900  0.50778800  0.63922600  1
  O  O28  1  0.21888800  0.21982300  0.48893000  1
  O  O29  1  0.71888800  0.28017700  0.51107000  1
  O  O30  1  0.78111200  0.78017700  0.51107000  1
  O  O31  1  0.28111200  0.71982300  0.48893000  1
  O  O32  1  0.29267400  0.19380600  0.99234200  1
  O  O33  1  0.79267400  0.30619400  0.00765800  1
  O  O34  1  0.70732600  0.80619400  0.00765800  1
  O  O35  1  0.20732600  0.69380600  0.99234200  1
  O  O36  1  0.44001200  0.49353400  0.06814400  1
  O  O37  1  0.94001200  0.00646600  0.93185600  1
  O  O38  1  0.55998800  0.50646600  0.93185600  1
  O  O39  1  0.05998800  0.99353400  0.06814400  1
  O  O40  1  0.42876700  0.99550200  0.56722900  1
  O  O41  1  0.92876700  0.50449800  0.43277100  1
  O  O42  1  0.57123300  0.00449800  0.43277100  1
  O  O43  1  0.07123300  0.49550200  0.56722900  1
  O  O44  1  0.24763200  0.24724000  0.14789800  1
  O  O45  1  0.74763200  0.25276000  0.85210200  1
  O  O46  1  0.75236800  0.75276000  0.85210200  1
  O  O47  1  0.25236800  0.74724000  0.14789800  1
  O  O48  1  0.24576400  0.76120100  0.64832300  1
  O  O49  1  0.74576400  0.73879900  0.35167700  1
  O  O50  1  0.75423600  0.23879900  0.35167700  1
  O  O51  1  0.25423600  0.26120100  0.64832300  1
  O  O52  1  0.55076800  0.49149900  0.21809300  1
  O  O53  1  0.05076800  0.00850100  0.78190700  1
  O  O54  1  0.44923200  0.50850100  0.78190700  1
  O  O55  1  0.94923200  0.99149900  0.21809300  1
  O  O56  1  0.55459500  0.00770600  0.71776500  1
  O  O57  1  0.05459500  0.49229400  0.28223500  1
  O  O58  1  0.44540500  0.99229400  0.28223500  1
  O  O59  1  0.94540500  0.50770600  0.71776500  1
  O  O60  1  0.25235500  0.75289600  0.86591700  1
  O  O61  1  0.75235500  0.74710400  0.13408300  1
  O  O62  1  0.74764500  0.24710400  0.13408300  1
  O  O63  1  0.24764500  0.25289600  0.86591700  1
  O  O64  1  0.25434800  0.24644800  0.36791500  1
  O  O65  1  0.75434800  0.25355200  0.63208500  1
  O  O66  1  0.74565200  0.75355200  0.63208500  1
  O  O67  1  0.24565200  0.74644800  0.36791500  1
