# generated using pymatgen
data_Gd4B4O11F2
_symmetry_space_group_name_H-M   'P 1'
_cell_length_a   7.24530943
_cell_length_b   7.24530943
_cell_length_c   13.82864214
_cell_angle_alpha   88.83342918
_cell_angle_beta   88.83342918
_cell_angle_gamma   37.63683029
_symmetry_Int_Tables_number   1
_chemical_formula_structural   Gd4B4O11F2
_chemical_formula_sum   'Gd8 B8 O22 F4'
_cell_volume   443.18838687
_cell_formula_units_Z   2
loop_
 _symmetry_equiv_pos_site_id
 _symmetry_equiv_pos_as_xyz
  1  'x, y, z'
loop_
 _atom_site_type_symbol
 _atom_site_label
 _atom_site_symmetry_multiplicity
 _atom_site_fract_x
 _atom_site_fract_y
 _atom_site_fract_z
 _atom_site_occupancy
  Gd  Gd0  1  0.46079800  0.42207000  0.37041700  1
  Gd  Gd1  1  0.57793000  0.53920200  0.12958300  1
  Gd  Gd2  1  0.53920200  0.57793000  0.62958300  1
  Gd  Gd3  1  0.42207000  0.46079800  0.87041700  1
  Gd  Gd4  1  0.73748100  0.70234300  0.37016800  1
  Gd  Gd5  1  0.29765700  0.26251900  0.12983200  1
  Gd  Gd6  1  0.26251900  0.29765700  0.62983200  1
  Gd  Gd7  1  0.70234300  0.73748100  0.87016800  1
  B  B8  1  0.07050000  0.11560000  0.28617400  1
  B  B9  1  0.88440000  0.92950000  0.21382600  1
  B  B10  1  0.92950000  0.88440000  0.71382600  1
  B  B11  1  0.11560000  0.07050000  0.78617400  1
  B  B12  1  0.86072200  0.94859100  0.52408200  1
  B  B13  1  0.05140900  0.13927800  0.97591800  1
  B  B14  1  0.13927800  0.05140900  0.47591800  1
  B  B15  1  0.94859100  0.86072200  0.02408200  1
  O  O16  1  0.95467400  0.22016800  0.39453100  1
  O  O17  1  0.77983200  0.04532600  0.10546900  1
  O  O18  1  0.04532600  0.77983200  0.60546900  1
  O  O19  1  0.22016800  0.95467400  0.89453100  1
  O  O20  1  0.64295800  0.00842300  0.25670900  1
  O  O21  1  0.99157700  0.35704200  0.24329100  1
  O  O22  1  0.35704200  0.99157700  0.74329100  1
  O  O23  1  0.00842300  0.64295800  0.75670900  1
  O  O24  1  0.58753300  0.25363600  0.53416200  1
  O  O25  1  0.74636400  0.41246700  0.96583800  1
  O  O26  1  0.41246700  0.74636400  0.46583800  1
  O  O27  1  0.25363600  0.58753300  0.03416200  1
  O  O28  1  0.84700600  0.15299400  0.25000000  1
  O  O29  1  0.15299400  0.84700600  0.75000000  1
  O  O30  1  0.94753300  0.82346300  0.43388000  1
  O  O31  1  0.17653700  0.05246700  0.06612000  1
  O  O32  1  0.05246700  0.17653700  0.56612000  1
  O  O33  1  0.82346300  0.94753300  0.93388000  1
  O  O34  1  0.37862600  0.81812300  0.27615400  1
  O  O35  1  0.18187700  0.62137400  0.22384600  1
  O  O36  1  0.62137400  0.18187700  0.72384600  1
  O  O37  1  0.81812300  0.37862600  0.77615400  1
  F  F38  1  0.29378500  0.24414900  0.42360500  1
  F  F39  1  0.75585100  0.70621500  0.07639500  1
  F  F40  1  0.70621500  0.75585100  0.57639500  1
  F  F41  1  0.24414900  0.29378500  0.92360500  1
