# generated using pymatgen
data_Ca2Al4Si4O17
_symmetry_space_group_name_H-M   'P 1'
_cell_length_a   8.58378125
_cell_length_b   9.40193600
_cell_length_c   11.52477818
_cell_angle_alpha   114.07304398
_cell_angle_beta   99.25600234
_cell_angle_gamma   90.00000000
_symmetry_Int_Tables_number   1
_chemical_formula_structural   Ca2Al4Si4O17
_chemical_formula_sum   'Ca4 Al8 Si8 O34'
_cell_volume   835.92199109
_cell_formula_units_Z   2
loop_
 _symmetry_equiv_pos_site_id
 _symmetry_equiv_pos_as_xyz
  1  'x, y, z'
loop_
 _atom_site_type_symbol
 _atom_site_label
 _atom_site_symmetry_multiplicity
 _atom_site_fract_x
 _atom_site_fract_y
 _atom_site_fract_z
 _atom_site_occupancy
  Ca  Ca0  1  0.55795400  0.48344200  0.33145000  1
  Ca  Ca1  1  0.94204600  0.15199200  0.66855000  1
  Ca  Ca2  1  0.44204600  0.51655800  0.66855000  1
  Ca  Ca3  1  0.05795400  0.84800800  0.33145000  1
  Al  Al4  1  0.14507600  0.78213300  0.81098400  1
  Al  Al5  1  0.35492400  0.97114900  0.18901600  1
  Al  Al6  1  0.85492400  0.21786700  0.18901600  1
  Al  Al7  1  0.64507600  0.02885100  0.81098400  1
  Al  Al8  1  0.78866100  0.48464700  0.59302900  1
  Al  Al9  1  0.71133900  0.89161800  0.40697100  1
  Al  Al10  1  0.21133900  0.51535300  0.40697100  1
  Al  Al11  1  0.28866100  0.10838200  0.59302900  1
  Si  Si12  1  0.80870000  0.74197000  0.87458900  1
  Si  Si13  1  0.69130000  0.86738100  0.12541100  1
  Si  Si14  1  0.19130000  0.25803000  0.12541100  1
  Si  Si15  1  0.30870000  0.13261900  0.87458900  1
  Si  Si16  1  0.94967500  0.70673700  0.51542700  1
  Si  Si17  1  0.55032500  0.19131000  0.48457300  1
  Si  Si18  1  0.05032500  0.29326300  0.48457300  1
  Si  Si19  1  0.44967500  0.80869000  0.51542700  1
  O  O20  1  0.73850400  0.89567500  0.86192000  1
  O  O21  1  0.76149600  0.03375500  0.13808000  1
  O  O22  1  0.26149600  0.10432500  0.13808000  1
  O  O23  1  0.23850400  0.96624500  0.86192000  1
  O  O24  1  0.99930200  0.74518300  0.88625800  1
  O  O25  1  0.50069800  0.85892400  0.11374200  1
  O  O26  1  0.00069800  0.25481700  0.11374200  1
  O  O27  1  0.49930200  0.14107500  0.88625800  1
  O  O28  1  0.72483600  0.58545900  0.74221100  1
  O  O29  1  0.77516400  0.84324900  0.25778900  1
  O  O30  1  0.27516400  0.41454100  0.25778900  1
  O  O31  1  0.22483600  0.15675100  0.74221100  1
  O  O32  1  0.55704000  0.91285400  0.65068100  1
  O  O33  1  0.94296000  0.26217300  0.34931900  1
  O  O34  1  0.44296000  0.08714600  0.34931900  1
  O  O35  1  0.05704000  0.73782700  0.65068100  1
  O  O36  1  0.94851400  0.36960000  0.60447700  1
  O  O37  1  0.55148600  0.76512300  0.39552300  1
  O  O38  1  0.05148600  0.63040000  0.39552300  1
  O  O39  1  0.44851400  0.23487700  0.60447700  1
  O  O40  1  0.79679300  0.58703600  0.49378700  1
  O  O41  1  0.70320700  0.09325000  0.50621300  1
  O  O42  1  0.20320700  0.41296400  0.50621300  1
  O  O43  1  0.29679300  0.90675000  0.49378700  1
  O  O44  1  0.89045300  0.86779000  0.50179900  1
  O  O45  1  0.60954700  0.36599100  0.49820100  1
  O  O46  1  0.10954700  0.13221000  0.49820100  1
  O  O47  1  0.39045300  0.63400900  0.50179900  1
  O  O48  1  0.75000000  0.72933500  0.00000000  1
  O  O49  1  0.25000000  0.27066500  0.00000000  1
  O  O50  1  0.68903300  0.32892000  0.18131000  1
  O  O51  1  0.81096700  0.14761000  0.81869000  1
  O  O52  1  0.31096700  0.67108000  0.81869000  1
  O  O53  1  0.18903300  0.85239000  0.18131000  1
