# generated using pymatgen
data_YIO9
_symmetry_space_group_name_H-M   'P 1'
_cell_length_a   10.71895800
_cell_length_b   7.34603200
_cell_length_c   11.21418350
_cell_angle_alpha   53.63736810
_cell_angle_beta   90.00000000
_cell_angle_gamma   90.00000000
_symmetry_Int_Tables_number   1
_chemical_formula_structural   YIO9
_chemical_formula_sum   'Y4 I4 O36'
_cell_volume   711.08301965
_cell_formula_units_Z   4
loop_
 _symmetry_equiv_pos_site_id
 _symmetry_equiv_pos_as_xyz
  1  'x, y, z'
loop_
 _atom_site_type_symbol
 _atom_site_label
 _atom_site_symmetry_multiplicity
 _atom_site_fract_x
 _atom_site_fract_y
 _atom_site_fract_z
 _atom_site_occupancy
  Y  Y0  1  0.39547400  0.66382300  0.82602300  1
  Y  Y1  1  0.10452600  0.66382300  0.32602300  1
  Y  Y2  1  0.60452600  0.33617700  0.17397700  1
  Y  Y3  1  0.89547400  0.33617700  0.67397700  1
  I  I4  1  0.69374300  0.58128700  0.75866000  1
  I  I5  1  0.80625700  0.58128700  0.25866000  1
  I  I6  1  0.30625700  0.41871300  0.24134000  1
  I  I7  1  0.19374300  0.41871300  0.74134000  1
  O  O8  1  0.77608500  0.64547500  0.59126200  1
  O  O9  1  0.72391500  0.64547500  0.09126200  1
  O  O10  1  0.22391500  0.35452500  0.40873800  1
  O  O11  1  0.27608500  0.35452500  0.90873800  1
  O  O12  1  0.79637000  0.76121700  0.78340800  1
  O  O13  1  0.70363000  0.76121700  0.28340800  1
  O  O14  1  0.20363000  0.23878300  0.21659200  1
  O  O15  1  0.29637000  0.23878300  0.71659200  1
  O  O16  1  0.54634100  0.71142700  0.65627200  1
  O  O17  1  0.95365900  0.71142700  0.15627100  1
  O  O18  1  0.45365900  0.28857300  0.34372800  1
  O  O19  1  0.04634100  0.28857300  0.84372800  1
  O  O20  1  0.59002200  0.31962900  0.62161000  1
  O  O21  1  0.90997800  0.31962900  0.12161000  1
  O  O22  1  0.40997800  0.68037100  0.37839000  1
  O  O23  1  0.09002200  0.68037100  0.87839000  1
  O  O24  1  0.76210000  0.29464100  0.86151300  1
  O  O25  1  0.73790000  0.29464100  0.36151300  1
  O  O26  1  0.23790000  0.70535900  0.13848700  1
  O  O27  1  0.26210000  0.70535900  0.63848700  1
  O  O28  1  0.59070000  0.48479500  0.92890200  1
  O  O29  1  0.90930000  0.48479500  0.42890200  1
  O  O30  1  0.40930000  0.51520500  0.07109800  1
  O  O31  1  0.09070000  0.51520500  0.57109800  1
  O  O32  1  0.51134200  0.16370100  0.66096100  1
  O  O33  1  0.98865800  0.16370100  0.16096100  1
  O  O34  1  0.48865800  0.83629900  0.33903900  1
  O  O35  1  0.01134200  0.83629900  0.83903900  1
  O  O36  1  0.53246900  0.97029200  0.79261400  1
  O  O37  1  0.96753100  0.97029200  0.29261400  1
  O  O38  1  0.46753100  0.02970800  0.20738600  1
  O  O39  1  0.03246900  0.02970800  0.70738600  1
  O  O40  1  0.25539900  0.91635400  0.82770100  1
  O  O41  1  0.24460100  0.91635400  0.32770100  1
  O  O42  1  0.74460100  0.08364600  0.17229900  1
  O  O43  1  0.75539900  0.08364600  0.67229900  1
