# generated using pymatgen
data_CoH12C8S2(N3O)2
_symmetry_space_group_name_H-M   'P 1'
_cell_length_a   8.20704147
_cell_length_b   9.62532844
_cell_length_c   10.37950400
_cell_angle_alpha   90.00000000
_cell_angle_beta   90.00000000
_cell_angle_gamma   97.78047904
_symmetry_Int_Tables_number   1
_chemical_formula_structural   CoH12C8S2(N3O)2
_chemical_formula_sum   'Co2 H24 C16 S4 N12 O4'
_cell_volume   812.38550127
_cell_formula_units_Z   2
loop_
 _symmetry_equiv_pos_site_id
 _symmetry_equiv_pos_as_xyz
  1  'x, y, z'
loop_
 _atom_site_type_symbol
 _atom_site_label
 _atom_site_symmetry_multiplicity
 _atom_site_fract_x
 _atom_site_fract_y
 _atom_site_fract_z
 _atom_site_occupancy
  Co  Co0  1  0.50000000  0.00000000  0.00000000  1
  Co  Co1  1  0.00000000  0.50000000  0.50000000  1
  H  H2  1  0.77071200  0.05079300  0.71096600  1
  H  H3  1  0.27071200  0.55079300  0.78903400  1
  H  H4  1  0.22928800  0.94920700  0.28903400  1
  H  H5  1  0.72928800  0.44920700  0.21096600  1
  H  H6  1  0.90706900  0.93614700  0.64836000  1
  H  H7  1  0.40706900  0.43614700  0.85164000  1
  H  H8  1  0.09293100  0.06385300  0.35164000  1
  H  H9  1  0.59293100  0.56385300  0.14836000  1
  H  H10  1  0.97433200  0.05638100  0.77793500  1
  H  H11  1  0.47433200  0.55638100  0.72206500  1
  H  H12  1  0.02566800  0.94361900  0.22206500  1
  H  H13  1  0.52566800  0.44361900  0.27793500  1
  H  H14  1  0.94873700  0.71680000  0.96742500  1
  H  H15  1  0.44873700  0.21680000  0.53257500  1
  H  H16  1  0.05126300  0.28320000  0.03257500  1
  H  H17  1  0.55126300  0.78320000  0.46742500  1
  H  H18  1  0.06472900  0.88509100  0.92612300  1
  H  H19  1  0.56472900  0.38509100  0.57387700  1
  H  H20  1  0.93527100  0.11490900  0.07387700  1
  H  H21  1  0.43527100  0.61490900  0.42612300  1
  H  H22  1  0.01973100  0.74806200  0.80593700  1
  H  H23  1  0.51973100  0.24806200  0.69406300  1
  H  H24  1  0.98026900  0.25193800  0.19406300  1
  H  H25  1  0.48026900  0.75193800  0.30593700  1
  C  C26  1  0.64101300  0.05523800  0.29391800  1
  C  C27  1  0.14101300  0.55523800  0.20608200  1
  C  C28  1  0.35898700  0.94476200  0.70608200  1
  C  C29  1  0.85898700  0.44476200  0.79391800  1
  C  C30  1  0.81027600  0.19164400  0.43240500  1
  C  C31  1  0.31027600  0.69164400  0.06759500  1
  C  C32  1  0.18972400  0.80835600  0.56759500  1
  C  C33  1  0.68972400  0.30835600  0.93240500  1
  C  C34  1  0.86965400  0.98944600  0.73481100  1
  C  C35  1  0.36965400  0.48944600  0.76518900  1
  C  C36  1  0.13034600  0.01055400  0.26518900  1
  C  C37  1  0.63034600  0.51055400  0.23481100  1
  C  C38  1  0.97562400  0.79691400  0.89247800  1
  C  C39  1  0.47562400  0.29691400  0.60752200  1
  C  C40  1  0.02437600  0.20308600  0.10752200  1
  C  C41  1  0.52437600  0.70308600  0.39247800  1
  S  S42  1  0.78549500  0.85835300  0.84979100  1
  S  S43  1  0.28549500  0.35835300  0.65020900  1
  S  S44  1  0.21450500  0.14164700  0.15020900  1
  S  S45  1  0.71450500  0.64164700  0.34979100  1
  N  N46  1  0.56553200  0.02521200  0.19900600  1
  N  N47  1  0.06553200  0.52521200  0.30099400  1
  N  N48  1  0.43446800  0.97478800  0.80099400  1
  N  N49  1  0.93446800  0.47478800  0.69900600  1
  N  N50  1  0.89851300  0.29102900  0.46778000  1
  N  N51  1  0.39851300  0.79102900  0.03222000  1
  N  N52  1  0.10148700  0.70897100  0.53222000  1
  N  N53  1  0.60148700  0.20897100  0.96778000  1
  N  N54  1  0.71695800  0.07590700  0.40358700  1
  N  N55  1  0.21695800  0.57590700  0.09641300  1
  N  N56  1  0.28304200  0.92409300  0.59641300  1
  N  N57  1  0.78304200  0.42409300  0.90358700  1
  O  O58  1  0.74069500  0.94006600  0.96824300  1
  O  O59  1  0.24069500  0.44006600  0.53175700  1
  O  O60  1  0.25930500  0.05993400  0.03175700  1
  O  O61  1  0.75930500  0.55993400  0.46824300  1
