# generated using pymatgen
data_Si9C4NO18
_symmetry_space_group_name_H-M   'P 1'
_cell_length_a   9.52962948
_cell_length_b   9.52962948
_cell_length_c   12.77470384
_cell_angle_alpha   73.22902691
_cell_angle_beta   73.22902691
_cell_angle_gamma   89.23000676
_symmetry_Int_Tables_number   1
_chemical_formula_structural   Si9C4NO18
_chemical_formula_sum   'Si18 C8 N2 O36'
_cell_volume   1060.44012867
_cell_formula_units_Z   2
loop_
 _symmetry_equiv_pos_site_id
 _symmetry_equiv_pos_as_xyz
  1  'x, y, z'
loop_
 _atom_site_type_symbol
 _atom_site_label
 _atom_site_symmetry_multiplicity
 _atom_site_fract_x
 _atom_site_fract_y
 _atom_site_fract_z
 _atom_site_occupancy
  Si  Si0  1  0.83386100  0.57831400  0.10877800  1
  Si  Si1  1  0.42168600  0.16613900  0.89122200  1
  Si  Si2  1  0.83206400  0.57385100  0.35761800  1
  Si  Si3  1  0.42614900  0.16793600  0.64238200  1
  Si  Si4  1  0.07441100  0.81384000  0.32241700  1
  Si  Si5  1  0.18616000  0.92558900  0.67758300  1
  Si  Si6  1  0.29237000  0.85775100  0.06929000  1
  Si  Si7  1  0.14224900  0.70763000  0.93071000  1
  Si  Si8  1  0.25990100  0.74009900  0.50000000  1
  Si  Si9  1  0.60270700  0.81229600  0.10813800  1
  Si  Si10  1  0.18770400  0.39729300  0.89186200  1
  Si  Si11  1  0.59707000  0.80918000  0.35746400  1
  Si  Si12  1  0.19082000  0.40293000  0.64253600  1
  Si  Si13  1  0.83641600  0.05071600  0.32334900  1
  Si  Si14  1  0.94928400  0.16358400  0.67665100  1
  Si  Si15  1  0.87996200  0.26816700  0.07037200  1
  Si  Si16  1  0.73183300  0.12003800  0.92962800  1
  Si  Si17  1  0.76259800  0.23740200  0.50000000  1
  C  C18  1  0.24403600  0.31762400  0.34149700  1
  C  C19  1  0.68237600  0.75596400  0.65850300  1
  C  C20  1  0.36048200  0.42728100  0.30356900  1
  C  C21  1  0.57271900  0.63951800  0.69643100  1
  C  C22  1  0.39743200  0.39834500  0.19552800  1
  C  C23  1  0.60165500  0.60256800  0.80447200  1
  C  C24  1  0.24747900  0.37476100  0.20357600  1
  C  C25  1  0.62523900  0.75252100  0.79642400  1
  N  N26  1  0.14195300  0.28697600  0.29508600  1
  N  N27  1  0.71302400  0.85804700  0.70491400  1
  O  O28  1  0.81235800  0.41784400  0.09313800  1
  O  O29  1  0.58215600  0.18764200  0.90686200  1
  O  O30  1  0.96961700  0.67697200  0.00459500  1
  O  O31  1  0.32302800  0.03038300  0.99540500  1
  O  O32  1  0.68405300  0.66144600  0.10693500  1
  O  O33  1  0.33855400  0.31594700  0.89306500  1
  O  O34  1  0.86854200  0.55812500  0.22923000  1
  O  O35  1  0.44187500  0.13145800  0.77077000  1
  O  O36  1  0.97315600  0.65927100  0.36676600  1
  O  O37  1  0.34072900  0.02684400  0.63323400  1
  O  O38  1  0.80116800  0.41395600  0.45107700  1
  O  O39  1  0.58604400  0.19883200  0.54892300  1
  O  O40  1  0.68599900  0.66307600  0.38540400  1
  O  O41  1  0.33692400  0.31400100  0.61459600  1
  O  O42  1  0.16655900  0.84507800  0.18853500  1
  O  O43  1  0.15492200  0.83344100  0.81146500  1
  O  O44  1  0.18670200  0.80505000  0.39742300  1
  O  O45  1  0.19495000  0.81329800  0.60257700  1
  O  O46  1  0.97183900  0.94844700  0.33619100  1
  O  O47  1  0.05155300  0.02816100  0.66380900  1
  O  O48  1  0.23649500  0.76350500  0.00000000  1
  O  O49  1  0.44175800  0.79045800  0.09310100  1
  O  O50  1  0.20954200  0.55824200  0.90689900  1
  O  O51  1  0.22068500  0.56393500  0.54987200  1
  O  O52  1  0.43606500  0.77931500  0.45012800  1
  O  O53  1  0.70091800  0.94655500  0.00217700  1
  O  O54  1  0.05344500  0.29908200  0.99782300  1
  O  O55  1  0.58413400  0.84895000  0.22790600  1
  O  O56  1  0.15105000  0.41586600  0.77209400  1
  O  O57  1  0.68266500  0.94741300  0.36980600  1
  O  O58  1  0.05258700  0.31733500  0.63019400  1
  O  O59  1  0.86558500  0.14156400  0.18944700  1
  O  O60  1  0.85843600  0.13441500  0.81055300  1
  O  O61  1  0.82393600  0.16207900  0.39868500  1
  O  O62  1  0.83792100  0.17606400  0.60131500  1
  O  O63  1  0.78801000  0.21199000  0.00000000  1
