# generated using pymatgen
data_Mo2H18C6NClO7
_symmetry_space_group_name_H-M   'P 1'
_cell_length_a   9.12441500
_cell_length_b   11.48236400
_cell_length_c   15.88099398
_cell_angle_alpha   90.00000000
_cell_angle_beta   98.33773088
_cell_angle_gamma   90.00000000
_symmetry_Int_Tables_number   1
_chemical_formula_structural   Mo2H18C6NClO7
_chemical_formula_sum   'Mo8 H72 C24 N4 Cl4 O28'
_cell_volume   1646.26338866
_cell_formula_units_Z   4
loop_
 _symmetry_equiv_pos_site_id
 _symmetry_equiv_pos_as_xyz
  1  'x, y, z'
loop_
 _atom_site_type_symbol
 _atom_site_label
 _atom_site_symmetry_multiplicity
 _atom_site_fract_x
 _atom_site_fract_y
 _atom_site_fract_z
 _atom_site_occupancy
  Mo  Mo0  1  0.85104900  0.21339400  0.54501600  1
  Mo  Mo1  1  0.14895100  0.71339400  0.95498400  1
  Mo  Mo2  1  0.14895100  0.78660600  0.45498400  1
  Mo  Mo3  1  0.85104900  0.28660600  0.04501600  1
  Mo  Mo4  1  0.07268800  0.99195900  0.61913800  1
  Mo  Mo5  1  0.92731200  0.49195900  0.88086200  1
  Mo  Mo6  1  0.92731200  0.00804100  0.38086200  1
  Mo  Mo7  1  0.07268800  0.50804100  0.11913800  1
  H  H8  1  0.76160800  0.85334200  0.51784200  1
  H  H9  1  0.23839200  0.35334200  0.98215800  1
  H  H10  1  0.23839200  0.14665800  0.48215800  1
  H  H11  1  0.76160800  0.64665800  0.01784200  1
  H  H12  1  0.69244700  0.96455600  0.58098200  1
  H  H13  1  0.30755300  0.46455600  0.91901800  1
  H  H14  1  0.30755300  0.03544400  0.41901800  1
  H  H15  1  0.69244700  0.53544400  0.08098200  1
  H  H16  1  0.63850000  0.96339300  0.46790400  1
  H  H17  1  0.36150000  0.46339300  0.03209600  1
  H  H18  1  0.36150000  0.03660700  0.53209600  1
  H  H19  1  0.63850000  0.53660700  0.96790400  1
  H  H20  1  0.88784600  0.27814700  0.31212600  1
  H  H21  1  0.11215400  0.77814700  0.18787400  1
  H  H22  1  0.11215400  0.72185300  0.68787400  1
  H  H23  1  0.88784600  0.22185300  0.81212600  1
  H  H24  1  0.98394100  0.35305800  0.40293200  1
  H  H25  1  0.01605900  0.85305800  0.09706800  1
  H  H26  1  0.01605900  0.64694200  0.59706800  1
  H  H27  1  0.98394100  0.14694200  0.90293200  1
  H  H28  1  0.08084900  0.25239300  0.34417200  1
  H  H29  1  0.91915100  0.75239300  0.15582800  1
  H  H30  1  0.91915100  0.74760700  0.65582800  1
  H  H31  1  0.08084900  0.24760700  0.84417200  1
  H  H32  1  0.57584400  0.73360500  0.84834200  1
  H  H33  1  0.42415600  0.23360500  0.65165800  1
  H  H34  1  0.42415600  0.26639500  0.15165800  1
  H  H35  1  0.57584400  0.76639500  0.34834200  1
  H  H36  1  0.49682200  0.79647700  0.74861100  1
  H  H37  1  0.50317800  0.29647700  0.75138900  1
  H  H38  1  0.50317800  0.20352300  0.25138900  1
  H  H39  1  0.49682200  0.70352300  0.24861100  1
  H  H40  1  0.69408800  0.77735500  0.77339000  1
  H  H41  1  0.30591200  0.27735500  0.72661000  1
  H  H42  1  0.30591200  0.22264500  0.22661000  1
  H  H43  1  0.69408800  0.72264500  0.27339000  1
  H  H44  1  0.47697000  0.03268600  0.90154400  1
  H  H45  1  0.52303000  0.53268600  0.59845600  1
  H  H46  1  0.52303000  0.96731400  0.09845600  1
  H  H47  1  0.47697000  0.46731400  0.40154400  1
  H  H48  1  0.37166700  0.94027600  0.82390100  1
  H  H49  1  0.62833300  0.44027600  0.67609900  1
  H  H50  1  0.62833300  0.05972400  0.17609900  1
  H  H51  1  0.37166700  0.55972400  0.32390100  1
  H  H52  1  0.45203800  0.88105400  0.92464500  1
  H  H53  1  0.54796200  0.38105400  0.57535500  1
  H  H54  1  0.54796200  0.11894600  0.07535500  1
  H  H55  1  0.45203800  0.61894600  0.42464500  1
  H  H56  1  0.74697400  0.49287700  0.43538600  1
  H  H57  1  0.25302600  0.99287700  0.06461400  1
  H  H58  1  0.25302600  0.50712300  0.56461400  1
  H  H59  1  0.74697400  0.00712300  0.93538600  1
  H  H60  1  0.83609600  0.60427800  0.38165100  1
  H  H61  1  0.16390400  0.10427800  0.11834900  1
  H  H62  1  0.16390400  0.39572200  0.61834900  1
  H  H63  1  0.83609600  0.89572200  0.88165100  1
  H  H64  1  0.71664200  0.64360900  0.45695200  1
  H  H65  1  0.28335800  0.14360900  0.04304800  1
  H  H66  1  0.28335800  0.35639100  0.54304800  1
  H  H67  1  0.71664200  0.85639100  0.95695200  1
  H  H68  1  0.73060400  0.98859100  0.74701200  1
  H  H69  1  0.26939600  0.48859100  0.75298800  1
  H  H70  1  0.26939600  0.01140900  0.25298800  1
  H  H71  1  0.73060400  0.51140900  0.24701200  1
  H  H72  1  0.53191000  0.00007400  0.72073400  1
  H  H73  1  0.46809000  0.50007400  0.77926600  1
  H  H74  1  0.46809000  0.99992600  0.27926600  1
  H  H75  1  0.53191000  0.49992600  0.22073400  1
  H  H76  1  0.63042100  0.09179900  0.80135300  1
  H  H77  1  0.36957900  0.59179900  0.69864700  1
  H  H78  1  0.36957900  0.90820100  0.19864700  1
  H  H79  1  0.63042100  0.40820100  0.30135300  1
  C  C80  1  0.72905500  0.94532600  0.51971700  1
  C  C81  1  0.27094500  0.44532600  0.98028300  1
  C  C82  1  0.27094500  0.05467400  0.48028300  1
  C  C83  1  0.72905500  0.55467400  0.01971700  1
  C  C84  1  0.97544700  0.27093300  0.36725900  1
  C  C85  1  0.02455300  0.77093300  0.13274100  1
  C  C86  1  0.02455300  0.72906700  0.63274100  1
  C  C87  1  0.97544700  0.22906700  0.86725900  1
  C  C88  1  0.59209100  0.79724400  0.79924300  1
  C  C89  1  0.40790900  0.29724400  0.70075700  1
  C  C90  1  0.40790900  0.20275600  0.20075700  1
  C  C91  1  0.59209100  0.70275600  0.29924300  1
  C  C92  1  0.46611100  0.94453300  0.87494500  1
  C  C93  1  0.53388900  0.44453300  0.62505500  1
  C  C94  1  0.53388900  0.05546700  0.12505500  1
  C  C95  1  0.46611100  0.55546700  0.37494500  1
  C  C96  1  0.73583000  0.58054400  0.40800500  1
  C  C97  1  0.26417000  0.08054400  0.09199500  1
  C  C98  1  0.26417000  0.41945600  0.59199500  1
  C  C99  1  0.73583000  0.91945600  0.90800500  1
  C  C100  1  0.62650000  0.00556500  0.77163800  1
  C  C101  1  0.37350000  0.50556500  0.72836200  1
  C  C102  1  0.37350000  0.99443500  0.22836200  1
  C  C103  1  0.62650000  0.49443500  0.27163800  1
  N  N104  1  0.60524900  0.91657600  0.83847400  1
  N  N105  1  0.39475100  0.41657600  0.66152600  1
  N  N106  1  0.39475100  0.08342400  0.16152600  1
  N  N107  1  0.60524900  0.58342400  0.33847400  1
  Cl  Cl108  1  0.62049100  0.22622500  0.44381500  1
  Cl  Cl109  1  0.37950900  0.72622500  0.05618500  1
  Cl  Cl110  1  0.37950900  0.77377500  0.55618500  1
  Cl  Cl111  1  0.62049100  0.27377500  0.94381500  1
  O  O112  1  0.88955400  0.36121600  0.54398700  1
  O  O113  1  0.11044600  0.86121600  0.95601300  1
  O  O114  1  0.11044600  0.63878400  0.45601300  1
  O  O115  1  0.88955400  0.13878400  0.04398700  1
  O  O116  1  0.75195900  0.19191500  0.62893100  1
  O  O117  1  0.24804100  0.69191500  0.87106900  1
  O  O118  1  0.24804100  0.80808500  0.37106900  1
  O  O119  1  0.75195900  0.30808500  0.12893100  1
  O  O120  1  0.24844300  0.99451500  0.67842200  1
  O  O121  1  0.75155700  0.49451500  0.82157800  1
  O  O122  1  0.75155700  0.00548500  0.32157800  1
  O  O123  1  0.24844300  0.50548500  0.17842200  1
  O  O124  1  0.95290900  0.96310500  0.69195700  1
  O  O125  1  0.04709100  0.46310500  0.80804300  1
  O  O126  1  0.04709100  0.03689500  0.30804300  1
  O  O127  1  0.95290900  0.53689500  0.19195700  1
  O  O128  1  0.04395000  0.15676300  0.59827200  1
  O  O129  1  0.95605000  0.65676300  0.90172800  1
  O  O130  1  0.95605000  0.84323700  0.40172800  1
  O  O131  1  0.04395000  0.34323700  0.09827200  1
  O  O132  1  0.85500800  0.01737800  0.51009700  1
  O  O133  1  0.14499200  0.51737800  0.98990300  1
  O  O134  1  0.14499200  0.98262200  0.48990300  1
  O  O135  1  0.85500800  0.48262200  0.01009700  1
  O  O136  1  0.94264900  0.17859000  0.42278400  1
  O  O137  1  0.05735100  0.67859000  0.07721600  1
  O  O138  1  0.05735100  0.82141000  0.57721600  1
  O  O139  1  0.94264900  0.32141000  0.92278400  1
