# generated using pymatgen
data_Ho4In20Ni11
_symmetry_space_group_name_H-M   'P 1'
_cell_length_a   11.50971059
_cell_length_b   11.50971059
_cell_length_c   16.67779687
_cell_angle_alpha   56.48861279
_cell_angle_beta   56.48861279
_cell_angle_gamma   21.65349100
_symmetry_Int_Tables_number   1
_chemical_formula_structural   Ho4In20Ni11
_chemical_formula_sum   'Ho4 In20 Ni11'
_cell_volume   674.25445373
_cell_formula_units_Z   1
loop_
 _symmetry_equiv_pos_site_id
 _symmetry_equiv_pos_as_xyz
  1  'x, y, z'
loop_
 _atom_site_type_symbol
 _atom_site_label
 _atom_site_symmetry_multiplicity
 _atom_site_fract_x
 _atom_site_fract_y
 _atom_site_fract_z
 _atom_site_occupancy
  Ho  Ho0  1  0.11924200  0.11924200  0.66922000  1
  Ho  Ho1  1  0.88075800  0.88075800  0.33078000  1
  Ho  Ho2  1  0.77086500  0.77086500  0.82657500  1
  Ho  Ho3  1  0.22913500  0.22913500  0.17342500  1
  In  In4  1  0.01055000  0.01055000  0.90470400  1
  In  In5  1  0.98945000  0.98945000  0.09529600  1
  In  In6  1  0.06312400  0.06312400  0.20985800  1
  In  In7  1  0.93687600  0.93687600  0.79014200  1
  In  In8  1  0.11512400  0.11512400  0.44843400  1
  In  In9  1  0.88487600  0.88487600  0.55156600  1
  In  In10  1  0.20248000  0.20248000  0.99714000  1
  In  In11  1  0.79752000  0.79752000  0.00286000  1
  In  In12  1  0.24703000  0.24703000  0.70906900  1
  In  In13  1  0.75297000  0.75297000  0.29093100  1
  In  In14  1  0.29673200  0.29673200  0.50241100  1
  In  In15  1  0.70326800  0.70326800  0.49758900  1
  In  In16  1  0.38869300  0.38869300  0.69108500  1
  In  In17  1  0.61130700  0.61130700  0.30891500  1
  In  In18  1  0.39825400  0.39825400  0.99031200  1
  In  In19  1  0.60174600  0.60174600  0.00968800  1
  In  In20  1  0.54103400  0.54103400  0.62246200  1
  In  In21  1  0.45896600  0.45896600  0.37753800  1
  In  In22  1  0.62881500  0.62881500  0.80406200  1
  In  In23  1  0.37118500  0.37118500  0.19593800  1
  Ni  Ni24  1  0.02237400  0.02237400  0.40019300  1
  Ni  Ni25  1  0.97762600  0.97762600  0.59980700  1
  Ni  Ni26  1  0.13681300  0.13681300  0.89742900  1
  Ni  Ni27  1  0.86318700  0.86318700  0.10257100  1
  Ni  Ni28  1  0.25420000  0.25420000  0.38237500  1
  Ni  Ni29  1  0.74580000  0.74580000  0.61762500  1
  Ni  Ni30  1  0.34679900  0.34679900  0.87835200  1
  Ni  Ni31  1  0.65320100  0.65320100  0.12164800  1
  Ni  Ni32  1  0.50750800  0.50750800  0.80486500  1
  Ni  Ni33  1  0.49249200  0.49249200  0.19513500  1
  Ni  Ni34  1  0.50000000  0.50000000  0.50000000  1
