# generated using pymatgen
data_LaH3CSO7
_symmetry_space_group_name_H-M   'P 1'
_cell_length_a   7.10762900
_cell_length_b   7.10762900
_cell_length_c   11.99669700
_cell_angle_alpha   90.00000000
_cell_angle_beta   90.00000000
_cell_angle_gamma   90.00000000
_symmetry_Int_Tables_number   1
_chemical_formula_structural   LaH3CSO7
_chemical_formula_sum   'La4 H12 C4 S4 O28'
_cell_volume   606.05381778
_cell_formula_units_Z   4
loop_
 _symmetry_equiv_pos_site_id
 _symmetry_equiv_pos_as_xyz
  1  'x, y, z'
loop_
 _atom_site_type_symbol
 _atom_site_label
 _atom_site_symmetry_multiplicity
 _atom_site_fract_x
 _atom_site_fract_y
 _atom_site_fract_z
 _atom_site_occupancy
  La  La0  1  0.39319400  0.86042100  0.50730600  1
  La  La1  1  0.60680600  0.13957900  0.00730600  1
  La  La2  1  0.86042100  0.60680600  0.75730600  1
  La  La3  1  0.13957900  0.39319400  0.25730600  1
  H  H4  1  0.46754800  0.33579600  0.55213600  1
  H  H5  1  0.53245200  0.66420400  0.05213600  1
  H  H6  1  0.33579600  0.53245200  0.80213600  1
  H  H7  1  0.66420400  0.46754800  0.30213600  1
  H  H8  1  0.12150600  0.03846700  0.68949600  1
  H  H9  1  0.87849400  0.96153400  0.18949600  1
  H  H10  1  0.03846700  0.87849400  0.93949600  1
  H  H11  1  0.96153400  0.12150600  0.43949600  1
  H  H12  1  0.32338500  0.09242100  0.73261400  1
  H  H13  1  0.67661500  0.90757900  0.23261400  1
  H  H14  1  0.09242100  0.67661500  0.98261400  1
  H  H15  1  0.90757900  0.32338500  0.48261400  1
  C  C16  1  0.39600900  0.34600500  0.47087500  1
  C  C17  1  0.60399100  0.65399500  0.97087500  1
  C  C18  1  0.34600500  0.60399100  0.72087500  1
  C  C19  1  0.65399500  0.39600900  0.22087500  1
  S  S20  1  0.25327800  0.88738400  0.20173300  1
  S  S21  1  0.74672200  0.11261600  0.70173300  1
  S  S22  1  0.88738400  0.74672200  0.45173300  1
  S  S23  1  0.11261600  0.25327800  0.95173300  1
  O  O24  1  0.37790000  0.95770600  0.11215400  1
  O  O25  1  0.62210000  0.04229400  0.61215400  1
  O  O26  1  0.95770600  0.62210000  0.36215400  1
  O  O27  1  0.04229400  0.37790000  0.86215400  1
  O  O28  1  0.11391800  0.03816500  0.23039700  1
  O  O29  1  0.88608200  0.96183500  0.73039700  1
  O  O30  1  0.03816500  0.88608200  0.48039700  1
  O  O31  1  0.96183500  0.11391800  0.98039700  1
  O  O32  1  0.35795300  0.19493500  0.41875200  1
  O  O33  1  0.64204700  0.80506500  0.91875200  1
  O  O34  1  0.19493500  0.64204700  0.66875200  1
  O  O35  1  0.80506500  0.35795300  0.16875200  1
  O  O36  1  0.71651000  0.84595200  0.41144800  1
  O  O37  1  0.28349000  0.15404800  0.91144800  1
  O  O38  1  0.84595200  0.28349000  0.66144800  1
  O  O39  1  0.15404800  0.71651000  0.16144800  1
  O  O40  1  0.36733000  0.83709000  0.30121900  1
  O  O41  1  0.63267000  0.16291000  0.80121900  1
  O  O42  1  0.83709000  0.63267000  0.55121900  1
  O  O43  1  0.16291000  0.36733000  0.05121900  1
  O  O44  1  0.35434600  0.50777300  0.43212000  1
  O  O45  1  0.64565400  0.49222700  0.93212000  1
  O  O46  1  0.50777300  0.64565400  0.68212000  1
  O  O47  1  0.49222700  0.35434600  0.18212000  1
  O  O48  1  0.25330600  0.05633200  0.66560100  1
  O  O49  1  0.74669400  0.94366800  0.16560100  1
  O  O50  1  0.05633200  0.74669400  0.91560100  1
  O  O51  1  0.94366800  0.25330600  0.41560100  1
