# generated using pymatgen
data_Sm4In20Ni11
_symmetry_space_group_name_H-M   'P 1'
_cell_length_a   11.65084991
_cell_length_b   11.65084991
_cell_length_c   16.86294567
_cell_angle_alpha   55.97345483
_cell_angle_beta   55.97345483
_cell_angle_gamma   21.03636431
_symmetry_Int_Tables_number   1
_chemical_formula_structural   Sm4In20Ni11
_chemical_formula_sum   'Sm4 In20 Ni11'
_cell_volume   675.60688004
_cell_formula_units_Z   1
loop_
 _symmetry_equiv_pos_site_id
 _symmetry_equiv_pos_as_xyz
  1  'x, y, z'
loop_
 _atom_site_type_symbol
 _atom_site_label
 _atom_site_symmetry_multiplicity
 _atom_site_fract_x
 _atom_site_fract_y
 _atom_site_fract_z
 _atom_site_occupancy
  Sm  Sm0  1  0.11884200  0.11884200  0.66810200  1
  Sm  Sm1  1  0.88115800  0.88115800  0.33189800  1
  Sm  Sm2  1  0.77171700  0.77171700  0.82579200  1
  Sm  Sm3  1  0.22828300  0.22828300  0.17420800  1
  In  In4  1  0.01003800  0.01003800  0.90564300  1
  In  In5  1  0.98996200  0.98996200  0.09435700  1
  In  In6  1  0.06420000  0.06420000  0.20861100  1
  In  In7  1  0.93580000  0.93580000  0.79138900  1
  In  In8  1  0.11220300  0.11220300  0.44994800  1
  In  In9  1  0.88779700  0.88779700  0.55005200  1
  In  In10  1  0.20235800  0.20235800  0.99720400  1
  In  In11  1  0.79764200  0.79764200  0.00279600  1
  In  In12  1  0.24599900  0.24599900  0.70936600  1
  In  In13  1  0.75400100  0.75400100  0.29063400  1
  In  In14  1  0.29677000  0.29677000  0.50220900  1
  In  In15  1  0.70323000  0.70323000  0.49779100  1
  In  In16  1  0.39043000  0.39043000  0.68934900  1
  In  In17  1  0.60957000  0.60957000  0.31065100  1
  In  In18  1  0.39724300  0.39724300  0.99114700  1
  In  In19  1  0.60275700  0.60275700  0.00885300  1
  In  In20  1  0.53901300  0.53901300  0.62346100  1
  In  In21  1  0.46098700  0.46098700  0.37653900  1
  In  In22  1  0.62862500  0.62862500  0.80332100  1
  In  In23  1  0.37137500  0.37137500  0.19667900  1
  Ni  Ni24  1  0.02260400  0.02260400  0.39991600  1
  Ni  Ni25  1  0.97739600  0.97739600  0.60008400  1
  Ni  Ni26  1  0.13416500  0.13416500  0.89820500  1
  Ni  Ni27  1  0.86583500  0.86583500  0.10179500  1
  Ni  Ni28  1  0.25110300  0.25110300  0.38458900  1
  Ni  Ni29  1  0.74889700  0.74889700  0.61541100  1
  Ni  Ni30  1  0.34639800  0.34639800  0.88090700  1
  Ni  Ni31  1  0.65360200  0.65360200  0.11909300  1
  Ni  Ni32  1  0.50505100  0.50505100  0.80863600  1
  Ni  Ni33  1  0.49494900  0.49494900  0.19136400  1
  Ni  Ni34  1  0.50000000  0.50000000  0.50000000  1
