# generated using pymatgen
data_Na4Fe3P4O15
_symmetry_space_group_name_H-M   'P 1'
_cell_length_a   6.60584900
_cell_length_b   10.81444000
_cell_length_c   18.44405000
_cell_angle_alpha   90.00000000
_cell_angle_beta   90.00000000
_cell_angle_gamma   90.00000000
_symmetry_Int_Tables_number   1
_chemical_formula_structural   Na4Fe3P4O15
_chemical_formula_sum   'Na16 Fe12 P16 O60'
_cell_volume   1317.61632940
_cell_formula_units_Z   4
loop_
 _symmetry_equiv_pos_site_id
 _symmetry_equiv_pos_as_xyz
  1  'x, y, z'
loop_
 _atom_site_type_symbol
 _atom_site_label
 _atom_site_symmetry_multiplicity
 _atom_site_fract_x
 _atom_site_fract_y
 _atom_site_fract_z
 _atom_site_occupancy
  Na  Na0  1  0.33524500  0.48108900  0.99116600  1
  Na  Na1  1  0.83524500  0.51891100  0.00883400  1
  Na  Na2  1  0.83524500  0.98108900  0.50883400  1
  Na  Na3  1  0.33524500  0.01891100  0.49116600  1
  Na  Na4  1  0.37386500  0.24671000  0.79519300  1
  Na  Na5  1  0.87386500  0.75329000  0.20480700  1
  Na  Na6  1  0.87386500  0.74671000  0.70480700  1
  Na  Na7  1  0.37386500  0.25329000  0.29519300  1
  Na  Na8  1  0.96170500  0.76707700  0.89614400  1
  Na  Na9  1  0.46170500  0.23292300  0.10385600  1
  Na  Na10  1  0.46170500  0.26707700  0.60385600  1
  Na  Na11  1  0.96170500  0.73292300  0.39614400  1
  Na  Na12  1  0.20051400  0.04364100  0.96368600  1
  Na  Na13  1  0.70051400  0.95635900  0.03631400  1
  Na  Na14  1  0.70051400  0.54364100  0.53631400  1
  Na  Na15  1  0.20051400  0.45635900  0.46368600  1
  Fe  Fe16  1  0.63693900  0.00259200  0.83587500  1
  Fe  Fe17  1  0.13693900  0.99740800  0.16412500  1
  Fe  Fe18  1  0.13693900  0.50259200  0.66412500  1
  Fe  Fe19  1  0.63693900  0.49740800  0.33587500  1
  Fe  Fe20  1  0.11982900  0.99533700  0.64059900  1
  Fe  Fe21  1  0.61982900  0.00466300  0.35940100  1
  Fe  Fe22  1  0.61982900  0.49533700  0.85940100  1
  Fe  Fe23  1  0.11982900  0.50466300  0.14059900  1
  Fe  Fe24  1  0.85329200  0.24537900  0.73999300  1
  Fe  Fe25  1  0.35329200  0.75462100  0.26000700  1
  Fe  Fe26  1  0.35329200  0.74537900  0.76000700  1
  Fe  Fe27  1  0.85329200  0.25462100  0.23999300  1
  P  P28  1  0.12452900  0.00245800  0.79531200  1
  P  P29  1  0.62452900  0.99754200  0.20468800  1
  P  P30  1  0.62452900  0.50245800  0.70468800  1
  P  P31  1  0.12452900  0.49754200  0.29531200  1
  P  P32  1  0.61244400  0.98998700  0.68013000  1
  P  P33  1  0.11244400  0.01001300  0.31987000  1
  P  P34  1  0.11244400  0.48998700  0.81987000  1
  P  P35  1  0.61244400  0.51001300  0.18013000  1
  P  P36  1  0.98496000  0.24146300  0.06604800  1
  P  P37  1  0.48496000  0.75853700  0.93395200  1
  P  P38  1  0.48496000  0.74146300  0.43395200  1
  P  P39  1  0.98496000  0.25853700  0.56604800  1
  P  P40  1  0.67050200  0.22796000  0.94894200  1
  P  P41  1  0.17050200  0.77204000  0.05105800  1
  P  P42  1  0.17050200  0.72796000  0.55105800  1
  P  P43  1  0.67050200  0.27204000  0.44894200  1
  O  O44  1  0.08429300  0.11198500  0.74121200  1
  O  O45  1  0.58429300  0.88801500  0.25878800  1
  O  O46  1  0.58429300  0.61198500  0.75878800  1
  O  O47  1  0.08429300  0.38801500  0.24121200  1
  O  O48  1  0.94843500  0.97670500  0.84783400  1
  O  O49  1  0.44843500  0.02329500  0.15216600  1
  O  O50  1  0.44843500  0.47670500  0.65216600  1
  O  O51  1  0.94843500  0.52329500  0.34783400  1
  O  O52  1  0.31637700  0.03336500  0.84005100  1
  O  O53  1  0.81637700  0.96663500  0.15994900  1
  O  O54  1  0.81637700  0.53336500  0.65994900  1
  O  O55  1  0.31637700  0.46663500  0.34005100  1
  O  O56  1  0.14829000  0.88778400  0.74339600  1
  O  O57  1  0.64829000  0.11221600  0.25660400  1
  O  O58  1  0.64829000  0.38778400  0.75660400  1
  O  O59  1  0.14829000  0.61221600  0.24339600  1
  O  O60  1  0.63421700  0.10494300  0.73180700  1
  O  O61  1  0.13421700  0.89505700  0.26819300  1
  O  O62  1  0.13421700  0.60494300  0.76819300  1
  O  O63  1  0.63421700  0.39505700  0.23180700  1
  O  O64  1  0.43199700  0.01386800  0.62845000  1
  O  O65  1  0.93199700  0.98613200  0.37155000  1
  O  O66  1  0.93199700  0.51386800  0.87155000  1
  O  O67  1  0.43199700  0.48613200  0.12845000  1
  O  O68  1  0.57997300  0.87773800  0.73334500  1
  O  O69  1  0.07997300  0.12226200  0.26665500  1
  O  O70  1  0.07997300  0.37773800  0.76665500  1
  O  O71  1  0.57997300  0.62226200  0.23334500  1
  O  O72  1  0.80704300  0.96327100  0.63619100  1
  O  O73  1  0.30704300  0.03672900  0.36380900  1
  O  O74  1  0.30704300  0.46327100  0.86380900  1
  O  O75  1  0.80704300  0.53672900  0.13619100  1
  O  O76  1  0.89705200  0.20292400  0.98567100  1
  O  O77  1  0.39705200  0.79707600  0.01432900  1
  O  O78  1  0.39705200  0.70292400  0.51432900  1
  O  O79  1  0.89705200  0.29707600  0.48567100  1
  O  O80  1  0.09149400  0.36661600  0.05483600  1
  O  O81  1  0.59149400  0.63338400  0.94516400  1
  O  O82  1  0.59149400  0.86661600  0.44516400  1
  O  O83  1  0.09149400  0.13338400  0.55483600  1
  O  O84  1  0.81238000  0.24645200  0.12086100  1
  O  O85  1  0.31238000  0.75354800  0.87913900  1
  O  O86  1  0.31238000  0.74645200  0.37913900  1
  O  O87  1  0.81238000  0.25354800  0.62086100  1
  O  O88  1  0.13702400  0.13752300  0.08171300  1
  O  O89  1  0.63702400  0.86247700  0.91828700  1
  O  O90  1  0.63702400  0.63752300  0.41828700  1
  O  O91  1  0.13702400  0.36247700  0.58171300  1
  O  O92  1  0.62692900  0.36708700  0.95630500  1
  O  O93  1  0.12692900  0.63291300  0.04369500  1
  O  O94  1  0.12692900  0.86708700  0.54369500  1
  O  O95  1  0.62692900  0.13291300  0.45630500  1
  O  O96  1  0.69340400  0.18929500  0.86941400  1
  O  O97  1  0.19340400  0.81070500  0.13058600  1
  O  O98  1  0.19340400  0.68929500  0.63058600  1
  O  O99  1  0.69340400  0.31070500  0.36941400  1
  O  O100  1  0.52626700  0.14505500  0.99136800  1
  O  O101  1  0.02626700  0.85494500  0.00863200  1
  O  O102  1  0.02626700  0.64505500  0.50863200  1
  O  O103  1  0.52626700  0.35494500  0.49136800  1
