# generated using pymatgen
data_Rb3V2ZnP4O17
_symmetry_space_group_name_H-M   'P 1'
_cell_length_a   7.22911100
_cell_length_b   9.60343000
_cell_length_c   23.53568800
_cell_angle_alpha   90.00000000
_cell_angle_beta   90.00000000
_cell_angle_gamma   90.00000000
_symmetry_Int_Tables_number   1
_chemical_formula_structural   Rb3V2ZnP4O17
_chemical_formula_sum   'Rb12 V8 Zn4 P16 O68'
_cell_volume   1633.94775713
_cell_formula_units_Z   4
loop_
 _symmetry_equiv_pos_site_id
 _symmetry_equiv_pos_as_xyz
  1  'x, y, z'
loop_
 _atom_site_type_symbol
 _atom_site_label
 _atom_site_symmetry_multiplicity
 _atom_site_fract_x
 _atom_site_fract_y
 _atom_site_fract_z
 _atom_site_occupancy
  Rb  Rb0  1  0.73043300  0.61235600  0.55575300  1
  Rb  Rb1  1  0.76956700  0.38764400  0.05575300  1
  Rb  Rb2  1  0.23043300  0.88764400  0.44424700  1
  Rb  Rb3  1  0.26956700  0.11235600  0.94424700  1
  Rb  Rb4  1  0.73112700  0.15244400  0.65871500  1
  Rb  Rb5  1  0.76887300  0.84755600  0.15871500  1
  Rb  Rb6  1  0.23112700  0.34755600  0.34128500  1
  Rb  Rb7  1  0.26887300  0.65244400  0.84128500  1
  Rb  Rb8  1  0.21210400  0.42270000  0.66446500  1
  Rb  Rb9  1  0.28789600  0.57730000  0.16446500  1
  Rb  Rb10  1  0.71210400  0.07730000  0.33553500  1
  Rb  Rb11  1  0.78789600  0.92270000  0.83553500  1
  V  V12  1  0.95482200  0.24929500  0.50803200  1
  V  V13  1  0.54517800  0.75070500  0.00803200  1
  V  V14  1  0.45482200  0.25070500  0.49196800  1
  V  V15  1  0.04517800  0.74929500  0.99196800  1
  V  V16  1  0.22332000  0.02019600  0.74410800  1
  V  V17  1  0.27668000  0.97980400  0.24410800  1
  V  V18  1  0.72332000  0.47980400  0.25589200  1
  V  V19  1  0.77668000  0.52019600  0.75589200  1
  Zn  Zn20  1  0.22718400  0.77133900  0.59825600  1
  Zn  Zn21  1  0.27281600  0.22866100  0.09825600  1
  Zn  Zn22  1  0.72718400  0.72866100  0.40174400  1
  Zn  Zn23  1  0.77281600  0.27133900  0.90174400  1
  P  P24  1  0.25394000  0.10323200  0.59488200  1
  P  P25  1  0.24606000  0.89676800  0.09488200  1
  P  P26  1  0.75394000  0.39676800  0.40511800  1
  P  P27  1  0.74606000  0.60323200  0.90511800  1
  P  P28  1  0.22011500  0.52065300  0.49662200  1
  P  P29  1  0.27988500  0.47934700  0.99662200  1
  P  P30  1  0.72011500  0.97934700  0.50337800  1
  P  P31  1  0.77988500  0.02065300  0.00337800  1
  P  P32  1  0.49517200  0.24499800  0.80435400  1
  P  P33  1  0.00482800  0.75500200  0.30435400  1
  P  P34  1  0.99517200  0.25500200  0.19564600  1
  P  P35  1  0.50482800  0.74499800  0.69564600  1
  P  P36  1  0.08283500  0.29457000  0.80535900  1
  P  P37  1  0.41716500  0.70543000  0.30535900  1
  P  P38  1  0.58283500  0.20543000  0.19464100  1
  P  P39  1  0.91716500  0.79457000  0.69464100  1
  O  O40  1  0.07473200  0.19959800  0.75277100  1
  O  O41  1  0.42526800  0.80040200  0.25277100  1
  O  O42  1  0.57473200  0.30040200  0.24722900  1
  O  O43  1  0.92526800  0.69959800  0.74722900  1
  O  O44  1  0.00970600  0.44101000  0.79261900  1
  O  O45  1  0.49029400  0.55899000  0.29261900  1
  O  O46  1  0.50970600  0.05899000  0.20738100  1
  O  O47  1  0.99029400  0.94101000  0.70738100  1
  O  O48  1  0.06901200  0.17937300  0.57710000  1
  O  O49  1  0.43098800  0.82062700  0.07710000  1
  O  O50  1  0.56901200  0.32062700  0.42290000  1
  O  O51  1  0.93098800  0.67937300  0.92290000  1
  O  O52  1  0.91512500  0.30468000  0.43112200  1
  O  O53  1  0.58487500  0.69532000  0.93112200  1
  O  O54  1  0.41512500  0.19532000  0.56887800  1
  O  O55  1  0.08487500  0.80468000  0.06887800  1
  O  O56  1  0.06143700  0.42684800  0.52443600  1
  O  O57  1  0.43856300  0.57315200  0.02443600  1
  O  O58  1  0.56143700  0.07315200  0.47556400  1
  O  O59  1  0.93856300  0.92684800  0.97556400  1
  O  O60  1  0.27565200  0.11261200  0.65919900  1
  O  O61  1  0.22434800  0.88738800  0.15919900  1
  O  O62  1  0.77565200  0.38738800  0.34080100  1
  O  O63  1  0.72434800  0.61261200  0.84080100  1
  O  O64  1  0.90687700  0.06005600  0.48619900  1
  O  O65  1  0.59312300  0.93994400  0.98619900  1
  O  O66  1  0.40687700  0.43994400  0.51380100  1
  O  O67  1  0.09312300  0.56005600  0.01380100  1
  O  O68  1  0.62596500  0.35542200  0.78223800  1
  O  O69  1  0.87403500  0.64457800  0.28223800  1
  O  O70  1  0.12596500  0.14457800  0.21776200  1
  O  O71  1  0.37403500  0.85542200  0.71776200  1
  O  O72  1  0.74433000  0.28712600  0.53144300  1
  O  O73  1  0.75567000  0.71287400  0.03144300  1
  O  O74  1  0.24433000  0.21287400  0.46855700  1
  O  O75  1  0.25567000  0.78712600  0.96855700  1
  O  O76  1  0.25923800  0.95725300  0.56942100  1
  O  O77  1  0.24076200  0.04274700  0.06942100  1
  O  O78  1  0.75923800  0.54274700  0.43057900  1
  O  O79  1  0.74076200  0.45725300  0.93057900  1
  O  O80  1  0.43639200  0.68253100  0.63938100  1
  O  O81  1  0.06360800  0.31746900  0.13938100  1
  O  O82  1  0.93639200  0.81746900  0.36061900  1
  O  O83  1  0.56360800  0.18253100  0.86061900  1
  O  O84  1  0.45835800  0.12994300  0.76041500  1
  O  O85  1  0.04164200  0.87005700  0.26041500  1
  O  O86  1  0.95835800  0.37005700  0.23958500  1
  O  O87  1  0.54164200  0.62994300  0.73958500  1
  O  O88  1  0.21539400  0.65965500  0.52892400  1
  O  O89  1  0.28460600  0.34034500  0.02892400  1
  O  O90  1  0.71539400  0.84034500  0.47107600  1
  O  O91  1  0.78460600  0.15965500  0.97107600  1
  O  O92  1  0.99895100  0.72866700  0.64129600  1
  O  O93  1  0.50104900  0.27133300  0.14129600  1
  O  O94  1  0.49895100  0.77133300  0.35870400  1
  O  O95  1  0.00104900  0.22866700  0.85870400  1
  O  O96  1  0.30126600  0.32422300  0.81728500  1
  O  O97  1  0.19873400  0.67577700  0.31728500  1
  O  O98  1  0.80126600  0.17577700  0.18271500  1
  O  O99  1  0.69873400  0.82422300  0.68271500  1
  O  O100  1  0.18700400  0.96032800  0.80933900  1
  O  O101  1  0.31299600  0.03967200  0.30933900  1
  O  O102  1  0.68700400  0.53967200  0.19066100  1
  O  O103  1  0.81299600  0.46032800  0.69066100  1
  O  O104  1  0.20042000  0.53701200  0.43371200  1
  O  O105  1  0.29958000  0.46298800  0.93371200  1
  O  O106  1  0.70042000  0.96298800  0.56628800  1
  O  O107  1  0.79958000  0.03701200  0.06628800  1
