# generated using pymatgen
data_SbC2SCl3O
_symmetry_space_group_name_H-M   'P 1'
_cell_length_a   9.54408200
_cell_length_b   7.64534700
_cell_length_c   30.14528865
_cell_angle_alpha   89.67276823
_cell_angle_beta   90.00000000
_cell_angle_gamma   90.00000000
_symmetry_Int_Tables_number   1
_chemical_formula_structural   SbC2SCl3O
_chemical_formula_sum   'Sb8 C16 S8 Cl24 O8'
_cell_volume   2199.60008184
_cell_formula_units_Z   8
loop_
 _symmetry_equiv_pos_site_id
 _symmetry_equiv_pos_as_xyz
  1  'x, y, z'
loop_
 _atom_site_type_symbol
 _atom_site_label
 _atom_site_symmetry_multiplicity
 _atom_site_fract_x
 _atom_site_fract_y
 _atom_site_fract_z
 _atom_site_occupancy
  Sb  Sb0  1  0.17828700  0.03178800  0.87622100  1
  Sb  Sb1  1  0.67828700  0.96821200  0.62377900  1
  Sb  Sb2  1  0.82171300  0.96821200  0.12377900  1
  Sb  Sb3  1  0.32171300  0.03178800  0.37622100  1
  Sb  Sb4  1  0.34224900  0.53120400  0.88686400  1
  Sb  Sb5  1  0.84224900  0.46879600  0.61313600  1
  Sb  Sb6  1  0.65775100  0.46879600  0.11313600  1
  Sb  Sb7  1  0.15775100  0.53120400  0.38686400  1
  C  C8  1  0.64192100  0.82724400  0.77064500  1
  C  C9  1  0.14192100  0.17275600  0.72935500  1
  C  C10  1  0.35807900  0.17275600  0.22935500  1
  C  C11  1  0.85807900  0.82724400  0.27064500  1
  C  C12  1  0.76685200  0.81282800  0.78705800  1
  C  C13  1  0.26685200  0.18717200  0.71294200  1
  C  C14  1  0.23314800  0.18717200  0.21294200  1
  C  C15  1  0.73314800  0.81282800  0.28705800  1
  C  C16  1  0.72588700  0.29901000  0.99519300  1
  C  C17  1  0.22588700  0.70099000  0.50480700  1
  C  C18  1  0.27411300  0.70099000  0.00480700  1
  C  C19  1  0.77411300  0.29901000  0.49519300  1
  C  C20  1  0.77895600  0.21217200  0.96244900  1
  C  C21  1  0.27895600  0.78782800  0.53755100  1
  C  C22  1  0.22104400  0.78782800  0.03755100  1
  C  C23  1  0.72104400  0.21217200  0.46244900  1
  S  S24  1  0.92257900  0.89241800  0.78721900  1
  S  S25  1  0.42257900  0.10758200  0.71278100  1
  S  S26  1  0.07742100  0.10758200  0.21278100  1
  S  S27  1  0.57742100  0.89241800  0.28721900  1
  S  S28  1  0.86479800  0.22345800  0.91690600  1
  S  S29  1  0.36479800  0.77654200  0.58309400  1
  S  S30  1  0.13520200  0.77654200  0.08309400  1
  S  S31  1  0.63520200  0.22345800  0.41690600  1
  Cl  Cl32  1  0.09690600  0.30072100  0.83274700  1
  Cl  Cl33  1  0.59690600  0.69927900  0.66725300  1
  Cl  Cl34  1  0.90309400  0.69927900  0.16725300  1
  Cl  Cl35  1  0.40309400  0.30072100  0.33274700  1
  Cl  Cl36  1  0.10744700  0.78551800  0.92707200  1
  Cl  Cl37  1  0.60744700  0.21448200  0.57292800  1
  Cl  Cl38  1  0.89255300  0.21448200  0.07292800  1
  Cl  Cl39  1  0.39255300  0.78551800  0.42707200  1
  Cl  Cl40  1  0.21242200  0.20719200  0.94245900  1
  Cl  Cl41  1  0.71242200  0.79280800  0.55754100  1
  Cl  Cl42  1  0.78757800  0.79280800  0.05754100  1
  Cl  Cl43  1  0.28757800  0.20719200  0.44245900  1
  Cl  Cl44  1  0.48806300  0.30827900  0.85149100  1
  Cl  Cl45  1  0.98806300  0.69172100  0.64850900  1
  Cl  Cl46  1  0.51193700  0.69172100  0.14850900  1
  Cl  Cl47  1  0.01193700  0.30827900  0.35149100  1
  Cl  Cl48  1  0.36048700  0.75200000  0.82735300  1
  Cl  Cl49  1  0.86048700  0.24800000  0.67264700  1
  Cl  Cl50  1  0.63951300  0.24800000  0.17264700  1
  Cl  Cl51  1  0.13951300  0.75200000  0.32735300  1
  Cl  Cl52  1  0.53102200  0.64896400  0.92824700  1
  Cl  Cl53  1  0.03102200  0.35103600  0.57175300  1
  Cl  Cl54  1  0.46897800  0.35103600  0.07175300  1
  Cl  Cl55  1  0.96897800  0.64896400  0.42824700  1
  O  O56  1  0.01300400  0.82915700  0.82414400  1
  O  O57  1  0.51300400  0.17084300  0.67585600  1
  O  O58  1  0.98699600  0.17084300  0.17585600  1
  O  O59  1  0.48699600  0.82915700  0.32414400  1
  O  O60  1  0.89617600  0.05017500  0.89626900  1
  O  O61  1  0.39617600  0.94982500  0.60373100  1
  O  O62  1  0.10382400  0.94982500  0.10373100  1
  O  O63  1  0.60382400  0.05017500  0.39626900  1
