# generated using pymatgen
data_Cr2NiH20(NO7)2
_symmetry_space_group_name_H-M   'P 1'
_cell_length_a   6.39298342
_cell_length_b   9.43001718
_cell_length_c   12.69824400
_cell_angle_alpha   90.00000000
_cell_angle_beta   90.00000000
_cell_angle_gamma   106.25928309
_symmetry_Int_Tables_number   1
_chemical_formula_structural   Cr2NiH20(NO7)2
_chemical_formula_sum   'Cr4 Ni2 H40 N4 O28'
_cell_volume   734.90804336
_cell_formula_units_Z   2
loop_
 _symmetry_equiv_pos_site_id
 _symmetry_equiv_pos_as_xyz
  1  'x, y, z'
loop_
 _atom_site_type_symbol
 _atom_site_label
 _atom_site_symmetry_multiplicity
 _atom_site_fract_x
 _atom_site_fract_y
 _atom_site_fract_z
 _atom_site_occupancy
  Cr  Cr0  1  0.74095700  0.90787000  0.36399900  1
  Cr  Cr1  1  0.25904300  0.59213000  0.86399900  1
  Cr  Cr2  1  0.25904300  0.09213000  0.63600100  1
  Cr  Cr3  1  0.74095700  0.40787000  0.13600100  1
  Ni  Ni4  1  0.00000000  0.50000000  0.50000000  1
  Ni  Ni5  1  0.00000000  0.00000000  0.00000000  1
  H  H6  1  0.19935700  0.06239100  0.32980700  1
  H  H7  1  0.80064300  0.43760900  0.82980700  1
  H  H8  1  0.80064300  0.93760900  0.67019300  1
  H  H9  1  0.19935700  0.56239100  0.17019300  1
  H  H10  1  0.38652700  0.22516700  0.29453100  1
  H  H11  1  0.61347300  0.27483300  0.79453100  1
  H  H12  1  0.61347300  0.77483300  0.70546900  1
  H  H13  1  0.38652700  0.72516700  0.20546900  1
  H  H14  1  0.46238800  0.07200900  0.32355600  1
  H  H15  1  0.53761200  0.42799100  0.82355600  1
  H  H16  1  0.53761200  0.92799100  0.67644400  1
  H  H17  1  0.46238800  0.57200900  0.17644400  1
  H  H18  1  0.37191900  0.16673300  0.42114900  1
  H  H19  1  0.62808100  0.33326700  0.92114900  1
  H  H20  1  0.62808100  0.83326700  0.57885100  1
  H  H21  1  0.37191900  0.66673300  0.07885100  1
  H  H22  1  0.32078700  0.70982700  0.41778800  1
  H  H23  1  0.67921300  0.79017300  0.91778800  1
  H  H24  1  0.67921300  0.29017300  0.58221200  1
  H  H25  1  0.32078700  0.20982700  0.08221200  1
  H  H26  1  0.10143800  0.74318400  0.37713600  1
  H  H27  1  0.89856200  0.75681600  0.87713600  1
  H  H28  1  0.89856200  0.25681600  0.62286400  1
  H  H29  1  0.10143800  0.24318400  0.12286400  1
  H  H30  1  0.94282800  0.24097200  0.40729900  1
  H  H31  1  0.05717200  0.25902800  0.90729900  1
  H  H32  1  0.05717200  0.75902800  0.59270100  1
  H  H33  1  0.94282800  0.74097200  0.09270100  1
  H  H34  1  0.01199100  0.36254000  0.31719000  1
  H  H35  1  0.98800900  0.13746000  0.81719000  1
  H  H36  1  0.98800900  0.63746000  0.68281000  1
  H  H37  1  0.01199100  0.86254000  0.18281000  1
  H  H38  1  0.33571200  0.40403300  0.55399000  1
  H  H39  1  0.66428800  0.09596700  0.05399000  1
  H  H40  1  0.66428800  0.59596700  0.44601000  1
  H  H41  1  0.33571200  0.90403300  0.94601000  1
  H  H42  1  0.32949200  0.52593100  0.63947800  1
  H  H43  1  0.67050800  0.97406900  0.13947800  1
  H  H44  1  0.67050800  0.47406900  0.36052200  1
  H  H45  1  0.32949200  0.02593100  0.86052200  1
  N  N46  1  0.35470000  0.13253700  0.34222200  1
  N  N47  1  0.64530100  0.36746300  0.84222200  1
  N  N48  1  0.64530100  0.86746300  0.65777800  1
  N  N49  1  0.35470000  0.63253700  0.15777800  1
  O  O50  1  0.57310800  0.91445900  0.26396700  1
  O  O51  1  0.42689200  0.58554100  0.76396700  1
  O  O52  1  0.42689200  0.08554100  0.73603300  1
  O  O53  1  0.57310800  0.41445900  0.23603300  1
  O  O54  1  0.79499100  0.06552600  0.42820700  1
  O  O55  1  0.20500900  0.43447400  0.92820700  1
  O  O56  1  0.20500900  0.93447400  0.57179300  1
  O  O57  1  0.79499100  0.56552600  0.07179300  1
  O  O58  1  0.61246900  0.77125200  0.44545700  1
  O  O59  1  0.38753100  0.72874800  0.94545700  1
  O  O60  1  0.38753100  0.22874800  0.55454300  1
  O  O61  1  0.61246900  0.27125200  0.05454300  1
  O  O62  1  0.97290900  0.88082500  0.31773100  1
  O  O63  1  0.02709100  0.61917500  0.81773100  1
  O  O64  1  0.02709100  0.11917500  0.68226900  1
  O  O65  1  0.97290900  0.38082500  0.18226900  1
  O  O66  1  0.16804600  0.66343800  0.39503600  1
  O  O67  1  0.83195400  0.83656200  0.89503600  1
  O  O68  1  0.83195400  0.33656200  0.60496400  1
  O  O69  1  0.16804600  0.16343800  0.10496400  1
  O  O70  1  0.03601600  0.34304700  0.39267000  1
  O  O71  1  0.96398400  0.15695300  0.89267000  1
  O  O72  1  0.96398400  0.65695300  0.60733000  1
  O  O73  1  0.03601600  0.84304700  0.10733000  1
  O  O74  1  0.29238100  0.49604800  0.56515000  1
  O  O75  1  0.70761900  0.00395200  0.06515000  1
  O  O76  1  0.70761900  0.50395200  0.43485000  1
  O  O77  1  0.29238100  0.99604800  0.93485000  1
