# generated using pymatgen
data_K3Mg18Sn11
_symmetry_space_group_name_H-M   'P 1'
_cell_length_a   11.91319294
_cell_length_b   11.91319294
_cell_length_c   13.93665600
_cell_angle_alpha   90.00000000
_cell_angle_beta   90.00000000
_cell_angle_gamma   120.00000523
_symmetry_Int_Tables_number   1
_chemical_formula_structural   K3Mg18Sn11
_chemical_formula_sum   'K6 Mg36 Sn22'
_cell_volume   1712.95336814
_cell_formula_units_Z   2
loop_
 _symmetry_equiv_pos_site_id
 _symmetry_equiv_pos_as_xyz
  1  'x, y, z'
loop_
 _atom_site_type_symbol
 _atom_site_label
 _atom_site_symmetry_multiplicity
 _atom_site_fract_x
 _atom_site_fract_y
 _atom_site_fract_z
 _atom_site_occupancy
  K  K0  1  0.66666700  0.33333300  0.08268600  1
  K  K1  1  0.33333300  0.66666700  0.58268600  1
  K  K2  1  0.33333300  0.66666700  0.91731400  1
  K  K3  1  0.66666700  0.33333300  0.41731400  1
  K  K4  1  0.33333300  0.66666700  0.25000000  1
  K  K5  1  0.66666700  0.33333300  0.75000000  1
  Mg  Mg6  1  0.10982200  0.85439800  0.25000000  1
  Mg  Mg7  1  0.14560200  0.25542400  0.25000000  1
  Mg  Mg8  1  0.74457600  0.89017800  0.25000000  1
  Mg  Mg9  1  0.89017800  0.14560200  0.75000000  1
  Mg  Mg10  1  0.85439800  0.74457600  0.75000000  1
  Mg  Mg11  1  0.25542400  0.10982200  0.75000000  1
  Mg  Mg12  1  0.85286400  0.73096500  0.08364000  1
  Mg  Mg13  1  0.26903500  0.12189900  0.08364000  1
  Mg  Mg14  1  0.87810100  0.14713600  0.08364000  1
  Mg  Mg15  1  0.14713600  0.26903500  0.58364000  1
  Mg  Mg16  1  0.73096500  0.87810100  0.58364000  1
  Mg  Mg17  1  0.12189900  0.85286400  0.58364000  1
  Mg  Mg18  1  0.14713600  0.26903500  0.91636000  1
  Mg  Mg19  1  0.73096500  0.87810100  0.91636000  1
  Mg  Mg20  1  0.12189900  0.85286400  0.91636000  1
  Mg  Mg21  1  0.85286400  0.73096500  0.41636000  1
  Mg  Mg22  1  0.26903500  0.12189900  0.41636000  1
  Mg  Mg23  1  0.87810100  0.14713600  0.41636000  1
  Mg  Mg24  1  0.62646800  0.56722500  0.25000000  1
  Mg  Mg25  1  0.43277500  0.05924400  0.25000000  1
  Mg  Mg26  1  0.94075600  0.37353200  0.25000000  1
  Mg  Mg27  1  0.37353200  0.43277500  0.75000000  1
  Mg  Mg28  1  0.56722500  0.94075600  0.75000000  1
  Mg  Mg29  1  0.05924400  0.62646800  0.75000000  1
  Mg  Mg30  1  0.05700700  0.62287100  0.08366600  1
  Mg  Mg31  1  0.37712900  0.43413500  0.08366600  1
  Mg  Mg32  1  0.56586500  0.94299300  0.08366600  1
  Mg  Mg33  1  0.94299300  0.37712900  0.58366600  1
  Mg  Mg34  1  0.62287100  0.56586500  0.58366600  1
  Mg  Mg35  1  0.43413500  0.05700700  0.58366600  1
  Mg  Mg36  1  0.94299300  0.37712900  0.91633400  1
  Mg  Mg37  1  0.62287100  0.56586500  0.91633400  1
  Mg  Mg38  1  0.43413500  0.05700700  0.91633400  1
  Mg  Mg39  1  0.05700700  0.62287100  0.41633400  1
  Mg  Mg40  1  0.37712900  0.43413500  0.41633400  1
  Mg  Mg41  1  0.56586500  0.94299300  0.41633400  1
  Sn  Sn42  1  0.00000000  0.00000000  0.14016700  1
  Sn  Sn43  1  0.00000000  0.00000000  0.64016700  1
  Sn  Sn44  1  0.00000000  0.00000000  0.85983300  1
  Sn  Sn45  1  0.00000000  0.00000000  0.35983300  1
  Sn  Sn46  1  0.29593400  0.88668100  0.08403500  1
  Sn  Sn47  1  0.11331900  0.40925300  0.08403500  1
  Sn  Sn48  1  0.59074700  0.70406600  0.08403500  1
  Sn  Sn49  1  0.70406600  0.11331900  0.58403500  1
  Sn  Sn50  1  0.88668100  0.59074700  0.58403500  1
  Sn  Sn51  1  0.40925300  0.29593400  0.58403500  1
  Sn  Sn52  1  0.70406600  0.11331900  0.91596500  1
  Sn  Sn53  1  0.88668100  0.59074700  0.91596500  1
  Sn  Sn54  1  0.40925300  0.29593400  0.91596500  1
  Sn  Sn55  1  0.29593400  0.88668100  0.41596500  1
  Sn  Sn56  1  0.11331900  0.40925300  0.41596500  1
  Sn  Sn57  1  0.59074700  0.70406600  0.41596500  1
  Sn  Sn58  1  0.88589400  0.58527500  0.25000000  1
  Sn  Sn59  1  0.41472500  0.30061900  0.25000000  1
  Sn  Sn60  1  0.69938100  0.11410600  0.25000000  1
  Sn  Sn61  1  0.11410600  0.41472500  0.75000000  1
  Sn  Sn62  1  0.58527500  0.69938100  0.75000000  1
  Sn  Sn63  1  0.30061900  0.88589400  0.75000000  1
