# generated using pymatgen
data_AgSNO3
_symmetry_space_group_name_H-M   'P 1'
_cell_length_a   10.77490600
_cell_length_b   10.77490572
_cell_length_c   5.24789400
_cell_angle_alpha   90.00000000
_cell_angle_beta   90.00000000
_cell_angle_gamma   120.00000085
_symmetry_Int_Tables_number   1
_chemical_formula_structural   AgSNO3
_chemical_formula_sum   'Ag6 S6 N6 O18'
_cell_volume   527.64600138
_cell_formula_units_Z   6
loop_
 _symmetry_equiv_pos_site_id
 _symmetry_equiv_pos_as_xyz
  1  'x, y, z'
loop_
 _atom_site_type_symbol
 _atom_site_label
 _atom_site_symmetry_multiplicity
 _atom_site_fract_x
 _atom_site_fract_y
 _atom_site_fract_z
 _atom_site_occupancy
  Ag  Ag0  1  0.56813300  0.64509000  0.50549800  1
  Ag  Ag1  1  0.07695600  0.43186700  0.50549800  1
  Ag  Ag2  1  0.35491000  0.92304400  0.50549800  1
  Ag  Ag3  1  0.92304400  0.35491000  0.00549800  1
  Ag  Ag4  1  0.64509000  0.56813300  0.00549800  1
  Ag  Ag5  1  0.43186700  0.07695600  0.00549800  1
  S  S6  1  0.70559500  0.20525800  0.51614100  1
  S  S7  1  0.49966400  0.29440500  0.51614100  1
  S  S8  1  0.79474200  0.50033600  0.51614100  1
  S  S9  1  0.50033600  0.79474200  0.01614100  1
  S  S10  1  0.20525800  0.70559500  0.01614100  1
  S  S11  1  0.29440500  0.49966400  0.01614100  1
  N  N12  1  0.54712800  0.17638000  0.61223300  1
  N  N13  1  0.62925200  0.45287200  0.61223300  1
  N  N14  1  0.82362000  0.37074800  0.61223300  1
  N  N15  1  0.37074800  0.82362000  0.11223300  1
  N  N16  1  0.17638000  0.54712800  0.11223300  1
  N  N17  1  0.45287200  0.62925200  0.11223300  1
  O  O18  1  0.70332400  0.19850300  0.23605500  1
  O  O19  1  0.49517900  0.29667600  0.23605500  1
  O  O20  1  0.80149700  0.50482100  0.23605500  1
  O  O21  1  0.50482100  0.80149700  0.73605500  1
  O  O22  1  0.19850300  0.70332400  0.73605500  1
  O  O23  1  0.29667600  0.49517900  0.73605500  1
  O  O24  1  0.73802900  0.10998600  0.65309700  1
  O  O25  1  0.37195700  0.26197100  0.65309700  1
  O  O26  1  0.89001400  0.62804300  0.65309700  1
  O  O27  1  0.62804300  0.89001400  0.15309700  1
  O  O28  1  0.10998600  0.73802900  0.15309700  1
  O  O29  1  0.26197100  0.37195700  0.15309700  1
  O  O30  1  0.81500500  0.77930200  0.04417600  1
  O  O31  1  0.96429600  0.18499500  0.04417600  1
  O  O32  1  0.22069800  0.03570400  0.04417600  1
  O  O33  1  0.03570400  0.22069800  0.54417600  1
  O  O34  1  0.77930200  0.81500500  0.54417600  1
  O  O35  1  0.18499500  0.96429600  0.54417600  1
