# generated using pymatgen
data_VZnPbO5
_symmetry_space_group_name_H-M   'P 1'
_cell_length_a   6.10352200
_cell_length_b   7.75329200
_cell_length_c   9.40490200
_cell_angle_alpha   90.00000000
_cell_angle_beta   90.00000000
_cell_angle_gamma   90.00000000
_symmetry_Int_Tables_number   1
_chemical_formula_structural   VZnPbO5
_chemical_formula_sum   'V4 Zn4 Pb4 O20'
_cell_volume   445.06242432
_cell_formula_units_Z   4
loop_
 _symmetry_equiv_pos_site_id
 _symmetry_equiv_pos_as_xyz
  1  'x, y, z'
loop_
 _atom_site_type_symbol
 _atom_site_label
 _atom_site_symmetry_multiplicity
 _atom_site_fract_x
 _atom_site_fract_y
 _atom_site_fract_z
 _atom_site_occupancy
  V  V0  1  0.25000000  0.63713900  0.68732500  1
  V  V1  1  0.25000000  0.13713900  0.81267500  1
  V  V2  1  0.75000000  0.36286100  0.31267500  1
  V  V3  1  0.75000000  0.86286100  0.18732500  1
  Zn  Zn4  1  0.00000000  0.00000000  0.50000000  1
  Zn  Zn5  1  0.50000000  0.50000000  0.00000000  1
  Zn  Zn6  1  0.50000000  0.00000000  0.50000000  1
  Zn  Zn7  1  0.00000000  0.50000000  0.00000000  1
  Pb  Pb8  1  0.75000000  0.37157500  0.68073800  1
  Pb  Pb9  1  0.75000000  0.87157500  0.81926200  1
  Pb  Pb10  1  0.25000000  0.62842500  0.31926200  1
  Pb  Pb11  1  0.25000000  0.12842500  0.18073800  1
  O  O12  1  0.49511500  0.62775900  0.79120100  1
  O  O13  1  0.00488500  0.12775900  0.70879900  1
  O  O14  1  0.99511500  0.37224100  0.20879900  1
  O  O15  1  0.50488500  0.87224100  0.29120100  1
  O  O16  1  0.50488500  0.37224100  0.20879900  1
  O  O17  1  0.99511500  0.87224100  0.29120100  1
  O  O18  1  0.00488500  0.62775900  0.79120100  1
  O  O19  1  0.49511500  0.12775900  0.70879900  1
  O  O20  1  0.25000000  0.45826900  0.58468000  1
  O  O21  1  0.25000000  0.95826900  0.91532000  1
  O  O22  1  0.75000000  0.54173100  0.41532000  1
  O  O23  1  0.75000000  0.04173100  0.08468000  1
  O  O24  1  0.25000000  0.81416200  0.56892500  1
  O  O25  1  0.25000000  0.31416200  0.93107500  1
  O  O26  1  0.75000000  0.18583800  0.43107500  1
  O  O27  1  0.75000000  0.68583800  0.06892500  1
  O  O28  1  0.75000000  0.86713800  0.57226700  1
  O  O29  1  0.75000000  0.36713800  0.92773300  1
  O  O30  1  0.25000000  0.13286200  0.42773300  1
  O  O31  1  0.25000000  0.63286200  0.07226700  1
