# generated using pymatgen
data_OsXe2O3F14
_symmetry_space_group_name_H-M   'P 1'
_cell_length_a   8.43495600
_cell_length_b   10.01945700
_cell_length_c   15.86634900
_cell_angle_alpha   90.00000000
_cell_angle_beta   90.00000000
_cell_angle_gamma   90.00000000
_symmetry_Int_Tables_number   1
_chemical_formula_structural   OsXe2O3F14
_chemical_formula_sum   'Os4 Xe8 O12 F56'
_cell_volume   1340.92352532
_cell_formula_units_Z   4
loop_
 _symmetry_equiv_pos_site_id
 _symmetry_equiv_pos_as_xyz
  1  'x, y, z'
loop_
 _atom_site_type_symbol
 _atom_site_label
 _atom_site_symmetry_multiplicity
 _atom_site_fract_x
 _atom_site_fract_y
 _atom_site_fract_z
 _atom_site_occupancy
  Os  Os0  1  0.59803000  0.69959900  0.25000000  1
  Os  Os1  1  0.90197000  0.19959900  0.25000000  1
  Os  Os2  1  0.40197000  0.30040100  0.75000000  1
  Os  Os3  1  0.09803000  0.80040100  0.75000000  1
  Xe  Xe4  1  0.98703300  0.74356100  0.38818800  1
  Xe  Xe5  1  0.51296700  0.24356100  0.11181200  1
  Xe  Xe6  1  0.01296700  0.25643900  0.88818800  1
  Xe  Xe7  1  0.48703300  0.75643900  0.61181200  1
  Xe  Xe8  1  0.01296700  0.25643900  0.61181200  1
  Xe  Xe9  1  0.48703300  0.75643900  0.88818800  1
  Xe  Xe10  1  0.98703300  0.74356100  0.11181200  1
  Xe  Xe11  1  0.51296700  0.24356100  0.38818800  1
  O  O12  1  0.46430100  0.82866000  0.25000000  1
  O  O13  1  0.03569900  0.32866000  0.25000000  1
  O  O14  1  0.53569900  0.17134000  0.75000000  1
  O  O15  1  0.96430100  0.67134000  0.75000000  1
  O  O16  1  0.53908000  0.60466200  0.33413400  1
  O  O17  1  0.96092000  0.10466200  0.16586600  1
  O  O18  1  0.46092000  0.39533800  0.83413400  1
  O  O19  1  0.03908000  0.89533800  0.66586600  1
  O  O20  1  0.46092000  0.39533800  0.66586600  1
  O  O21  1  0.03908000  0.89533800  0.83413400  1
  O  O22  1  0.53908000  0.60466200  0.16586600  1
  O  O23  1  0.96092000  0.10466200  0.33413400  1
  F  F24  1  0.83019600  0.60650800  0.42721400  1
  F  F25  1  0.66980400  0.10650800  0.07278600  1
  F  F26  1  0.16980400  0.39349200  0.92721400  1
  F  F27  1  0.33019600  0.89349200  0.57278600  1
  F  F28  1  0.16980400  0.39349200  0.57278600  1
  F  F29  1  0.33019600  0.89349200  0.92721400  1
  F  F30  1  0.83019600  0.60650800  0.07278600  1
  F  F31  1  0.66980400  0.10650800  0.42721400  1
  F  F32  1  0.81294700  0.61597300  0.25000000  1
  F  F33  1  0.68705300  0.11597300  0.25000000  1
  F  F34  1  0.18705300  0.38402700  0.75000000  1
  F  F35  1  0.31294700  0.88402700  0.75000000  1
  F  F36  1  0.08537000  0.68141100  0.49435800  1
  F  F37  1  0.41463000  0.18141100  0.00564200  1
  F  F38  1  0.91463000  0.31858900  0.99435800  1
  F  F39  1  0.58537000  0.81858900  0.50564200  1
  F  F40  1  0.91463000  0.31858900  0.50564200  1
  F  F41  1  0.58537000  0.81858900  0.99435800  1
  F  F42  1  0.08537000  0.68141100  0.00564200  1
  F  F43  1  0.41463000  0.18141100  0.49435800  1
  F  F44  1  0.11875400  0.59492100  0.34217800  1
  F  F45  1  0.38124600  0.09492100  0.15782200  1
  F  F46  1  0.88124600  0.40507900  0.84217800  1
  F  F47  1  0.61875400  0.90507900  0.65782200  1
  F  F48  1  0.88124600  0.40507900  0.65782200  1
  F  F49  1  0.61875400  0.90507900  0.84217800  1
  F  F50  1  0.11875400  0.59492100  0.15782200  1
  F  F51  1  0.38124600  0.09492100  0.34217800  1
  F  F52  1  0.02507500  0.82191200  0.25000000  1
  F  F53  1  0.47492500  0.32191200  0.25000000  1
  F  F54  1  0.97492500  0.17808800  0.75000000  1
  F  F55  1  0.52507500  0.67808800  0.75000000  1
  F  F56  1  0.90071300  0.88123900  0.46681000  1
  F  F57  1  0.59928700  0.38123900  0.03319000  1
  F  F58  1  0.09928700  0.11876100  0.96681000  1
  F  F59  1  0.40071300  0.61876100  0.53319000  1
  F  F60  1  0.09928700  0.11876100  0.53319000  1
  F  F61  1  0.40071300  0.61876100  0.96681000  1
  F  F62  1  0.90071300  0.88123900  0.03319000  1
  F  F63  1  0.59928700  0.38123900  0.46681000  1
  F  F64  1  0.18229000  0.85652200  0.38907400  1
  F  F65  1  0.31771000  0.35652200  0.11092600  1
  F  F66  1  0.81771000  0.14347800  0.88907400  1
  F  F67  1  0.68229000  0.64347800  0.61092600  1
  F  F68  1  0.81771000  0.14347800  0.61092600  1
  F  F69  1  0.68229000  0.64347800  0.88907400  1
  F  F70  1  0.18229000  0.85652200  0.11092600  1
  F  F71  1  0.31771000  0.35652200  0.38907400  1
  F  F72  1  0.73179200  0.81735000  0.33209500  1
  F  F73  1  0.76820800  0.31735000  0.16790500  1
  F  F74  1  0.26820800  0.18265000  0.83209500  1
  F  F75  1  0.23179200  0.68265000  0.66790500  1
  F  F76  1  0.26820800  0.18265000  0.66790500  1
  F  F77  1  0.23179200  0.68265000  0.83209500  1
  F  F78  1  0.73179200  0.81735000  0.16790500  1
  F  F79  1  0.76820800  0.31735000  0.33209500  1
