# generated using pymatgen
data_Mn5As4(HO2)10
_symmetry_space_group_name_H-M   'P 1'
_cell_length_a   10.35930284
_cell_length_b   10.35930284
_cell_length_c   9.95338851
_cell_angle_alpha   84.48370312
_cell_angle_beta   84.48370312
_cell_angle_gamma   54.26365891
_symmetry_Int_Tables_number   1
_chemical_formula_structural   Mn5As4(HO2)10
_chemical_formula_sum   'Mn10 As8 H20 O40'
_cell_volume   861.95827999
_cell_formula_units_Z   2
loop_
 _symmetry_equiv_pos_site_id
 _symmetry_equiv_pos_as_xyz
  1  'x, y, z'
loop_
 _atom_site_type_symbol
 _atom_site_label
 _atom_site_symmetry_multiplicity
 _atom_site_fract_x
 _atom_site_fract_y
 _atom_site_fract_z
 _atom_site_occupancy
  Mn  Mn0  1  0.89530800  0.10469200  0.25000000  1
  Mn  Mn1  1  0.10469200  0.89530800  0.75000000  1
  Mn  Mn2  1  0.77374700  0.59899700  0.68587100  1
  Mn  Mn3  1  0.40100300  0.22625300  0.81412900  1
  Mn  Mn4  1  0.22625300  0.40100300  0.31412900  1
  Mn  Mn5  1  0.59899700  0.77374700  0.18587100  1
  Mn  Mn6  1  0.14577200  0.20278400  0.63713100  1
  Mn  Mn7  1  0.79721600  0.85422800  0.86286900  1
  Mn  Mn8  1  0.85422800  0.79721600  0.36286900  1
  Mn  Mn9  1  0.20278400  0.14577200  0.13713100  1
  As  As10  1  0.90339100  0.26628700  0.91204500  1
  As  As11  1  0.73371300  0.09660900  0.58795500  1
  As  As12  1  0.09660900  0.73371300  0.08795500  1
  As  As13  1  0.26628700  0.90339100  0.41204500  1
  As  As14  1  0.57868900  0.10225500  0.12546900  1
  As  As15  1  0.89774500  0.42131100  0.37453100  1
  As  As16  1  0.42131100  0.89774500  0.87453100  1
  As  As17  1  0.10225500  0.57868900  0.62546900  1
  H  H18  1  0.69054800  0.27096600  0.01423700  1
  H  H19  1  0.72903400  0.30945200  0.48576300  1
  H  H20  1  0.30945200  0.72903400  0.98576300  1
  H  H21  1  0.27096600  0.69054800  0.51423700  1
  H  H22  1  0.16692300  0.41918500  0.02516300  1
  H  H23  1  0.58081500  0.83307700  0.47483700  1
  H  H24  1  0.83307700  0.58081500  0.97483700  1
  H  H25  1  0.41918500  0.16692300  0.52516300  1
  H  H26  1  0.08851900  0.38289500  0.91551100  1
  H  H27  1  0.61710500  0.91148100  0.58448900  1
  H  H28  1  0.91148100  0.61710500  0.08448900  1
  H  H29  1  0.38289500  0.08851900  0.41551100  1
  H  H30  1  0.51573700  0.34476400  0.27606900  1
  H  H31  1  0.65523600  0.48426300  0.22393100  1
  H  H32  1  0.48426300  0.65523600  0.72393100  1
  H  H33  1  0.34476400  0.51573700  0.77606900  1
  H  H34  1  0.40005800  0.51612400  0.34700000  1
  H  H35  1  0.48387600  0.59994200  0.15300000  1
  H  H36  1  0.59994200  0.48387600  0.65300000  1
  H  H37  1  0.51612400  0.40005800  0.84700000  1
  O  O38  1  0.01547600  0.13848700  0.78649800  1
  O  O39  1  0.86151300  0.98452400  0.71350200  1
  O  O40  1  0.98452400  0.86151300  0.21350200  1
  O  O41  1  0.13848700  0.01547600  0.28649800  1
  O  O42  1  0.89071100  0.43741900  0.86568500  1
  O  O43  1  0.56258100  0.10928900  0.63431500  1
  O  O44  1  0.10928900  0.56258100  0.13431500  1
  O  O45  1  0.43741900  0.89071100  0.36568500  1
  O  O46  1  0.98089100  0.18873600  0.06783500  1
  O  O47  1  0.81126400  0.01910900  0.43216500  1
  O  O48  1  0.01910900  0.81126400  0.93216500  1
  O  O49  1  0.18873600  0.98089100  0.56783500  1
  O  O50  1  0.59862500  0.07246800  0.95374700  1
  O  O51  1  0.92753200  0.40137500  0.54625300  1
  O  O52  1  0.40137500  0.92753200  0.04625300  1
  O  O53  1  0.07246800  0.59862500  0.45374700  1
  O  O54  1  0.38156700  0.20437900  0.17800200  1
  O  O55  1  0.79562100  0.61843300  0.32199800  1
  O  O56  1  0.61843300  0.79562100  0.82199800  1
  O  O57  1  0.20437900  0.38156700  0.67800200  1
  O  O58  1  0.67722900  0.91938800  0.21136400  1
  O  O59  1  0.08061200  0.32277100  0.28863600  1
  O  O60  1  0.32277100  0.08061200  0.78863600  1
  O  O61  1  0.91938800  0.67722900  0.71136400  1
  O  O62  1  0.65800100  0.20454200  0.15787700  1
  O  O63  1  0.79545800  0.34199900  0.34212300  1
  O  O64  1  0.34199900  0.79545800  0.84212300  1
  O  O65  1  0.20454200  0.65800100  0.65787700  1
  O  O66  1  0.71052200  0.31091000  0.92190500  1
  O  O67  1  0.68909000  0.28947800  0.57809500  1
  O  O68  1  0.28947800  0.68909000  0.07809500  1
  O  O69  1  0.31091000  0.71052200  0.42190500  1
  O  O70  1  0.18201700  0.33288500  0.97216100  1
  O  O71  1  0.66711500  0.81798300  0.52783900  1
  O  O72  1  0.81798300  0.66711500  0.02783900  1
  O  O73  1  0.33288500  0.18201700  0.47216100  1
  O  O74  1  0.42344600  0.41030700  0.34095700  1
  O  O75  1  0.58969300  0.57655400  0.15904300  1
  O  O76  1  0.57655400  0.58969300  0.65904300  1
  O  O77  1  0.41030700  0.42344600  0.84095700  1
