# generated using pymatgen
data_USNO6F
_symmetry_space_group_name_H-M   'P 1'
_cell_length_a   7.17389700
_cell_length_b   8.75204500
_cell_length_c   10.95595000
_cell_angle_alpha   90.00000000
_cell_angle_beta   90.00000000
_cell_angle_gamma   90.00000000
_symmetry_Int_Tables_number   1
_chemical_formula_structural   USNO6F
_chemical_formula_sum   'U4 S4 N4 O24 F4'
_cell_volume   687.88322790
_cell_formula_units_Z   4
loop_
 _symmetry_equiv_pos_site_id
 _symmetry_equiv_pos_as_xyz
  1  'x, y, z'
loop_
 _atom_site_type_symbol
 _atom_site_label
 _atom_site_symmetry_multiplicity
 _atom_site_fract_x
 _atom_site_fract_y
 _atom_site_fract_z
 _atom_site_occupancy
  U  U0  1  0.90038600  0.61017500  0.00182300  1
  U  U1  1  0.09961400  0.38982500  0.50182300  1
  U  U2  1  0.90038600  0.88982500  0.50182300  1
  U  U3  1  0.09961400  0.11017500  0.00182300  1
  S  S4  1  0.61067800  0.97546200  0.97633100  1
  S  S5  1  0.38932200  0.02453800  0.47633100  1
  S  S6  1  0.61067800  0.52453800  0.47633100  1
  S  S7  1  0.38932200  0.47546200  0.97633100  1
  N  N8  1  0.67011300  0.15544400  0.78514900  1
  N  N9  1  0.32988700  0.84455600  0.28514900  1
  N  N10  1  0.67011300  0.34455600  0.28514900  1
  N  N11  1  0.32988700  0.65544400  0.78514900  1
  O  O12  1  0.88837500  0.59740500  0.83990000  1
  O  O13  1  0.11162500  0.40259500  0.33990000  1
  O  O14  1  0.88837500  0.90259500  0.33990000  1
  O  O15  1  0.11162500  0.09740500  0.83990000  1
  O  O16  1  0.89965100  0.62157400  0.16428500  1
  O  O17  1  0.10034900  0.37842600  0.66428500  1
  O  O18  1  0.89965100  0.87842600  0.66428500  1
  O  O19  1  0.10034900  0.12157400  0.16428500  1
  O  O20  1  0.65314900  0.81379100  0.97153500  1
  O  O21  1  0.34685100  0.18620900  0.47153500  1
  O  O22  1  0.65314900  0.68620900  0.47153500  1
  O  O23  1  0.34685100  0.31379100  0.97153500  1
  O  O24  1  0.42422900  0.00876500  0.02092000  1
  O  O25  1  0.57577100  0.99123500  0.52092000  1
  O  O26  1  0.42422900  0.49123500  0.52092000  1
  O  O27  1  0.57577100  0.50876500  0.02092000  1
  O  O28  1  0.60334100  0.02391900  0.81769800  1
  O  O29  1  0.39665900  0.97608100  0.31769800  1
  O  O30  1  0.60334100  0.47608100  0.31769800  1
  O  O31  1  0.39665900  0.52391900  0.81769800  1
  O  O32  1  0.75537300  0.07335300  0.02691800  1
  O  O33  1  0.24462700  0.92664700  0.52691800  1
  O  O34  1  0.75537300  0.42664700  0.52691800  1
  O  O35  1  0.24462700  0.57335300  0.02691800  1
  F  F36  1  0.95846000  0.34941600  0.99814100  1
  F  F37  1  0.04154000  0.65058400  0.49814100  1
  F  F38  1  0.95846000  0.15058400  0.49814100  1
  F  F39  1  0.04154000  0.84941600  0.99814100  1
