# generated using pymatgen
data_PdS(NO)3
_symmetry_space_group_name_H-M   'P 1'
_cell_length_a   6.87115500
_cell_length_b   7.50187500
_cell_length_c   14.62680495
_cell_angle_alpha   70.00222569
_cell_angle_beta   90.00000000
_cell_angle_gamma   90.00000000
_symmetry_Int_Tables_number   1
_chemical_formula_structural   PdS(NO)3
_chemical_formula_sum   'Pd4 S4 N12 O12'
_cell_volume   708.50186122
_cell_formula_units_Z   4
loop_
 _symmetry_equiv_pos_site_id
 _symmetry_equiv_pos_as_xyz
  1  'x, y, z'
loop_
 _atom_site_type_symbol
 _atom_site_label
 _atom_site_symmetry_multiplicity
 _atom_site_fract_x
 _atom_site_fract_y
 _atom_site_fract_z
 _atom_site_occupancy
  Pd  Pd0  1  0.19251500  0.06872800  0.98629100  1
  Pd  Pd1  1  0.30748500  0.06872800  0.48629100  1
  Pd  Pd2  1  0.80748500  0.93127200  0.01370900  1
  Pd  Pd3  1  0.69251500  0.93127200  0.51370900  1
  S  S4  1  0.20563600  0.34557000  0.67686100  1
  S  S5  1  0.29436400  0.34557000  0.17686100  1
  S  S6  1  0.79436400  0.65443000  0.32313900  1
  S  S7  1  0.70563600  0.65443000  0.82313900  1
  N  N8  1  0.27347200  0.93294400  0.11388000  1
  N  N9  1  0.22652800  0.93294400  0.61388000  1
  N  N10  1  0.72652800  0.06705600  0.88612000  1
  N  N11  1  0.77347200  0.06705600  0.38612000  1
  N  N12  1  0.25046900  0.31236100  0.93009200  1
  N  N13  1  0.24953100  0.31236100  0.43009200  1
  N  N14  1  0.74953100  0.68763900  0.06990800  1
  N  N15  1  0.75046900  0.68763900  0.56990800  1
  N  N16  1  0.22007600  0.88322700  0.93218300  1
  N  N17  1  0.27992400  0.88322700  0.43218300  1
  N  N18  1  0.77992400  0.11677300  0.06781700  1
  N  N19  1  0.72007600  0.11677300  0.56781700  1
  O  O20  1  0.15335900  0.53947100  0.66058300  1
  O  O21  1  0.34664100  0.53947100  0.16058300  1
  O  O22  1  0.84664100  0.46052900  0.33941700  1
  O  O23  1  0.65335900  0.46052900  0.83941700  1
  O  O24  1  0.05779000  0.20091900  0.70107900  1
  O  O25  1  0.44221000  0.20091900  0.20107900  1
  O  O26  1  0.94221000  0.79908100  0.29892100  1
  O  O27  1  0.55779000  0.79908100  0.79892100  1
  O  O28  1  0.40534200  0.29631700  0.66790200  1
  O  O29  1  0.09465800  0.29631700  0.16790200  1
  O  O30  1  0.59465800  0.70368300  0.33209800  1
  O  O31  1  0.90534200  0.70368300  0.83209800  1
