# generated using pymatgen
data_LuN3O13
_symmetry_space_group_name_H-M   'P 1'
_cell_length_a   9.89523200
_cell_length_b   7.46807100
_cell_length_c   15.09092908
_cell_angle_alpha   65.33500876
_cell_angle_beta   90.00000000
_cell_angle_gamma   90.00000000
_symmetry_Int_Tables_number   1
_chemical_formula_structural   LuN3O13
_chemical_formula_sum   'Lu4 N12 O52'
_cell_volume   1013.44735307
_cell_formula_units_Z   4
loop_
 _symmetry_equiv_pos_site_id
 _symmetry_equiv_pos_as_xyz
  1  'x, y, z'
loop_
 _atom_site_type_symbol
 _atom_site_label
 _atom_site_symmetry_multiplicity
 _atom_site_fract_x
 _atom_site_fract_y
 _atom_site_fract_z
 _atom_site_occupancy
  Lu  Lu0  1  0.96798700  0.23268100  0.22371600  1
  Lu  Lu1  1  0.53201300  0.23268100  0.72371600  1
  Lu  Lu2  1  0.03201300  0.76731900  0.77628400  1
  Lu  Lu3  1  0.46798700  0.76731900  0.27628400  1
  N  N4  1  0.96420100  0.81806300  0.32647900  1
  N  N5  1  0.53579900  0.81806300  0.82647900  1
  N  N6  1  0.03579900  0.18193700  0.67352100  1
  N  N7  1  0.46420100  0.18193700  0.17352100  1
  N  N8  1  0.09878100  0.25375900  0.38109600  1
  N  N9  1  0.40121900  0.25375900  0.88109600  1
  N  N10  1  0.90121900  0.74624100  0.61890400  1
  N  N11  1  0.59878100  0.74624100  0.11890400  1
  N  N12  1  0.94659200  0.64931200  0.11140000  1
  N  N13  1  0.55340800  0.64931200  0.61140000  1
  N  N14  1  0.05340800  0.35068800  0.88860000  1
  N  N15  1  0.44659200  0.35068800  0.38860000  1
  O  O16  1  0.07056000  0.91900900  0.28108300  1
  O  O17  1  0.42944000  0.91900900  0.78108300  1
  O  O18  1  0.92944000  0.08099100  0.71891700  1
  O  O19  1  0.57056000  0.08099100  0.21891700  1
  O  O20  1  0.85655900  0.92636700  0.31070700  1
  O  O21  1  0.64344100  0.92636700  0.81070700  1
  O  O22  1  0.14344100  0.07363300  0.68929300  1
  O  O23  1  0.35655900  0.07363300  0.18929300  1
  O  O24  1  0.96794600  0.64313100  0.37812400  1
  O  O25  1  0.53205400  0.64313100  0.87812400  1
  O  O26  1  0.03205400  0.35686900  0.62187600  1
  O  O27  1  0.46794600  0.35686900  0.12187600  1
  O  O28  1  0.97250800  0.20787400  0.38072200  1
  O  O29  1  0.52749200  0.20787400  0.88072200  1
  O  O30  1  0.02749200  0.79212600  0.61927800  1
  O  O31  1  0.47250800  0.79212600  0.11927800  1
  O  O32  1  0.16398500  0.28441300  0.30175000  1
  O  O33  1  0.33601500  0.28441300  0.80175000  1
  O  O34  1  0.83601500  0.71558700  0.69825000  1
  O  O35  1  0.66398500  0.71558700  0.19825000  1
  O  O36  1  0.15236200  0.26586800  0.45125900  1
  O  O37  1  0.34763800  0.26586800  0.95125900  1
  O  O38  1  0.84763800  0.73413200  0.54874100  1
  O  O39  1  0.65236200  0.73413200  0.04874100  1
  O  O40  1  0.92618100  0.52352400  0.07375800  1
  O  O41  1  0.57381900  0.52352400  0.57375800  1
  O  O42  1  0.07381900  0.47647600  0.92624200  1
  O  O43  1  0.42618100  0.47647600  0.42624200  1
  O  O44  1  0.96796300  0.57027900  0.20359000  1
  O  O45  1  0.53203700  0.57027900  0.70359000  1
  O  O46  1  0.03203700  0.42972100  0.79641000  1
  O  O47  1  0.46796300  0.42972100  0.29641000  1
  O  O48  1  0.94631900  0.82705000  0.06201400  1
  O  O49  1  0.55368100  0.82705000  0.56201400  1
  O  O50  1  0.05368100  0.17295000  0.93798600  1
  O  O51  1  0.44631900  0.17295000  0.43798600  1
  O  O52  1  0.82774500  0.17652500  0.08573600  1
  O  O53  1  0.67225500  0.17652500  0.58573600  1
  O  O54  1  0.17225500  0.82347500  0.91426400  1
  O  O55  1  0.32774500  0.82347500  0.41426400  1
  O  O56  1  0.75148000  0.31927400  0.23662700  1
  O  O57  1  0.74852000  0.31927400  0.73662700  1
  O  O58  1  0.24852000  0.68072600  0.76337300  1
  O  O59  1  0.25148000  0.68072600  0.26337300  1
  O  O60  1  0.13971900  0.29604900  0.11281600  1
  O  O61  1  0.36028100  0.29604900  0.61281600  1
  O  O62  1  0.86028100  0.70395100  0.88718400  1
  O  O63  1  0.63971900  0.70395100  0.38718400  1
  O  O64  1  0.75094400  0.27670500  0.52066000  1
  O  O65  1  0.74905600  0.27670500  0.02066000  1
  O  O66  1  0.24905600  0.72329500  0.47934000  1
  O  O67  1  0.25094400  0.72329500  0.97934000  1
