# generated using pymatgen
data_Sb2XeF13
_symmetry_space_group_name_H-M   'P 1'
_cell_length_a   8.08093300
_cell_length_b   8.85103873
_cell_length_c   9.25581252
_cell_angle_alpha   104.94671596
_cell_angle_beta   104.38298789
_cell_angle_gamma   105.47101389
_symmetry_Int_Tables_number   1
_chemical_formula_structural   Sb2XeF13
_chemical_formula_sum   'Sb4 Xe2 F26'
_cell_volume   579.57343883
_cell_formula_units_Z   2
loop_
 _symmetry_equiv_pos_site_id
 _symmetry_equiv_pos_as_xyz
  1  'x, y, z'
loop_
 _atom_site_type_symbol
 _atom_site_label
 _atom_site_symmetry_multiplicity
 _atom_site_fract_x
 _atom_site_fract_y
 _atom_site_fract_z
 _atom_site_occupancy
  Sb  Sb0  1  0.67718500  0.45327800  0.28913700  1
  Sb  Sb1  1  0.32281500  0.54672200  0.71086300  1
  Sb  Sb2  1  0.82939000  0.03799400  0.21559600  1
  Sb  Sb3  1  0.17061000  0.96200600  0.78440400  1
  Xe  Xe4  1  0.24461600  0.75520200  0.24967800  1
  Xe  Xe5  1  0.75538400  0.24479800  0.75032200  1
  F  F6  1  0.14988700  0.50164300  0.16059000  1
  F  F7  1  0.85011300  0.49835700  0.83941000  1
  F  F8  1  0.34130300  0.00881700  0.33917400  1
  F  F9  1  0.65869700  0.99118300  0.66082600  1
  F  F10  1  0.92977100  0.59205800  0.38328000  1
  F  F11  1  0.07022900  0.40794200  0.61672000  1
  F  F12  1  0.44014900  0.28786500  0.19033900  1
  F  F13  1  0.55985100  0.71213500  0.80966100  1
  F  F14  1  0.67744500  0.43482500  0.48988600  1
  F  F15  1  0.32255500  0.56517500  0.51011400  1
  F  F16  1  0.69579900  0.43950000  0.08494100  1
  F  F17  1  0.30420100  0.56050000  0.91505900  1
  F  F18  1  0.59432400  0.63688600  0.31300300  1
  F  F19  1  0.40567600  0.36311400  0.68699700  1
  F  F20  1  0.78170800  0.26040600  0.26804200  1
  F  F21  1  0.21829200  0.73959400  0.73195800  1
  F  F22  1  0.87335700  0.83221300  0.16727700  1
  F  F23  1  0.12664300  0.16778700  0.83272300  1
  F  F24  1  0.81762900  0.04522800  0.42041500  1
  F  F25  1  0.18237100  0.95477200  0.57958500  1
  F  F26  1  0.83212500  0.06843300  0.01970900  1
  F  F27  1  0.16787500  0.93156700  0.98029100  1
  F  F28  1  0.57035300  0.93081500  0.13014300  1
  F  F29  1  0.42964700  0.06918500  0.86985700  1
  F  F30  1  0.08378000  0.16613000  0.31012900  1
  F  F31  1  0.91622000  0.83387000  0.68987100  1
