# generated using pymatgen
data_H10C4SN2
_symmetry_space_group_name_H-M   'P 1'
_cell_length_a   9.12235200
_cell_length_b   8.37758600
_cell_length_c   20.43500604
_cell_angle_alpha   90.00000000
_cell_angle_beta   92.90791960
_cell_angle_gamma   90.00000000
_symmetry_Int_Tables_number   1
_chemical_formula_structural   H10C4SN2
_chemical_formula_sum   'H80 C32 S8 N16'
_cell_volume   1559.69943105
_cell_formula_units_Z   8
loop_
 _symmetry_equiv_pos_site_id
 _symmetry_equiv_pos_as_xyz
  1  'x, y, z'
loop_
 _atom_site_type_symbol
 _atom_site_label
 _atom_site_symmetry_multiplicity
 _atom_site_fract_x
 _atom_site_fract_y
 _atom_site_fract_z
 _atom_site_occupancy
  H  H0  1  0.27310900  0.30745700  0.03788100  1
  H  H1  1  0.72689100  0.80745700  0.46211900  1
  H  H2  1  0.72689100  0.69254300  0.96211900  1
  H  H3  1  0.27310900  0.19254300  0.53788100  1
  H  H4  1  0.28536700  0.15778900  0.78823100  1
  H  H5  1  0.71463300  0.65778900  0.71176900  1
  H  H6  1  0.71463300  0.84221100  0.21176900  1
  H  H7  1  0.28536700  0.34221100  0.28823100  1
  H  H8  1  0.71984400  0.30272500  0.95695100  1
  H  H9  1  0.28015600  0.80272500  0.54304900  1
  H  H10  1  0.28015600  0.69727500  0.04304900  1
  H  H11  1  0.71984400  0.19727500  0.45695100  1
  H  H12  1  0.76425200  0.31124800  0.04313600  1
  H  H13  1  0.23574800  0.81124800  0.45686400  1
  H  H14  1  0.23574800  0.68875200  0.95686400  1
  H  H15  1  0.76425200  0.18875200  0.54313600  1
  H  H16  1  0.71774700  0.12489500  0.00471000  1
  H  H17  1  0.28225300  0.62489500  0.49529000  1
  H  H18  1  0.28225300  0.87510500  0.99529000  1
  H  H19  1  0.71774700  0.37510500  0.50471000  1
  H  H20  1  0.46011700  0.24387600  0.11253800  1
  H  H21  1  0.53988300  0.74387600  0.38746200  1
  H  H22  1  0.53988300  0.75612400  0.88746200  1
  H  H23  1  0.46011700  0.25612400  0.61253800  1
  H  H24  1  0.61074400  0.37905700  0.10889200  1
  H  H25  1  0.38925600  0.87905700  0.39110800  1
  H  H26  1  0.38925600  0.62094300  0.89110800  1
  H  H27  1  0.61074400  0.12094300  0.60889200  1
  H  H28  1  0.43368000  0.44287600  0.08145300  1
  H  H29  1  0.56632000  0.94287600  0.41854700  1
  H  H30  1  0.56632000  0.55712400  0.91854700  1
  H  H31  1  0.43368000  0.05712400  0.58145300  1
  H  H32  1  0.16595500  0.09984200  0.93491200  1
  H  H33  1  0.83404500  0.59984200  0.56508800  1
  H  H34  1  0.83404500  0.90015800  0.06508800  1
  H  H35  1  0.16595500  0.40015800  0.43491200  1
  H  H36  1  0.06720100  0.24326700  0.98086500  1
  H  H37  1  0.93279900  0.74326700  0.51913500  1
  H  H38  1  0.93279900  0.75673300  0.01913500  1
  H  H39  1  0.06720100  0.25673300  0.48086500  1
  H  H40  1  0.15360200  0.30175800  0.90817100  1
  H  H41  1  0.84639800  0.80175800  0.59182900  1
  H  H42  1  0.84639800  0.69824200  0.09182900  1
  H  H43  1  0.15360200  0.19824200  0.40817100  1
  H  H44  1  0.03869500  0.38822000  0.62372600  1
  H  H45  1  0.96130500  0.88822000  0.87627400  1
  H  H46  1  0.96130500  0.61178000  0.37627400  1
  H  H47  1  0.03869500  0.11178000  0.12372600  1
  H  H48  1  0.05991500  0.54845300  0.68185900  1
  H  H49  1  0.94008500  0.04845300  0.81814100  1
  H  H50  1  0.94008500  0.45154700  0.31814100  1
  H  H51  1  0.05991500  0.95154700  0.18185900  1
  H  H52  1  0.19717100  0.51581000  0.62397000  1
  H  H53  1  0.80282900  0.01581000  0.87603000  1
  H  H54  1  0.80282900  0.48419000  0.37603000  1
  H  H55  1  0.19717100  0.98419000  0.12397000  1
  H  H56  1  0.38454500  0.35879800  0.76456000  1
  H  H57  1  0.61545500  0.85879800  0.73544000  1
  H  H58  1  0.61545500  0.64120200  0.23544000  1
  H  H59  1  0.38454500  0.14120200  0.26456000  1
  H  H60  1  0.31861200  0.54305300  0.73215400  1
  H  H61  1  0.68138800  0.04305300  0.76784600  1
  H  H62  1  0.68138800  0.45694700  0.26784600  1
  H  H63  1  0.31861200  0.95694700  0.23215400  1
  H  H64  1  0.22446400  0.44898500  0.79613200  1
  H  H65  1  0.77553600  0.94898500  0.70386800  1
  H  H66  1  0.77553600  0.55101500  0.20386800  1
  H  H67  1  0.22446400  0.05101500  0.29613200  1
  H  H68  1  0.29552900  0.87840000  0.70742600  1
  H  H69  1  0.70447100  0.37840000  0.79257400  1
  H  H70  1  0.70447100  0.12160000  0.29257400  1
  H  H71  1  0.29552900  0.62160000  0.20742600  1
  H  H72  1  0.30184800  0.89271700  0.79527200  1
  H  H73  1  0.69815200  0.39271700  0.70472800  1
  H  H74  1  0.69815200  0.10728300  0.20472800  1
  H  H75  1  0.30184800  0.60728300  0.29527200  1
  H  H76  1  0.12987300  0.87876300  0.74943900  1
  H  H77  1  0.87012700  0.37876300  0.75056100  1
  H  H78  1  0.87012700  0.12123700  0.25056100  1
  H  H79  1  0.12987300  0.62123700  0.24943900  1
  C  C80  1  0.43159000  0.23984000  0.97445600  1
  C  C81  1  0.56841000  0.73984000  0.52554400  1
  C  C82  1  0.56841000  0.76016000  0.02554400  1
  C  C83  1  0.43159000  0.26016000  0.47445600  1
  C  C84  1  0.69422700  0.25378800  0.00484700  1
  C  C85  1  0.30577300  0.75378800  0.49515300  1
  C  C86  1  0.30577300  0.74621200  0.99515300  1
  C  C87  1  0.69422700  0.24621200  0.50484700  1
  C  C88  1  0.50852000  0.33975900  0.08359400  1
  C  C89  1  0.49148000  0.83975900  0.41640600  1
  C  C90  1  0.49148000  0.66024100  0.91640600  1
  C  C91  1  0.50852000  0.16024100  0.58359400  1
  C  C92  1  0.16316500  0.22442400  0.95166400  1
  C  C93  1  0.83683500  0.72442400  0.54833600  1
  C  C94  1  0.83683500  0.77557600  0.04833600  1
  C  C95  1  0.16316500  0.27557600  0.45166400  1
  C  C96  1  0.17641800  0.18702800  0.69762100  1
  C  C97  1  0.82358200  0.68702800  0.80237900  1
  C  C98  1  0.82358200  0.81297200  0.30237900  1
  C  C99  1  0.17641800  0.31297200  0.19762100  1
  C  C100  1  0.11760900  0.45646100  0.65462500  1
  C  C101  1  0.88239100  0.95646100  0.84537500  1
  C  C102  1  0.88239100  0.54353900  0.34537500  1
  C  C103  1  0.11760900  0.04353900  0.15462500  1
  C  C104  1  0.28473900  0.42748000  0.75152000  1
  C  C105  1  0.71526100  0.92748000  0.74848000  1
  C  C106  1  0.71526100  0.57252000  0.24848000  1
  C  C107  1  0.28473900  0.07252000  0.25152000  1
  C  C108  1  0.24155200  0.92816700  0.74979600  1
  C  C109  1  0.75844800  0.42816700  0.75020400  1
  C  C110  1  0.75844800  0.07183300  0.25020400  1
  C  C111  1  0.24155200  0.57183300  0.24979600  1
  S  S112  1  0.46663600  0.16079200  0.90022300  1
  S  S113  1  0.53336400  0.66079200  0.59977700  1
  S  S114  1  0.53336400  0.83920800  0.09977700  1
  S  S115  1  0.46663600  0.33920800  0.40022300  1
  S  S116  1  0.08367800  0.09278200  0.63443300  1
  S  S117  1  0.91632200  0.59278200  0.86556700  1
  S  S118  1  0.91632200  0.90721800  0.36556700  1
  S  S119  1  0.08367800  0.40721800  0.13443300  1
  N  N120  1  0.54148900  0.28453700  0.01833400  1
  N  N121  1  0.45851100  0.78453700  0.48166600  1
  N  N122  1  0.45851100  0.71546300  0.98166600  1
  N  N123  1  0.54148900  0.21546300  0.51833400  1
  N  N124  1  0.29246600  0.26168200  0.99294400  1
  N  N125  1  0.70753400  0.76168200  0.50705600  1
  N  N126  1  0.70753400  0.73831800  0.00705600  1
  N  N127  1  0.29246600  0.23831800  0.49294400  1
  N  N128  1  0.19349000  0.34847500  0.70066500  1
  N  N129  1  0.80651000  0.84847500  0.79933500  1
  N  N130  1  0.80651000  0.65152500  0.29933500  1
  N  N131  1  0.19349000  0.15152500  0.20066500  1
  N  N132  1  0.24002500  0.10147100  0.74779700  1
  N  N133  1  0.75997500  0.60147100  0.75220300  1
  N  N134  1  0.75997500  0.89852900  0.25220300  1
  N  N135  1  0.24002500  0.39852900  0.24779700  1
