# generated using pymatgen
data_SbH12C6(N3Cl2)3
_symmetry_space_group_name_H-M   'P 1'
_cell_length_a   8.48217100
_cell_length_b   11.63830700
_cell_length_c   20.20976000
_cell_angle_alpha   90.00000000
_cell_angle_beta   90.00000000
_cell_angle_gamma   90.00000000
_symmetry_Int_Tables_number   1
_chemical_formula_structural   SbH12C6(N3Cl2)3
_chemical_formula_sum   'Sb4 H48 C24 N36 Cl24'
_cell_volume   1995.06931327
_cell_formula_units_Z   4
loop_
 _symmetry_equiv_pos_site_id
 _symmetry_equiv_pos_as_xyz
  1  'x, y, z'
loop_
 _atom_site_type_symbol
 _atom_site_label
 _atom_site_symmetry_multiplicity
 _atom_site_fract_x
 _atom_site_fract_y
 _atom_site_fract_z
 _atom_site_occupancy
  Sb  Sb0  1  0.44479300  0.69437700  0.09163500  1
  Sb  Sb1  1  0.05520700  0.30562300  0.59163500  1
  Sb  Sb2  1  0.94479300  0.80562300  0.90836500  1
  Sb  Sb3  1  0.55520700  0.19437700  0.40836500  1
  H  H4  1  0.80332200  0.85026200  0.30588600  1
  H  H5  1  0.69667800  0.14973800  0.80588600  1
  H  H6  1  0.30332200  0.64973800  0.69411400  1
  H  H7  1  0.19667800  0.35026200  0.19411400  1
  H  H8  1  0.41869300  0.65213400  0.35265500  1
  H  H9  1  0.08130700  0.34786600  0.85265500  1
  H  H10  1  0.91869300  0.84786600  0.64734500  1
  H  H11  1  0.58130700  0.15213400  0.14734500  1
  H  H12  1  0.31331100  0.83796500  0.29812600  1
  H  H13  1  0.18668900  0.16203500  0.79812600  1
  H  H14  1  0.81331100  0.66203500  0.70187400  1
  H  H15  1  0.68668900  0.33796500  0.20187400  1
  H  H16  1  0.55462700  0.96983100  0.26686600  1
  H  H17  1  0.94537300  0.03016900  0.76686600  1
  H  H18  1  0.05462700  0.53016900  0.73313400  1
  H  H19  1  0.44537300  0.46983100  0.23313400  1
  H  H20  1  0.04490200  0.67460400  0.31409600  1
  H  H21  1  0.45509800  0.32539600  0.81409600  1
  H  H22  1  0.54490200  0.82539600  0.68590400  1
  H  H23  1  0.95509800  0.17460400  0.18590400  1
  H  H24  1  0.21222200  0.36714300  0.38798600  1
  H  H25  1  0.28777800  0.63285700  0.88798600  1
  H  H26  1  0.71222200  0.13285700  0.61201400  1
  H  H27  1  0.78777800  0.86714300  0.11201400  1
  H  H28  1  0.90727300  0.35838900  0.38850100  1
  H  H29  1  0.59272700  0.64161100  0.88850100  1
  H  H30  1  0.40727300  0.14161100  0.61149900  1
  H  H31  1  0.09272700  0.85838900  0.11149900  1
  H  H32  1  0.79381200  0.54847400  0.33912900  1
  H  H33  1  0.70618800  0.45152600  0.83912900  1
  H  H34  1  0.29381200  0.95152600  0.66087100  1
  H  H35  1  0.20618800  0.04847400  0.16087100  1
  H  H36  1  0.31796100  0.52369500  0.53987000  1
  H  H37  1  0.18203900  0.47630500  0.03987000  1
  H  H38  1  0.81796100  0.97630500  0.46013000  1
  H  H39  1  0.68203900  0.02369500  0.96013000  1
  H  H40  1  0.67832400  0.74400700  0.49587900  1
  H  H41  1  0.82167600  0.25599300  0.99587900  1
  H  H42  1  0.17832400  0.75599300  0.50412100  1
  H  H43  1  0.32167600  0.24400700  0.00412100  1
  H  H44  1  0.80388000  0.55390300  0.53814800  1
  H  H45  1  0.69612000  0.44609700  0.03814800  1
  H  H46  1  0.30388000  0.94609700  0.46185200  1
  H  H47  1  0.19612000  0.05390300  0.96185200  1
  H  H48  1  0.57858700  0.40943900  0.56844900  1
  H  H49  1  0.92141300  0.59056100  0.06844900  1
  H  H50  1  0.07858700  0.09056100  0.43155100  1
  H  H51  1  0.42141300  0.90943900  0.93155100  1
  C  C52  1  0.49110500  0.72305900  0.33515500  1
  C  C53  1  0.00889500  0.27694100  0.83515500  1
  C  C54  1  0.99110500  0.77694100  0.66484500  1
  C  C55  1  0.50889500  0.22305900  0.16484500  1
  C  C56  1  0.55685900  0.88583000  0.29005500  1
  C  C57  1  0.94314100  0.11417000  0.79005500  1
  C  C58  1  0.05685900  0.61417000  0.70994500  1
  C  C59  1  0.44314100  0.38583000  0.20994500  1
  C  C60  1  0.13336800  0.43419500  0.37051200  1
  C  C61  1  0.36663200  0.56580500  0.87051200  1
  C  C62  1  0.63336800  0.06580500  0.62948800  1
  C  C63  1  0.86663200  0.93419500  0.12948800  1
  C  C64  1  0.91662900  0.52453500  0.34538700  1
  C  C65  1  0.58337100  0.47546500  0.84538700  1
  C  C66  1  0.41662900  0.97546500  0.65461300  1
  C  C67  1  0.08337100  0.02453500  0.15461300  1
  C  C68  1  0.61394300  0.66799600  0.51155500  1
  C  C69  1  0.88605700  0.33200400  0.01155500  1
  C  C70  1  0.11394300  0.83200400  0.48844500  1
  C  C71  1  0.38605700  0.16799600  0.98844500  1
  C  C72  1  0.56665500  0.49575900  0.54883500  1
  C  C73  1  0.93334500  0.50424100  0.04883500  1
  C  C74  1  0.06665500  0.00424100  0.45116500  1
  C  C75  1  0.43334500  0.99575900  0.95116500  1
  N  N76  1  0.68392700  0.82876800  0.30982300  1
  N  N77  1  0.81607300  0.17123200  0.80982300  1
  N  N78  1  0.18392700  0.67123200  0.69017700  1
  N  N79  1  0.31607300  0.32876800  0.19017700  1
  N  N80  1  0.64568300  0.72661000  0.33821100  1
  N  N81  1  0.85431700  0.27339000  0.83821100  1
  N  N82  1  0.14568300  0.77339000  0.66178900  1
  N  N83  1  0.35431700  0.22661000  0.16178900  1
  N  N84  1  0.43252500  0.81975900  0.30569600  1
  N  N85  1  0.06747500  0.18024100  0.80569600  1
  N  N86  1  0.93252500  0.68024100  0.69430400  1
  N  N87  1  0.56747500  0.31975900  0.19430400  1
  N  N88  1  0.04150500  0.58870200  0.33128400  1
  N  N89  1  0.45849500  0.41129800  0.83128400  1
  N  N90  1  0.54150500  0.91129800  0.66871600  1
  N  N91  1  0.95849500  0.08870200  0.16871600  1
  N  N92  1  0.17858100  0.53406500  0.34661400  1
  N  N93  1  0.32141900  0.46593500  0.84661400  1
  N  N94  1  0.67858100  0.96593500  0.65338600  1
  N  N95  1  0.82141900  0.03406500  0.15338600  1
  N  N96  1  0.97290200  0.42575200  0.37046200  1
  N  N97  1  0.52709800  0.57424800  0.87046200  1
  N  N98  1  0.47290200  0.07424800  0.62953800  1
  N  N99  1  0.02709800  0.92575200  0.12953800  1
  N  N100  1  0.43352800  0.55060200  0.53502200  1
  N  N101  1  0.06647200  0.44939800  0.03502200  1
  N  N102  1  0.93352800  0.94939800  0.46497800  1
  N  N103  1  0.56647200  0.05060200  0.96497800  1
  N  N104  1  0.45966300  0.65851900  0.51184200  1
  N  N105  1  0.04033700  0.34148100  0.01184200  1
  N  N106  1  0.95966300  0.84148100  0.48815800  1
  N  N107  1  0.54033700  0.15851900  0.98815800  1
  N  N108  1  0.68330700  0.56917300  0.53371500  1
  N  N109  1  0.81669300  0.43082700  0.03371500  1
  N  N110  1  0.18330700  0.93082700  0.46628500  1
  N  N111  1  0.31669300  0.06917300  0.96628500  1
  Cl  Cl112  1  0.24035900  0.64235400  0.17482900  1
  Cl  Cl113  1  0.25964100  0.35764600  0.67482900  1
  Cl  Cl114  1  0.74035900  0.85764600  0.82517100  1
  Cl  Cl115  1  0.75964100  0.14235400  0.32517100  1
  Cl  Cl116  1  0.18100600  0.75050100  0.00980800  1
  Cl  Cl117  1  0.31899400  0.24949900  0.50980800  1
  Cl  Cl118  1  0.68100600  0.74949900  0.99019200  1
  Cl  Cl119  1  0.81899400  0.25050100  0.49019200  1
  Cl  Cl120  1  0.66456700  0.64319600  0.16971000  1
  Cl  Cl121  1  0.83543300  0.35680400  0.66971000  1
  Cl  Cl122  1  0.16456700  0.85680400  0.83029000  1
  Cl  Cl123  1  0.33543300  0.14319600  0.33029000  1
  Cl  Cl124  1  0.44471600  0.90392300  0.12901700  1
  Cl  Cl125  1  0.05528400  0.09607700  0.62901700  1
  Cl  Cl126  1  0.94471600  0.59607700  0.87098300  1
  Cl  Cl127  1  0.55528400  0.40392300  0.37098300  1
  Cl  Cl128  1  0.44447500  0.46592000  0.04258900  1
  Cl  Cl129  1  0.05552500  0.53408000  0.54258900  1
  Cl  Cl130  1  0.94447500  0.03408000  0.95741100  1
  Cl  Cl131  1  0.55552500  0.96592000  0.45741100  1
  Cl  Cl132  1  0.05492700  0.84884000  0.30144700  1
  Cl  Cl133  1  0.44507300  0.15116000  0.80144700  1
  Cl  Cl134  1  0.55492700  0.65116000  0.69855300  1
  Cl  Cl135  1  0.94507300  0.34884000  0.19855300  1
