# generated using pymatgen
data_Al2CoP3NO14
_symmetry_space_group_name_H-M   'P 1'
_cell_length_a   8.33208477
_cell_length_b   8.33208477
_cell_length_c   8.93467767
_cell_angle_alpha   74.73854451
_cell_angle_beta   74.73854451
_cell_angle_gamma   76.86171621
_symmetry_Int_Tables_number   1
_chemical_formula_structural   Al2CoP3NO14
_chemical_formula_sum   'Al4 Co2 P6 N2 O28'
_cell_volume   568.91955764
_cell_formula_units_Z   2
loop_
 _symmetry_equiv_pos_site_id
 _symmetry_equiv_pos_as_xyz
  1  'x, y, z'
loop_
 _atom_site_type_symbol
 _atom_site_label
 _atom_site_symmetry_multiplicity
 _atom_site_fract_x
 _atom_site_fract_y
 _atom_site_fract_z
 _atom_site_occupancy
  Al  Al0  1  0.24681300  0.40145800  0.57491900  1
  Al  Al1  1  0.59854200  0.75318700  0.92508100  1
  Al  Al2  1  0.75318700  0.59854200  0.42508100  1
  Al  Al3  1  0.40145800  0.24681300  0.07491900  1
  Co  Co4  1  0.21501500  0.78498500  0.75000000  1
  Co  Co5  1  0.78498500  0.21501500  0.25000000  1
  P  P6  1  0.34001500  0.08064900  0.83209600  1
  P  P7  1  0.91935100  0.65998500  0.66790400  1
  P  P8  1  0.65998500  0.91935100  0.16790400  1
  P  P9  1  0.08064900  0.34001500  0.33209600  1
  P  P10  1  0.49131100  0.50868900  0.75000000  1
  P  P11  1  0.50868900  0.49131100  0.25000000  1
  N  N12  1  0.13927600  0.86072400  0.25000000  1
  N  N13  1  0.86072400  0.13927600  0.75000000  1
  O  O14  1  0.36242000  0.21141500  0.67339900  1
  O  O15  1  0.78858500  0.63758000  0.82660100  1
  O  O16  1  0.63758000  0.78858500  0.32660100  1
  O  O17  1  0.21141500  0.36242000  0.17339900  1
  O  O18  1  0.50755000  0.96179900  0.84148700  1
  O  O19  1  0.03820100  0.49245000  0.65851300  1
  O  O20  1  0.49245000  0.03820100  0.15851300  1
  O  O21  1  0.96179900  0.50755000  0.34148700  1
  O  O22  1  0.27522300  0.16767700  0.97207800  1
  O  O23  1  0.83232300  0.72477700  0.52792200  1
  O  O24  1  0.72477700  0.83232300  0.02792200  1
  O  O25  1  0.16767700  0.27522300  0.47207800  1
  O  O26  1  0.32070200  0.53255300  0.69718400  1
  O  O27  1  0.46744700  0.67929800  0.80281600  1
  O  O28  1  0.67929800  0.46744700  0.30281600  1
  O  O29  1  0.53255300  0.32070200  0.19718400  1
  O  O30  1  0.63950700  0.48683900  0.60979700  1
  O  O31  1  0.51316100  0.36049300  0.89020300  1
  O  O32  1  0.36049300  0.51316100  0.39020300  1
  O  O33  1  0.48683900  0.63950700  0.10979700  1
  O  O34  1  0.20338500  0.97786300  0.83053800  1
  O  O35  1  0.02213700  0.79661500  0.66946200  1
  O  O36  1  0.79661500  0.02213700  0.16946200  1
  O  O37  1  0.97786300  0.20338500  0.33053800  1
  O  O38  1  0.30489300  0.89413400  0.53783900  1
  O  O39  1  0.10586600  0.69510700  0.96216100  1
  O  O40  1  0.69510700  0.10586600  0.46216100  1
  O  O41  1  0.89413400  0.30489300  0.03783900  1
