# generated using pymatgen
data_BeH12C4(SBr)2
_symmetry_space_group_name_H-M   'P 1'
_cell_length_a   10.10673400
_cell_length_b   10.29159400
_cell_length_c   10.82610500
_cell_angle_alpha   90.00000000
_cell_angle_beta   90.00000000
_cell_angle_gamma   90.00000000
_symmetry_Int_Tables_number   1
_chemical_formula_structural   BeH12C4(SBr)2
_chemical_formula_sum   'Be4 H48 C16 S8 Br8'
_cell_volume   1126.07084833
_cell_formula_units_Z   4
loop_
 _symmetry_equiv_pos_site_id
 _symmetry_equiv_pos_as_xyz
  1  'x, y, z'
loop_
 _atom_site_type_symbol
 _atom_site_label
 _atom_site_symmetry_multiplicity
 _atom_site_fract_x
 _atom_site_fract_y
 _atom_site_fract_z
 _atom_site_occupancy
  Be  Be0  1  0.80027400  0.50000000  0.25000000  1
  Be  Be1  1  0.69972600  0.00000000  0.75000000  1
  Be  Be2  1  0.19972600  0.50000000  0.75000000  1
  Be  Be3  1  0.30027400  0.00000000  0.25000000  1
  H  H4  1  0.05515100  0.76606500  0.42005200  1
  H  H5  1  0.44484900  0.73393500  0.92005200  1
  H  H6  1  0.44484900  0.26606500  0.57994800  1
  H  H7  1  0.05515100  0.23393500  0.07994800  1
  H  H8  1  0.94484900  0.23393500  0.57994800  1
  H  H9  1  0.55515100  0.26606500  0.07994800  1
  H  H10  1  0.55515100  0.73393500  0.42005200  1
  H  H11  1  0.94484900  0.76606500  0.92005200  1
  H  H12  1  0.91010300  0.67878700  0.47102300  1
  H  H13  1  0.58989700  0.82121300  0.97102300  1
  H  H14  1  0.58989700  0.17878700  0.52897700  1
  H  H15  1  0.91010300  0.32121300  0.02897700  1
  H  H16  1  0.08989700  0.32121300  0.52897700  1
  H  H17  1  0.41010300  0.17878700  0.02897700  1
  H  H18  1  0.41010300  0.82121300  0.47102300  1
  H  H19  1  0.08989700  0.67878700  0.97102300  1
  H  H20  1  0.05989800  0.59265400  0.43410400  1
  H  H21  1  0.44010200  0.90734600  0.93410400  1
  H  H22  1  0.44010200  0.09265400  0.56589600  1
  H  H23  1  0.05989800  0.40734600  0.06589600  1
  H  H24  1  0.94010200  0.40734600  0.56589600  1
  H  H25  1  0.55989800  0.09265400  0.06589600  1
  H  H26  1  0.55989800  0.90734600  0.43410400  1
  H  H27  1  0.94010200  0.59265400  0.93410400  1
  H  H28  1  0.77628500  0.81658000  0.30979900  1
  H  H29  1  0.72371500  0.68342000  0.80979900  1
  H  H30  1  0.72371500  0.31658000  0.69020100  1
  H  H31  1  0.77628500  0.18342000  0.19020100  1
  H  H32  1  0.22371500  0.18342000  0.69020100  1
  H  H33  1  0.27628500  0.31658000  0.19020100  1
  H  H34  1  0.27628500  0.68342000  0.30979900  1
  H  H35  1  0.22371500  0.81658000  0.80979900  1
  H  H36  1  0.79567600  0.79935600  0.14515100  1
  H  H37  1  0.70432400  0.70064400  0.64515100  1
  H  H38  1  0.70432400  0.29935600  0.85484900  1
  H  H39  1  0.79567600  0.20064400  0.35484900  1
  H  H40  1  0.20432400  0.20064400  0.85484900  1
  H  H41  1  0.29567600  0.29935600  0.35484900  1
  H  H42  1  0.29567600  0.70064400  0.14515100  1
  H  H43  1  0.20432400  0.79935600  0.64515100  1
  H  H44  1  0.91609400  0.88896400  0.23187300  1
  H  H45  1  0.58390600  0.61103600  0.73187300  1
  H  H46  1  0.58390600  0.38896400  0.76812700  1
  H  H47  1  0.91609400  0.11103600  0.26812700  1
  H  H48  1  0.08390600  0.11103600  0.76812700  1
  H  H49  1  0.41609400  0.38896400  0.26812700  1
  H  H50  1  0.41609400  0.61103600  0.23187300  1
  H  H51  1  0.08390600  0.88896400  0.73187300  1
  C  C52  1  0.99728600  0.67630200  0.41080500  1
  C  C53  1  0.50271400  0.82369800  0.91080500  1
  C  C54  1  0.50271400  0.17630200  0.58919500  1
  C  C55  1  0.99728600  0.32369800  0.08919500  1
  C  C56  1  0.00271400  0.32369800  0.58919500  1
  C  C57  1  0.49728600  0.17630200  0.08919500  1
  C  C58  1  0.49728600  0.82369800  0.41080500  1
  C  C59  1  0.00271400  0.67630200  0.91080500  1
  C  C60  1  0.84731500  0.80642000  0.23372000  1
  C  C61  1  0.65268500  0.69358000  0.73372000  1
  C  C62  1  0.65268500  0.30642000  0.76628000  1
  C  C63  1  0.84731500  0.19358000  0.26628000  1
  C  C64  1  0.15268500  0.19358000  0.76628000  1
  C  C65  1  0.34731500  0.30642000  0.26628000  1
  C  C66  1  0.34731500  0.69358000  0.23372000  1
  C  C67  1  0.15268500  0.80642000  0.73372000  1
  S  S68  1  0.94302700  0.65961100  0.25250700  1
  S  S69  1  0.55697300  0.84038900  0.75250700  1
  S  S70  1  0.55697300  0.15961100  0.74749300  1
  S  S71  1  0.94302700  0.34038900  0.24749300  1
  S  S72  1  0.05697300  0.34038900  0.74749300  1
  S  S73  1  0.44302700  0.15961100  0.24749300  1
  S  S74  1  0.44302700  0.84038900  0.25250700  1
  S  S75  1  0.05697300  0.65961100  0.75250700  1
  Br  Br76  1  0.69056100  0.51610000  0.08238700  1
  Br  Br77  1  0.80943900  0.98390000  0.58238700  1
  Br  Br78  1  0.80943900  0.01610000  0.91761300  1
  Br  Br79  1  0.69056100  0.48390000  0.41761300  1
  Br  Br80  1  0.30943900  0.48390000  0.91761300  1
  Br  Br81  1  0.19056100  0.01610000  0.41761300  1
  Br  Br82  1  0.19056100  0.98390000  0.08238700  1
  Br  Br83  1  0.30943900  0.51610000  0.58238700  1
