# generated using pymatgen
data_In2Sb2H16C4S7N2
_symmetry_space_group_name_H-M   'P 1'
_cell_length_a   10.70171913
_cell_length_b   10.70171913
_cell_length_c   17.49258139
_cell_angle_alpha   58.50485449
_cell_angle_beta   58.50485449
_cell_angle_gamma   38.76920101
_symmetry_Int_Tables_number   1
_chemical_formula_structural   In2Sb2H16C4S7N2
_chemical_formula_sum   'In4 Sb4 H32 C8 S14 N4'
_cell_volume   1044.52402264
_cell_formula_units_Z   2
loop_
 _symmetry_equiv_pos_site_id
 _symmetry_equiv_pos_as_xyz
  1  'x, y, z'
loop_
 _atom_site_type_symbol
 _atom_site_label
 _atom_site_symmetry_multiplicity
 _atom_site_fract_x
 _atom_site_fract_y
 _atom_site_fract_z
 _atom_site_occupancy
  In  In0  1  0.27069500  0.80908200  0.11050300  1
  In  In1  1  0.19091800  0.72930500  0.38949700  1
  In  In2  1  0.72930500  0.19091800  0.88949700  1
  In  In3  1  0.80908200  0.27069500  0.61050300  1
  Sb  Sb4  1  0.23070500  0.70184400  0.95391900  1
  Sb  Sb5  1  0.29815600  0.76929500  0.54608100  1
  Sb  Sb6  1  0.76929500  0.29815600  0.04608100  1
  Sb  Sb7  1  0.70184400  0.23070500  0.45391900  1
  H  H8  1  0.30901600  0.42751700  0.83221800  1
  H  H9  1  0.57248300  0.69098400  0.66778200  1
  H  H10  1  0.69098400  0.57248300  0.16778200  1
  H  H11  1  0.42751700  0.30901600  0.33221800  1
  H  H12  1  0.15411400  0.39735800  0.91731700  1
  H  H13  1  0.60264200  0.84588600  0.58268300  1
  H  H14  1  0.84588600  0.60264200  0.08268300  1
  H  H15  1  0.39735800  0.15411400  0.41731700  1
  H  H16  1  0.99337100  0.67218400  0.78882500  1
  H  H17  1  0.32781600  0.00662900  0.71117500  1
  H  H18  1  0.00662900  0.32781600  0.21117500  1
  H  H19  1  0.67218400  0.99337100  0.28882500  1
  H  H20  1  0.01787900  0.46932400  0.81192200  1
  H  H21  1  0.53067600  0.98212100  0.68807800  1
  H  H22  1  0.98212100  0.53067600  0.18807800  1
  H  H23  1  0.46932400  0.01787900  0.31192200  1
  H  H24  1  0.19345400  0.48599000  0.71825900  1
  H  H25  1  0.51401000  0.80654600  0.78174100  1
  H  H26  1  0.80654600  0.51401000  0.28174100  1
  H  H27  1  0.48599000  0.19345400  0.21825900  1
  H  H28  1  0.49120100  0.07501100  0.89930600  1
  H  H29  1  0.92498900  0.50879900  0.60069400  1
  H  H30  1  0.50879900  0.92498900  0.10069400  1
  H  H31  1  0.07501100  0.49120100  0.39930600  1
  H  H32  1  0.49735800  0.14228100  0.77979100  1
  H  H33  1  0.85771900  0.50264200  0.72020900  1
  H  H34  1  0.50264200  0.85771900  0.22020900  1
  H  H35  1  0.14228100  0.49735800  0.27979100  1
  H  H36  1  0.32864300  0.10951700  0.86923400  1
  H  H37  1  0.89048300  0.67135700  0.63076600  1
  H  H38  1  0.67135700  0.89048300  0.13076600  1
  H  H39  1  0.10951700  0.32864300  0.36923400  1
  C  C40  1  0.10010500  0.51224300  0.78773000  1
  C  C41  1  0.48775700  0.89989500  0.71227000  1
  C  C42  1  0.89989500  0.48775700  0.21227000  1
  C  C43  1  0.51224300  0.10010500  0.28773000  1
  C  C44  1  0.40121500  0.16018200  0.84943000  1
  C  C45  1  0.83981800  0.59878500  0.65057000  1
  C  C46  1  0.59878500  0.83981800  0.15057000  1
  C  C47  1  0.16018200  0.40121500  0.34943000  1
  S  S48  1  0.41802400  0.58197600  0.25000000  1
  S  S49  1  0.58197600  0.41802400  0.75000000  1
  S  S50  1  0.06575700  0.77565600  0.10891100  1
  S  S51  1  0.22434400  0.93424300  0.39108900  1
  S  S52  1  0.93424300  0.22434400  0.89108900  1
  S  S53  1  0.77565600  0.06575700  0.60891100  1
  S  S54  1  0.94439000  0.81580100  0.92718500  1
  S  S55  1  0.18419900  0.05561000  0.57281500  1
  S  S56  1  0.05561000  0.18419900  0.07281500  1
  S  S57  1  0.81580100  0.94439000  0.42718500  1
  S  S58  1  0.40862700  0.33784800  0.01162200  1
  S  S59  1  0.66215200  0.59137300  0.48837800  1
  S  S60  1  0.59137300  0.66215200  0.98837800  1
  S  S61  1  0.33784800  0.40862700  0.51162200  1
  N  N62  1  0.23834800  0.38093000  0.85064700  1
  N  N63  1  0.61907000  0.76165200  0.64935300  1
  N  N64  1  0.76165200  0.61907000  0.14935300  1
  N  N65  1  0.38093000  0.23834800  0.35064700  1
