# generated using pymatgen
data_Yb3Cu3Te4(ClO2)6
_symmetry_space_group_name_H-M   'P 1'
_cell_length_a   5.63392800
_cell_length_b   13.91213700
_cell_length_c   16.54860355
_cell_angle_alpha   54.71012452
_cell_angle_beta   90.00000000
_cell_angle_gamma   90.00000000
_symmetry_Int_Tables_number   1
_chemical_formula_structural   Yb3Cu3Te4(ClO2)6
_chemical_formula_sum   'Yb6 Cu6 Te8 Cl12 O24'
_cell_volume   1058.72750958
_cell_formula_units_Z   2
loop_
 _symmetry_equiv_pos_site_id
 _symmetry_equiv_pos_as_xyz
  1  'x, y, z'
loop_
 _atom_site_type_symbol
 _atom_site_label
 _atom_site_symmetry_multiplicity
 _atom_site_fract_x
 _atom_site_fract_y
 _atom_site_fract_z
 _atom_site_occupancy
  Yb  Yb0  1  0.15928600  0.50000000  0.75000000  1
  Yb  Yb1  1  0.84071400  0.50000000  0.25000000  1
  Yb  Yb2  1  0.68643800  0.48607400  0.59314400  1
  Yb  Yb3  1  0.68643800  0.51392600  0.90685600  1
  Yb  Yb4  1  0.31356200  0.51392600  0.40685600  1
  Yb  Yb5  1  0.31356200  0.48607400  0.09314400  1
  Cu  Cu6  1  0.68697300  0.00000000  0.75000000  1
  Cu  Cu7  1  0.31302700  0.00000000  0.25000000  1
  Cu  Cu8  1  0.13480900  0.25651900  0.00626400  1
  Cu  Cu9  1  0.13480900  0.74348100  0.49373600  1
  Cu  Cu10  1  0.86519100  0.74348100  0.99373600  1
  Cu  Cu11  1  0.86519100  0.25651900  0.50626400  1
  Te  Te12  1  0.61829300  0.70724000  0.62757000  1
  Te  Te13  1  0.61829300  0.29276000  0.87243000  1
  Te  Te14  1  0.38170700  0.29276000  0.37243000  1
  Te  Te15  1  0.38170700  0.70724000  0.12757000  1
  Te  Te16  1  0.15387500  0.29269200  0.66409400  1
  Te  Te17  1  0.15387500  0.70730800  0.83590600  1
  Te  Te18  1  0.84612500  0.70730800  0.33590600  1
  Te  Te19  1  0.84612500  0.29269200  0.16409400  1
  Cl  Cl20  1  0.67133700  0.87063200  0.72347800  1
  Cl  Cl21  1  0.67133700  0.12936800  0.77652200  1
  Cl  Cl22  1  0.32866300  0.12936800  0.27652200  1
  Cl  Cl23  1  0.32866300  0.87063200  0.22347800  1
  Cl  Cl24  1  0.19435900  0.14163900  0.95673500  1
  Cl  Cl25  1  0.19435900  0.85836100  0.54326500  1
  Cl  Cl26  1  0.80564100  0.85836100  0.04326500  1
  Cl  Cl27  1  0.80564100  0.14163900  0.45673500  1
  Cl  Cl28  1  0.85143700  0.13060900  0.10262100  1
  Cl  Cl29  1  0.85143700  0.86939100  0.39737900  1
  Cl  Cl30  1  0.14856300  0.86939100  0.89737900  1
  Cl  Cl31  1  0.14856300  0.13060900  0.60262100  1
  O  O32  1  0.86002300  0.61172900  0.62897500  1
  O  O33  1  0.86002300  0.38827100  0.87102500  1
  O  O34  1  0.13997700  0.38827100  0.37102500  1
  O  O35  1  0.13997700  0.61172900  0.12897500  1
  O  O36  1  0.39157000  0.35320600  0.92490100  1
  O  O37  1  0.39157000  0.64679400  0.57509900  1
  O  O38  1  0.60843000  0.64679400  0.07509900  1
  O  O39  1  0.60843000  0.35320600  0.42490100  1
  O  O40  1  0.49030500  0.39201000  0.74530900  1
  O  O41  1  0.49030500  0.60799000  0.75469100  1
  O  O42  1  0.50969500  0.60799000  0.25469100  1
  O  O43  1  0.50969500  0.39201000  0.24530900  1
  O  O44  1  0.00617300  0.39001800  0.69364600  1
  O  O45  1  0.00617300  0.60998200  0.80635400  1
  O  O46  1  0.99382700  0.60998200  0.30635400  1
  O  O47  1  0.99382700  0.39001800  0.19364600  1
  O  O48  1  0.08253600  0.34562000  0.05798700  1
  O  O49  1  0.08253600  0.65438000  0.44201300  1
  O  O50  1  0.91746400  0.65438000  0.94201300  1
  O  O51  1  0.91746400  0.34562000  0.55798700  1
  O  O52  1  0.38392400  0.39347300  0.57349300  1
  O  O53  1  0.38392400  0.60652700  0.92650700  1
  O  O54  1  0.61607600  0.60652700  0.42650700  1
  O  O55  1  0.61607600  0.39347300  0.07349300  1
