# generated using pymatgen
data_InH12C4Se2Cl3
_symmetry_space_group_name_H-M   'P 1'
_cell_length_a   11.66505947
_cell_length_b   11.76094962
_cell_length_c   18.30356837
_cell_angle_alpha   90.00000000
_cell_angle_beta   90.00000000
_cell_angle_gamma   90.00000000
_symmetry_Int_Tables_number   1
_chemical_formula_structural   InH12C4Se2Cl3
_chemical_formula_sum   'In8 H96 C32 Se16 Cl24'
_cell_volume   2511.10638681
_cell_formula_units_Z   8
loop_
 _symmetry_equiv_pos_site_id
 _symmetry_equiv_pos_as_xyz
  1  'x, y, z'
loop_
 _atom_site_type_symbol
 _atom_site_label
 _atom_site_symmetry_multiplicity
 _atom_site_fract_x
 _atom_site_fract_y
 _atom_site_fract_z
 _atom_site_occupancy
  In  In0  1  0.42195276  0.57191910  0.41676098  1
  In  In1  1  0.92195276  0.92808090  0.58323902  1
  In  In2  1  0.57804724  0.07191910  0.08323902  1
  In  In3  1  0.07804724  0.42808090  0.91676098  1
  In  In4  1  0.57804724  0.42808090  0.58323902  1
  In  In5  1  0.07804724  0.07191910  0.41676098  1
  In  In6  1  0.42195276  0.92808090  0.91676098  1
  In  In7  1  0.92195276  0.57191910  0.08323902  1
  H  H8  1  0.09040223  0.49763056  0.38635258  1
  H  H9  1  0.59040223  0.00236944  0.61364742  1
  H  H10  1  0.90959777  0.99763056  0.11364742  1
  H  H11  1  0.40959777  0.50236944  0.88635258  1
  H  H12  1  0.90959777  0.50236944  0.61364742  1
  H  H13  1  0.40959777  0.99763056  0.38635258  1
  H  H14  1  0.09040223  0.00236944  0.88635258  1
  H  H15  1  0.59040223  0.49763056  0.11364742  1
  H  H16  1  0.13221738  0.64480630  0.39915669  1
  H  H17  1  0.63221738  0.85519370  0.60084331  1
  H  H18  1  0.86778262  0.14480630  0.10084331  1
  H  H19  1  0.36778262  0.35519370  0.89915669  1
  H  H20  1  0.86778262  0.35519370  0.60084331  1
  H  H21  1  0.36778262  0.14480630  0.39915669  1
  H  H22  1  0.13221738  0.85519370  0.89915669  1
  H  H23  1  0.63221738  0.64480630  0.10084331  1
  H  H24  1  0.02227890  0.58307266  0.45549105  1
  H  H25  1  0.52227890  0.91692734  0.54450895  1
  H  H26  1  0.97772110  0.08307266  0.04450895  1
  H  H27  1  0.47772110  0.41692734  0.95549105  1
  H  H28  1  0.97772110  0.41692734  0.54450895  1
  H  H29  1  0.47772110  0.08307266  0.45549105  1
  H  H30  1  0.02227890  0.91692734  0.95549105  1
  H  H31  1  0.52227890  0.58307266  0.04450895  1
  H  H32  1  0.26653850  0.63715377  0.60686806  1
  H  H33  1  0.76653850  0.86284623  0.39313194  1
  H  H34  1  0.73346150  0.13715377  0.89313194  1
  H  H35  1  0.23346150  0.36284623  0.10686806  1
  H  H36  1  0.73346150  0.36284623  0.39313194  1
  H  H37  1  0.23346150  0.13715377  0.60686806  1
  H  H38  1  0.26653850  0.86284623  0.10686806  1
  H  H39  1  0.76653850  0.63715377  0.89313194  1
  H  H40  1  0.23739802  0.72678566  0.52908991  1
  H  H41  1  0.73739802  0.77321434  0.47091009  1
  H  H42  1  0.76260198  0.22678566  0.97091009  1
  H  H43  1  0.26260198  0.27321434  0.02908991  1
  H  H44  1  0.76260198  0.27321434  0.47091009  1
  H  H45  1  0.26260198  0.22678566  0.52908991  1
  H  H46  1  0.23739802  0.77321434  0.02908991  1
  H  H47  1  0.73739802  0.72678566  0.97091009  1
  H  H48  1  0.12046906  0.66170720  0.57765129  1
  H  H49  1  0.62046906  0.83829280  0.42234871  1
  H  H50  1  0.87953094  0.16170720  0.92234871  1
  H  H51  1  0.37953094  0.33829280  0.07765129  1
  H  H52  1  0.87953094  0.33829280  0.42234871  1
  H  H53  1  0.37953094  0.16170720  0.57765129  1
  H  H54  1  0.12046906  0.83829280  0.07765129  1
  H  H55  1  0.62046906  0.66170720  0.92234871  1
  H  H56  1  0.33526502  0.67011090  0.22707252  1
  H  H57  1  0.83526502  0.82988910  0.77292748  1
  H  H58  1  0.66473498  0.17011090  0.27292748  1
  H  H59  1  0.16473498  0.32988910  0.72707252  1
  H  H60  1  0.66473498  0.32988910  0.77292748  1
  H  H61  1  0.16473498  0.17011090  0.22707252  1
  H  H62  1  0.33526502  0.82988910  0.72707252  1
  H  H63  1  0.83526502  0.67011090  0.27292748  1
  H  H64  1  0.47368333  0.60218413  0.23142486  1
  H  H65  1  0.97368333  0.89781587  0.76857514  1
  H  H66  1  0.52631667  0.10218413  0.26857514  1
  H  H67  1  0.02631667  0.39781587  0.73142486  1
  H  H68  1  0.52631667  0.39781587  0.76857514  1
  H  H69  1  0.02631667  0.10218413  0.23142486  1
  H  H70  1  0.47368333  0.89781587  0.73142486  1
  H  H71  1  0.97368333  0.60218413  0.26857514  1
  H  H72  1  0.36815838  0.55794118  0.16395178  1
  H  H73  1  0.86815838  0.94205882  0.83604822  1
  H  H74  1  0.63184162  0.05794118  0.33604822  1
  H  H75  1  0.13184162  0.44205882  0.66395178  1
  H  H76  1  0.63184162  0.44205882  0.83604822  1
  H  H77  1  0.13184162  0.05794118  0.16395178  1
  H  H78  1  0.36815838  0.94205882  0.66395178  1
  H  H79  1  0.86815838  0.55794118  0.33604822  1
  H  H80  1  0.40858434  0.28596404  0.30542925  1
  H  H81  1  0.90858434  0.21403596  0.69457075  1
  H  H82  1  0.59141566  0.78596404  0.19457075  1
  H  H83  1  0.09141566  0.71403596  0.80542925  1
  H  H84  1  0.59141566  0.71403596  0.69457075  1
  H  H85  1  0.09141566  0.78596404  0.30542925  1
  H  H86  1  0.40858434  0.21403596  0.80542925  1
  H  H87  1  0.90858434  0.28596404  0.19457075  1
  H  H88  1  0.51654455  0.38756048  0.27851757  1
  H  H89  1  0.01654455  0.11243952  0.72148243  1
  H  H90  1  0.48345545  0.88756048  0.22148243  1
  H  H91  1  0.98345545  0.61243952  0.77851757  1
  H  H92  1  0.48345545  0.61243952  0.72148243  1
  H  H93  1  0.98345545  0.88756048  0.27851757  1
  H  H94  1  0.51654455  0.11243952  0.77851757  1
  H  H95  1  0.01654455  0.38756048  0.22148243  1
  H  H96  1  0.41863898  0.32884543  0.21165255  1
  H  H97  1  0.91863898  0.17115457  0.78834745  1
  H  H98  1  0.58136102  0.82884543  0.28834745  1
  H  H99  1  0.08136102  0.67115457  0.71165255  1
  H  H100  1  0.58136102  0.67115457  0.78834745  1
  H  H101  1  0.08136102  0.82884543  0.21165255  1
  H  H102  1  0.41863898  0.17115457  0.71165255  1
  H  H103  1  0.91863898  0.32884543  0.28834745  1
  C  C104  1  0.42977992  0.35603509  0.26829161  1
  C  C105  1  0.92977992  0.14396491  0.73170839  1
  C  C106  1  0.57022008  0.85603509  0.23170839  1
  C  C107  1  0.07022008  0.64396491  0.76829161  1
  C  C108  1  0.57022008  0.64396491  0.73170839  1
  C  C109  1  0.07022008  0.85603509  0.26829161  1
  C  C110  1  0.42977992  0.14396491  0.76829161  1
  C  C111  1  0.92977992  0.35603509  0.23170839  1
  C  C112  1  0.10187109  0.56685737  0.42577380  1
  C  C113  1  0.60187109  0.93314263  0.57422620  1
  C  C114  1  0.89812891  0.06685737  0.07422620  1
  C  C115  1  0.39812891  0.43314263  0.92577380  1
  C  C116  1  0.89812891  0.43314263  0.57422620  1
  C  C117  1  0.39812891  0.06685737  0.42577380  1
  C  C118  1  0.10187109  0.93314263  0.92577380  1
  C  C119  1  0.60187109  0.56685737  0.07422620  1
  C  C120  1  0.20965782  0.65232484  0.56018864  1
  C  C121  1  0.70965782  0.84767516  0.43981136  1
  C  C122  1  0.79034218  0.15232484  0.93981136  1
  C  C123  1  0.29034218  0.34767516  0.06018864  1
  C  C124  1  0.79034218  0.34767516  0.43981136  1
  C  C125  1  0.29034218  0.15232484  0.56018864  1
  C  C126  1  0.20965782  0.84767516  0.06018864  1
  C  C127  1  0.70965782  0.65232484  0.93981136  1
  C  C128  1  0.38285198  0.59052710  0.21911625  1
  C  C129  1  0.88285198  0.90947290  0.78088375  1
  C  C130  1  0.61714802  0.09052710  0.28088375  1
  C  C131  1  0.11714802  0.40947290  0.71911625  1
  C  C132  1  0.61714802  0.40947290  0.78088375  1
  C  C133  1  0.11714802  0.09052710  0.21911625  1
  C  C134  1  0.38285198  0.90947290  0.71911625  1
  C  C135  1  0.88285198  0.59052710  0.28088375  1
  Se  Se136  1  0.21825812  0.51683150  0.49697464  1
  Se  Se137  1  0.71825812  0.98316850  0.50302536  1
  Se  Se138  1  0.78174188  0.01683150  0.00302536  1
  Se  Se139  1  0.28174188  0.48316850  0.99697464  1
  Se  Se140  1  0.78174188  0.48316850  0.50302536  1
  Se  Se141  1  0.28174188  0.01683150  0.49697464  1
  Se  Se142  1  0.21825812  0.98316850  0.99697464  1
  Se  Se143  1  0.71825812  0.51683150  0.00302536  1
  Se  Se144  1  0.31976923  0.47880140  0.28834605  1
  Se  Se145  1  0.81976923  0.02119860  0.71165395  1
  Se  Se146  1  0.68023077  0.97880140  0.21165395  1
  Se  Se147  1  0.18023077  0.52119860  0.78834605  1
  Se  Se148  1  0.68023077  0.52119860  0.71165395  1
  Se  Se149  1  0.18023077  0.97880140  0.28834605  1
  Se  Se150  1  0.31976923  0.02119860  0.78834605  1
  Se  Se151  1  0.81976923  0.47880140  0.21165395  1
  Cl  Cl152  1  0.34358825  0.76349084  0.38618476  1
  Cl  Cl153  1  0.84358825  0.73650916  0.61381524  1
  Cl  Cl154  1  0.65641175  0.26349084  0.11381524  1
  Cl  Cl155  1  0.15641175  0.23650916  0.88618476  1
  Cl  Cl156  1  0.65641175  0.23650916  0.61381524  1
  Cl  Cl157  1  0.15641175  0.26349084  0.38618476  1
  Cl  Cl158  1  0.34358825  0.73650916  0.88618476  1
  Cl  Cl159  1  0.84358825  0.76349084  0.11381524  1
  Cl  Cl160  1  0.60767196  0.59001632  0.35299339  1
  Cl  Cl161  1  0.10767196  0.90998368  0.64700661  1
  Cl  Cl162  1  0.39232804  0.09001632  0.14700661  1
  Cl  Cl163  1  0.89232804  0.40998368  0.85299339  1
  Cl  Cl164  1  0.39232804  0.40998368  0.64700661  1
  Cl  Cl165  1  0.89232804  0.09001632  0.35299339  1
  Cl  Cl166  1  0.60767196  0.90998368  0.85299339  1
  Cl  Cl167  1  0.10767196  0.59001632  0.14700661  1
  Cl  Cl168  1  0.48766870  0.36375125  0.45979161  1
  Cl  Cl169  1  0.98766870  0.13624875  0.54020839  1
  Cl  Cl170  1  0.51233130  0.86375125  0.04020839  1
  Cl  Cl171  1  0.01233130  0.63624875  0.95979161  1
  Cl  Cl172  1  0.51233130  0.63624875  0.54020839  1
  Cl  Cl173  1  0.01233130  0.86375125  0.45979161  1
  Cl  Cl174  1  0.48766870  0.13624875  0.95979161  1
  Cl  Cl175  1  0.98766870  0.36375125  0.04020839  1
