# generated using pymatgen
data_TeSe(NO5)2
_symmetry_space_group_name_H-M   'P 1'
_cell_length_a   7.04318400
_cell_length_b   12.25296800
_cell_length_c   13.59462083
_cell_angle_alpha   75.94617386
_cell_angle_beta   90.00000000
_cell_angle_gamma   90.00000000
_symmetry_Int_Tables_number   1
_chemical_formula_structural   TeSe(NO5)2
_chemical_formula_sum   'Te4 Se4 N8 O40'
_cell_volume   1138.09790307
_cell_formula_units_Z   4
loop_
 _symmetry_equiv_pos_site_id
 _symmetry_equiv_pos_as_xyz
  1  'x, y, z'
loop_
 _atom_site_type_symbol
 _atom_site_label
 _atom_site_symmetry_multiplicity
 _atom_site_fract_x
 _atom_site_fract_y
 _atom_site_fract_z
 _atom_site_occupancy
  Te  Te0  1  0.50000000  0.00000000  0.00000000  1
  Te  Te1  1  0.00000000  0.50000000  0.00000000  1
  Te  Te2  1  0.50000000  0.50000000  0.50000000  1
  Te  Te3  1  0.00000000  0.00000000  0.50000000  1
  Se  Se4  1  0.98833700  0.73120700  0.25266200  1
  Se  Se5  1  0.48833700  0.76879300  0.74733800  1
  Se  Se6  1  0.01166300  0.26879300  0.74733800  1
  Se  Se7  1  0.51166300  0.23120700  0.25266200  1
  N  N8  1  0.01582900  0.34451500  0.35615600  1
  N  N9  1  0.51582900  0.15548500  0.64384400  1
  N  N10  1  0.98417100  0.65548500  0.64384400  1
  N  N11  1  0.48417100  0.84451500  0.35615600  1
  N  N12  1  0.49757200  0.59324200  0.14731700  1
  N  N13  1  0.99757200  0.90675800  0.85268300  1
  N  N14  1  0.50242800  0.40675800  0.85268300  1
  N  N15  1  0.00242800  0.09324200  0.14731700  1
  O  O16  1  0.06605100  0.84136800  0.29519400  1
  O  O17  1  0.56605100  0.65863200  0.70480600  1
  O  O18  1  0.93394900  0.15863200  0.70480600  1
  O  O19  1  0.43394900  0.34136800  0.29519400  1
  O  O20  1  0.75706100  0.74654200  0.21820200  1
  O  O21  1  0.25706100  0.75345800  0.78179800  1
  O  O22  1  0.24293900  0.25345800  0.78179800  1
  O  O23  1  0.74293900  0.24654200  0.21820200  1
  O  O24  1  0.99396900  0.60668200  0.33691600  1
  O  O25  1  0.49396900  0.89331800  0.66308400  1
  O  O26  1  0.00603100  0.39331800  0.66308400  1
  O  O27  1  0.50603100  0.10668200  0.33691600  1
  O  O28  1  0.13357100  0.73409600  0.15369700  1
  O  O29  1  0.63357100  0.76590400  0.84630300  1
  O  O30  1  0.86642900  0.26590400  0.84630300  1
  O  O31  1  0.36642900  0.23409600  0.15369700  1
  O  O32  1  0.37226900  0.87280700  0.96678900  1
  O  O33  1  0.87226900  0.62719300  0.03321100  1
  O  O34  1  0.62773100  0.12719300  0.03321100  1
  O  O35  1  0.12773100  0.37280700  0.96678900  1
  O  O36  1  0.76049900  0.94919100  0.02710800  1
  O  O37  1  0.26049900  0.55080900  0.97289200  1
  O  O38  1  0.23950100  0.05080900  0.97289200  1
  O  O39  1  0.73950100  0.44919100  0.02710800  1
  O  O40  1  0.63343400  0.07059300  0.87554200  1
  O  O41  1  0.13343400  0.42940700  0.12445800  1
  O  O42  1  0.36656600  0.92940700  0.12445800  1
  O  O43  1  0.86656600  0.57059300  0.87554200  1
  O  O44  1  0.37070800  0.62284700  0.54105800  1
  O  O45  1  0.87070800  0.87715300  0.45894200  1
  O  O46  1  0.62929200  0.37715300  0.45894200  1
  O  O47  1  0.12929200  0.12284700  0.54105800  1
  O  O48  1  0.58301800  0.39821500  0.62600400  1
  O  O49  1  0.08301800  0.10178500  0.37399600  1
  O  O50  1  0.41698200  0.60178500  0.37399600  1
  O  O51  1  0.91698200  0.89821500  0.62600400  1
  O  O52  1  0.69255900  0.61700800  0.47338200  1
  O  O53  1  0.19255900  0.88299200  0.52661800  1
  O  O54  1  0.30744100  0.38299200  0.52661800  1
  O  O55  1  0.80744100  0.11700800  0.47338200  1
