# generated using pymatgen
data_CoAs3OF18
_symmetry_space_group_name_H-M   'P 1'
_cell_length_a   9.47634100
_cell_length_b   10.53678500
_cell_length_c   13.97505400
_cell_angle_alpha   90.00000000
_cell_angle_beta   90.00000000
_cell_angle_gamma   90.00000000
_symmetry_Int_Tables_number   1
_chemical_formula_structural   CoAs3OF18
_chemical_formula_sum   'Co4 As12 O4 F72'
_cell_volume   1395.41148557
_cell_formula_units_Z   4
loop_
 _symmetry_equiv_pos_site_id
 _symmetry_equiv_pos_as_xyz
  1  'x, y, z'
loop_
 _atom_site_type_symbol
 _atom_site_label
 _atom_site_symmetry_multiplicity
 _atom_site_fract_x
 _atom_site_fract_y
 _atom_site_fract_z
 _atom_site_occupancy
  Co  Co0  1  0.50000000  0.00000000  0.00000000  1
  Co  Co1  1  0.00000000  0.50000000  0.50000000  1
  Co  Co2  1  0.50000000  0.00000000  0.50000000  1
  Co  Co3  1  0.00000000  0.50000000  0.00000000  1
  As  As4  1  0.69563700  0.70418600  0.05442300  1
  As  As5  1  0.80436300  0.20418600  0.44557700  1
  As  As6  1  0.30436300  0.29581400  0.55442300  1
  As  As7  1  0.19563700  0.79581400  0.94557700  1
  As  As8  1  0.30436300  0.29581400  0.94557700  1
  As  As9  1  0.19563700  0.79581400  0.55442300  1
  As  As10  1  0.69563700  0.70418600  0.44557700  1
  As  As11  1  0.80436300  0.20418600  0.05442300  1
  As  As12  1  0.37829700  0.02343600  0.25000000  1
  As  As13  1  0.12170300  0.52343600  0.25000000  1
  As  As14  1  0.62170300  0.97656400  0.75000000  1
  As  As15  1  0.87829700  0.47656400  0.75000000  1
  O  O16  1  0.98649700  0.92268300  0.25000000  1
  O  O17  1  0.51350300  0.42268300  0.25000000  1
  O  O18  1  0.01350300  0.07731700  0.75000000  1
  O  O19  1  0.48649700  0.57731700  0.75000000  1
  F  F20  1  0.78319100  0.78742100  0.14364100  1
  F  F21  1  0.71680900  0.28742100  0.35635900  1
  F  F22  1  0.21680900  0.21257900  0.64364100  1
  F  F23  1  0.28319100  0.71257900  0.85635900  1
  F  F24  1  0.21680900  0.21257900  0.85635900  1
  F  F25  1  0.28319100  0.71257900  0.64364100  1
  F  F26  1  0.78319100  0.78742100  0.35635900  1
  F  F27  1  0.71680900  0.28742100  0.14364100  1
  F  F28  1  0.59642700  0.62726600  0.14116500  1
  F  F29  1  0.90357300  0.12726600  0.35883500  1
  F  F30  1  0.40357300  0.37273400  0.64116500  1
  F  F31  1  0.09642700  0.87273400  0.85883500  1
  F  F32  1  0.40357300  0.37273400  0.85883500  1
  F  F33  1  0.09642700  0.87273400  0.64116500  1
  F  F34  1  0.59642700  0.62726600  0.35883500  1
  F  F35  1  0.90357300  0.12726600  0.14116500  1
  F  F36  1  0.60618300  0.62114200  0.96629200  1
  F  F37  1  0.89381700  0.12114200  0.53370800  1
  F  F38  1  0.39381700  0.37885800  0.46629200  1
  F  F39  1  0.10618300  0.87885800  0.03370800  1
  F  F40  1  0.39381700  0.37885800  0.03370800  1
  F  F41  1  0.10618300  0.87885800  0.46629200  1
  F  F42  1  0.60618300  0.62114200  0.53370800  1
  F  F43  1  0.89381700  0.12114200  0.96629200  1
  F  F44  1  0.79387600  0.78219200  0.96783200  1
  F  F45  1  0.70612400  0.28219200  0.53216800  1
  F  F46  1  0.20612400  0.21780800  0.46783200  1
  F  F47  1  0.29387600  0.71780800  0.03216800  1
  F  F48  1  0.20612400  0.21780800  0.03216800  1
  F  F49  1  0.29387600  0.71780800  0.46783200  1
  F  F50  1  0.79387600  0.78219200  0.53216800  1
  F  F51  1  0.70612400  0.28219200  0.96783200  1
  F  F52  1  0.56058500  0.83391200  0.04802500  1
  F  F53  1  0.93941500  0.33391200  0.45197500  1
  F  F54  1  0.43941500  0.16608800  0.54802500  1
  F  F55  1  0.06058500  0.66608800  0.95197500  1
  F  F56  1  0.43941500  0.16608800  0.95197500  1
  F  F57  1  0.06058500  0.66608800  0.54802500  1
  F  F58  1  0.56058500  0.83391200  0.45197500  1
  F  F59  1  0.93941500  0.33391200  0.04802500  1
  F  F60  1  0.83193600  0.57691600  0.06199400  1
  F  F61  1  0.66806400  0.07691600  0.43800600  1
  F  F62  1  0.16806400  0.42308400  0.56199400  1
  F  F63  1  0.33193600  0.92308400  0.93800600  1
  F  F64  1  0.16806400  0.42308400  0.93800600  1
  F  F65  1  0.33193600  0.92308400  0.56199400  1
  F  F66  1  0.83193600  0.57691600  0.43800600  1
  F  F67  1  0.66806400  0.07691600  0.06199400  1
  F  F68  1  0.54215400  0.94984400  0.25000000  1
  F  F69  1  0.95784600  0.44984400  0.25000000  1
  F  F70  1  0.45784600  0.05015600  0.75000000  1
  F  F71  1  0.04215400  0.55015600  0.75000000  1
  F  F72  1  0.45903400  0.17207700  0.25000000  1
  F  F73  1  0.04096600  0.67207700  0.25000000  1
  F  F74  1  0.54096600  0.82792300  0.75000000  1
  F  F75  1  0.95903400  0.32792300  0.75000000  1
  F  F76  1  0.21385600  0.09643000  0.25000000  1
  F  F77  1  0.28614400  0.59643000  0.25000000  1
  F  F78  1  0.78614400  0.90357000  0.75000000  1
  F  F79  1  0.71385600  0.40357000  0.75000000  1
  F  F80  1  0.29379500  0.87743300  0.25000000  1
  F  F81  1  0.20620500  0.37743300  0.25000000  1
  F  F82  1  0.70620500  0.12256700  0.75000000  1
  F  F83  1  0.79379500  0.62256700  0.75000000  1
  F  F84  1  0.38192100  0.02326300  0.11695400  1
  F  F85  1  0.11807900  0.52326300  0.38304600  1
  F  F86  1  0.61807900  0.97673700  0.61695400  1
  F  F87  1  0.88192100  0.47673700  0.88304600  1
  F  F88  1  0.61807900  0.97673700  0.88304600  1
  F  F89  1  0.88192100  0.47673700  0.61695400  1
  F  F90  1  0.38192100  0.02326300  0.38304600  1
  F  F91  1  0.11807900  0.52326300  0.11695400  1
