# generated using pymatgen
data_SiO2
_symmetry_space_group_name_H-M   'P 1'
_cell_length_a   8.32306700
_cell_length_b   8.32450989
_cell_length_c   10.42684470
_cell_angle_alpha   89.72019621
_cell_angle_beta   89.65129451
_cell_angle_gamma   60.02712878
_symmetry_Int_Tables_number   1
_chemical_formula_structural   SiO2
_chemical_formula_sum   'Si18 O36'
_cell_volume   625.79952922
_cell_formula_units_Z   18
loop_
 _symmetry_equiv_pos_site_id
 _symmetry_equiv_pos_as_xyz
  1  'x, y, z'
loop_
 _atom_site_type_symbol
 _atom_site_label
 _atom_site_symmetry_multiplicity
 _atom_site_fract_x
 _atom_site_fract_y
 _atom_site_fract_z
 _atom_site_occupancy
  Si  Si0  1  0.45833800  0.82717100  0.41382100  1
  Si  Si1  1  0.12557300  0.49916000  0.75097700  1
  Si  Si2  1  0.78881100  0.16444800  0.08427600  1
  Si  Si3  1  0.20698800  0.46078800  0.41799700  1
  Si  Si4  1  0.87569900  0.13061800  0.74908800  1
  Si  Si5  1  0.53925500  0.79367400  0.08419900  1
  Si  Si6  1  0.83501600  0.20993100  0.41879600  1
  Si  Si7  1  0.49914200  0.87891500  0.74850400  1
  Si  Si8  1  0.16086300  0.54557600  0.08106000  1
  Si  Si9  1  0.12430100  0.86938200  0.25091200  1
  Si  Si10  1  0.79301200  0.53921200  0.58200300  1
  Si  Si11  1  0.46074500  0.20632600  0.91580100  1
  Si  Si12  1  0.50085800  0.12108500  0.25149600  1
  Si  Si13  1  0.16498400  0.79006900  0.58120400  1
  Si  Si14  1  0.83913700  0.45442400  0.91894000  1
  Si  Si15  1  0.87442700  0.50084000  0.24902300  1
  Si  Si16  1  0.54166200  0.17282900  0.58617900  1
  Si  Si17  1  0.21118900  0.83555200  0.91572400  1
  O  O18  1  0.66828000  0.67387300  0.20867800  1
  O  O19  1  0.33643400  0.34233800  0.54231300  1
  O  O20  1  0.00221400  0.00874000  0.87353000  1
  O  O21  1  0.15773600  0.66772000  0.20755900  1
  O  O22  1  0.83898800  0.33006200  0.54427300  1
  O  O23  1  0.49679000  0.00093200  0.87455600  1
  O  O24  1  0.66565600  0.16198700  0.20908700  1
  O  O25  1  0.33252500  0.83292800  0.53904800  1
  O  O26  1  0.00169300  0.49822900  0.87654800  1
  O  O27  1  0.00324500  0.00516000  0.37306000  1
  O  O28  1  0.66892800  0.67393000  0.70547700  1
  O  O29  1  0.33227500  0.33991500  0.04061400  1
  O  O30  1  0.50115400  0.99350500  0.37333600  1
  O  O31  1  0.16816800  0.66484900  0.70736800  1
  O  O32  1  0.82696600  0.33315100  0.04212200  1
  O  O33  1  0.99827500  0.50233800  0.37622200  1
  O  O34  1  0.66766400  0.17073000  0.70901100  1
  O  O35  1  0.33340400  0.83141400  0.04007600  1
  O  O36  1  0.66659600  0.16858600  0.95992400  1
  O  O37  1  0.33233600  0.82927000  0.29098900  1
  O  O38  1  0.00172500  0.49766200  0.62377800  1
  O  O39  1  0.66772500  0.66008500  0.95938600  1
  O  O40  1  0.33107200  0.32607000  0.29452300  1
  O  O41  1  0.99675500  0.99484000  0.62694000  1
  O  O42  1  0.17303400  0.66684900  0.95787800  1
  O  O43  1  0.83183200  0.33515100  0.29263200  1
  O  O44  1  0.49884600  0.00649500  0.62666400  1
  O  O45  1  0.99778600  0.99126000  0.12647000  1
  O  O46  1  0.66356600  0.65766200  0.45768700  1
  O  O47  1  0.33172000  0.32612700  0.79132200  1
  O  O48  1  0.99830700  0.50177100  0.12345200  1
  O  O49  1  0.66747500  0.16707200  0.46095200  1
  O  O50  1  0.33434400  0.83801300  0.79091300  1
  O  O51  1  0.50321000  0.99906800  0.12544400  1
  O  O52  1  0.16101200  0.66993800  0.45572700  1
  O  O53  1  0.84226400  0.33228000  0.79244100  1
