# generated using pymatgen
data_NaCa(PO2)3
_symmetry_space_group_name_H-M   'P 1'
_cell_length_a   9.89348400
_cell_length_b   9.89348400
_cell_length_c   9.89348400
_cell_angle_alpha   90.00000000
_cell_angle_beta   90.00000000
_cell_angle_gamma   90.00000000
_symmetry_Int_Tables_number   1
_chemical_formula_structural   NaCa(PO2)3
_chemical_formula_sum   'Na4 Ca4 P12 O24'
_cell_volume   968.38436125
_cell_formula_units_Z   4
loop_
 _symmetry_equiv_pos_site_id
 _symmetry_equiv_pos_as_xyz
  1  'x, y, z'
loop_
 _atom_site_type_symbol
 _atom_site_label
 _atom_site_symmetry_multiplicity
 _atom_site_fract_x
 _atom_site_fract_y
 _atom_site_fract_z
 _atom_site_occupancy
  Na  Na0  1  0.87175500  0.37175500  0.12824500  1
  Na  Na1  1  0.37175500  0.12824500  0.87175500  1
  Na  Na2  1  0.12824500  0.87175500  0.37175500  1
  Na  Na3  1  0.62824500  0.62824500  0.62824500  1
  Ca  Ca4  1  0.32609900  0.82609900  0.67390100  1
  Ca  Ca5  1  0.82609900  0.67390100  0.32609900  1
  Ca  Ca6  1  0.67390100  0.32609900  0.82609900  1
  Ca  Ca7  1  0.17390100  0.17390100  0.17390100  1
  P  P8  1  0.98190900  0.69853500  0.65995300  1
  P  P9  1  0.34004700  0.48190900  0.80146500  1
  P  P10  1  0.19853500  0.84004700  0.01809100  1
  P  P11  1  0.48190900  0.80146500  0.34004700  1
  P  P12  1  0.84004700  0.01809100  0.19853500  1
  P  P13  1  0.69853500  0.65995300  0.98190900  1
  P  P14  1  0.01809100  0.19853500  0.84004700  1
  P  P15  1  0.65995300  0.98190900  0.69853500  1
  P  P16  1  0.80146500  0.34004700  0.48190900  1
  P  P17  1  0.51809100  0.30146500  0.15995300  1
  P  P18  1  0.15995300  0.51809100  0.30146500  1
  P  P19  1  0.30146500  0.15995300  0.51809100  1
  O  O20  1  0.86270900  0.69453200  0.56186900  1
  O  O21  1  0.43813100  0.36270900  0.80546800  1
  O  O22  1  0.19453200  0.93813100  0.13729100  1
  O  O23  1  0.36270900  0.80546800  0.43813100  1
  O  O24  1  0.93813100  0.13729100  0.19453200  1
  O  O25  1  0.69453200  0.56186900  0.86270900  1
  O  O26  1  0.13729100  0.19453200  0.93813100  1
  O  O27  1  0.56186900  0.86270900  0.69453200  1
  O  O28  1  0.80546800  0.43813100  0.36270900  1
  O  O29  1  0.63729100  0.30546800  0.06186900  1
  O  O30  1  0.06186900  0.63729100  0.30546800  1
  O  O31  1  0.30546800  0.06186900  0.63729100  1
  O  O32  1  0.09837300  0.78784200  0.61122500  1
  O  O33  1  0.38877500  0.59837300  0.71215800  1
  O  O34  1  0.28784200  0.88877500  0.90162700  1
  O  O35  1  0.59837300  0.71215800  0.38877500  1
  O  O36  1  0.88877500  0.90162700  0.28784200  1
  O  O37  1  0.78784200  0.61122500  0.09837300  1
  O  O38  1  0.90162700  0.28784200  0.88877500  1
  O  O39  1  0.61122500  0.09837300  0.78784200  1
  O  O40  1  0.71215800  0.38877500  0.59837300  1
  O  O41  1  0.40162700  0.21215800  0.11122500  1
  O  O42  1  0.11122500  0.40162700  0.21215800  1
  O  O43  1  0.21215800  0.11122500  0.40162700  1
