# generated using pymatgen
data_U3NO23
_symmetry_space_group_name_H-M   'P 1'
_cell_length_a   7.52381235
_cell_length_b   11.36418072
_cell_length_c   12.77934722
_cell_angle_alpha   69.52097232
_cell_angle_beta   79.12393868
_cell_angle_gamma   88.92367392
_symmetry_Int_Tables_number   1
_chemical_formula_structural   U3NO23
_chemical_formula_sum   'U6 N2 O46'
_cell_volume   1003.89164986
_cell_formula_units_Z   2
loop_
 _symmetry_equiv_pos_site_id
 _symmetry_equiv_pos_as_xyz
  1  'x, y, z'
loop_
 _atom_site_type_symbol
 _atom_site_label
 _atom_site_symmetry_multiplicity
 _atom_site_fract_x
 _atom_site_fract_y
 _atom_site_fract_z
 _atom_site_occupancy
  U  U0  1  0.41678000  0.25651300  0.51548400  1
  U  U1  1  0.58322000  0.74348700  0.48451600  1
  U  U2  1  0.31397800  0.02301000  0.84266300  1
  U  U3  1  0.68602200  0.97699000  0.15733700  1
  U  U4  1  0.08287500  0.37664500  0.68373900  1
  U  U5  1  0.91712500  0.62335500  0.31626100  1
  N  N6  1  0.20185600  0.33505000  0.07137900  1
  N  N7  1  0.79814400  0.66495000  0.92862100  1
  O  O8  1  0.26328500  0.15081700  0.49235100  1
  O  O9  1  0.73671500  0.84918300  0.50764900  1
  O  O10  1  0.61354700  0.34108700  0.52069000  1
  O  O11  1  0.38645300  0.65891300  0.47931000  1
  O  O12  1  0.13109600  0.96059600  0.79873300  1
  O  O13  1  0.86890400  0.03940400  0.20126700  1
  O  O14  1  0.48410700  0.10597200  0.87923700  1
  O  O15  1  0.51589300  0.89402800  0.12076300  1
  O  O16  1  0.91488500  0.27351400  0.66731600  1
  O  O17  1  0.08511500  0.72648600  0.33268400  1
  O  O18  1  0.23866000  0.43710000  0.74934500  1
  O  O19  1  0.76134000  0.56290000  0.25065500  1
  O  O20  1  0.29207900  0.20808800  0.69294700  1
  O  O21  1  0.70792100  0.79191200  0.30705300  1
  O  O22  1  0.57738200  0.04788300  0.64970500  1
  O  O23  1  0.42261800  0.95211700  0.35029500  1
  O  O24  1  0.24471100  0.39860300  0.52015900  1
  O  O25  1  0.75528900  0.60139700  0.47984100  1
  O  O26  1  0.02792700  0.15364600  0.91199300  1
  O  O27  1  0.97207300  0.84635400  0.08800700  1
  O  O28  1  0.73783300  0.16365700  0.38271600  1
  O  O29  1  0.26216700  0.83634300  0.61728400  1
  O  O30  1  0.50023200  0.35443700  0.25809400  1
  O  O31  1  0.49976800  0.64556300  0.74190600  1
  O  O32  1  0.41710300  0.86266100  0.89024100  1
  O  O33  1  0.58289700  0.13733900  0.10975900  1
  O  O34  1  0.12767600  0.90114900  0.05794400  1
  O  O35  1  0.87232400  0.09885100  0.94205600  1
  O  O36  1  0.98828300  0.53806600  0.63315400  1
  O  O37  1  0.01171700  0.46193400  0.36684600  1
  O  O38  1  0.77009700  0.38233400  0.85341600  1
  O  O39  1  0.22990300  0.61766600  0.14658400  1
  O  O40  1  0.21802700  0.21991000  0.08725000  1
  O  O41  1  0.78197300  0.78009000  0.91275000  1
  O  O42  1  0.05418800  0.37095800  0.11056500  1
  O  O43  1  0.94581200  0.62904200  0.88943500  1
  O  O44  1  0.33272200  0.41188200  0.01733700  1
  O  O45  1  0.66727800  0.58811800  0.98266300  1
  O  O46  1  0.38427300  0.65969500  0.81822700  1
  O  O47  1  0.61572700  0.34030500  0.18177300  1
  O  O48  1  0.09901200  0.82679500  0.61920600  1
  O  O49  1  0.90098800  0.17320500  0.38079400  1
  O  O50  1  0.73557200  0.04688100  0.66550400  1
  O  O51  1  0.26442800  0.95311900  0.33449600  1
  O  O52  1  0.62494100  0.37606800  0.82397900  1
  O  O53  1  0.37505900  0.62393200  0.17602100  1
