# generated using pymatgen
data_ZnP3H16C3NO12
_symmetry_space_group_name_H-M   'P 1'
_cell_length_a   16.36415900
_cell_length_b   9.29858900
_cell_length_c   9.84119727
_cell_angle_alpha   64.65613140
_cell_angle_beta   90.00000000
_cell_angle_gamma   90.00000000
_symmetry_Int_Tables_number   1
_chemical_formula_structural   ZnP3H16C3NO12
_chemical_formula_sum   'Zn4 P12 H64 C12 N4 O48'
_cell_volume   1353.34782866
_cell_formula_units_Z   4
loop_
 _symmetry_equiv_pos_site_id
 _symmetry_equiv_pos_as_xyz
  1  'x, y, z'
loop_
 _atom_site_type_symbol
 _atom_site_label
 _atom_site_symmetry_multiplicity
 _atom_site_fract_x
 _atom_site_fract_y
 _atom_site_fract_z
 _atom_site_occupancy
  Zn  Zn0  1  0.20933400  0.54284300  0.82973400  1
  Zn  Zn1  1  0.70933400  0.45715700  0.67026600  1
  Zn  Zn2  1  0.79066600  0.45715700  0.17026600  1
  Zn  Zn3  1  0.29066600  0.54284300  0.32973400  1
  P  P4  1  0.28431500  0.17701800  0.01029100  1
  P  P5  1  0.78431500  0.82298200  0.48970900  1
  P  P6  1  0.71568500  0.82298200  0.98970900  1
  P  P7  1  0.21568500  0.17701800  0.51029100  1
  P  P8  1  0.38034800  0.54059000  0.61853700  1
  P  P9  1  0.88034800  0.45941000  0.88146300  1
  P  P10  1  0.61965200  0.45941000  0.38146300  1
  P  P11  1  0.11965200  0.54059000  0.11853700  1
  P  P12  1  0.46340900  0.94391900  0.77989100  1
  P  P13  1  0.96340900  0.05608100  0.72010900  1
  P  P14  1  0.53659100  0.05608100  0.22010900  1
  P  P15  1  0.03659100  0.94391900  0.27989100  1
  H  H16  1  0.32478400  0.05262200  0.85272800  1
  H  H17  1  0.82478400  0.94737800  0.64727200  1
  H  H18  1  0.67521600  0.94737800  0.14727200  1
  H  H19  1  0.17521600  0.05262200  0.35272800  1
  H  H20  1  0.52460000  0.20351900  0.70117400  1
  H  H21  1  0.02460000  0.79648100  0.79882600  1
  H  H22  1  0.47540000  0.79648100  0.29882600  1
  H  H23  1  0.97540000  0.20351900  0.20117400  1
  H  H24  1  0.50312600  0.40939800  0.74886000  1
  H  H25  1  0.00312600  0.59060200  0.75114000  1
  H  H26  1  0.49687400  0.59060200  0.25114000  1
  H  H27  1  0.99687400  0.40939800  0.24886000  1
  H  H28  1  0.42613800  0.41208200  0.87589600  1
  H  H29  1  0.92613800  0.58791800  0.62410400  1
  H  H30  1  0.57386200  0.58791800  0.12410400  1
  H  H31  1  0.07386200  0.41208200  0.37589600  1
  H  H32  1  0.29901700  0.25444000  0.73902800  1
  H  H33  1  0.79901700  0.74556000  0.76097200  1
  H  H34  1  0.70098300  0.74556000  0.26097200  1
  H  H35  1  0.20098300  0.25444000  0.23902800  1
  H  H36  1  0.43179400  0.22229700  0.60325200  1
  H  H37  1  0.93179400  0.77770300  0.89674800  1
  H  H38  1  0.56820600  0.77770300  0.39674800  1
  H  H39  1  0.06820600  0.22229700  0.10325200  1
  H  H40  1  0.45202200  0.15739500  0.92405700  1
  H  H41  1  0.95202200  0.84260500  0.57594300  1
  H  H42  1  0.54797800  0.84260500  0.07594300  1
  H  H43  1  0.04797800  0.15739500  0.42405700  1
  H  H44  1  0.59664400  0.92410300  0.76487800  1
  H  H45  1  0.09664400  0.07589700  0.73512200  1
  H  H46  1  0.40335600  0.07589700  0.23512200  1
  H  H47  1  0.90335600  0.92410300  0.26487800  1
  H  H48  1  0.31825500  0.77024200  0.83139900  1
  H  H49  1  0.81825500  0.22975800  0.66860100  1
  H  H50  1  0.68174500  0.22975800  0.16860100  1
  H  H51  1  0.18174500  0.77024200  0.33139900  1
  H  H52  1  0.11052200  0.78099500  0.58376100  1
  H  H53  1  0.61052200  0.21900500  0.91623900  1
  H  H54  1  0.88947800  0.21900500  0.41623900  1
  H  H55  1  0.38947800  0.78099500  0.08376100  1
  H  H56  1  0.16725800  0.40074700  0.64667300  1
  H  H57  1  0.66725800  0.59925300  0.85332700  1
  H  H58  1  0.83274200  0.59925300  0.35332700  1
  H  H59  1  0.33274200  0.40074700  0.14667300  1
  H  H60  1  0.16792300  0.02765200  0.07883000  1
  H  H61  1  0.66792300  0.97234800  0.42117000  1
  H  H62  1  0.83207700  0.97234800  0.92117000  1
  H  H63  1  0.33207700  0.02765200  0.57883000  1
  H  H64  1  0.41690700  0.76535300  0.63035300  1
  H  H65  1  0.91690700  0.23464700  0.86964700  1
  H  H66  1  0.58309300  0.23464700  0.36964700  1
  H  H67  1  0.08309300  0.76535300  0.13035300  1
  H  H68  1  0.11684700  0.31719600  0.79619900  1
  H  H69  1  0.61684700  0.68280400  0.70380100  1
  H  H70  1  0.88315300  0.68280400  0.20380100  1
  H  H71  1  0.38315300  0.31719600  0.29619900  1
  H  H72  1  0.16636400  0.85709300  0.66724600  1
  H  H73  1  0.66636400  0.14290700  0.83275400  1
  H  H74  1  0.83363600  0.14290700  0.33275400  1
  H  H75  1  0.33363600  0.85709300  0.16724600  1
  H  H76  1  0.26833300  0.69024500  0.99052200  1
  H  H77  1  0.76833300  0.30975500  0.50947800  1
  H  H78  1  0.73166700  0.30975500  0.00947800  1
  H  H79  1  0.23166700  0.69024500  0.49052200  1
  C  C80  1  0.46110100  0.16205100  0.71345300  1
  C  C81  1  0.96110100  0.83794900  0.78654700  1
  C  C82  1  0.53889900  0.83794900  0.28654700  1
  C  C83  1  0.03889900  0.16205100  0.21345300  1
  C  C84  1  0.43790800  0.39049800  0.77644800  1
  C  C85  1  0.93790800  0.60950200  0.72355200  1
  C  C86  1  0.56209200  0.60950200  0.22355200  1
  C  C87  1  0.06209200  0.39049800  0.27644800  1
  C  C88  1  0.33135900  0.17463600  0.84133700  1
  C  C89  1  0.83135900  0.82536400  0.65866300  1
  C  C90  1  0.66864100  0.82536400  0.15866300  1
  C  C91  1  0.16864100  0.17463600  0.34133700  1
  N  N92  1  0.42063200  0.21639500  0.82090700  1
  N  N93  1  0.92063200  0.78360500  0.67909300  1
  N  N94  1  0.57936800  0.78360500  0.17909300  1
  N  N95  1  0.07936800  0.21639500  0.32090700  1
  O  O96  1  0.15487300  0.75616100  0.65931400  1
  O  O97  1  0.65487300  0.24383900  0.84068600  1
  O  O98  1  0.84512700  0.24383900  0.34068600  1
  O  O99  1  0.34512700  0.75616100  0.15931400  1
  O  O100  1  0.39208800  0.89366900  0.70790400  1
  O  O101  1  0.89208800  0.10633100  0.79209600  1
  O  O102  1  0.60791200  0.10633100  0.29209600  1
  O  O103  1  0.10791200  0.89366900  0.20790400  1
  O  O104  1  0.29583400  0.56279800  0.66936400  1
  O  O105  1  0.79583400  0.43720200  0.83063600  1
  O  O106  1  0.70416600  0.43720200  0.33063600  1
  O  O107  1  0.20416600  0.56279800  0.16936400  1
  O  O108  1  0.11653000  0.49913400  0.98531700  1
  O  O109  1  0.61653000  0.50086600  0.51468300  1
  O  O110  1  0.88347000  0.50086600  0.01468300  1
  O  O111  1  0.38347000  0.49913400  0.48531700  1
  O  O112  1  0.28220300  0.34591000  0.99765100  1
  O  O113  1  0.78220300  0.65409000  0.50234900  1
  O  O114  1  0.71779700  0.65409000  0.00234900  1
  O  O115  1  0.21779700  0.34591000  0.49765100  1
  O  O116  1  0.46493700  0.86895800  0.95054800  1
  O  O117  1  0.96493700  0.13104200  0.54945200  1
  O  O118  1  0.53506300  0.13104200  0.04945200  1
  O  O119  1  0.03506300  0.86895800  0.45054800  1
  O  O120  1  0.32840600  0.05542300  0.14734700  1
  O  O121  1  0.82840600  0.94457700  0.35265300  1
  O  O122  1  0.67159400  0.94457700  0.85265300  1
  O  O123  1  0.17159400  0.05542300  0.64734700  1
  O  O124  1  0.54496900  0.91267300  0.71090200  1
  O  O125  1  0.04496900  0.08732700  0.78909800  1
  O  O126  1  0.45503100  0.08732700  0.28909800  1
  O  O127  1  0.95503100  0.91267300  0.21090200  1
  O  O128  1  0.19478300  0.12053800  0.99359100  1
  O  O129  1  0.69478300  0.87946200  0.50640900  1
  O  O130  1  0.80521700  0.87946200  0.00640900  1
  O  O131  1  0.30521700  0.12053800  0.49359100  1
  O  O132  1  0.43536400  0.69321300  0.58420800  1
  O  O133  1  0.93536400  0.30678700  0.91579200  1
  O  O134  1  0.56463600  0.30678700  0.41579200  1
  O  O135  1  0.06463600  0.69321300  0.08420800  1
  O  O136  1  0.13859900  0.42009800  0.72594000  1
  O  O137  1  0.63859900  0.57990200  0.77406000  1
  O  O138  1  0.86140100  0.57990200  0.27406000  1
  O  O139  1  0.36140100  0.42009800  0.22594000  1
  O  O140  1  0.26979400  0.70767000  0.88478600  1
  O  O141  1  0.76979400  0.29233000  0.61521400  1
  O  O142  1  0.73020600  0.29233000  0.11521400  1
  O  O143  1  0.23020600  0.70767000  0.38478600  1
