# generated using pymatgen
data_Al3P3C4NO13
_symmetry_space_group_name_H-M   'P 1'
_cell_length_a   9.48577700
_cell_length_b   10.28118800
_cell_length_c   15.25117000
_cell_angle_alpha   90.00000000
_cell_angle_beta   90.00000000
_cell_angle_gamma   90.00000000
_symmetry_Int_Tables_number   1
_chemical_formula_structural   Al3P3C4NO13
_chemical_formula_sum   'Al12 P12 C16 N4 O52'
_cell_volume   1487.37121843
_cell_formula_units_Z   4
loop_
 _symmetry_equiv_pos_site_id
 _symmetry_equiv_pos_as_xyz
  1  'x, y, z'
loop_
 _atom_site_type_symbol
 _atom_site_label
 _atom_site_symmetry_multiplicity
 _atom_site_fract_x
 _atom_site_fract_y
 _atom_site_fract_z
 _atom_site_occupancy
  Al  Al0  1  0.62388700  0.14939100  0.10448500  1
  Al  Al1  1  0.62388700  0.85060900  0.89551500  1
  Al  Al2  1  0.37611300  0.64939100  0.39551500  1
  Al  Al3  1  0.37611300  0.35060900  0.60448500  1
  Al  Al4  1  0.62036700  0.14693000  0.39606000  1
  Al  Al5  1  0.62036700  0.85307000  0.60394000  1
  Al  Al6  1  0.37963300  0.64693000  0.10394000  1
  Al  Al7  1  0.37963300  0.35307000  0.89606000  1
  Al  Al8  1  0.86823500  0.14622400  0.74892200  1
  Al  Al9  1  0.86823500  0.85377600  0.25107800  1
  Al  Al10  1  0.13176500  0.64622400  0.75107800  1
  Al  Al11  1  0.13176500  0.35377600  0.24892200  1
  P  P12  1  0.86033700  0.15935000  0.25423400  1
  P  P13  1  0.86033700  0.84065000  0.74576600  1
  P  P14  1  0.13966300  0.65935000  0.24576600  1
  P  P15  1  0.13966300  0.34065000  0.75423400  1
  P  P16  1  0.62716800  0.15269600  0.60765800  1
  P  P17  1  0.62716800  0.84730400  0.39234200  1
  P  P18  1  0.37283200  0.65269600  0.89234200  1
  P  P19  1  0.37283200  0.34730400  0.10765800  1
  P  P20  1  0.63290000  0.15567100  0.89788900  1
  P  P21  1  0.63290000  0.84432900  0.10211100  1
  P  P22  1  0.36710000  0.65567100  0.60211100  1
  P  P23  1  0.36710000  0.34432900  0.39788900  1
  C  C24  1  0.80222300  0.44801200  0.57072400  1
  C  C25  1  0.80222300  0.55198800  0.42927600  1
  C  C26  1  0.19777700  0.94801200  0.92927600  1
  C  C27  1  0.19777700  0.05198800  0.07072400  1
  C  C28  1  0.94267200  0.54853800  0.43494100  1
  C  C29  1  0.94267200  0.45146200  0.56505900  1
  C  C30  1  0.05732800  0.04853800  0.06505900  1
  C  C31  1  0.05732800  0.95146200  0.93494100  1
  C  C32  1  0.79373500  0.42428300  0.06093800  1
  C  C33  1  0.79373500  0.57571700  0.93906200  1
  C  C34  1  0.20626500  0.92428300  0.43906200  1
  C  C35  1  0.20626500  0.07571700  0.56093800  1
  C  C36  1  0.94441000  0.57606800  0.93813400  1
  C  C37  1  0.94441000  0.42393200  0.06186600  1
  C  C38  1  0.05559000  0.07606800  0.56186600  1
  C  C39  1  0.05559000  0.92393200  0.43813400  1
  N  N40  1  0.01607000  0.50000000  0.50000000  1
  N  N41  1  0.98393000  0.00000000  0.00000000  1
  N  N42  1  0.75764000  0.50000000  0.00000000  1
  N  N43  1  0.24236000  0.00000000  0.50000000  1
  O  O44  1  0.73053900  0.50000000  0.50000000  1
  O  O45  1  0.26946100  0.00000000  0.00000000  1
  O  O46  1  0.00636100  0.50000000  0.00000000  1
  O  O47  1  0.99363900  0.00000000  0.50000000  1
  O  O48  1  0.76754700  0.17992200  0.17295800  1
  O  O49  1  0.76754700  0.82007800  0.82704200  1
  O  O50  1  0.23245300  0.67992200  0.32704200  1
  O  O51  1  0.23245300  0.32007800  0.67295800  1
  O  O52  1  0.77489800  0.18654300  0.33845000  1
  O  O53  1  0.77489800  0.81345700  0.66155000  1
  O  O54  1  0.22510200  0.68654300  0.16155000  1
  O  O55  1  0.22510200  0.31345700  0.83845000  1
  O  O56  1  0.91766300  0.01888100  0.25440000  1
  O  O57  1  0.91766300  0.98111900  0.74560000  1
  O  O58  1  0.08233700  0.51888100  0.24560000  1
  O  O59  1  0.08233700  0.48111900  0.75440000  1
  O  O60  1  0.98447600  0.25376600  0.25204000  1
  O  O61  1  0.98447600  0.74623400  0.74796000  1
  O  O62  1  0.01552400  0.75376600  0.24796000  1
  O  O63  1  0.01552400  0.24623400  0.75204000  1
  O  O64  1  0.76578900  0.17887500  0.65621700  1
  O  O65  1  0.76578900  0.82112500  0.34378300  1
  O  O66  1  0.23421100  0.67887500  0.84378300  1
  O  O67  1  0.23421100  0.32112500  0.15621700  1
  O  O68  1  0.65459400  0.16357800  0.50839800  1
  O  O69  1  0.65459400  0.83642200  0.49160200  1
  O  O70  1  0.34540600  0.66357800  0.99160200  1
  O  O71  1  0.34540600  0.33642200  0.00839800  1
  O  O72  1  0.57309100  0.01447100  0.62984200  1
  O  O73  1  0.57309100  0.98552900  0.37015800  1
  O  O74  1  0.42690900  0.51447100  0.87015800  1
  O  O75  1  0.42690900  0.48552900  0.12984200  1
  O  O76  1  0.51722600  0.25283300  0.63733600  1
  O  O77  1  0.51722600  0.74716700  0.36266400  1
  O  O78  1  0.48277400  0.75283300  0.86266400  1
  O  O79  1  0.48277400  0.24716700  0.13733600  1
  O  O80  1  0.66745600  0.18307600  0.99489100  1
  O  O81  1  0.66745600  0.81692400  0.00510900  1
  O  O82  1  0.33254400  0.68307600  0.50510900  1
  O  O83  1  0.33254400  0.31692400  0.49489100  1
  O  O84  1  0.76882800  0.17537700  0.84459600  1
  O  O85  1  0.76882800  0.82462300  0.15540400  1
  O  O86  1  0.23117200  0.67537700  0.65540400  1
  O  O87  1  0.23117200  0.32462300  0.34459600  1
  O  O88  1  0.57676500  0.01591800  0.88679100  1
  O  O89  1  0.57676500  0.98408200  0.11320900  1
  O  O90  1  0.42323500  0.51591800  0.61320900  1
  O  O91  1  0.42323500  0.48408200  0.38679100  1
  O  O92  1  0.51982400  0.25172300  0.86576800  1
  O  O93  1  0.51982400  0.74827700  0.13423200  1
  O  O94  1  0.48017600  0.75172300  0.63423200  1
  O  O95  1  0.48017600  0.24827700  0.36576800  1
