# generated using pymatgen
data_YCrO5
_symmetry_space_group_name_H-M   'P 1'
_cell_length_a   8.31134380
_cell_length_b   8.31709761
_cell_length_c   11.60648600
_cell_angle_alpha   90.00000000
_cell_angle_beta   90.00000000
_cell_angle_gamma   90.48249845
_symmetry_Int_Tables_number   1
_chemical_formula_structural   YCrO5
_chemical_formula_sum   'Y8 Cr8 O40'
_cell_volume   802.28449303
_cell_formula_units_Z   8
loop_
 _symmetry_equiv_pos_site_id
 _symmetry_equiv_pos_as_xyz
  1  'x, y, z'
loop_
 _atom_site_type_symbol
 _atom_site_label
 _atom_site_symmetry_multiplicity
 _atom_site_fract_x
 _atom_site_fract_y
 _atom_site_fract_z
 _atom_site_occupancy
  Y  Y0  1  0.63521600  0.83275300  0.06372200  1
  Y  Y1  1  0.13521500  0.33275300  0.43627800  1
  Y  Y2  1  0.36478500  0.16724700  0.93627800  1
  Y  Y3  1  0.86478400  0.66724700  0.56372200  1
  Y  Y4  1  0.93162700  0.17941200  0.92095700  1
  Y  Y5  1  0.43162700  0.67941200  0.57904300  1
  Y  Y6  1  0.06837300  0.82058800  0.07904300  1
  Y  Y7  1  0.56837300  0.32058800  0.42095700  1
  Cr  Cr8  1  0.86080800  0.99831400  0.32914600  1
  Cr  Cr9  1  0.36080800  0.49831400  0.17085400  1
  Cr  Cr10  1  0.13919200  0.00168600  0.67085400  1
  Cr  Cr11  1  0.63919200  0.50168600  0.82914600  1
  Cr  Cr12  1  0.86078600  0.45411500  0.18922400  1
  Cr  Cr13  1  0.36078600  0.95411500  0.31077600  1
  Cr  Cr14  1  0.13921400  0.54588500  0.81077600  1
  Cr  Cr15  1  0.63921400  0.04588500  0.68922400  1
  O  O16  1  0.66284800  0.09508300  0.98468100  1
  O  O17  1  0.16284800  0.59508300  0.51531900  1
  O  O18  1  0.33715200  0.90491700  0.01531900  1
  O  O19  1  0.83715200  0.40491700  0.48468100  1
  O  O20  1  0.92575500  0.31529100  0.09830800  1
  O  O21  1  0.42575500  0.81529100  0.40169200  1
  O  O22  1  0.07424500  0.68470900  0.90169200  1
  O  O23  1  0.57424500  0.18470900  0.59830800  1
  O  O24  1  0.85530600  0.92286100  0.96226000  1
  O  O25  1  0.35530600  0.42286100  0.53774000  1
  O  O26  1  0.14469400  0.07713900  0.03774000  1
  O  O27  1  0.64469400  0.57713900  0.46226000  1
  O  O28  1  0.84104000  0.63207400  0.11883500  1
  O  O29  1  0.34104000  0.13207400  0.38116500  1
  O  O30  1  0.15896000  0.36792600  0.88116500  1
  O  O31  1  0.65896000  0.86792600  0.61883500  1
  O  O32  1  0.84331400  0.93192200  0.19121800  1
  O  O33  1  0.34331400  0.43192200  0.30878200  1
  O  O34  1  0.15668600  0.06807800  0.80878200  1
  O  O35  1  0.65668600  0.56807800  0.69121800  1
  O  O36  1  0.69112400  0.08194800  0.37057700  1
  O  O37  1  0.19112400  0.58194800  0.12942300  1
  O  O38  1  0.30887600  0.91805200  0.62942300  1
  O  O39  1  0.80887600  0.41805200  0.87057700  1
  O  O40  1  0.98403400  0.47611400  0.30325300  1
  O  O41  1  0.48403400  0.97611400  0.19674700  1
  O  O42  1  0.01596600  0.52388600  0.69674700  1
  O  O43  1  0.51596600  0.02388600  0.80325300  1
  O  O44  1  0.00163100  0.13811600  0.33527200  1
  O  O45  1  0.50163100  0.63811600  0.16472800  1
  O  O46  1  0.99836900  0.86188400  0.66472800  1
  O  O47  1  0.49836900  0.36188400  0.83527200  1
  O  O48  1  0.90350400  0.84567800  0.41599600  1
  O  O49  1  0.40350400  0.34567800  0.08400400  1
  O  O50  1  0.09649600  0.15432200  0.58400400  1
  O  O51  1  0.59649600  0.65432200  0.91599600  1
  O  O52  1  0.68684200  0.39265400  0.24152100  1
  O  O53  1  0.18684200  0.89265400  0.25847900  1
  O  O54  1  0.31315800  0.60734600  0.75847900  1
  O  O55  1  0.81315800  0.10734600  0.74152100  1
