# generated using pymatgen
data_Cs2CrH4F10
_symmetry_space_group_name_H-M   'P 1'
_cell_length_a   7.22049800
_cell_length_b   7.77087828
_cell_length_c   9.93414845
_cell_angle_alpha   106.72862134
_cell_angle_beta   90.00000000
_cell_angle_gamma   90.00000000
_symmetry_Int_Tables_number   1
_chemical_formula_structural   Cs2CrH4F10
_chemical_formula_sum   'Cs4 Cr2 H8 F20'
_cell_volume   533.81133404
_cell_formula_units_Z   2
loop_
 _symmetry_equiv_pos_site_id
 _symmetry_equiv_pos_as_xyz
  1  'x, y, z'
loop_
 _atom_site_type_symbol
 _atom_site_label
 _atom_site_symmetry_multiplicity
 _atom_site_fract_x
 _atom_site_fract_y
 _atom_site_fract_z
 _atom_site_occupancy
  Cs  Cs0  1  0.78353700  0.47480600  0.83494300  1
  Cs  Cs1  1  0.71646300  0.97480600  0.33494300  1
  Cs  Cs2  1  0.21646300  0.52519400  0.16505700  1
  Cs  Cs3  1  0.28353700  0.02519400  0.66505700  1
  Cr  Cr4  1  0.50000000  0.50000000  0.50000000  1
  Cr  Cr5  1  0.00000000  0.00000000  0.00000000  1
  H  H6  1  0.29599000  0.54823200  0.76768700  1
  H  H7  1  0.20401000  0.04823200  0.26768700  1
  H  H8  1  0.70401000  0.45176800  0.23231300  1
  H  H9  1  0.79599000  0.95176800  0.73231300  1
  H  H10  1  0.59670500  0.16539700  0.00491700  1
  H  H11  1  0.90329500  0.66539700  0.50491700  1
  H  H12  1  0.40329500  0.83460300  0.99508300  1
  H  H13  1  0.09670500  0.33460300  0.49508300  1
  F  F14  1  0.26056700  0.42425300  0.44468500  1
  F  F15  1  0.23943300  0.92425300  0.94468500  1
  F  F16  1  0.73943300  0.57574700  0.55531500  1
  F  F17  1  0.76056700  0.07574700  0.05531500  1
  F  F18  1  0.53549400  0.30261600  0.56177000  1
  F  F19  1  0.96450600  0.80261600  0.06177000  1
  F  F20  1  0.46450600  0.69738400  0.43823000  1
  F  F21  1  0.03549400  0.19738400  0.93823000  1
  F  F22  1  0.41079800  0.62898200  0.68083200  1
  F  F23  1  0.08920200  0.12898200  0.18083200  1
  F  F24  1  0.58920200  0.37101800  0.31916800  1
  F  F25  1  0.91079800  0.87101800  0.81916800  1
  F  F26  1  0.22569800  0.48345100  0.82299900  1
  F  F27  1  0.27430200  0.98345100  0.32299900  1
  F  F28  1  0.77430200  0.51654900  0.17700100  1
  F  F29  1  0.72569800  0.01654900  0.67700100  1
  F  F30  1  0.50501200  0.23441800  0.97089900  1
  F  F31  1  0.99498800  0.73441800  0.47089900  1
  F  F32  1  0.49498800  0.76558200  0.02910100  1
  F  F33  1  0.00501200  0.26558200  0.52910100  1
