# generated using pymatgen
data_K3Co(C3O7)2
_symmetry_space_group_name_H-M   'P 1'
_cell_length_a   11.42449038
_cell_length_b   11.42449038
_cell_length_c   20.24409200
_cell_angle_alpha   90.00000000
_cell_angle_beta   90.00000000
_cell_angle_gamma   120.00000218
_symmetry_Int_Tables_number   1
_chemical_formula_structural   K3Co(C3O7)2
_chemical_formula_sum   'K18 Co6 C36 O84'
_cell_volume   2288.24539379
_cell_formula_units_Z   6
loop_
 _symmetry_equiv_pos_site_id
 _symmetry_equiv_pos_as_xyz
  1  'x, y, z'
loop_
 _atom_site_type_symbol
 _atom_site_label
 _atom_site_symmetry_multiplicity
 _atom_site_fract_x
 _atom_site_fract_y
 _atom_site_fract_z
 _atom_site_occupancy
  K  K0  1  0.83874000  0.42546300  0.73938100  1
  K  K1  1  0.58672300  0.16126000  0.40604800  1
  K  K2  1  0.57453700  0.41327700  0.07271400  1
  K  K3  1  0.16126000  0.58672300  0.59395200  1
  K  K4  1  0.42546300  0.83874000  0.26061900  1
  K  K5  1  0.41327700  0.57453700  0.92728600  1
  K  K6  1  0.07420500  0.49140300  0.07193100  1
  K  K7  1  0.41719800  0.92579500  0.73859800  1
  K  K8  1  0.50859700  0.58280200  0.40526500  1
  K  K9  1  0.92579500  0.41719800  0.26140200  1
  K  K10  1  0.49140300  0.07420500  0.92806900  1
  K  K11  1  0.58280200  0.50859700  0.59473500  1
  K  K12  1  0.00000000  0.07932000  0.16666700  1
  K  K13  1  0.07932000  0.00000000  0.83333300  1
  K  K14  1  0.92068000  0.92068000  0.50000000  1
  K  K15  1  0.00000000  0.12791600  0.66666700  1
  K  K16  1  0.12791600  0.00000000  0.33333300  1
  K  K17  1  0.87208400  0.87208400  0.00000000  1
  Co  Co18  1  0.00703000  0.48746100  0.89139600  1
  Co  Co19  1  0.48043100  0.99297000  0.55806300  1
  Co  Co20  1  0.51253900  0.51956900  0.22472900  1
  Co  Co21  1  0.99297000  0.48043100  0.44193700  1
  Co  Co22  1  0.48746100  0.00703000  0.10860400  1
  Co  Co23  1  0.51956900  0.51253900  0.77527100  1
  C  C24  1  0.23932500  0.72067300  0.86700700  1
  C  C25  1  0.48134800  0.76067500  0.53367400  1
  C  C26  1  0.27932700  0.51865200  0.20034000  1
  C  C27  1  0.76067500  0.48134800  0.46632600  1
  C  C28  1  0.72067300  0.23932500  0.13299300  1
  C  C29  1  0.51865200  0.27932700  0.79966000  1
  C  C30  1  0.12715100  0.72312800  0.82435800  1
  C  C31  1  0.59597700  0.87284900  0.49102400  1
  C  C32  1  0.27687200  0.40402300  0.15769100  1
  C  C33  1  0.87284900  0.59597700  0.50897600  1
  C  C34  1  0.72312800  0.12715100  0.17564200  1
  C  C35  1  0.40402300  0.27687200  0.84230900  1
  C  C36  1  0.85513900  0.54134200  0.97385600  1
  C  C37  1  0.68620300  0.14486100  0.64052200  1
  C  C38  1  0.45865800  0.31379700  0.30718900  1
  C  C39  1  0.14486100  0.68620300  0.35947800  1
  C  C40  1  0.54134200  0.85513900  0.02614400  1
  C  C41  1  0.31379700  0.45865800  0.69281100  1
  C  C42  1  0.75606300  0.41515000  0.93302200  1
  C  C43  1  0.65908700  0.24393700  0.59968900  1
  C  C44  1  0.58485000  0.34091300  0.26635500  1
  C  C45  1  0.24393700  0.65908700  0.40031100  1
  C  C46  1  0.41515000  0.75606300  0.06697800  1
  C  C47  1  0.34091300  0.58485000  0.73364500  1
  C  C48  1  0.01060800  0.25561300  0.91300800  1
  C  C49  1  0.24500500  0.98939200  0.57967400  1
  C  C50  1  0.74438700  0.75499500  0.24634100  1
  C  C51  1  0.98939200  0.24500500  0.42032600  1
  C  C52  1  0.25561300  0.01060800  0.08699200  1
  C  C53  1  0.75499500  0.74438700  0.75365900  1
  C  C54  1  0.01794500  0.27760300  0.83625300  1
  C  C55  1  0.25965800  0.98205500  0.50291900  1
  C  C56  1  0.72239700  0.74034200  0.16958600  1
  C  C57  1  0.98205500  0.25965800  0.49708100  1
  C  C58  1  0.27760300  0.01794500  0.16374700  1
  C  C59  1  0.74034200  0.72239700  0.83041400  1
  O  O60  1  0.19907100  0.60636200  0.89716800  1
  O  O61  1  0.40729100  0.80092900  0.56383500  1
  O  O62  1  0.39363800  0.59270900  0.23050100  1
  O  O63  1  0.80092900  0.40729100  0.43616500  1
  O  O64  1  0.60636200  0.19907100  0.10283200  1
  O  O65  1  0.59270900  0.39363800  0.76949900  1
  O  O66  1  0.00816500  0.61734900  0.83156000  1
  O  O67  1  0.60918400  0.99183500  0.49822700  1
  O  O68  1  0.38265100  0.39081600  0.16489400  1
  O  O69  1  0.99183500  0.60918400  0.50177300  1
  O  O70  1  0.61734900  0.00816500  0.16844000  1
  O  O71  1  0.39081600  0.38265100  0.83510600  1
  O  O72  1  0.98162600  0.57689800  0.96496600  1
  O  O73  1  0.59527200  0.01837400  0.63163300  1
  O  O74  1  0.42310200  0.40472800  0.29829900  1
  O  O75  1  0.01837400  0.59527200  0.36836700  1
  O  O76  1  0.57689800  0.98162600  0.03503400  1
  O  O77  1  0.40472800  0.42310200  0.70170100  1
  O  O78  1  0.81406200  0.38134600  0.88753800  1
  O  O79  1  0.56728500  0.18593800  0.55420500  1
  O  O80  1  0.61865400  0.43271500  0.22087200  1
  O  O81  1  0.18593800  0.56728500  0.44579500  1
  O  O82  1  0.38134600  0.81406200  0.11246200  1
  O  O83  1  0.43271500  0.61865400  0.77912800  1
  O  O84  1  0.01213900  0.35301800  0.94659900  1
  O  O85  1  0.34087900  0.98786100  0.61326600  1
  O  O86  1  0.64698200  0.65912100  0.27993300  1
  O  O87  1  0.98786100  0.34087900  0.38673400  1
  O  O88  1  0.35301800  0.01213900  0.05340100  1
  O  O89  1  0.65912100  0.64698200  0.72006700  1
  O  O90  1  0.02197000  0.38906700  0.81891300  1
  O  O91  1  0.36709600  0.97803000  0.48558000  1
  O  O92  1  0.61093300  0.63290400  0.15224700  1
  O  O93  1  0.97803000  0.36709600  0.51442000  1
  O  O94  1  0.38906700  0.02197000  0.18108700  1
  O  O95  1  0.63290400  0.61093300  0.84775300  1
  O  O96  1  0.35539200  0.81957000  0.86962400  1
  O  O97  1  0.46417800  0.64460800  0.53629100  1
  O  O98  1  0.18043000  0.53582200  0.20295800  1
  O  O99  1  0.64460800  0.46417800  0.46370900  1
  O  O100  1  0.81957000  0.35539200  0.13037600  1
  O  O101  1  0.53582200  0.18043000  0.79704200  1
  O  O102  1  0.15449500  0.81926900  0.78694500  1
  O  O103  1  0.66477400  0.84550500  0.45361100  1
  O  O104  1  0.18073100  0.33522600  0.12027800  1
  O  O105  1  0.84550500  0.66477400  0.54638900  1
  O  O106  1  0.81926900  0.15449500  0.21305500  1
  O  O107  1  0.33522600  0.18073100  0.87972200  1
  O  O108  1  0.81342100  0.59658800  0.01228000  1
  O  O109  1  0.78316700  0.18657900  0.67894700  1
  O  O110  1  0.40341200  0.21683300  0.34561400  1
  O  O111  1  0.18657900  0.78316700  0.32105300  1
  O  O112  1  0.59658800  0.81342100  0.98772000  1
  O  O113  1  0.21683300  0.40341200  0.65438600  1
  O  O114  1  0.63333400  0.35251600  0.94578600  1
  O  O115  1  0.71918200  0.36666600  0.61245200  1
  O  O116  1  0.64748400  0.28081800  0.27911900  1
  O  O117  1  0.36666600  0.71918200  0.38754700  1
  O  O118  1  0.35251600  0.63333400  0.05421400  1
  O  O119  1  0.28081800  0.64748400  0.72088100  1
  O  O120  1  0.00447500  0.15205400  0.93620400  1
  O  O121  1  0.14757900  0.99552500  0.60287100  1
  O  O122  1  0.84794600  0.85242100  0.26953800  1
  O  O123  1  0.99552500  0.14757900  0.39712900  1
  O  O124  1  0.15205400  0.00447500  0.06379600  1
  O  O125  1  0.85242100  0.84794600  0.73046200  1
  O  O126  1  0.02028400  0.19495500  0.79778100  1
  O  O127  1  0.17467100  0.97971600  0.46444800  1
  O  O128  1  0.80504500  0.82532900  0.13111400  1
  O  O129  1  0.97971600  0.17467100  0.53555200  1
  O  O130  1  0.19495500  0.02028400  0.20221900  1
  O  O131  1  0.82532900  0.80504500  0.86888600  1
  O  O132  1  0.11909200  0.88282800  0.95549900  1
  O  O133  1  0.76373600  0.88090800  0.62216500  1
  O  O134  1  0.11717200  0.23626400  0.28883200  1
  O  O135  1  0.88090800  0.76373600  0.37783500  1
  O  O136  1  0.88282800  0.11909200  0.04450100  1
  O  O137  1  0.23626400  0.11717200  0.71116800  1
  O  O138  1  0.00000000  0.67908700  0.66666700  1
  O  O139  1  0.67908700  0.00000000  0.33333300  1
  O  O140  1  0.32091300  0.32091300  0.00000000  1
  O  O141  1  0.00000000  0.67345200  0.16666700  1
  O  O142  1  0.67345200  0.00000000  0.83333300  1
  O  O143  1  0.32654800  0.32654800  0.50000000  1
