# generated using pymatgen
data_ThH2(SO4)3
_symmetry_space_group_name_H-M   'P 1'
_cell_length_a   5.79009200
_cell_length_b   9.23420924
_cell_length_c   9.80005057
_cell_angle_alpha   65.03082046
_cell_angle_beta   87.90115954
_cell_angle_gamma   89.00970674
_symmetry_Int_Tables_number   1
_chemical_formula_structural   ThH2(SO4)3
_chemical_formula_sum   'Th2 H4 S6 O24'
_cell_volume   474.68524649
_cell_formula_units_Z   2
loop_
 _symmetry_equiv_pos_site_id
 _symmetry_equiv_pos_as_xyz
  1  'x, y, z'
loop_
 _atom_site_type_symbol
 _atom_site_label
 _atom_site_symmetry_multiplicity
 _atom_site_fract_x
 _atom_site_fract_y
 _atom_site_fract_z
 _atom_site_occupancy
  Th  Th0  1  0.74710000  0.32090200  0.82709400  1
  Th  Th1  1  0.25290000  0.67909800  0.17290600  1
  H  H2  1  0.66576900  0.78659100  0.58443700  1
  H  H3  1  0.33423100  0.21340900  0.41556300  1
  H  H4  1  0.07875600  0.82158500  0.72560700  1
  H  H5  1  0.92124400  0.17841500  0.27439300  1
  S  S6  1  0.76396600  0.87809400  0.90899400  1
  S  S7  1  0.23603400  0.12190600  0.09100600  1
  S  S8  1  0.75355700  0.69465200  0.42229900  1
  S  S9  1  0.24644300  0.30534800  0.57770100  1
  S  S10  1  0.25357900  0.59702300  0.81577100  1
  S  S11  1  0.74642100  0.40297700  0.18422900  1
  O  O12  1  0.80936800  0.85873300  0.76938200  1
  O  O13  1  0.19063200  0.14126700  0.23061800  1
  O  O14  1  0.70598000  0.04544200  0.87867300  1
  O  O15  1  0.29402000  0.95455800  0.12132700  1
  O  O16  1  0.02783200  0.17220400  0.99583000  1
  O  O17  1  0.97216800  0.82779600  0.00417000  1
  O  O18  1  0.43365700  0.22411400  0.00182600  1
  O  O19  1  0.56634300  0.77588600  0.99817400  1
  O  O20  1  0.76658600  0.54206200  0.55272700  1
  O  O21  1  0.23341400  0.45793800  0.44727300  1
  O  O22  1  0.55707600  0.70659300  0.32820600  1
  O  O23  1  0.44292400  0.29340700  0.67179400  1
  O  O24  1  0.96871500  0.74035900  0.33073800  1
  O  O25  1  0.03128500  0.25964100  0.66926200  1
  O  O26  1  0.72171500  0.83066500  0.47849000  1
  O  O27  1  0.27828500  0.16933500  0.52151000  1
  O  O28  1  0.22937400  0.57796300  0.97128300  1
  O  O29  1  0.77062600  0.42203700  0.02871700  1
  O  O30  1  0.07155600  0.51138000  0.77926900  1
  O  O31  1  0.92844400  0.48862000  0.22073100  1
  O  O32  1  0.48441700  0.55540500  0.77622300  1
  O  O33  1  0.51558300  0.44459500  0.22377700  1
  O  O34  1  0.23425500  0.77818800  0.70785300  1
  O  O35  1  0.76574500  0.22181200  0.29214700  1
