# generated using pymatgen
data_Tl2Ag3(PO4)3
_symmetry_space_group_name_H-M   'P 1'
_cell_length_a   9.38634117
_cell_length_b   9.38634117
_cell_length_c   6.83893523
_cell_angle_alpha   72.45995553
_cell_angle_beta   72.45995553
_cell_angle_gamma   91.05913072
_symmetry_Int_Tables_number   1
_chemical_formula_structural   Tl2Ag3(PO4)3
_chemical_formula_sum   'Tl4 Ag6 P6 O24'
_cell_volume   543.83447098
_cell_formula_units_Z   2
loop_
 _symmetry_equiv_pos_site_id
 _symmetry_equiv_pos_as_xyz
  1  'x, y, z'
loop_
 _atom_site_type_symbol
 _atom_site_label
 _atom_site_symmetry_multiplicity
 _atom_site_fract_x
 _atom_site_fract_y
 _atom_site_fract_z
 _atom_site_occupancy
  Tl  Tl0  1  0.91902500  0.61018600  0.66474400  1
  Tl  Tl1  1  0.38981400  0.08097500  0.83525600  1
  Tl  Tl2  1  0.08097500  0.38981400  0.33525600  1
  Tl  Tl3  1  0.61018600  0.91902500  0.16474400  1
  Ag  Ag4  1  0.72685800  0.27314200  0.25000000  1
  Ag  Ag5  1  0.27314200  0.72685800  0.75000000  1
  Ag  Ag6  1  0.50000000  0.50000000  0.00000000  1
  Ag  Ag7  1  0.50000000  0.50000000  0.50000000  1
  Ag  Ag8  1  0.00783600  0.99216400  0.75000000  1
  Ag  Ag9  1  0.99216400  0.00783600  0.25000000  1
  P  P10  1  0.73733100  0.26266900  0.75000000  1
  P  P11  1  0.26266900  0.73733100  0.25000000  1
  P  P12  1  0.34523600  0.14356800  0.35531200  1
  P  P13  1  0.85643200  0.65476400  0.14468800  1
  P  P14  1  0.65476400  0.85643200  0.64468800  1
  P  P15  1  0.14356800  0.34523600  0.85531200  1
  O  O16  1  0.74558100  0.41585800  0.79608500  1
  O  O17  1  0.58414200  0.25441900  0.70391500  1
  O  O18  1  0.25441900  0.58414200  0.20391500  1
  O  O19  1  0.41585800  0.74558100  0.29608500  1
  O  O20  1  0.43901900  0.28878500  0.32377100  1
  O  O21  1  0.71121500  0.56098100  0.17622900  1
  O  O22  1  0.56098100  0.71121500  0.67622900  1
  O  O23  1  0.28878500  0.43901900  0.82377100  1
  O  O24  1  0.86064300  0.24904400  0.54725100  1
  O  O25  1  0.75095600  0.13935700  0.95274900  1
  O  O26  1  0.13935700  0.75095600  0.45274900  1
  O  O27  1  0.24904400  0.86064300  0.04725100  1
  O  O28  1  0.98179900  0.66378000  0.92751500  1
  O  O29  1  0.33622000  0.01820100  0.57248500  1
  O  O30  1  0.01820100  0.33622000  0.07248500  1
  O  O31  1  0.66378000  0.98179900  0.42751500  1
  O  O32  1  0.82224100  0.83196200  0.63604800  1
  O  O33  1  0.16803800  0.17775900  0.86395200  1
  O  O34  1  0.17775900  0.16803800  0.36395200  1
  O  O35  1  0.83196200  0.82224100  0.13604800  1
  O  O36  1  0.41482700  0.07634300  0.16832700  1
  O  O37  1  0.92365700  0.58517300  0.33167300  1
  O  O38  1  0.58517300  0.92365700  0.83167300  1
  O  O39  1  0.07634300  0.41482700  0.66832700  1
