# generated using pymatgen
data_NaMo3O11
_symmetry_space_group_name_H-M   'P 1'
_cell_length_a   7.45623300
_cell_length_b   8.79128500
_cell_length_c   15.18207600
_cell_angle_alpha   90.00000000
_cell_angle_beta   90.00000000
_cell_angle_gamma   90.00000000
_symmetry_Int_Tables_number   1
_chemical_formula_structural   NaMo3O11
_chemical_formula_sum   'Na4 Mo12 O44'
_cell_volume   995.18309795
_cell_formula_units_Z   4
loop_
 _symmetry_equiv_pos_site_id
 _symmetry_equiv_pos_as_xyz
  1  'x, y, z'
loop_
 _atom_site_type_symbol
 _atom_site_label
 _atom_site_symmetry_multiplicity
 _atom_site_fract_x
 _atom_site_fract_y
 _atom_site_fract_z
 _atom_site_occupancy
  Na  Na0  1  0.75000000  0.47235200  0.80651100  1
  Na  Na1  1  0.75000000  0.97235200  0.69348900  1
  Na  Na2  1  0.25000000  0.52764800  0.19348900  1
  Na  Na3  1  0.25000000  0.02764800  0.30651100  1
  Mo  Mo4  1  0.75000000  0.29157800  0.57367100  1
  Mo  Mo5  1  0.75000000  0.79157800  0.92632900  1
  Mo  Mo6  1  0.25000000  0.70842200  0.42632900  1
  Mo  Mo7  1  0.25000000  0.20842200  0.07367100  1
  Mo  Mo8  1  0.99894000  0.61690300  0.60815300  1
  Mo  Mo9  1  0.50106000  0.11690300  0.89184700  1
  Mo  Mo10  1  0.49894000  0.38309700  0.39184700  1
  Mo  Mo11  1  0.00106000  0.88309700  0.10815300  1
  Mo  Mo12  1  0.00106000  0.38309700  0.39184700  1
  Mo  Mo13  1  0.49894000  0.88309700  0.10815300  1
  Mo  Mo14  1  0.50106000  0.61690300  0.60815300  1
  Mo  Mo15  1  0.99894000  0.11690300  0.89184700  1
  O  O16  1  0.75000000  0.10455800  0.53883400  1
  O  O17  1  0.75000000  0.60455800  0.96116600  1
  O  O18  1  0.25000000  0.89544200  0.46116600  1
  O  O19  1  0.25000000  0.39544200  0.03883400  1
  O  O20  1  0.75000000  0.27410700  0.68834200  1
  O  O21  1  0.75000000  0.77410700  0.81165800  1
  O  O22  1  0.25000000  0.72589300  0.31165800  1
  O  O23  1  0.25000000  0.22589300  0.18834200  1
  O  O24  1  0.02267800  0.54960800  0.71461800  1
  O  O25  1  0.47732200  0.04960800  0.78538200  1
  O  O26  1  0.52267800  0.45039200  0.28538200  1
  O  O27  1  0.97732200  0.95039200  0.21461800  1
  O  O28  1  0.97732200  0.45039200  0.28538200  1
  O  O29  1  0.52267800  0.95039200  0.21461800  1
  O  O30  1  0.47732200  0.54960800  0.71461800  1
  O  O31  1  0.02267800  0.04960800  0.78538200  1
  O  O32  1  0.95416000  0.80862700  0.61959800  1
  O  O33  1  0.54584000  0.30862700  0.88040200  1
  O  O34  1  0.45416000  0.19137300  0.38040200  1
  O  O35  1  0.04584000  0.69137300  0.11959800  1
  O  O36  1  0.04584000  0.19137300  0.38040200  1
  O  O37  1  0.45416000  0.69137300  0.11959800  1
  O  O38  1  0.54584000  0.80862700  0.61959800  1
  O  O39  1  0.95416000  0.30862700  0.88040200  1
  O  O40  1  0.75000000  0.55173300  0.58735100  1
  O  O41  1  0.75000000  0.05173300  0.91264900  1
  O  O42  1  0.25000000  0.44826700  0.41264900  1
  O  O43  1  0.25000000  0.94826700  0.08735100  1
  O  O44  1  0.99793500  0.36719300  0.54770900  1
  O  O45  1  0.50206500  0.86719300  0.95229100  1
  O  O46  1  0.49793500  0.63280700  0.45229100  1
  O  O47  1  0.00206500  0.13280700  0.04770900  1
  O  O48  1  0.00206500  0.63280700  0.45229100  1
  O  O49  1  0.49793500  0.13280700  0.04770900  1
  O  O50  1  0.50206500  0.36719300  0.54770900  1
  O  O51  1  0.99793500  0.86719300  0.95229100  1
  O  O52  1  0.25000000  0.62247800  0.56973400  1
  O  O53  1  0.25000000  0.12247800  0.93026600  1
  O  O54  1  0.75000000  0.37752200  0.43026600  1
  O  O55  1  0.75000000  0.87752200  0.06973400  1
  O  O56  1  0.75000000  0.75924000  0.42259500  1
  O  O57  1  0.75000000  0.25924000  0.07740500  1
  O  O58  1  0.25000000  0.24076000  0.57740500  1
  O  O59  1  0.25000000  0.74076000  0.92259500  1
