# generated using pymatgen
data_Ba5P3O13
_symmetry_space_group_name_H-M   'P 1'
_cell_length_a   10.34109614
_cell_length_b   10.34109614
_cell_length_c   7.80725800
_cell_angle_alpha   90.00000000
_cell_angle_beta   90.00000000
_cell_angle_gamma   120.00000089
_symmetry_Int_Tables_number   1
_chemical_formula_structural   Ba5P3O13
_chemical_formula_sum   'Ba10 P6 O26'
_cell_volume   723.03997769
_cell_formula_units_Z   2
loop_
 _symmetry_equiv_pos_site_id
 _symmetry_equiv_pos_as_xyz
  1  'x, y, z'
loop_
 _atom_site_type_symbol
 _atom_site_label
 _atom_site_symmetry_multiplicity
 _atom_site_fract_x
 _atom_site_fract_y
 _atom_site_fract_z
 _atom_site_occupancy
  Ba  Ba0  1  0.76016800  0.74243300  0.75484700  1
  Ba  Ba1  1  0.98226500  0.23983200  0.75484700  1
  Ba  Ba2  1  0.25756700  0.01773500  0.75484700  1
  Ba  Ba3  1  0.23983200  0.25756700  0.25484700  1
  Ba  Ba4  1  0.01773500  0.76016800  0.25484700  1
  Ba  Ba5  1  0.74243300  0.98226500  0.25484700  1
  Ba  Ba6  1  0.66666700  0.33333300  0.50070500  1
  Ba  Ba7  1  0.33333300  0.66666700  0.00070500  1
  Ba  Ba8  1  0.66666700  0.33333300  0.00198400  1
  Ba  Ba9  1  0.33333300  0.66666700  0.50198400  1
  P  P10  1  0.59790300  0.96770000  0.74939700  1
  P  P11  1  0.36979700  0.40209700  0.74939700  1
  P  P12  1  0.03230000  0.63020300  0.74939700  1
  P  P13  1  0.40209700  0.03230000  0.24939700  1
  P  P14  1  0.63020300  0.59790300  0.24939700  1
  P  P15  1  0.96770000  0.36979700  0.24939700  1
  O  O16  1  0.45788300  0.57614800  0.75688900  1
  O  O17  1  0.11826400  0.54211700  0.75688900  1
  O  O18  1  0.42385200  0.88173600  0.75688900  1
  O  O19  1  0.54211700  0.42385200  0.25688900  1
  O  O20  1  0.88173600  0.45788300  0.25688900  1
  O  O21  1  0.57614800  0.11826400  0.25688900  1
  O  O22  1  0.92487700  0.26526600  0.40920200  1
  O  O23  1  0.34038900  0.07512300  0.40920200  1
  O  O24  1  0.73473400  0.65961100  0.40920200  1
  O  O25  1  0.07512300  0.73473400  0.90920200  1
  O  O26  1  0.65961100  0.92487700  0.90920200  1
  O  O27  1  0.26526600  0.34038900  0.90920200  1
  O  O28  1  0.35295200  0.08392400  0.08604100  1
  O  O29  1  0.73097100  0.64704800  0.08604100  1
  O  O30  1  0.91607600  0.26902900  0.08604100  1
  O  O31  1  0.64704800  0.91607600  0.58604100  1
  O  O32  1  0.26902900  0.35295200  0.58604100  1
  O  O33  1  0.08392400  0.73097100  0.58604100  1
  O  O34  1  0.48016300  0.34081800  0.74568500  1
  O  O35  1  0.86065500  0.51983700  0.74568500  1
  O  O36  1  0.65918200  0.13934500  0.74568500  1
  O  O37  1  0.51983700  0.65918200  0.24568500  1
  O  O38  1  0.13934500  0.48016300  0.24568500  1
  O  O39  1  0.34081800  0.86065500  0.24568500  1
  O  O40  1  0.00000000  0.00000000  0.65419900  1
  O  O41  1  0.00000000  0.00000000  0.15419900  1
