# generated using pymatgen
data_CoN3Cl5
_symmetry_space_group_name_H-M   'P 1'
_cell_length_a   9.32935600
_cell_length_b   9.43983900
_cell_length_c   12.65799300
_cell_angle_alpha   90.00000000
_cell_angle_beta   90.00000000
_cell_angle_gamma   90.00000000
_symmetry_Int_Tables_number   1
_chemical_formula_structural   CoN3Cl5
_chemical_formula_sum   'Co4 N12 Cl20'
_cell_volume   1114.75929994
_cell_formula_units_Z   4
loop_
 _symmetry_equiv_pos_site_id
 _symmetry_equiv_pos_as_xyz
  1  'x, y, z'
loop_
 _atom_site_type_symbol
 _atom_site_label
 _atom_site_symmetry_multiplicity
 _atom_site_fract_x
 _atom_site_fract_y
 _atom_site_fract_z
 _atom_site_occupancy
  Co  Co0  1  0.81785100  0.25000000  0.39169600  1
  Co  Co1  1  0.31785100  0.25000000  0.10830400  1
  Co  Co2  1  0.18214900  0.75000000  0.60830400  1
  Co  Co3  1  0.68214900  0.75000000  0.89169600  1
  N  N4  1  0.96442700  0.25000000  0.89662800  1
  N  N5  1  0.46442700  0.25000000  0.60337200  1
  N  N6  1  0.03557300  0.75000000  0.10337200  1
  N  N7  1  0.53557300  0.75000000  0.39662800  1
  N  N8  1  0.88954500  0.02573500  0.68225700  1
  N  N9  1  0.38954500  0.47426500  0.81774300  1
  N  N10  1  0.11045500  0.52573500  0.31774300  1
  N  N11  1  0.61045500  0.97426500  0.18225700  1
  N  N12  1  0.11045500  0.97426500  0.31774300  1
  N  N13  1  0.61045500  0.52573500  0.18225700  1
  N  N14  1  0.88954500  0.47426500  0.68225700  1
  N  N15  1  0.38954500  0.02573500  0.81774300  1
  Cl  Cl16  1  0.86215100  0.25000000  0.22585900  1
  Cl  Cl17  1  0.36215100  0.25000000  0.27414100  1
  Cl  Cl18  1  0.13784900  0.75000000  0.77414100  1
  Cl  Cl19  1  0.63784900  0.75000000  0.72585900  1
  Cl  Cl20  1  0.51206400  0.25000000  0.01772500  1
  Cl  Cl21  1  0.01206400  0.25000000  0.48227500  1
  Cl  Cl22  1  0.48793600  0.75000000  0.98227500  1
  Cl  Cl23  1  0.98793600  0.75000000  0.51772500  1
  Cl  Cl24  1  0.59739100  0.25000000  0.68271400  1
  Cl  Cl25  1  0.09739100  0.25000000  0.81728600  1
  Cl  Cl26  1  0.40260900  0.75000000  0.31728600  1
  Cl  Cl27  1  0.90260900  0.75000000  0.18271400  1
  Cl  Cl28  1  0.69521200  0.06433900  0.42856300  1
  Cl  Cl29  1  0.19521200  0.43566100  0.07143700  1
  Cl  Cl30  1  0.30478800  0.56433800  0.57143700  1
  Cl  Cl31  1  0.80478800  0.93566200  0.92856300  1
  Cl  Cl32  1  0.30478800  0.93566200  0.57143700  1
  Cl  Cl33  1  0.80478800  0.56433800  0.92856300  1
  Cl  Cl34  1  0.69521200  0.43566100  0.42856300  1
  Cl  Cl35  1  0.19521200  0.06433900  0.07143700  1
