# generated using pymatgen
data_Dy7Co6Sn23
_symmetry_space_group_name_H-M   'P 1'
_cell_length_a   10.11414344
_cell_length_b   10.11414344
_cell_length_c   10.92882600
_cell_angle_alpha   90.00000000
_cell_angle_beta   90.00000000
_cell_angle_gamma   119.99999637
_symmetry_Int_Tables_number   1
_chemical_formula_structural   Dy7Co6Sn23
_chemical_formula_sum   'Dy7 Co6 Sn23'
_cell_volume   968.19397699
_cell_formula_units_Z   1
loop_
 _symmetry_equiv_pos_site_id
 _symmetry_equiv_pos_as_xyz
  1  'x, y, z'
loop_
 _atom_site_type_symbol
 _atom_site_label
 _atom_site_symmetry_multiplicity
 _atom_site_fract_x
 _atom_site_fract_y
 _atom_site_fract_z
 _atom_site_occupancy
  Dy  Dy0  1  0.00000000  0.00000000  0.50000000  1
  Dy  Dy1  1  0.95107600  0.47553800  0.21002700  1
  Dy  Dy2  1  0.52446200  0.04892400  0.21002700  1
  Dy  Dy3  1  0.52446200  0.47553800  0.21002700  1
  Dy  Dy4  1  0.04892400  0.52446200  0.78997300  1
  Dy  Dy5  1  0.47553800  0.95107600  0.78997300  1
  Dy  Dy6  1  0.47553800  0.52446200  0.78997300  1
  Co  Co7  1  0.38698200  0.19349100  0.35120700  1
  Co  Co8  1  0.80650900  0.61301800  0.35120700  1
  Co  Co9  1  0.80650900  0.19349100  0.35120700  1
  Co  Co10  1  0.61301800  0.80650900  0.64879300  1
  Co  Co11  1  0.19349100  0.38698200  0.64879300  1
  Co  Co12  1  0.19349100  0.80650900  0.64879300  1
  Sn  Sn13  1  0.66666700  0.33333300  0.70218300  1
  Sn  Sn14  1  0.33333300  0.66666700  0.29781700  1
  Sn  Sn15  1  0.45580200  0.22790100  0.94429400  1
  Sn  Sn16  1  0.77209900  0.54419800  0.94429400  1
  Sn  Sn17  1  0.77209900  0.22790100  0.94429400  1
  Sn  Sn18  1  0.54419800  0.77209900  0.05570600  1
  Sn  Sn19  1  0.22790100  0.45580200  0.05570600  1
  Sn  Sn20  1  0.22790100  0.77209900  0.05570600  1
  Sn  Sn21  1  0.23176700  0.11588300  0.17821700  1
  Sn  Sn22  1  0.88411700  0.76823300  0.17821700  1
  Sn  Sn23  1  0.88411700  0.11588300  0.17821700  1
  Sn  Sn24  1  0.76823300  0.88411700  0.82178300  1
  Sn  Sn25  1  0.11588300  0.23176700  0.82178300  1
  Sn  Sn26  1  0.11588300  0.88411700  0.82178300  1
  Sn  Sn27  1  0.00000000  0.00000000  0.00000000  1
  Sn  Sn28  1  0.34755300  0.00000000  0.50000000  1
  Sn  Sn29  1  0.65244700  0.65244700  0.50000000  1
  Sn  Sn30  1  0.00000000  0.34755300  0.50000000  1
  Sn  Sn31  1  0.34755300  0.34755300  0.50000000  1
  Sn  Sn32  1  0.00000000  0.65244700  0.50000000  1
  Sn  Sn33  1  0.65244700  0.00000000  0.50000000  1
  Sn  Sn34  1  0.66666700  0.33333300  0.39241200  1
  Sn  Sn35  1  0.33333300  0.66666700  0.60758800  1
