# generated using pymatgen
data_ZrMo2O11
_symmetry_space_group_name_H-M   'P 1'
_cell_length_a   10.52902249
_cell_length_b   10.52902249
_cell_length_c   10.52902249
_cell_angle_alpha   110.89187403
_cell_angle_beta   110.89187403
_cell_angle_gamma   106.66581517
_symmetry_Int_Tables_number   1
_chemical_formula_structural   ZrMo2O11
_chemical_formula_sum   'Zr4 Mo8 O44'
_cell_volume   896.94439102
_cell_formula_units_Z   4
loop_
 _symmetry_equiv_pos_site_id
 _symmetry_equiv_pos_as_xyz
  1  'x, y, z'
loop_
 _atom_site_type_symbol
 _atom_site_label
 _atom_site_symmetry_multiplicity
 _atom_site_fract_x
 _atom_site_fract_y
 _atom_site_fract_z
 _atom_site_occupancy
  Zr  Zr0  1  0.25885700  0.25885700  0.00000000  1
  Zr  Zr1  1  0.75885700  0.75885700  0.00000000  1
  Zr  Zr2  1  0.00885700  0.50885700  0.50000000  1
  Zr  Zr3  1  0.50885700  0.00885700  0.50000000  1
  Mo  Mo4  1  0.05301400  0.84279600  0.86121700  1
  Mo  Mo5  1  0.48157900  0.34279600  0.78978200  1
  Mo  Mo6  1  0.94179700  0.30301400  0.71021800  1
  Mo  Mo7  1  0.44179700  0.73157900  0.63878300  1
  Mo  Mo8  1  0.98157900  0.19179700  0.13878300  1
  Mo  Mo9  1  0.55301400  0.69179700  0.21021800  1
  Mo  Mo10  1  0.59279600  0.23157900  0.28978200  1
  Mo  Mo11  1  0.09279600  0.80301400  0.36121700  1
  O  O12  1  0.20760500  0.86369300  0.01317900  1
  O  O13  1  0.35051500  0.36369300  0.65608800  1
  O  O14  1  0.94442700  0.45760500  0.84391200  1
  O  O15  1  0.44442700  0.60051500  0.48682100  1
  O  O16  1  0.85051500  0.19442700  0.98682100  1
  O  O17  1  0.70760500  0.69442700  0.34391200  1
  O  O18  1  0.61369300  0.10051500  0.15608800  1
  O  O19  1  0.11369300  0.95760500  0.51317900  1
  O  O20  1  0.91747900  0.92141800  0.71676000  1
  O  O21  1  0.70465800  0.42141800  0.00393900  1
  O  O22  1  0.95071800  0.16747900  0.49606100  1
  O  O23  1  0.45071800  0.95465800  0.78324000  1
  O  O24  1  0.20465800  0.20071800  0.28324000  1
  O  O25  1  0.41747900  0.70071800  0.99606100  1
  O  O26  1  0.67141800  0.45465800  0.50393900  1
  O  O27  1  0.17141800  0.66747900  0.21676000  1
  O  O28  1  0.43207200  0.25015200  0.17125000  1
  O  O29  1  0.57890100  0.75015200  0.81807900  1
  O  O30  1  0.01082200  0.68207200  0.68192100  1
  O  O31  1  0.51082200  0.82890100  0.32875000  1
  O  O32  1  0.07890100  0.26082200  0.82875000  1
  O  O33  1  0.93207200  0.76082200  0.18192100  1
  O  O34  1  0.00015200  0.32890100  0.31807900  1
  O  O35  1  0.50015200  0.18207200  0.67125000  1
  O  O36  1  0.38389200  0.27276800  0.88252400  1
  O  O37  1  0.89024500  0.77276800  0.88887600  1
  O  O38  1  0.25136900  0.63389200  0.61112400  1
  O  O39  1  0.75136900  0.14024500  0.61747600  1
  O  O40  1  0.39024500  0.50136900  0.11747600  1
  O  O41  1  0.88389200  0.00136900  0.11112400  1
  O  O42  1  0.02276800  0.64024500  0.38887600  1
  O  O43  1  0.52276800  0.13389200  0.38252400  1
  O  O44  1  0.16568700  0.01174000  0.83236500  1
  O  O45  1  0.67937500  0.51174000  0.84605400  1
  O  O46  1  0.08332200  0.41568700  0.65394600  1
  O  O47  1  0.58332200  0.92937500  0.66763500  1
  O  O48  1  0.17937500  0.33332200  0.16763500  1
  O  O49  1  0.66568700  0.83332200  0.15394600  1
  O  O50  1  0.76174000  0.42937500  0.34605400  1
  O  O51  1  0.26174000  0.91568700  0.33236500  1
  O  O52  1  0.08050100  0.08050100  0.00000000  1
  O  O53  1  0.58050100  0.58050100  0.00000000  1
  O  O54  1  0.83050100  0.33050100  0.50000000  1
  O  O55  1  0.33050100  0.83050100  0.50000000  1
