# generated using pymatgen
data_BH10C3NF4
_symmetry_space_group_name_H-M   'P 1'
_cell_length_a   5.74241175
_cell_length_b   7.68438318
_cell_length_c   8.89582300
_cell_angle_alpha   90.00000000
_cell_angle_beta   90.00000000
_cell_angle_gamma   104.45780340
_symmetry_Int_Tables_number   1
_chemical_formula_structural   BH10C3NF4
_chemical_formula_sum   'B2 H20 C6 N2 F8'
_cell_volume   380.11381872
_cell_formula_units_Z   2
loop_
 _symmetry_equiv_pos_site_id
 _symmetry_equiv_pos_as_xyz
  1  'x, y, z'
loop_
 _atom_site_type_symbol
 _atom_site_label
 _atom_site_symmetry_multiplicity
 _atom_site_fract_x
 _atom_site_fract_y
 _atom_site_fract_z
 _atom_site_occupancy
  B  B0  1  0.48274100  0.70396800  0.75000000  1
  B  B1  1  0.51725900  0.29603200  0.25000000  1
  H  H2  1  0.22490900  0.37533500  0.75000000  1
  H  H3  1  0.77509100  0.62466500  0.25000000  1
  H  H4  1  0.79346500  0.13794300  0.61045800  1
  H  H5  1  0.20653500  0.86205700  0.11045800  1
  H  H6  1  0.20653500  0.86205700  0.38954200  1
  H  H7  1  0.79346500  0.13794300  0.88954200  1
  H  H8  1  0.85946600  0.37867100  0.61690100  1
  H  H9  1  0.14053400  0.62132900  0.11690100  1
  H  H10  1  0.14053400  0.62132900  0.38309900  1
  H  H11  1  0.85946600  0.37867100  0.88309900  1
  H  H12  1  0.05201100  0.26836800  0.51298700  1
  H  H13  1  0.94798900  0.73163200  0.01298700  1
  H  H14  1  0.94798900  0.73163200  0.48701300  1
  H  H15  1  0.05201100  0.26836800  0.98701300  1
  H  H16  1  0.29638800  0.10381100  0.85157600  1
  H  H17  1  0.70361200  0.89618900  0.35157600  1
  H  H18  1  0.70361200  0.89618900  0.14842400  1
  H  H19  1  0.29638800  0.10381100  0.64842400  1
  H  H20  1  0.03808400  0.98030000  0.75000000  1
  H  H21  1  0.96191600  0.01970000  0.25000000  1
  C  C22  1  0.93660800  0.26265500  0.61180400  1
  C  C23  1  0.06339200  0.73734500  0.11180400  1
  C  C24  1  0.06339200  0.73734500  0.38819600  1
  C  C25  1  0.93660800  0.26265500  0.88819600  1
  C  C26  1  0.18779700  0.10056300  0.75000000  1
  C  C27  1  0.81220300  0.89943700  0.25000000  1
  N  N28  1  0.08393200  0.26028700  0.75000000  1
  N  N29  1  0.91606800  0.73971300  0.25000000  1
  F  F30  1  0.22798600  0.67106800  0.75000000  1
  F  F31  1  0.77201400  0.32893200  0.25000000  1
  F  F32  1  0.54008100  0.53241000  0.75000000  1
  F  F33  1  0.45991900  0.46759000  0.25000000  1
  F  F34  1  0.57910700  0.80118300  0.61975300  1
  F  F35  1  0.42089300  0.19881700  0.11975300  1
  F  F36  1  0.42089300  0.19881700  0.38024700  1
  F  F37  1  0.57910700  0.80118300  0.88024700  1
