# generated using pymatgen
data_Cu2AsO8
_symmetry_space_group_name_H-M   'P 1'
_cell_length_a   5.48389400
_cell_length_b   10.42874200
_cell_length_c   12.20812400
_cell_angle_alpha   90.00000000
_cell_angle_beta   90.00000000
_cell_angle_gamma   90.00000000
_symmetry_Int_Tables_number   1
_chemical_formula_structural   Cu2AsO8
_chemical_formula_sum   'Cu8 As4 O32'
_cell_volume   698.18402381
_cell_formula_units_Z   4
loop_
 _symmetry_equiv_pos_site_id
 _symmetry_equiv_pos_as_xyz
  1  'x, y, z'
loop_
 _atom_site_type_symbol
 _atom_site_label
 _atom_site_symmetry_multiplicity
 _atom_site_fract_x
 _atom_site_fract_y
 _atom_site_fract_z
 _atom_site_occupancy
  Cu  Cu0  1  0.53405500  0.74941700  0.50558800  1
  Cu  Cu1  1  0.03405500  0.75058300  0.49441200  1
  Cu  Cu2  1  0.46594500  0.24941700  0.99441200  1
  Cu  Cu3  1  0.96594500  0.25058300  0.00558800  1
  Cu  Cu4  1  0.85539700  0.78767800  0.72508600  1
  Cu  Cu5  1  0.35539700  0.71232200  0.27491400  1
  Cu  Cu6  1  0.14460300  0.28767800  0.77491400  1
  Cu  Cu7  1  0.64460300  0.21232200  0.22508600  1
  As  As8  1  0.29493000  0.58584500  0.74024800  1
  As  As9  1  0.79493000  0.91415500  0.25975200  1
  As  As10  1  0.70507000  0.08584500  0.75975200  1
  As  As11  1  0.20506900  0.41415500  0.24024800  1
  O  O12  1  0.98576600  0.21773200  0.59622000  1
  O  O13  1  0.48576600  0.28226800  0.40378000  1
  O  O14  1  0.01423400  0.71773200  0.90378000  1
  O  O15  1  0.51423400  0.78226800  0.09622000  1
  O  O16  1  0.14373700  0.88038100  0.72468600  1
  O  O17  1  0.64373700  0.61961900  0.27531400  1
  O  O18  1  0.85626300  0.38038100  0.77531400  1
  O  O19  1  0.35626300  0.11961900  0.22468600  1
  O  O20  1  0.64854000  0.92777200  0.77942700  1
  O  O21  1  0.14854000  0.57222800  0.22057300  1
  O  O22  1  0.35146000  0.42777200  0.72057300  1
  O  O23  1  0.85146000  0.07222800  0.27942700  1
  O  O24  1  0.53598700  0.68167100  0.72175100  1
  O  O25  1  0.03598700  0.81832900  0.27824900  1
  O  O26  1  0.46401300  0.18167100  0.77824900  1
  O  O27  1  0.96401300  0.31832900  0.22175100  1
  O  O28  1  0.02256000  0.62960900  0.68275400  1
  O  O29  1  0.52256000  0.87039100  0.31724600  1
  O  O30  1  0.97744000  0.12960900  0.81724600  1
  O  O31  1  0.47744000  0.37039100  0.18275400  1
  O  O32  1  0.27744700  0.85002100  0.55222100  1
  O  O33  1  0.77744700  0.64997900  0.44777900  1
  O  O34  1  0.72255300  0.35002100  0.94777900  1
  O  O35  1  0.22255300  0.14997900  0.05222100  1
  O  O36  1  0.79059800  0.83747400  0.56677600  1
  O  O37  1  0.29059800  0.66252600  0.43322400  1
  O  O38  1  0.20940200  0.33747400  0.93322400  1
  O  O39  1  0.70940200  0.16252600  0.06677600  1
  O  O40  1  0.18364700  0.63274500  0.90332800  1
  O  O41  1  0.68364700  0.86725500  0.09667200  1
  O  O42  1  0.81635300  0.13274500  0.59667200  1
  O  O43  1  0.31635300  0.36725500  0.40332800  1
