# generated using pymatgen
data_Cs3Bi2Cl9
_symmetry_space_group_name_H-M   'P 1'
_cell_length_a   7.79380300
_cell_length_b   13.53939300
_cell_length_c   19.19159500
_cell_angle_alpha   90.00000000
_cell_angle_beta   90.00000000
_cell_angle_gamma   90.00000000
_symmetry_Int_Tables_number   1
_chemical_formula_structural   Cs3Bi2Cl9
_chemical_formula_sum   'Cs12 Bi8 Cl36'
_cell_volume   2025.16162235
_cell_formula_units_Z   4
loop_
 _symmetry_equiv_pos_site_id
 _symmetry_equiv_pos_as_xyz
  1  'x, y, z'
loop_
 _atom_site_type_symbol
 _atom_site_label
 _atom_site_symmetry_multiplicity
 _atom_site_fract_x
 _atom_site_fract_y
 _atom_site_fract_z
 _atom_site_occupancy
  Cs  Cs0  1  0.25000000  0.09078900  0.58957300  1
  Cs  Cs1  1  0.25000000  0.40921100  0.08957300  1
  Cs  Cs2  1  0.75000000  0.90921100  0.41042700  1
  Cs  Cs3  1  0.75000000  0.59078900  0.91042700  1
  Cs  Cs4  1  0.25000000  0.74744000  0.25118900  1
  Cs  Cs5  1  0.25000000  0.75256000  0.75118900  1
  Cs  Cs6  1  0.75000000  0.25256000  0.74881100  1
  Cs  Cs7  1  0.75000000  0.24744000  0.24881100  1
  Cs  Cs8  1  0.25000000  0.07822200  0.91334300  1
  Cs  Cs9  1  0.25000000  0.42177800  0.41334300  1
  Cs  Cs10  1  0.75000000  0.92177800  0.08665700  1
  Cs  Cs11  1  0.75000000  0.57822200  0.58665700  1
  Bi  Bi12  1  0.25000000  0.73903000  0.50133200  1
  Bi  Bi13  1  0.25000000  0.76097000  0.00133200  1
  Bi  Bi14  1  0.75000000  0.26097000  0.49866800  1
  Bi  Bi15  1  0.75000000  0.23903000  0.99866800  1
  Bi  Bi16  1  0.25000000  0.42120700  0.81798500  1
  Bi  Bi17  1  0.25000000  0.07879300  0.31798500  1
  Bi  Bi18  1  0.75000000  0.57879300  0.18201500  1
  Bi  Bi19  1  0.75000000  0.92120700  0.68201500  1
  Cl  Cl20  1  0.25000000  0.91090300  0.41136100  1
  Cl  Cl21  1  0.25000000  0.58909700  0.91136100  1
  Cl  Cl22  1  0.75000000  0.08909700  0.58863900  1
  Cl  Cl23  1  0.75000000  0.41090300  0.08863900  1
  Cl  Cl24  1  0.25000000  0.26031700  0.74233600  1
  Cl  Cl25  1  0.25000000  0.23968300  0.24233600  1
  Cl  Cl26  1  0.75000000  0.73968300  0.25766400  1
  Cl  Cl27  1  0.75000000  0.76031700  0.75766400  1
  Cl  Cl28  1  0.25000000  0.91605800  0.08057000  1
  Cl  Cl29  1  0.25000000  0.58394200  0.58057000  1
  Cl  Cl30  1  0.75000000  0.08394200  0.91943000  1
  Cl  Cl31  1  0.75000000  0.41605800  0.41943000  1
  Cl  Cl32  1  0.99085400  0.33549600  0.57649200  1
  Cl  Cl33  1  0.50914600  0.16450400  0.07649200  1
  Cl  Cl34  1  0.49085400  0.66450400  0.42350800  1
  Cl  Cl35  1  0.00914600  0.83549600  0.92350800  1
  Cl  Cl36  1  0.00914600  0.66450400  0.42350800  1
  Cl  Cl37  1  0.49085400  0.83549600  0.92350800  1
  Cl  Cl38  1  0.50914600  0.33549600  0.57649200  1
  Cl  Cl39  1  0.99085400  0.16450400  0.07649200  1
  Cl  Cl40  1  0.99614500  0.50827500  0.75220700  1
  Cl  Cl41  1  0.50385500  0.99172500  0.25220700  1
  Cl  Cl42  1  0.49614500  0.49172500  0.24779300  1
  Cl  Cl43  1  0.00385500  0.00827500  0.74779300  1
  Cl  Cl44  1  0.00385500  0.49172500  0.24779300  1
  Cl  Cl45  1  0.49614500  0.00827500  0.74779300  1
  Cl  Cl46  1  0.50385500  0.50827500  0.75220700  1
  Cl  Cl47  1  0.99614500  0.99172500  0.25220700  1
  Cl  Cl48  1  0.00350800  0.33251400  0.91044500  1
  Cl  Cl49  1  0.49649200  0.16748600  0.41044500  1
  Cl  Cl50  1  0.50350800  0.66748600  0.08955500  1
  Cl  Cl51  1  0.99649200  0.83251400  0.58955500  1
  Cl  Cl52  1  0.99649200  0.66748600  0.08955500  1
  Cl  Cl53  1  0.50350800  0.83251400  0.58955500  1
  Cl  Cl54  1  0.49649200  0.33251400  0.91044500  1
  Cl  Cl55  1  0.00350800  0.16748600  0.41044500  1
