# generated using pymatgen
data_Na2V2CoH4(OF)6
_symmetry_space_group_name_H-M   'P 1'
_cell_length_a   5.35240900
_cell_length_b   8.41308800
_cell_length_c   10.61067271
_cell_angle_alpha   91.99536443
_cell_angle_beta   90.00000000
_cell_angle_gamma   90.00000000
_symmetry_Int_Tables_number   1
_chemical_formula_structural   Na2V2CoH4(OF)6
_chemical_formula_sum   'Na4 V4 Co2 H8 O12 F12'
_cell_volume   477.51193097
_cell_formula_units_Z   2
loop_
 _symmetry_equiv_pos_site_id
 _symmetry_equiv_pos_as_xyz
  1  'x, y, z'
loop_
 _atom_site_type_symbol
 _atom_site_label
 _atom_site_symmetry_multiplicity
 _atom_site_fract_x
 _atom_site_fract_y
 _atom_site_fract_z
 _atom_site_occupancy
  Na  Na0  1  0.44702200  0.53309000  0.66412400  1
  Na  Na1  1  0.94702200  0.46691000  0.83587600  1
  Na  Na2  1  0.55297800  0.46691000  0.33587600  1
  Na  Na3  1  0.05297800  0.53309000  0.16412400  1
  V  V4  1  0.97464600  0.71014900  0.50640900  1
  V  V5  1  0.47464600  0.28985100  0.99359100  1
  V  V6  1  0.02535400  0.28985100  0.49359100  1
  V  V7  1  0.52535400  0.71014900  0.00640900  1
  Co  Co8  1  0.50000000  0.00000000  0.50000000  1
  Co  Co9  1  0.00000000  0.00000000  0.00000000  1
  H  H10  1  0.53253400  0.84318800  0.27705100  1
  H  H11  1  0.03253400  0.15681200  0.22294900  1
  H  H12  1  0.46746600  0.15681200  0.72294900  1
  H  H13  1  0.96746600  0.84318800  0.77705100  1
  H  H14  1  0.69998200  0.99477900  0.26911200  1
  H  H15  1  0.19998200  0.00522100  0.23088800  1
  H  H16  1  0.30001800  0.00522100  0.73088800  1
  H  H17  1  0.80001800  0.99477900  0.76911200  1
  O  O18  1  0.70537500  0.80518700  0.54247200  1
  O  O19  1  0.20537400  0.19481300  0.95752800  1
  O  O20  1  0.29462500  0.19481300  0.45752800  1
  O  O21  1  0.79462500  0.80518700  0.04247200  1
  O  O22  1  0.18853900  0.85116100  0.48625000  1
  O  O23  1  0.68853900  0.14883900  0.01375000  1
  O  O24  1  0.81146100  0.14883900  0.51375000  1
  O  O25  1  0.31146100  0.85116100  0.98625000  1
  O  O26  1  0.53922100  0.95696700  0.30271000  1
  O  O27  1  0.03922100  0.04303300  0.19729000  1
  O  O28  1  0.46077900  0.04303300  0.69729000  1
  O  O29  1  0.96077900  0.95696700  0.80271000  1
  F  F30  1  0.22344000  0.51868000  0.47000000  1
  F  F31  1  0.72344000  0.48132000  0.03000000  1
  F  F32  1  0.77656000  0.48132000  0.53000000  1
  F  F33  1  0.27656000  0.51868000  0.97000000  1
  F  F34  1  0.88466800  0.66349100  0.33637200  1
  F  F35  1  0.38466800  0.33650900  0.16362800  1
  F  F36  1  0.11533200  0.33650900  0.66362800  1
  F  F37  1  0.61533200  0.66349100  0.83637200  1
  F  F38  1  0.06788000  0.67129100  0.67937300  1
  F  F39  1  0.56788000  0.32870900  0.82062700  1
  F  F40  1  0.93212000  0.32870900  0.32062700  1
  F  F41  1  0.43212000  0.67129100  0.17937300  1
