# generated using pymatgen
data_Ba5(GaSe4)2
_symmetry_space_group_name_H-M   'P 1'
_cell_length_a   13.51106937
_cell_length_b   13.51106937
_cell_length_c   12.42941200
_cell_angle_alpha   90.00000000
_cell_angle_beta   90.00000000
_cell_angle_gamma   123.96938313
_symmetry_Int_Tables_number   1
_chemical_formula_structural   Ba5(GaSe4)2
_chemical_formula_sum   'Ba20 Ga8 Se32'
_cell_volume   1881.74464819
_cell_formula_units_Z   4
loop_
 _symmetry_equiv_pos_site_id
 _symmetry_equiv_pos_as_xyz
  1  'x, y, z'
loop_
 _atom_site_type_symbol
 _atom_site_label
 _atom_site_symmetry_multiplicity
 _atom_site_fract_x
 _atom_site_fract_y
 _atom_site_fract_z
 _atom_site_occupancy
  Ba  Ba0  1  0.09697100  0.89680100  0.34340900  1
  Ba  Ba1  1  0.10319900  0.90302900  0.65659100  1
  Ba  Ba2  1  0.60319900  0.40302900  0.84340900  1
  Ba  Ba3  1  0.59697100  0.39680100  0.15659100  1
  Ba  Ba4  1  0.90302900  0.10319900  0.65659100  1
  Ba  Ba5  1  0.89680100  0.09697100  0.34340900  1
  Ba  Ba6  1  0.39680100  0.59697100  0.15659100  1
  Ba  Ba7  1  0.40302900  0.60319900  0.84340900  1
  Ba  Ba8  1  0.93854000  0.74485500  0.00484800  1
  Ba  Ba9  1  0.25514500  0.06146000  0.99515200  1
  Ba  Ba10  1  0.75514500  0.56146000  0.50484800  1
  Ba  Ba11  1  0.43854000  0.24485500  0.49515200  1
  Ba  Ba12  1  0.06146000  0.25514500  0.99515200  1
  Ba  Ba13  1  0.74485500  0.93854000  0.00484800  1
  Ba  Ba14  1  0.24485500  0.43854000  0.49515200  1
  Ba  Ba15  1  0.56146000  0.75514500  0.50484800  1
  Ba  Ba16  1  0.99524700  0.49524700  0.25000000  1
  Ba  Ba17  1  0.50475300  0.00475300  0.75000000  1
  Ba  Ba18  1  0.00475300  0.50475300  0.75000000  1
  Ba  Ba19  1  0.49524700  0.99524700  0.25000000  1
  Ga  Ga20  1  0.68627300  0.68627300  0.23010200  1
  Ga  Ga21  1  0.31372700  0.31372700  0.76989800  1
  Ga  Ga22  1  0.81372700  0.81372700  0.73010200  1
  Ga  Ga23  1  0.18627300  0.18627300  0.26989800  1
  Ga  Ga24  1  0.25014300  0.74985700  0.00000000  1
  Ga  Ga25  1  0.75014300  0.24985700  0.50000000  1
  Ga  Ga26  1  0.74985700  0.25014300  0.00000000  1
  Ga  Ga27  1  0.24985700  0.75014300  0.50000000  1
  Se  Se28  1  0.52392200  0.52392200  0.34814300  1
  Se  Se29  1  0.47607800  0.47607800  0.65185700  1
  Se  Se30  1  0.97607800  0.97607800  0.84814300  1
  Se  Se31  1  0.02392200  0.02392200  0.15185700  1
  Se  Se32  1  0.18581300  0.81283400  0.15149500  1
  Se  Se33  1  0.18716600  0.81418700  0.84850500  1
  Se  Se34  1  0.68716600  0.31418700  0.65149500  1
  Se  Se35  1  0.68581300  0.31283400  0.34850500  1
  Se  Se36  1  0.81418700  0.18716600  0.84850500  1
  Se  Se37  1  0.81283400  0.18581300  0.15149500  1
  Se  Se38  1  0.31283400  0.68581300  0.34850500  1
  Se  Se39  1  0.31418700  0.68716600  0.65149500  1
  Se  Se40  1  0.83804000  0.46379400  0.00176300  1
  Se  Se41  1  0.53620600  0.16196000  0.99823700  1
  Se  Se42  1  0.03620600  0.66196000  0.50176300  1
  Se  Se43  1  0.33804000  0.96379400  0.49823700  1
  Se  Se44  1  0.16196000  0.53620600  0.99823700  1
  Se  Se45  1  0.46379400  0.83804000  0.00176300  1
  Se  Se46  1  0.96379400  0.33804000  0.49823700  1
  Se  Se47  1  0.66196000  0.03620600  0.50176300  1
  Se  Se48  1  0.84783600  0.66232100  0.25754500  1
  Se  Se49  1  0.33767900  0.15216400  0.74245500  1
  Se  Se50  1  0.83767900  0.65216400  0.75754500  1
  Se  Se51  1  0.34783600  0.16232100  0.24245500  1
  Se  Se52  1  0.15216400  0.33767900  0.74245500  1
  Se  Se53  1  0.66232100  0.84783600  0.25754500  1
  Se  Se54  1  0.16232100  0.34783600  0.24245500  1
  Se  Se55  1  0.65216400  0.83767900  0.75754500  1
  Se  Se56  1  0.64609700  0.64609700  0.03218000  1
  Se  Se57  1  0.35390300  0.35390300  0.96782000  1
  Se  Se58  1  0.85390300  0.85390300  0.53218000  1
  Se  Se59  1  0.14609700  0.14609700  0.46782000  1
