# generated using pymatgen
data_Ca2Fe6Se9Cl4O27
_symmetry_space_group_name_H-M   'P 1'
_cell_length_a   12.32451605
_cell_length_b   12.32451605
_cell_length_c   12.96189400
_cell_angle_alpha   90.00000000
_cell_angle_beta   90.00000000
_cell_angle_gamma   120.00000025
_symmetry_Int_Tables_number   1
_chemical_formula_structural   Ca2Fe6Se9Cl4O27
_chemical_formula_sum   'Ca4 Fe12 Se18 Cl8 O54'
_cell_volume   1705.05677772
_cell_formula_units_Z   2
loop_
 _symmetry_equiv_pos_site_id
 _symmetry_equiv_pos_as_xyz
  1  'x, y, z'
loop_
 _atom_site_type_symbol
 _atom_site_label
 _atom_site_symmetry_multiplicity
 _atom_site_fract_x
 _atom_site_fract_y
 _atom_site_fract_z
 _atom_site_occupancy
  Ca  Ca0  1  0.66666700  0.33333300  0.61506000  1
  Ca  Ca1  1  0.33333300  0.66666700  0.11506000  1
  Ca  Ca2  1  0.33333300  0.66666700  0.38494000  1
  Ca  Ca3  1  0.66666700  0.33333300  0.88494000  1
  Fe  Fe4  1  0.10662000  0.41526300  0.75000000  1
  Fe  Fe5  1  0.58473700  0.69135600  0.75000000  1
  Fe  Fe6  1  0.30864400  0.89338000  0.75000000  1
  Fe  Fe7  1  0.89338000  0.58473700  0.25000000  1
  Fe  Fe8  1  0.41526300  0.30864400  0.25000000  1
  Fe  Fe9  1  0.69135600  0.10662000  0.25000000  1
  Fe  Fe10  1  0.00000000  0.50000000  0.50000000  1
  Fe  Fe11  1  0.50000000  0.50000000  0.50000000  1
  Fe  Fe12  1  0.50000000  0.00000000  0.50000000  1
  Fe  Fe13  1  0.00000000  0.50000000  0.00000000  1
  Fe  Fe14  1  0.50000000  0.50000000  0.00000000  1
  Fe  Fe15  1  0.50000000  0.00000000  0.00000000  1
  Se  Se16  1  0.96903300  0.55538500  0.75000000  1
  Se  Se17  1  0.44461500  0.41364800  0.75000000  1
  Se  Se18  1  0.58635200  0.03096700  0.75000000  1
  Se  Se19  1  0.03096700  0.44461500  0.25000000  1
  Se  Se20  1  0.55538500  0.58635200  0.25000000  1
  Se  Se21  1  0.41364800  0.96903300  0.25000000  1
  Se  Se22  1  0.19331800  0.36420300  0.50953100  1
  Se  Se23  1  0.63579700  0.82911500  0.50953100  1
  Se  Se24  1  0.17088500  0.80668200  0.50953100  1
  Se  Se25  1  0.80668200  0.63579700  0.00953100  1
  Se  Se26  1  0.36420300  0.17088500  0.00953100  1
  Se  Se27  1  0.82911500  0.19331800  0.00953100  1
  Se  Se28  1  0.80668200  0.63579700  0.49046900  1
  Se  Se29  1  0.36420300  0.17088500  0.49046900  1
  Se  Se30  1  0.82911500  0.19331800  0.49046900  1
  Se  Se31  1  0.19331800  0.36420300  0.99046900  1
  Se  Se32  1  0.63579700  0.82911500  0.99046900  1
  Se  Se33  1  0.17088500  0.80668200  0.99046900  1
  Cl  Cl34  1  0.92736000  0.21805600  0.75000000  1
  Cl  Cl35  1  0.78194400  0.70930400  0.75000000  1
  Cl  Cl36  1  0.29069600  0.07264000  0.75000000  1
  Cl  Cl37  1  0.07264000  0.78194400  0.25000000  1
  Cl  Cl38  1  0.21805600  0.29069600  0.25000000  1
  Cl  Cl39  1  0.70930400  0.92736000  0.25000000  1
  Cl  Cl40  1  0.33333300  0.66666700  0.75000000  1
  Cl  Cl41  1  0.66666700  0.33333300  0.25000000  1
  O  O42  1  0.83466000  0.33377100  0.52174800  1
  O  O43  1  0.66622900  0.50088900  0.52174800  1
  O  O44  1  0.49911100  0.16534000  0.52174800  1
  O  O45  1  0.16534000  0.66622900  0.02174800  1
  O  O46  1  0.33377100  0.49911100  0.02174800  1
  O  O47  1  0.50088900  0.83466000  0.02174800  1
  O  O48  1  0.16534000  0.66622900  0.47825200  1
  O  O49  1  0.33377100  0.49911100  0.47825200  1
  O  O50  1  0.50088900  0.83466000  0.47825200  1
  O  O51  1  0.83466000  0.33377100  0.97825200  1
  O  O52  1  0.66622900  0.50088900  0.97825200  1
  O  O53  1  0.49911100  0.16534000  0.97825200  1
  O  O54  1  0.19114000  0.37933200  0.64021300  1
  O  O55  1  0.62066800  0.81180800  0.64021300  1
  O  O56  1  0.18819200  0.80886000  0.64021300  1
  O  O57  1  0.80886000  0.62066800  0.14021300  1
  O  O58  1  0.37933200  0.18819200  0.14021300  1
  O  O59  1  0.81180800  0.19114000  0.14021300  1
  O  O60  1  0.80886000  0.62066800  0.35978700  1
  O  O61  1  0.37933200  0.18819200  0.35978700  1
  O  O62  1  0.81180800  0.19114000  0.35978700  1
  O  O63  1  0.19114000  0.37933200  0.85978700  1
  O  O64  1  0.62066800  0.81180800  0.85978700  1
  O  O65  1  0.18819200  0.80886000  0.85978700  1
  O  O66  1  0.81646100  0.44303100  0.75000000  1
  O  O67  1  0.55696900  0.37343000  0.75000000  1
  O  O68  1  0.62657000  0.18353900  0.75000000  1
  O  O69  1  0.18353900  0.55696900  0.25000000  1
  O  O70  1  0.44303100  0.62657000  0.25000000  1
  O  O71  1  0.37343000  0.81646100  0.25000000  1
  O  O72  1  0.03511300  0.50043200  0.65488800  1
  O  O73  1  0.49956800  0.53468100  0.65488800  1
  O  O74  1  0.46531900  0.96488700  0.65488800  1
  O  O75  1  0.96488700  0.49956800  0.15488800  1
  O  O76  1  0.50043200  0.46531900  0.15488800  1
  O  O77  1  0.53468100  0.03511300  0.15488800  1
  O  O78  1  0.96488700  0.49956800  0.34511200  1
  O  O79  1  0.50043200  0.46531900  0.34511200  1
  O  O80  1  0.53468100  0.03511300  0.34511200  1
  O  O81  1  0.03511300  0.50043200  0.84511200  1
  O  O82  1  0.49956800  0.53468100  0.84511200  1
  O  O83  1  0.46531900  0.96488700  0.84511200  1
  O  O84  1  0.91157600  0.59259900  0.53823400  1
  O  O85  1  0.40740100  0.31897700  0.53823400  1
  O  O86  1  0.68102300  0.08842400  0.53823400  1
  O  O87  1  0.08842400  0.40740100  0.03823400  1
  O  O88  1  0.59259900  0.68102300  0.03823400  1
  O  O89  1  0.31897700  0.91157600  0.03823400  1
  O  O90  1  0.08842400  0.40740100  0.46176600  1
  O  O91  1  0.59259900  0.68102300  0.46176600  1
  O  O92  1  0.31897700  0.91157600  0.46176600  1
  O  O93  1  0.91157600  0.59259900  0.96176600  1
  O  O94  1  0.40740100  0.31897700  0.96176600  1
  O  O95  1  0.68102300  0.08842400  0.96176600  1
