# generated using pymatgen
data_Nd4Bi2S9
_symmetry_space_group_name_H-M   'P 1'
_cell_length_a   28.45851400
_cell_length_b   3.97753400
_cell_length_c   12.84667900
_cell_angle_alpha   90.00000000
_cell_angle_beta   90.00000000
_cell_angle_gamma   90.00000000
_symmetry_Int_Tables_number   1
_chemical_formula_structural   Nd4Bi2S9
_chemical_formula_sum   'Nd16 Bi8 S36'
_cell_volume   1454.17606564
_cell_formula_units_Z   4
loop_
 _symmetry_equiv_pos_site_id
 _symmetry_equiv_pos_as_xyz
  1  'x, y, z'
loop_
 _atom_site_type_symbol
 _atom_site_label
 _atom_site_symmetry_multiplicity
 _atom_site_fract_x
 _atom_site_fract_y
 _atom_site_fract_z
 _atom_site_occupancy
  Nd  Nd0  1  0.68763000  0.25000000  0.89424900  1
  Nd  Nd1  1  0.18763000  0.25000000  0.60575100  1
  Nd  Nd2  1  0.31237000  0.75000000  0.10575100  1
  Nd  Nd3  1  0.81237000  0.75000000  0.39424900  1
  Nd  Nd4  1  0.82047500  0.25000000  0.74190900  1
  Nd  Nd5  1  0.32047500  0.25000000  0.75809100  1
  Nd  Nd6  1  0.17952500  0.75000000  0.25809100  1
  Nd  Nd7  1  0.67952500  0.75000000  0.24190900  1
  Nd  Nd8  1  0.05439600  0.25000000  0.74150800  1
  Nd  Nd9  1  0.55439600  0.25000000  0.75849200  1
  Nd  Nd10  1  0.94560400  0.75000000  0.25849200  1
  Nd  Nd11  1  0.44560400  0.75000000  0.24150800  1
  Nd  Nd12  1  0.80564700  0.25000000  0.07507600  1
  Nd  Nd13  1  0.30564700  0.25000000  0.42492400  1
  Nd  Nd14  1  0.19435300  0.75000000  0.92492400  1
  Nd  Nd15  1  0.69435300  0.75000000  0.57507600  1
  Bi  Bi16  1  0.55939400  0.25000000  0.42906000  1
  Bi  Bi17  1  0.05939400  0.25000000  0.07094000  1
  Bi  Bi18  1  0.44060600  0.75000000  0.57094000  1
  Bi  Bi19  1  0.94060600  0.75000000  0.92906000  1
  Bi  Bi20  1  0.93427100  0.25000000  0.56106200  1
  Bi  Bi21  1  0.43427100  0.25000000  0.93893800  1
  Bi  Bi22  1  0.06572900  0.75000000  0.43893800  1
  Bi  Bi23  1  0.56572900  0.75000000  0.06106200  1
  S  S24  1  0.99558200  0.25000000  0.38654500  1
  S  S25  1  0.49558200  0.25000000  0.11345500  1
  S  S26  1  0.00441800  0.75000000  0.61345500  1
  S  S27  1  0.50441800  0.75000000  0.88654500  1
  S  S28  1  0.63565700  0.25000000  0.10463200  1
  S  S29  1  0.13565700  0.25000000  0.39536800  1
  S  S30  1  0.36434300  0.75000000  0.89536800  1
  S  S31  1  0.86434300  0.75000000  0.60463200  1
  S  S32  1  0.95746400  0.25000000  0.09990900  1
  S  S33  1  0.45746400  0.25000000  0.40009100  1
  S  S34  1  0.04253600  0.75000000  0.90009100  1
  S  S35  1  0.54253600  0.75000000  0.59990900  1
  S  S36  1  0.44210800  0.25000000  0.71102700  1
  S  S37  1  0.94210800  0.25000000  0.78897300  1
  S  S38  1  0.55789200  0.75000000  0.28897300  1
  S  S39  1  0.05789200  0.75000000  0.21102700  1
  S  S40  1  0.76965600  0.25000000  0.53868800  1
  S  S41  1  0.26965600  0.25000000  0.96131200  1
  S  S42  1  0.23034400  0.75000000  0.46131200  1
  S  S43  1  0.73034400  0.75000000  0.03868800  1
  S  S44  1  0.88598200  0.25000000  0.37555300  1
  S  S45  1  0.38598200  0.25000000  0.12444700  1
  S  S46  1  0.11401800  0.75000000  0.62444700  1
  S  S47  1  0.61401800  0.75000000  0.87555300  1
  S  S48  1  0.65714400  0.25000000  0.40928400  1
  S  S49  1  0.15714400  0.25000000  0.09071600  1
  S  S50  1  0.34285600  0.75000000  0.59071600  1
  S  S51  1  0.84285600  0.75000000  0.90928400  1
  S  S52  1  0.75453500  0.25000000  0.27153000  1
  S  S53  1  0.25453500  0.25000000  0.22847000  1
  S  S54  1  0.24546500  0.75000000  0.72847000  1
  S  S55  1  0.74546500  0.75000000  0.77153000  1
  S  S56  1  0.64891300  0.25000000  0.68508200  1
  S  S57  1  0.14891300  0.25000000  0.81491800  1
  S  S58  1  0.35108700  0.75000000  0.31491800  1
  S  S59  1  0.85108700  0.75000000  0.18508200  1
