# generated using pymatgen
data_Ba7Fe6(OF16)2
_symmetry_space_group_name_H-M   'P 1'
_cell_length_a   10.39131570
_cell_length_b   10.39131570
_cell_length_c   7.65147864
_cell_angle_alpha   80.92188565
_cell_angle_beta   80.92188565
_cell_angle_gamma   68.21802231
_symmetry_Int_Tables_number   1
_chemical_formula_structural   Ba7Fe6(OF16)2
_chemical_formula_sum   'Ba7 Fe6 O2 F32'
_cell_volume   753.15446529
_cell_formula_units_Z   1
loop_
 _symmetry_equiv_pos_site_id
 _symmetry_equiv_pos_as_xyz
  1  'x, y, z'
loop_
 _atom_site_type_symbol
 _atom_site_label
 _atom_site_symmetry_multiplicity
 _atom_site_fract_x
 _atom_site_fract_y
 _atom_site_fract_z
 _atom_site_occupancy
  Ba  Ba0  1  0.00000000  0.00000000  0.00000000  1
  Ba  Ba1  1  0.26622200  0.26622200  0.87023500  1
  Ba  Ba2  1  0.73377800  0.73377800  0.12976500  1
  Ba  Ba3  1  0.84772100  0.43402100  0.69699600  1
  Ba  Ba4  1  0.43402100  0.84772100  0.69699600  1
  Ba  Ba5  1  0.15227900  0.56597900  0.30300400  1
  Ba  Ba6  1  0.56597900  0.15227900  0.30300400  1
  Fe  Fe7  1  0.17553400  0.17553400  0.45559900  1
  Fe  Fe8  1  0.82446600  0.82446600  0.54440100  1
  Fe  Fe9  1  0.86544300  0.35506100  0.19973700  1
  Fe  Fe10  1  0.35506100  0.86544300  0.19973700  1
  Fe  Fe11  1  0.13455700  0.64493900  0.80026300  1
  Fe  Fe12  1  0.64493900  0.13455700  0.80026300  1
  O  O13  1  0.46232800  0.46232800  0.26657300  1
  O  O14  1  0.53767200  0.53767200  0.73342700  1
  F  F15  1  0.25312100  0.51535700  0.97106100  1
  F  F16  1  0.51535700  0.25312100  0.97106100  1
  F  F17  1  0.74687900  0.48464300  0.02893900  1
  F  F18  1  0.48464300  0.74687900  0.02893900  1
  F  F19  1  0.26056800  0.55020000  0.61019800  1
  F  F20  1  0.55020000  0.26056800  0.61019800  1
  F  F21  1  0.73943200  0.44980000  0.38980200  1
  F  F22  1  0.44980000  0.73943200  0.38980200  1
  F  F23  1  0.03549600  0.51787700  0.81174300  1
  F  F24  1  0.51787700  0.03549600  0.81174300  1
  F  F25  1  0.96450400  0.48212300  0.18825700  1
  F  F26  1  0.48212300  0.96450400  0.18825700  1
  F  F27  1  0.00117800  0.26544500  0.00120600  1
  F  F28  1  0.26544500  0.00117800  0.00120600  1
  F  F29  1  0.99882200  0.73455500  0.99879400  1
  F  F30  1  0.73455500  0.99882200  0.99879400  1
  F  F31  1  0.12079800  0.35647200  0.54587000  1
  F  F32  1  0.35647200  0.12079800  0.54587000  1
  F  F33  1  0.87920200  0.64352800  0.45413000  1
  F  F34  1  0.64352800  0.87920200  0.45413000  1
  F  F35  1  0.79372200  0.20829600  0.20350100  1
  F  F36  1  0.20829600  0.79372200  0.20350100  1
  F  F37  1  0.20627800  0.79170400  0.79649900  1
  F  F38  1  0.79170400  0.20627800  0.79649900  1
  F  F39  1  0.98944500  0.22946800  0.38183300  1
  F  F40  1  0.22946800  0.98944500  0.38183300  1
  F  F41  1  0.01055500  0.77053200  0.61816700  1
  F  F42  1  0.77053200  0.01055500  0.61816700  1
  F  F43  1  0.25738800  0.25738800  0.23859400  1
  F  F44  1  0.74261200  0.74261200  0.76140600  1
  F  F45  1  0.11249000  0.11249000  0.69300600  1
  F  F46  1  0.88751000  0.88751000  0.30699400  1
