# generated using pymatgen
data_Al2PO8
_symmetry_space_group_name_H-M   'P 1'
_cell_length_a   7.77573500
_cell_length_b   7.98833100
_cell_length_c   10.03074100
_cell_angle_alpha   90.00000000
_cell_angle_beta   90.00000000
_cell_angle_gamma   90.00000000
_symmetry_Int_Tables_number   1
_chemical_formula_structural   Al2PO8
_chemical_formula_sum   'Al8 P4 O32'
_cell_volume   623.06093115
_cell_formula_units_Z   4
loop_
 _symmetry_equiv_pos_site_id
 _symmetry_equiv_pos_as_xyz
  1  'x, y, z'
loop_
 _atom_site_type_symbol
 _atom_site_label
 _atom_site_symmetry_multiplicity
 _atom_site_fract_x
 _atom_site_fract_y
 _atom_site_fract_z
 _atom_site_occupancy
  Al  Al0  1  0.96647000  0.50471600  0.70179900  1
  Al  Al1  1  0.03353000  0.00471600  0.29820100  1
  Al  Al2  1  0.46647000  0.00471600  0.79820100  1
  Al  Al3  1  0.53353000  0.50471600  0.20179900  1
  Al  Al4  1  0.84729400  0.87675600  0.85408600  1
  Al  Al5  1  0.15270600  0.37675600  0.14591400  1
  Al  Al6  1  0.34729400  0.37675600  0.64591400  1
  Al  Al7  1  0.65270600  0.87675600  0.35408600  1
  P  P8  1  0.81337000  0.52187900  0.98312400  1
  P  P9  1  0.18663000  0.02187900  0.01687600  1
  P  P10  1  0.31337000  0.02187900  0.51687600  1
  P  P11  1  0.68663000  0.52187900  0.48312400  1
  O  O12  1  0.79131100  0.71446700  0.97769000  1
  O  O13  1  0.20868900  0.21446700  0.02231000  1
  O  O14  1  0.29131100  0.21446700  0.52231000  1
  O  O15  1  0.70868900  0.71446700  0.47769000  1
  O  O16  1  0.66127500  0.44835900  0.06121000  1
  O  O17  1  0.33872500  0.94835900  0.93879000  1
  O  O18  1  0.16127500  0.94835900  0.43879000  1
  O  O19  1  0.83872500  0.44835900  0.56121000  1
  O  O20  1  0.81853500  0.44745600  0.84013800  1
  O  O21  1  0.18146500  0.94745600  0.15986200  1
  O  O22  1  0.31853500  0.94745600  0.65986200  1
  O  O23  1  0.68146500  0.44745600  0.34013800  1
  O  O24  1  0.98465700  0.47970600  0.05070500  1
  O  O25  1  0.01534300  0.97970600  0.94929500  1
  O  O26  1  0.48465700  0.97970600  0.44929500  1
  O  O27  1  0.51534300  0.47970600  0.55070500  1
  O  O28  1  0.96401900  0.71651000  0.76039300  1
  O  O29  1  0.03598100  0.21651000  0.23960700  1
  O  O30  1  0.46401900  0.21651000  0.73960700  1
  O  O31  1  0.53598100  0.71651000  0.26039300  1
  O  O32  1  0.67285800  0.04024000  0.90127400  1
  O  O33  1  0.32714200  0.54024000  0.09872600  1
  O  O34  1  0.17285800  0.54024000  0.59872600  1
  O  O35  1  0.82714200  0.04024000  0.40127400  1
  O  O36  1  0.63724400  0.85629800  0.75531100  1
  O  O37  1  0.36275600  0.35629800  0.24468900  1
  O  O38  1  0.13724400  0.35629800  0.74468900  1
  O  O39  1  0.86275600  0.85629800  0.25531100  1
  O  O40  1  0.86589600  0.02801300  0.70779000  1
  O  O41  1  0.13410400  0.52801300  0.29221000  1
  O  O42  1  0.36589600  0.52801300  0.79221000  1
  O  O43  1  0.63410400  0.02801300  0.20779000  1
