# generated using pymatgen
data_Sr3WO6
_symmetry_space_group_name_H-M   'P 1'
_cell_length_a   10.24290700
_cell_length_b   10.27158741
_cell_length_c   10.31398819
_cell_angle_alpha   80.60082959
_cell_angle_beta   71.31001435
_cell_angle_gamma   60.53559329
_symmetry_Int_Tables_number   1
_chemical_formula_structural   Sr3WO6
_chemical_formula_sum   'Sr18 W6 O36'
_cell_volume   894.94941269
_cell_formula_units_Z   6
loop_
 _symmetry_equiv_pos_site_id
 _symmetry_equiv_pos_as_xyz
  1  'x, y, z'
loop_
 _atom_site_type_symbol
 _atom_site_label
 _atom_site_symmetry_multiplicity
 _atom_site_fract_x
 _atom_site_fract_y
 _atom_site_fract_z
 _atom_site_occupancy
  Sr  Sr0  1  0.47283400  0.64481600  0.76510200  1
  Sr  Sr1  1  0.59455400  0.37350500  0.25920900  1
  Sr  Sr2  1  0.05497900  0.35454100  0.71888000  1
  Sr  Sr3  1  0.88877500  0.65992700  0.21688400  1
  Sr  Sr4  1  0.74669200  0.94973800  0.77850900  1
  Sr  Sr5  1  0.17249500  0.05191700  0.30352900  1
  Sr  Sr6  1  0.06827900  0.65983400  0.86863000  1
  Sr  Sr7  1  0.97053900  0.31796600  0.08493400  1
  Sr  Sr8  1  0.70221500  0.30172900  0.88137400  1
  Sr  Sr9  1  0.26491700  0.69325600  0.13492800  1
  Sr  Sr10  1  0.19778000  0.36335500  0.35363900  1
  Sr  Sr11  1  0.78750100  0.68635600  0.57391600  1
  Sr  Sr12  1  0.34117900  0.01827700  0.90860600  1
  Sr  Sr13  1  0.58173900  0.02586100  0.15527500  1
  Sr  Sr14  1  0.45899200  0.31967300  0.63775700  1
  Sr  Sr15  1  0.50443600  0.71188700  0.37969400  1
  Sr  Sr16  1  0.15372900  0.97291800  0.65446200  1
  Sr  Sr17  1  0.85748600  0.98525400  0.36697300  1
  W  W18  1  0.00282100  0.99781800  0.99736500  1
  W  W19  1  0.65971700  0.67375800  0.00843300  1
  W  W20  1  0.32940200  0.33504200  0.00278600  1
  W  W21  1  0.15830900  0.66796300  0.50847000  1
  W  W22  1  0.82264200  0.33520300  0.51285700  1
  W  W23  1  0.49894400  0.01042100  0.50139100  1
  O  O24  1  0.93485900  0.96638200  0.85678500  1
  O  O25  1  0.11400500  0.01641200  0.10955400  1
  O  O26  1  0.37733400  0.03064300  0.38240000  1
  O  O27  1  0.66029300  0.97261700  0.58362900  1
  O  O28  1  0.80167300  0.16292100  0.08821200  1
  O  O29  1  0.21740500  0.83874200  0.89922700  1
  O  O30  1  0.53951700  0.17103600  0.39774900  1
  O  O31  1  0.47614000  0.83321100  0.58830900  1
  O  O32  1  0.33323600  0.12879400  0.64875000  1
  O  O33  1  0.68191300  0.85940800  0.36011600  1
  O  O34  1  0.04425200  0.15319500  0.87540900  1
  O  O35  1  0.96344700  0.85838700  0.12574100  1
  O  O36  1  0.75815300  0.20115100  0.63948100  1
  O  O37  1  0.10052900  0.87997800  0.46398500  1
  O  O38  1  0.50696100  0.13961200  0.92811100  1
  O  O39  1  0.46662100  0.82904900  0.12819000  1
  O  O40  1  0.22707900  0.23178200  0.14075400  1
  O  O41  1  0.60364300  0.78048900  0.84280400  1
  O  O42  1  0.87606500  0.22716900  0.34694200  1
  O  O43  1  0.26121200  0.67701700  0.63423600  1
  O  O44  1  0.21085300  0.33863800  0.88545400  1
  O  O45  1  0.76681700  0.78991800  0.01079400  1
  O  O46  1  0.77046300  0.45263800  0.67716000  1
  O  O47  1  0.04016600  0.67529900  0.38620200  1
  O  O48  1  0.61008000  0.45721600  0.49743800  1
  O  O49  1  0.34506300  0.60566700  0.34946100  1
  O  O50  1  0.89225900  0.47893900  0.40402900  1
  O  O51  1  0.22062900  0.45485900  0.54773800  1
  O  O52  1  0.16188300  0.52836200  0.08089800  1
  O  O53  1  0.86417000  0.51948600  0.91403200  1
  O  O54  1  0.42504000  0.43271000  0.85644800  1
  O  O55  1  0.71264100  0.56072700  0.17948600  1
  O  O56  1  0.97049700  0.71234900  0.66305300  1
  O  O57  1  0.55491800  0.55849600  0.00368400  1
  O  O58  1  0.43853100  0.32464400  0.13145300  1
  O  O59  1  0.04239500  0.21764200  0.52338000  1
