# generated using pymatgen
data_Si2H5CNCl4
_symmetry_space_group_name_H-M   'P 1'
_cell_length_a   12.31337400
_cell_length_b   7.83958700
_cell_length_c   10.64201942
_cell_angle_alpha   87.88445720
_cell_angle_beta   90.00000000
_cell_angle_gamma   90.00000000
_symmetry_Int_Tables_number   1
_chemical_formula_structural   Si2H5CNCl4
_chemical_formula_sum   'Si8 H20 C4 N4 Cl16'
_cell_volume   1026.59275081
_cell_formula_units_Z   4
loop_
 _symmetry_equiv_pos_site_id
 _symmetry_equiv_pos_as_xyz
  1  'x, y, z'
loop_
 _atom_site_type_symbol
 _atom_site_label
 _atom_site_symmetry_multiplicity
 _atom_site_fract_x
 _atom_site_fract_y
 _atom_site_fract_z
 _atom_site_occupancy
  Si  Si0  1  0.69512100  0.44000500  0.20295600  1
  Si  Si1  1  0.19512100  0.55999500  0.29704400  1
  Si  Si2  1  0.30487900  0.55999500  0.79704400  1
  Si  Si3  1  0.80487900  0.44000500  0.70295600  1
  Si  Si4  1  0.54676500  0.16212700  0.30567200  1
  Si  Si5  1  0.04676500  0.83787300  0.19432800  1
  Si  Si6  1  0.45323500  0.83787300  0.69432800  1
  Si  Si7  1  0.95323500  0.16212700  0.80567200  1
  H  H8  1  0.72622800  0.15310200  0.04142400  1
  H  H9  1  0.22622800  0.84689800  0.45857600  1
  H  H10  1  0.27377200  0.84689800  0.95857600  1
  H  H11  1  0.77377200  0.15310200  0.54142400  1
  H  H12  1  0.59191800  0.21854200  0.99235100  1
  H  H13  1  0.09191800  0.78145800  0.50764900  1
  H  H14  1  0.40808200  0.78145800  0.00764900  1
  H  H15  1  0.90808200  0.21854200  0.49235100  1
  H  H16  1  0.61268400  0.02439000  0.08257100  1
  H  H17  1  0.11268400  0.97561000  0.41742900  1
  H  H18  1  0.38731600  0.97561000  0.91742900  1
  H  H19  1  0.88731600  0.02439000  0.58257100  1
  H  H20  1  0.67196000  0.51327000  0.32615500  1
  H  H21  1  0.17196000  0.48673000  0.17384500  1
  H  H22  1  0.32804000  0.48673000  0.67384500  1
  H  H23  1  0.82804000  0.51327000  0.82615500  1
  H  H24  1  0.53880000  0.27907400  0.41091500  1
  H  H25  1  0.03880000  0.72092600  0.08908500  1
  H  H26  1  0.46120000  0.72092600  0.58908500  1
  H  H27  1  0.96120000  0.27907400  0.91091500  1
  C  C28  1  0.64001800  0.15724700  0.06897700  1
  C  C29  1  0.14001800  0.84275300  0.43102300  1
  C  C30  1  0.35998200  0.84275300  0.93102300  1
  C  C31  1  0.85998200  0.15724700  0.56897700  1
  N  N32  1  0.62696500  0.24977200  0.18748600  1
  N  N33  1  0.12696500  0.75022800  0.31251400  1
  N  N34  1  0.37303500  0.75022800  0.81251400  1
  N  N35  1  0.87303500  0.24977200  0.68748600  1
  Cl  Cl36  1  0.86042200  0.40175800  0.18535600  1
  Cl  Cl37  1  0.36042200  0.59824200  0.31464400  1
  Cl  Cl38  1  0.13957800  0.59824200  0.81464400  1
  Cl  Cl39  1  0.63957800  0.40175800  0.68535600  1
  Cl  Cl40  1  0.65305000  0.61240600  0.06017800  1
  Cl  Cl41  1  0.15305000  0.38759400  0.43982200  1
  Cl  Cl42  1  0.34695000  0.38759400  0.93982200  1
  Cl  Cl43  1  0.84695000  0.61240600  0.56017800  1
  Cl  Cl44  1  0.61098000  0.93251200  0.37202700  1
  Cl  Cl45  1  0.11098000  0.06748800  0.12797300  1
  Cl  Cl46  1  0.38902000  0.06748800  0.62797300  1
  Cl  Cl47  1  0.88902000  0.93251200  0.87202700  1
  Cl  Cl48  1  0.39483900  0.10510900  0.23874800  1
  Cl  Cl49  1  0.89483900  0.89489100  0.26125200  1
  Cl  Cl50  1  0.60516100  0.89489100  0.76125200  1
  Cl  Cl51  1  0.10516100  0.10510900  0.73874800  1
