# generated using pymatgen
data_Ba2ZrC8O19
_symmetry_space_group_name_H-M   'P 1'
_cell_length_a   15.84813007
_cell_length_b   15.84813007
_cell_length_c   8.86626021
_cell_angle_alpha   81.11769408
_cell_angle_beta   81.11769408
_cell_angle_gamma   144.39386354
_symmetry_Int_Tables_number   1
_chemical_formula_structural   Ba2ZrC8O19
_chemical_formula_sum   'Ba4 Zr2 C16 O38'
_cell_volume   1119.03533759
_cell_formula_units_Z   2
loop_
 _symmetry_equiv_pos_site_id
 _symmetry_equiv_pos_as_xyz
  1  'x, y, z'
loop_
 _atom_site_type_symbol
 _atom_site_label
 _atom_site_symmetry_multiplicity
 _atom_site_fract_x
 _atom_site_fract_y
 _atom_site_fract_z
 _atom_site_occupancy
  Ba  Ba0  1  0.77848700  0.22151300  0.25000000  1
  Ba  Ba1  1  0.22151300  0.77848700  0.75000000  1
  Ba  Ba2  1  0.51115300  0.48884700  0.25000000  1
  Ba  Ba3  1  0.48884700  0.51115300  0.75000000  1
  Zr  Zr4  1  0.86409500  0.13590500  0.75000000  1
  Zr  Zr5  1  0.13590500  0.86409500  0.25000000  1
  C  C6  1  0.09687200  0.49179500  0.62670400  1
  C  C7  1  0.50820600  0.90312800  0.87329600  1
  C  C8  1  0.90312800  0.50820500  0.37329600  1
  C  C9  1  0.49179400  0.09687200  0.12670400  1
  C  C10  1  0.02093500  0.40772700  0.82830300  1
  C  C11  1  0.59227300  0.97906500  0.67169700  1
  C  C12  1  0.97906500  0.59227300  0.17169700  1
  C  C13  1  0.40772700  0.02093500  0.32830300  1
  C  C14  1  0.13944500  0.28329500  0.44590900  1
  C  C15  1  0.71670500  0.86055500  0.05409100  1
  C  C16  1  0.86055500  0.71670500  0.55409100  1
  C  C17  1  0.28329500  0.13944500  0.94590900  1
  C  C18  1  0.19685100  0.32519300  0.58509200  1
  C  C19  1  0.67480700  0.80314900  0.91490800  1
  C  C20  1  0.80314900  0.67480700  0.41490800  1
  C  C21  1  0.32519300  0.19685100  0.08509200  1
  O  O22  1  0.19435800  0.63588100  0.54571600  1
  O  O23  1  0.36411900  0.80564200  0.95428400  1
  O  O24  1  0.80564200  0.36411900  0.45428400  1
  O  O25  1  0.63588100  0.19435800  0.04571600  1
  O  O26  1  0.06631500  0.48732900  0.90724100  1
  O  O27  1  0.51267100  0.93368500  0.59275900  1
  O  O28  1  0.93368500  0.51267100  0.09275900  1
  O  O29  1  0.48732900  0.06631500  0.40724100  1
  O  O30  1  0.90728600  0.25240100  0.90498600  1
  O  O31  1  0.74759900  0.09271400  0.59501400  1
  O  O32  1  0.09271400  0.74759900  0.09501400  1
  O  O33  1  0.25240100  0.90728600  0.40498600  1
  O  O34  1  0.04236500  0.39281700  0.56758000  1
  O  O35  1  0.60718300  0.95763500  0.93242000  1
  O  O36  1  0.95763500  0.60718300  0.43242000  1
  O  O37  1  0.39281700  0.04236500  0.06758000  1
  O  O38  1  0.00063500  0.20273400  0.49147700  1
  O  O39  1  0.79726600  0.99936500  0.00852300  1
  O  O40  1  0.99936500  0.79726600  0.50852300  1
  O  O41  1  0.20273400  0.00063500  0.99147700  1
  O  O42  1  0.09960800  0.27379700  0.72443200  1
  O  O43  1  0.72620300  0.90039200  0.77556800  1
  O  O44  1  0.90039200  0.72620300  0.27556800  1
  O  O45  1  0.27379700  0.09960800  0.22443200  1
  O  O46  1  0.33296600  0.40572300  0.55381400  1
  O  O47  1  0.59427700  0.66703400  0.94618600  1
  O  O48  1  0.66703400  0.59427700  0.44618600  1
  O  O49  1  0.40572300  0.33296600  0.05381400  1
  O  O50  1  0.22864200  0.32887100  0.30731300  1
  O  O51  1  0.67112900  0.77135800  0.19268700  1
  O  O52  1  0.77135800  0.67112900  0.69268700  1
  O  O53  1  0.32887100  0.22864200  0.80731300  1
  O  O54  1  0.10901600  0.47295400  0.24804700  1
  O  O55  1  0.52704600  0.89098400  0.25195300  1
  O  O56  1  0.89098400  0.52704600  0.75195300  1
  O  O57  1  0.47295400  0.10901600  0.74804700  1
  O  O58  1  0.87871300  0.12128700  0.25000000  1
  O  O59  1  0.12128700  0.87871300  0.75000000  1
