# generated using pymatgen
data_H23RuS2N5ClO12
_symmetry_space_group_name_H-M   'P 1'
_cell_length_a   6.47009314
_cell_length_b   9.83319696
_cell_length_c   14.09388065
_cell_angle_alpha   80.63391646
_cell_angle_beta   79.50708498
_cell_angle_gamma   80.65576309
_symmetry_Int_Tables_number   1
_chemical_formula_structural   H23RuS2N5ClO12
_chemical_formula_sum   'H46 Ru2 S4 N10 Cl2 O24'
_cell_volume   861.74834273
_cell_formula_units_Z   2
loop_
 _symmetry_equiv_pos_site_id
 _symmetry_equiv_pos_as_xyz
  1  'x, y, z'
loop_
 _atom_site_type_symbol
 _atom_site_label
 _atom_site_symmetry_multiplicity
 _atom_site_fract_x
 _atom_site_fract_y
 _atom_site_fract_z
 _atom_site_occupancy
  H  H0  1  0.84565300  0.77059300  0.21785700  1
  H  H1  1  0.15434700  0.22940700  0.78214300  1
  H  H2  1  0.67256200  0.71083300  0.31063400  1
  H  H3  1  0.32743800  0.28916700  0.68936600  1
  H  H4  1  0.62831800  0.71481200  0.19721600  1
  H  H5  1  0.37168200  0.28518800  0.80278400  1
  H  H6  1  0.06437000  0.60082600  0.36881900  1
  H  H7  1  0.93563000  0.39917400  0.63118100  1
  H  H8  1  0.23912900  0.46702100  0.33199600  1
  H  H9  1  0.76087100  0.53297900  0.66800400  1
  H  H10  1  0.22402100  0.62403200  0.26115400  1
  H  H11  1  0.77597900  0.37596800  0.73884600  1
  H  H12  1  0.86128200  0.38072500  0.42599100  1
  H  H13  1  0.13871800  0.61927500  0.57400900  1
  H  H14  1  0.68262000  0.52135300  0.41130400  1
  H  H15  1  0.31738000  0.47864700  0.58869600  1
  H  H16  1  0.64184400  0.37121600  0.38166500  1
  H  H17  1  0.35815600  0.62878400  0.61833500  1
  H  H18  1  0.20100100  0.62719800  0.10541100  1
  H  H19  1  0.79899900  0.37280200  0.89458900  1
  H  H20  1  0.17471500  0.47853900  0.06732600  1
  H  H21  1  0.82528500  0.52146100  0.93267400  1
  H  H22  1  0.98924600  0.61845500  0.05576300  1
  H  H23  1  0.01075400  0.38154500  0.94423700  1
  H  H24  1  0.98128900  0.21859000  0.26502200  1
  H  H25  1  0.01871100  0.78141000  0.73497800  1
  H  H26  1  0.19913500  0.27105600  0.28706200  1
  H  H27  1  0.80086500  0.72894400  0.71293800  1
  H  H28  1  0.16824100  0.27080500  0.17179600  1
  H  H29  1  0.83175900  0.72919500  0.82820400  1
  H  H30  1  0.62892500  0.15775700  0.58108900  1
  H  H31  1  0.37107500  0.84224300  0.41891100  1
  H  H32  1  0.79247300  0.82492100  0.96606800  1
  H  H33  1  0.20752700  0.17507900  0.03393200  1
  H  H34  1  0.68450500  0.18450300  0.13290100  1
  H  H35  1  0.31549500  0.81549700  0.86709900  1
  H  H36  1  0.74847800  0.01255600  0.55708900  1
  H  H37  1  0.25152200  0.98744400  0.44291100  1
  H  H38  1  0.79210200  0.03443000  0.35279200  1
  H  H39  1  0.20789800  0.96557000  0.64720800  1
  H  H40  1  0.72448100  0.08780500  0.04981000  1
  H  H41  1  0.27551900  0.91219500  0.95019000  1
  H  H42  1  0.62518300  0.73793300  0.02969800  1
  H  H43  1  0.37481700  0.26206700  0.97030200  1
  H  H44  1  0.61517800  0.16298500  0.34701100  1
  H  H45  1  0.38482200  0.83701500  0.65298900  1
  Ru  Ru46  1  0.91238300  0.49191200  0.23784700  1
  Ru  Ru47  1  0.08761700  0.50808800  0.76215300  1
  S  S48  1  0.72913400  0.74223900  0.50391400  1
  S  S49  1  0.27086600  0.25776100  0.49608600  1
  S  S50  1  0.73689000  0.10726600  0.84536400  1
  S  S51  1  0.26311000  0.89273400  0.15463600  1
  N  N52  1  0.74519900  0.69538000  0.24075700  1
  N  N53  1  0.25480100  0.30462000  0.75924300  1
  N  N54  1  0.13758000  0.55367200  0.30741600  1
  N  N55  1  0.86242000  0.44632800  0.69258400  1
  N  N56  1  0.75676000  0.43369100  0.38054700  1
  N  N57  1  0.24324000  0.56630900  0.61945300  1
  N  N58  1  0.09319600  0.56203100  0.10022100  1
  N  N59  1  0.90680400  0.43796900  0.89977900  1
  N  N60  1  0.09012900  0.28977600  0.23959300  1
  N  N61  1  0.90987100  0.71022400  0.76040700  1
  Cl  Cl62  1  0.66545200  0.42911200  0.16509400  1
  Cl  Cl63  1  0.33454800  0.57088800  0.83490600  1
  O  O64  1  0.58420900  0.69838600  0.44549200  1
  O  O65  1  0.41579100  0.30161400  0.55450800  1
  O  O66  1  0.63761800  0.70902400  0.61103200  1
  O  O67  1  0.36238200  0.29097600  0.38896800  1
  O  O68  1  0.94067200  0.65806000  0.48598000  1
  O  O69  1  0.05932800  0.34194000  0.51402000  1
  O  O70  1  0.73782200  0.89209400  0.47902700  1
  O  O71  1  0.26217800  0.10790600  0.52097300  1
  O  O72  1  0.61323300  0.04201600  0.78863700  1
  O  O73  1  0.38676700  0.95798400  0.21136300  1
  O  O74  1  0.61649200  0.24617400  0.87099000  1
  O  O75  1  0.38350800  0.75382600  0.12901000  1
  O  O76  1  0.76105500  0.01275700  0.93699300  1
  O  O77  1  0.23894500  0.98724300  0.06300700  1
  O  O78  1  0.94009600  0.13189600  0.78416000  1
  O  O79  1  0.05990400  0.86810400  0.21584000  1
  O  O80  1  0.76397700  0.72720600  0.98657500  1
  O  O81  1  0.23602300  0.27279400  0.01342500  1
  O  O82  1  0.75237700  0.08873700  0.59507400  1
  O  O83  1  0.24762300  0.91126300  0.40492600  1
  O  O84  1  0.76641400  0.13272300  0.32638900  1
  O  O85  1  0.23358600  0.86727700  0.67361100  1
  O  O86  1  0.75105400  0.09396500  0.11543900  1
  O  O87  1  0.24894600  0.90603500  0.88456100  1
