# generated using pymatgen
data_Fe3P8O37
_symmetry_space_group_name_H-M   'P 1'
_cell_length_a   9.86694983
_cell_length_b   9.86694983
_cell_length_c   17.00082498
_cell_angle_alpha   88.92127549
_cell_angle_beta   88.92127549
_cell_angle_gamma   58.21092854
_symmetry_Int_Tables_number   1
_chemical_formula_structural   Fe3P8O37
_chemical_formula_sum   'Fe6 P16 O74'
_cell_volume   1406.53467170
_cell_formula_units_Z   2
loop_
 _symmetry_equiv_pos_site_id
 _symmetry_equiv_pos_as_xyz
  1  'x, y, z'
loop_
 _atom_site_type_symbol
 _atom_site_label
 _atom_site_symmetry_multiplicity
 _atom_site_fract_x
 _atom_site_fract_y
 _atom_site_fract_z
 _atom_site_occupancy
  Fe  Fe0  1  0.81299400  0.76291900  0.73847400  1
  Fe  Fe1  1  0.23708100  0.18700600  0.76152600  1
  Fe  Fe2  1  0.18700600  0.23708100  0.26152600  1
  Fe  Fe3  1  0.76291900  0.81299400  0.23847400  1
  Fe  Fe4  1  0.66158200  0.33841800  0.75000000  1
  Fe  Fe5  1  0.33841800  0.66158200  0.25000000  1
  P  P6  1  0.57572700  0.09690000  0.82019400  1
  P  P7  1  0.90310000  0.42427300  0.67980600  1
  P  P8  1  0.42427300  0.90310000  0.17980600  1
  P  P9  1  0.09690000  0.57572700  0.32019400  1
  P  P10  1  0.87027900  0.01066600  0.63932500  1
  P  P11  1  0.98933400  0.12972100  0.86067500  1
  P  P12  1  0.12972100  0.98933400  0.36067500  1
  P  P13  1  0.01066600  0.87027900  0.13932500  1
  P  P14  1  0.62037100  0.62532200  0.85541300  1
  P  P15  1  0.37467800  0.37962900  0.64458700  1
  P  P16  1  0.37962900  0.37467800  0.14458700  1
  P  P17  1  0.62532200  0.62037100  0.35541300  1
  P  P18  1  0.10260700  0.53041300  0.85669700  1
  P  P19  1  0.46958700  0.89739300  0.64330300  1
  P  P20  1  0.89739300  0.46958700  0.14330300  1
  P  P21  1  0.53041300  0.10260700  0.35669700  1
  O  O22  1  0.73415100  0.94867600  0.80695700  1
  O  O23  1  0.05132400  0.26584900  0.69304300  1
  O  O24  1  0.26584900  0.05132400  0.19304300  1
  O  O25  1  0.94867600  0.73415100  0.30695700  1
  O  O26  1  0.56320500  0.25466500  0.82468300  1
  O  O27  1  0.74533500  0.43679500  0.67531700  1
  O  O28  1  0.43679500  0.74533500  0.17531700  1
  O  O29  1  0.25466500  0.56320500  0.32468300  1
  O  O30  1  0.43039900  0.08674300  0.82856400  1
  O  O31  1  0.91325700  0.56960100  0.67143600  1
  O  O32  1  0.56960100  0.91325700  0.17143600  1
  O  O33  1  0.08674300  0.43039900  0.32856400  1
  O  O34  1  0.62379700  0.04630000  0.96188700  1
  O  O35  1  0.95370000  0.37620300  0.53811300  1
  O  O36  1  0.37620300  0.95370000  0.03811300  1
  O  O37  1  0.04630000  0.62379700  0.46188700  1
  O  O38  1  0.90817400  0.84603100  0.67000000  1
  O  O39  1  0.15396900  0.09182600  0.83000000  1
  O  O40  1  0.09182600  0.15396900  0.33000000  1
  O  O41  1  0.84603100  0.90817400  0.17000000  1
  O  O42  1  0.74354600  0.14730200  0.69054700  1
  O  O43  1  0.85269800  0.25645400  0.80945300  1
  O  O44  1  0.25645400  0.85269800  0.30945300  1
  O  O45  1  0.14730200  0.74354600  0.19054700  1
  O  O46  1  0.02708300  0.00745300  0.62859400  1
  O  O47  1  0.99254700  0.97291700  0.87140600  1
  O  O48  1  0.97291700  0.99254700  0.37140600  1
  O  O49  1  0.00745300  0.02708300  0.12859400  1
  O  O50  1  0.81597300  0.02891500  0.55144800  1
  O  O51  1  0.97108500  0.18402700  0.94855200  1
  O  O52  1  0.18402700  0.97108500  0.44855200  1
  O  O53  1  0.02891500  0.81597300  0.05144800  1
  O  O54  1  0.72968900  0.65850300  0.80426700  1
  O  O55  1  0.34149700  0.27031100  0.69573300  1
  O  O56  1  0.27031100  0.34149700  0.19573300  1
  O  O57  1  0.65850300  0.72968900  0.30426700  1
  O  O58  1  0.57039900  0.52429700  0.80973400  1
  O  O59  1  0.47570300  0.42960100  0.69026600  1
  O  O60  1  0.42960100  0.47570300  0.19026600  1
  O  O61  1  0.52429700  0.57039900  0.30973400  1
  O  O62  1  0.46970100  0.77232600  0.88745100  1
  O  O63  1  0.22767400  0.53029900  0.61254900  1
  O  O64  1  0.53029900  0.22767400  0.11254900  1
  O  O65  1  0.77232600  0.46970100  0.38745100  1
  O  O66  1  0.71120800  0.54508400  0.93389600  1
  O  O67  1  0.45491600  0.28879200  0.56610400  1
  O  O68  1  0.28879200  0.45491600  0.06610400  1
  O  O69  1  0.54508400  0.71120800  0.43389600  1
  O  O70  1  0.00593300  0.66954700  0.79793100  1
  O  O71  1  0.33045300  0.99406700  0.70206900  1
  O  O72  1  0.99406700  0.33045300  0.20206900  1
  O  O73  1  0.66954700  0.00593300  0.29793100  1
  O  O74  1  0.12419900  0.37583900  0.82483800  1
  O  O75  1  0.62416100  0.87580100  0.67516200  1
  O  O76  1  0.87580100  0.62416100  0.17516200  1
  O  O77  1  0.37583900  0.12419900  0.32483800  1
  O  O78  1  0.25816500  0.52084000  0.87857700  1
  O  O79  1  0.47916000  0.74183500  0.62142300  1
  O  O80  1  0.74183500  0.47916000  0.12142300  1
  O  O81  1  0.52084000  0.25816500  0.37857700  1
  O  O82  1  0.01562700  0.57759300  0.93781700  1
  O  O83  1  0.42240700  0.98437300  0.56218300  1
  O  O84  1  0.98437300  0.42240700  0.06218300  1
  O  O85  1  0.57759300  0.01562700  0.43781700  1
  O  O86  1  0.20462000  0.79538000  0.75000000  1
  O  O87  1  0.79538000  0.20462000  0.25000000  1
  O  O88  1  0.09441500  0.30367600  0.51730000  1
  O  O89  1  0.69632400  0.90558500  0.98270000  1
  O  O90  1  0.90558500  0.69632400  0.48270000  1
  O  O91  1  0.30367600  0.09441500  0.01730000  1
  O  O92  1  0.66253100  0.27227100  0.51716400  1
  O  O93  1  0.72772900  0.33746900  0.98283600  1
  O  O94  1  0.33746900  0.72772900  0.48283600  1
  O  O95  1  0.27227100  0.66253100  0.01716400  1
