# generated using pymatgen
data_UH42C14S7Cl4O7
_symmetry_space_group_name_H-M   'P 1'
_cell_length_a   10.09454080
_cell_length_b   16.11853540
_cell_length_c   22.89340774
_cell_angle_alpha   90.00000000
_cell_angle_beta   90.00000000
_cell_angle_gamma   92.06916452
_symmetry_Int_Tables_number   1
_chemical_formula_structural   UH42C14S7Cl4O7
_chemical_formula_sum   'U4 H168 C56 S28 Cl16 O28'
_cell_volume   3722.53957160
_cell_formula_units_Z   4
loop_
 _symmetry_equiv_pos_site_id
 _symmetry_equiv_pos_as_xyz
  1  'x, y, z'
loop_
 _atom_site_type_symbol
 _atom_site_label
 _atom_site_symmetry_multiplicity
 _atom_site_fract_x
 _atom_site_fract_y
 _atom_site_fract_z
 _atom_site_occupancy
  U  U0  1  0.75298143  0.80445612  0.40540289  1
  U  U1  1  0.25298143  0.30445612  0.09459711  1
  U  U2  1  0.24701857  0.19554388  0.59459711  1
  U  U3  1  0.74701857  0.69554388  0.90540289  1
  H  H4  1  0.52052750  0.07017978  0.43826138  1
  H  H5  1  0.02052750  0.57017978  0.06173862  1
  H  H6  1  0.47947250  0.92982022  0.56173862  1
  H  H7  1  0.97947250  0.42982022  0.93826138  1
  H  H8  1  0.51592252  0.12550586  0.37054075  1
  H  H9  1  0.01592252  0.62550586  0.12945925  1
  H  H10  1  0.48407748  0.87449414  0.62945925  1
  H  H11  1  0.98407748  0.37449414  0.87054075  1
  H  H12  1  0.66927419  0.12383065  0.41127701  1
  H  H13  1  0.16927419  0.62383065  0.08872299  1
  H  H14  1  0.33072581  0.87616935  0.58872299  1
  H  H15  1  0.83072581  0.37616935  0.91127701  1
  H  H16  1  0.73423895  0.00133400  0.26985407  1
  H  H17  1  0.23423895  0.50133400  0.23014593  1
  H  H18  1  0.26576105  0.99866600  0.73014593  1
  H  H19  1  0.76576105  0.49866600  0.76985407  1
  H  H20  1  0.78749116  0.08464598  0.31861881  1
  H  H21  1  0.28749116  0.58464598  0.18138119  1
  H  H22  1  0.21250884  0.91535402  0.68138119  1
  H  H23  1  0.71250884  0.41535402  0.81861881  1
  H  H24  1  0.63354621  0.08971760  0.27901111  1
  H  H25  1  0.13354621  0.58971760  0.22098889  1
  H  H26  1  0.36645379  0.91028240  0.72098889  1
  H  H27  1  0.86645379  0.41028240  0.77901111  1
  H  H28  1  0.03267235  0.84817228  0.58830220  1
  H  H29  1  0.53267235  0.34817228  0.91169780  1
  H  H30  1  0.96732765  0.15182772  0.41169780  1
  H  H31  1  0.46732765  0.65182772  0.08830220  1
  H  H32  1  0.96270363  0.93065744  0.62944350  1
  H  H33  1  0.46270363  0.43065744  0.87055650  1
  H  H34  1  0.03729637  0.06934256  0.37055650  1
  H  H35  1  0.53729637  0.56934256  0.12944350  1
  H  H36  1  0.05189535  0.95485335  0.56258590  1
  H  H37  1  0.55189535  0.45485335  0.93741410  1
  H  H38  1  0.94810465  0.04514665  0.43741410  1
  H  H39  1  0.44810465  0.54514665  0.06258590  1
  H  H40  1  0.69078574  0.00668059  0.52994515  1
  H  H41  1  0.19078574  0.50668059  0.97005485  1
  H  H42  1  0.30921426  0.99331941  0.47005485  1
  H  H43  1  0.80921426  0.49331941  0.02994515  1
  H  H44  1  0.86327658  0.04063969  0.53099948  1
  H  H45  1  0.36327658  0.54063969  0.96900052  1
  H  H46  1  0.13672342  0.95936031  0.46900052  1
  H  H47  1  0.63672342  0.45936031  0.03099948  1
  H  H48  1  0.77571584  0.01737437  0.59869393  1
  H  H49  1  0.27571584  0.51737437  0.90130607  1
  H  H50  1  0.22428416  0.98262563  0.40130607  1
  H  H51  1  0.72428416  0.48262563  0.09869393  1
  H  H52  1  0.44442163  0.62247639  0.46490594  1
  H  H53  1  0.94442163  0.12247639  0.03509406  1
  H  H54  1  0.55557837  0.37752361  0.53509406  1
  H  H55  1  0.05557837  0.87752361  0.96490594  1
  H  H56  1  0.41471214  0.60143097  0.54079070  1
  H  H57  1  0.91471214  0.10143097  0.95920930  1
  H  H58  1  0.58528786  0.39856903  0.45920930  1
  H  H59  1  0.08528786  0.89856903  0.04079070  1
  H  H60  1  0.57187829  0.57535257  0.50929010  1
  H  H61  1  0.07187829  0.07535257  0.99070990  1
  H  H62  1  0.42812171  0.42464743  0.49070990  1
  H  H63  1  0.92812171  0.92464743  0.00929010  1
  H  H64  1  0.65636528  0.74843934  0.62026601  1
  H  H65  1  0.15636528  0.24843934  0.87973399  1
  H  H66  1  0.34363472  0.25156066  0.37973399  1
  H  H67  1  0.84363472  0.75156066  0.12026601  1
  H  H68  1  0.68663668  0.64258450  0.59571710  1
  H  H69  1  0.18663668  0.14258450  0.90428290  1
  H  H70  1  0.31336332  0.35741550  0.40428290  1
  H  H71  1  0.81336332  0.85741550  0.09571710  1
  H  H72  1  0.52618957  0.66953416  0.62402675  1
  H  H73  1  0.02618957  0.16953416  0.87597325  1
  H  H74  1  0.47381043  0.33046584  0.37597325  1
  H  H75  1  0.97381043  0.83046584  0.12402675  1
  H  H76  1  0.50824267  0.53692169  0.35763104  1
  H  H77  1  0.00824267  0.03692169  0.14236896  1
  H  H78  1  0.49175733  0.46307831  0.64236896  1
  H  H79  1  0.99175733  0.96307831  0.85763104  1
  H  H80  1  0.63098644  0.45951943  0.34535288  1
  H  H81  1  0.13098644  0.95951943  0.15464712  1
  H  H82  1  0.36901356  0.54048057  0.65464712  1
  H  H83  1  0.86901356  0.04048057  0.84535288  1
  H  H84  1  0.61945748  0.54479762  0.29451232  1
  H  H85  1  0.11945748  0.04479762  0.20548768  1
  H  H86  1  0.38054252  0.45520238  0.70548768  1
  H  H87  1  0.88054252  0.95520238  0.79451232  1
  H  H88  1  0.96211519  0.57465615  0.36578168  1
  H  H89  1  0.46211519  0.07465615  0.13421832  1
  H  H90  1  0.03788481  0.42534385  0.63421832  1
  H  H91  1  0.53788481  0.92534385  0.86578168  1
  H  H92  1  0.86379400  0.56524600  0.29861812  1
  H  H93  1  0.36379400  0.06524600  0.20138188  1
  H  H94  1  0.13620600  0.43475400  0.70138188  1
  H  H95  1  0.63620600  0.93475400  0.79861812  1
  H  H96  1  0.87125248  0.47937287  0.34943284  1
  H  H97  1  0.37125248  0.97937287  0.15056716  1
  H  H98  1  0.12874752  0.52062713  0.65056716  1
  H  H99  1  0.62874752  0.02062713  0.84943284  1
  H  H100  1  0.44097098  0.70459931  0.31001093  1
  H  H101  1  0.94097098  0.20459931  0.18998907  1
  H  H102  1  0.55902902  0.29540069  0.68998907  1
  H  H103  1  0.05902902  0.79540069  0.81001093  1
  H  H104  1  0.56148207  0.67723002  0.25447973  1
  H  H105  1  0.06148207  0.17723002  0.24552027  1
  H  H106  1  0.43851793  0.32276998  0.74552027  1
  H  H107  1  0.93851793  0.82276998  0.75447973  1
  H  H108  1  0.40524411  0.72079520  0.23349257  1
  H  H109  1  0.90524411  0.22079520  0.26650743  1
  H  H110  1  0.59475589  0.27920480  0.76650743  1
  H  H111  1  0.09475589  0.77920480  0.73349257  1
  H  H112  1  0.65219034  0.89059005  0.18674448  1
  H  H113  1  0.15219034  0.39059005  0.31325552  1
  H  H114  1  0.34780966  0.10940995  0.81325552  1
  H  H115  1  0.84780966  0.60940995  0.68674448  1
  H  H116  1  0.51702144  0.81888848  0.16913557  1
  H  H117  1  0.01702144  0.31888848  0.33086443  1
  H  H118  1  0.48297856  0.18111152  0.83086443  1
  H  H119  1  0.98297856  0.68111152  0.66913557  1
  H  H120  1  0.67726678  0.77890837  0.18812053  1
  H  H121  1  0.17726678  0.27890837  0.31187947  1
  H  H122  1  0.32273322  0.22109163  0.81187947  1
  H  H123  1  0.82273322  0.72109163  0.68812053  1
  H  H124  1  0.17867577  0.80490179  0.46274480  1
  H  H125  1  0.67867577  0.30490179  0.03725520  1
  H  H126  1  0.82132423  0.19509821  0.53725520  1
  H  H127  1  0.32132423  0.69509821  0.96274480  1
  H  H128  1  0.20092485  0.69856568  0.43935038  1
  H  H129  1  0.70092485  0.19856568  0.06064962  1
  H  H130  1  0.79907515  0.30143432  0.56064962  1
  H  H131  1  0.29907515  0.80143432  0.93935038  1
  H  H132  1  0.23396027  0.72955431  0.51457413  1
  H  H133  1  0.73396027  0.22955431  0.98542587  1
  H  H134  1  0.76603973  0.27044569  0.48542587  1
  H  H135  1  0.26603973  0.77044569  0.01457413  1
  H  H136  1  0.92953814  0.58056750  0.52661716  1
  H  H137  1  0.42953814  0.08056750  0.97338284  1
  H  H138  1  0.07046186  0.41943250  0.47338284  1
  H  H139  1  0.57046186  0.91943250  0.02661716  1
  H  H140  1  0.09645137  0.60759689  0.54864704  1
  H  H141  1  0.59645137  0.10759689  0.95135296  1
  H  H142  1  0.90354863  0.39240311  0.45135296  1
  H  H143  1  0.40354863  0.89240311  0.04864704  1
  H  H144  1  0.06586146  0.57670029  0.47345827  1
  H  H145  1  0.56586146  0.07670029  0.02654173  1
  H  H146  1  0.93413854  0.42329971  0.52654173  1
  H  H147  1  0.43413854  0.92329971  0.97345827  1
  H  H148  1  0.18553745  0.94218639  0.30638304  1
  H  H149  1  0.68553745  0.44218639  0.19361696  1
  H  H150  1  0.81446255  0.05781361  0.69361696  1
  H  H151  1  0.31446255  0.55781361  0.80638304  1
  H  H152  1  0.21663523  0.86226835  0.25404733  1
  H  H153  1  0.71663523  0.36226835  0.24595267  1
  H  H154  1  0.78336477  0.13773165  0.74595267  1
  H  H155  1  0.28336477  0.63773165  0.75404733  1
  H  H156  1  0.21959952  0.83756657  0.33119067  1
  H  H157  1  0.71959952  0.33756657  0.16880933  1
  H  H158  1  0.78040048  0.16243343  0.66880933  1
  H  H159  1  0.28040048  0.66243343  0.83119067  1
  H  H160  1  0.92167639  0.71236004  0.26221390  1
  H  H161  1  0.42167639  0.21236004  0.23778610  1
  H  H162  1  0.07832361  0.28763996  0.73778610  1
  H  H163  1  0.57832361  0.78763996  0.76221390  1
  H  H164  1  0.07227718  0.70958268  0.30579516  1
  H  H165  1  0.57227718  0.20958268  0.19420484  1
  H  H166  1  0.92772282  0.29041732  0.69420484  1
  H  H167  1  0.42772282  0.79041732  0.80579516  1
  H  H168  1  0.07938006  0.74128597  0.22952167  1
  H  H169  1  0.57938006  0.24128597  0.27047833  1
  H  H170  1  0.92061994  0.25871403  0.77047833  1
  H  H171  1  0.42061994  0.75871403  0.72952167  1
  C  C172  1  0.57786134  0.08885083  0.39957524  1
  C  C173  1  0.07786134  0.58885083  0.10042476  1
  C  C174  1  0.42213866  0.91114917  0.60042476  1
  C  C175  1  0.92213866  0.41114917  0.89957524  1
  C  C176  1  0.70275945  0.04867253  0.30059246  1
  C  C177  1  0.20275945  0.54867253  0.19940754  1
  C  C178  1  0.29724055  0.95132747  0.69940754  1
  C  C179  1  0.79724055  0.45132747  0.80059246  1
  C  C180  1  0.98794887  0.90892153  0.58549946  1
  C  C181  1  0.48794887  0.40892153  0.91450054  1
  C  C182  1  0.01205113  0.09107847  0.41450054  1
  C  C183  1  0.51205113  0.59107847  0.08549946  1
  C  C184  1  0.78586541  0.00194559  0.55229840  1
  C  C185  1  0.28586541  0.50194559  0.94770160  1
  C  C186  1  0.21413459  0.99805441  0.44770160  1
  C  C187  1  0.71413459  0.49805441  0.05229840  1
  C  C188  1  0.49056194  0.61876240  0.50814469  1
  C  C189  1  0.99056194  0.11876240  0.99185531  1
  C  C190  1  0.50943806  0.38123760  0.49185531  1
  C  C191  1  0.00943806  0.88123760  0.00814469  1
  C  C192  1  0.61449656  0.69180393  0.59976065  1
  C  C193  1  0.11449656  0.19180393  0.90023935  1
  C  C194  1  0.38550344  0.30819607  0.40023935  1
  C  C195  1  0.88550344  0.80819607  0.09976065  1
  C  C196  1  0.60770650  0.52546822  0.34036884  1
  C  C197  1  0.10770650  0.02546822  0.15963116  1
  C  C198  1  0.39229350  0.47453178  0.65963116  1
  C  C199  1  0.89229350  0.97453178  0.84036884  1
  C  C200  1  0.87317455  0.54740252  0.34487482  1
  C  C201  1  0.37317455  0.04740252  0.15512518  1
  C  C202  1  0.12682545  0.45259748  0.65512518  1
  C  C203  1  0.62682545  0.95259748  0.84487482  1
  C  C204  1  0.48327223  0.71939242  0.26706775  1
  C  C205  1  0.98327223  0.21939242  0.23293225  1
  C  C206  1  0.51672777  0.28060758  0.73293225  1
  C  C207  1  0.01672777  0.78060758  0.76706775  1
  C  C208  1  0.60759785  0.82867139  0.19551839  1
  C  C209  1  0.10759785  0.32867139  0.30448161  1
  C  C210  1  0.39240215  0.17132861  0.80448161  1
  C  C211  1  0.89240215  0.67132861  0.69551839  1
  C  C212  1  0.17314927  0.73951721  0.47549721  1
  C  C213  1  0.67314927  0.23951721  0.02450279  1
  C  C214  1  0.82685073  0.26048279  0.52450279  1
  C  C215  1  0.32685073  0.76048279  0.97549721  1
  C  C216  1  0.02525556  0.60752782  0.51219577  1
  C  C217  1  0.52525556  0.10752782  0.98780423  1
  C  C218  1  0.97474444  0.39247218  0.48780423  1
  C  C219  1  0.47474444  0.89247218  0.01219577  1
  C  C220  1  0.17381589  0.87537182  0.29728449  1
  C  C221  1  0.67381589  0.37537182  0.20271551  1
  C  C222  1  0.82618411  0.12462818  0.70271551  1
  C  C223  1  0.32618411  0.62462818  0.79728449  1
  C  C224  1  0.02057258  0.74052286  0.27009167  1
  C  C225  1  0.52057258  0.24052286  0.22990833  1
  C  C226  1  0.97942742  0.25947714  0.72990833  1
  C  C227  1  0.47942742  0.75947714  0.77009167  1
  S  S228  1  0.61410302  0.99720989  0.35897339  1
  S  S229  1  0.11410302  0.49720989  0.14102661  1
  S  S230  1  0.38589698  0.00279011  0.64102661  1
  S  S231  1  0.88589698  0.50279011  0.85897339  1
  S  S232  1  0.83087999  0.89528078  0.54919658  1
  S  S233  1  0.33087999  0.39528078  0.95080342  1
  S  S234  1  0.16912001  0.10471922  0.45080342  1
  S  S235  1  0.66912001  0.60471922  0.04919658  1
  S  S236  1  0.55509242  0.71952315  0.52908862  1
  S  S237  1  0.05509242  0.21952315  0.97091138  1
  S  S238  1  0.44490758  0.28047685  0.47091138  1
  S  S239  1  0.94490758  0.78047685  0.02908862  1
  S  S240  1  0.73028561  0.58037067  0.38341009  1
  S  S241  1  0.23028561  0.08037067  0.11658991  1
  S  S242  1  0.26971439  0.41962933  0.61658991  1
  S  S243  1  0.76971439  0.91962933  0.88341009  1
  S  S244  1  0.55395025  0.82301629  0.26988398  1
  S  S245  1  0.05395025  0.32301629  0.23011602  1
  S  S246  1  0.44604975  0.17698371  0.73011602  1
  S  S247  1  0.94604975  0.67698371  0.76988398  1
  S  S248  1  0.00536055  0.71470579  0.49618787  1
  S  S249  1  0.50536055  0.21470579  0.00381213  1
  S  S250  1  0.99463945  0.28529421  0.50381213  1
  S  S251  1  0.49463945  0.78529421  0.99618787  1
  S  S252  1  0.00154337  0.84673885  0.28970853  1
  S  S253  1  0.50154337  0.34673885  0.21029147  1
  S  S254  1  0.99845663  0.15326115  0.71029147  1
  S  S255  1  0.49845663  0.65326115  0.78970853  1
  Cl  Cl256  1  0.48830245  0.82063638  0.41410767  1
  Cl  Cl257  1  0.98830245  0.32063638  0.08589233  1
  Cl  Cl258  1  0.51169755  0.17936362  0.58589233  1
  Cl  Cl259  1  0.01169755  0.67936362  0.91410767  1
  Cl  Cl260  1  0.24658500  0.69555984  0.63872868  1
  Cl  Cl261  1  0.74658500  0.19555984  0.86127132  1
  Cl  Cl262  1  0.75341500  0.30444016  0.36127132  1
  Cl  Cl263  1  0.25341500  0.80444016  0.13872868  1
  Cl  Cl264  1  0.24451788  0.53446883  0.38735856  1
  Cl  Cl265  1  0.74451788  0.03446883  0.11264144  1
  Cl  Cl266  1  0.75548212  0.46553117  0.61264144  1
  Cl  Cl267  1  0.25548212  0.96553117  0.88735856  1
  Cl  Cl268  1  0.76937221  0.60308151  0.19199379  1
  Cl  Cl269  1  0.26937221  0.10308151  0.30800621  1
  Cl  Cl270  1  0.23062779  0.39691849  0.80800621  1
  Cl  Cl271  1  0.73062779  0.89691849  0.69199379  1
  O  O272  1  0.72157670  0.95364161  0.39462305  1
  O  O273  1  0.22157670  0.45364161  0.10537695  1
  O  O274  1  0.27842330  0.04635839  0.60537695  1
  O  O275  1  0.77842330  0.54635839  0.89462305  1
  O  O276  1  0.86320338  0.88084880  0.48389488  1
  O  O277  1  0.36320338  0.38084880  0.01610512  1
  O  O278  1  0.13679662  0.11915120  0.51610512  1
  O  O279  1  0.63679662  0.61915120  0.98389488  1
  O  O280  1  0.68354581  0.73464496  0.49287307  1
  O  O281  1  0.18354581  0.23464496  0.00712693  1
  O  O282  1  0.31645419  0.26535504  0.50712693  1
  O  O283  1  0.81645419  0.76535504  0.99287307  1
  O  O284  1  0.71588451  0.67321007  0.36699829  1
  O  O285  1  0.21588451  0.17321007  0.13300171  1
  O  O286  1  0.28411549  0.32678993  0.63300171  1
  O  O287  1  0.78411549  0.82678993  0.86699829  1
  O  O288  1  0.68458485  0.82013800  0.30519878  1
  O  O289  1  0.18458485  0.32013800  0.19480122  1
  O  O290  1  0.31541515  0.17986200  0.69480122  1
  O  O291  1  0.81541515  0.67986200  0.80519878  1
  O  O292  1  0.92720334  0.71709894  0.43830899  1
  O  O293  1  0.42720334  0.21709894  0.06169101  1
  O  O294  1  0.07279666  0.28290106  0.56169101  1
  O  O295  1  0.57279666  0.78290106  0.93830899  1
  O  O296  1  0.94361062  0.84480800  0.35232361  1
  O  O297  1  0.44361062  0.34480800  0.14767639  1
  O  O298  1  0.05638938  0.15519200  0.64767639  1
  O  O299  1  0.55638938  0.65519200  0.85232361  1
