# generated using pymatgen
data_Na6HfHS5O21
_symmetry_space_group_name_H-M   'P 1'
_cell_length_a   11.06875600
_cell_length_b   8.78887400
_cell_length_c   10.82327604
_cell_angle_alpha   83.43136331
_cell_angle_beta   90.00000000
_cell_angle_gamma   90.00000000
_symmetry_Int_Tables_number   1
_chemical_formula_structural   Na6HfHS5O21
_chemical_formula_sum   'Na12 Hf2 H2 S10 O42'
_cell_volume   1045.99709137
_cell_formula_units_Z   2
loop_
 _symmetry_equiv_pos_site_id
 _symmetry_equiv_pos_as_xyz
  1  'x, y, z'
loop_
 _atom_site_type_symbol
 _atom_site_label
 _atom_site_symmetry_multiplicity
 _atom_site_fract_x
 _atom_site_fract_y
 _atom_site_fract_z
 _atom_site_occupancy
  Na  Na0  1  0.67434600  0.05816900  0.50781600  1
  Na  Na1  1  0.17434600  0.94183100  0.49218400  1
  Na  Na2  1  0.32148400  0.47610800  0.05142900  1
  Na  Na3  1  0.82148400  0.52389200  0.94857100  1
  Na  Na4  1  0.99679700  0.58965600  0.46836100  1
  Na  Na5  1  0.49679700  0.41034400  0.53163900  1
  Na  Na6  1  0.55760200  0.13764700  0.07291800  1
  Na  Na7  1  0.05760200  0.86235300  0.92708200  1
  Na  Na8  1  0.66022800  0.67322000  0.71271400  1
  Na  Na9  1  0.16022800  0.32678000  0.28728600  1
  Na  Na10  1  0.95078400  0.96165600  0.24244500  1
  Na  Na11  1  0.45078400  0.03834400  0.75755500  1
  Hf  Hf12  1  0.98561600  0.22816900  0.73085600  1
  Hf  Hf13  1  0.48561600  0.77183100  0.26914400  1
  H  H14  1  0.94032100  0.52838600  0.71403700  1
  H  H15  1  0.44032100  0.47161400  0.28596300  1
  S  S16  1  0.22475300  0.29985100  0.62614000  1
  S  S17  1  0.72475300  0.70014900  0.37386000  1
  S  S18  1  0.68174800  0.25951700  0.78185500  1
  S  S19  1  0.18174800  0.74048300  0.21814500  1
  S  S20  1  0.93007100  0.21258200  0.41366700  1
  S  S21  1  0.43007100  0.78741800  0.58633300  1
  S  S22  1  0.91993100  0.83943400  0.68992700  1
  S  S23  1  0.41993100  0.16056600  0.31007300  1
  S  S24  1  0.05009300  0.24711100  0.99320700  1
  S  S25  1  0.55009300  0.75288900  0.00679300  1
  O  O26  1  0.15536900  0.38535100  0.71844900  1
  O  O27  1  0.65536900  0.61464900  0.28155100  1
  O  O28  1  0.14848900  0.15536700  0.62936400  1
  O  O29  1  0.64848900  0.84463300  0.37063600  1
  O  O30  1  0.22527200  0.38699600  0.50297200  1
  O  O31  1  0.72527200  0.61300400  0.49702800  1
  O  O32  1  0.34715000  0.26409000  0.67351800  1
  O  O33  1  0.84715000  0.73591000  0.32648200  1
  O  O34  1  0.80723300  0.18816000  0.79502000  1
  O  O35  1  0.30723300  0.81184000  0.20498000  1
  O  O36  1  0.63743500  0.25147900  0.65430600  1
  O  O37  1  0.13743500  0.74852100  0.34569400  1
  O  O38  1  0.60155400  0.16710800  0.87149100  1
  O  O39  1  0.10155400  0.83289200  0.12850900  1
  O  O40  1  0.68985600  0.41891800  0.81315900  1
  O  O41  1  0.18985600  0.58108200  0.18684100  1
  O  O42  1  0.91081400  0.19599400  0.55310200  1
  O  O43  1  0.41081400  0.80400600  0.44689800  1
  O  O44  1  0.03199700  0.11213900  0.38390900  1
  O  O45  1  0.53199700  0.88786100  0.61609100  1
  O  O46  1  0.96058600  0.37332900  0.36900700  1
  O  O47  1  0.46058600  0.62667100  0.63099300  1
  O  O48  1  0.81821600  0.16090600  0.35670900  1
  O  O49  1  0.31821600  0.83909400  0.64329100  1
  O  O50  1  0.97471500  0.97427600  0.74561400  1
  O  O51  1  0.47471500  0.02572400  0.25438600  1
  O  O52  1  0.99969600  0.79970400  0.58928600  1
  O  O53  1  0.49969600  0.20029600  0.41071400  1
  O  O54  1  0.91824900  0.71095500  0.79492100  1
  O  O55  1  0.41824900  0.28904500  0.20507900  1
  O  O56  1  0.79664300  0.87542700  0.64576800  1
  O  O57  1  0.29664300  0.12457300  0.35423200  1
  O  O58  1  0.07979900  0.13095500  0.90147600  1
  O  O59  1  0.57979900  0.86904500  0.09852400  1
  O  O60  1  0.98101900  0.36494800  0.90678100  1
  O  O61  1  0.48101900  0.63505200  0.09321900  1
  O  O62  1  0.97251300  0.17664100  0.09273800  1
  O  O63  1  0.47251300  0.82335900  0.90726200  1
  O  O64  1  0.16085100  0.31137600  0.03992100  1
  O  O65  1  0.66085100  0.68862400  0.96007900  1
  O  O66  1  0.93936800  0.44629200  0.65909600  1
  O  O67  1  0.43936800  0.55370800  0.34090400  1
