# generated using pymatgen
data_Hf(WO4)2
_symmetry_space_group_name_H-M   'P 1'
_cell_length_a   9.30001300
_cell_length_b   9.30001300
_cell_length_c   9.30001300
_cell_angle_alpha   90.00000000
_cell_angle_beta   90.00000000
_cell_angle_gamma   90.00000000
_symmetry_Int_Tables_number   1
_chemical_formula_structural   Hf(WO4)2
_chemical_formula_sum   'Hf4 W8 O32'
_cell_volume   804.36037311
_cell_formula_units_Z   4
loop_
 _symmetry_equiv_pos_site_id
 _symmetry_equiv_pos_as_xyz
  1  'x, y, z'
loop_
 _atom_site_type_symbol
 _atom_site_label
 _atom_site_symmetry_multiplicity
 _atom_site_fract_x
 _atom_site_fract_y
 _atom_site_fract_z
 _atom_site_occupancy
  Hf  Hf0  1  0.74854700  0.24854700  0.25145300  1
  Hf  Hf1  1  0.24854700  0.25145300  0.74854700  1
  Hf  Hf2  1  0.25145300  0.74854700  0.24854700  1
  Hf  Hf3  1  0.75145300  0.75145300  0.75145300  1
  W  W4  1  0.14826200  0.64826200  0.85173800  1
  W  W5  1  0.64826200  0.85173800  0.14826200  1
  W  W6  1  0.85173800  0.14826200  0.64826200  1
  W  W7  1  0.35173800  0.35173800  0.35173800  1
  W  W8  1  0.40728200  0.90728200  0.59271800  1
  W  W9  1  0.90728200  0.59271800  0.40728200  1
  W  W10  1  0.59271800  0.40728200  0.90728200  1
  W  W11  1  0.09271800  0.09271800  0.09271800  1
  O  O12  1  0.25871400  0.75871400  0.74128600  1
  O  O13  1  0.75871400  0.74128600  0.25871400  1
  O  O14  1  0.74128600  0.25871400  0.75871400  1
  O  O15  1  0.24128600  0.24128600  0.24128600  1
  O  O16  1  0.51604000  0.01604000  0.48396000  1
  O  O17  1  0.01604000  0.48396000  0.51604000  1
  O  O18  1  0.48396000  0.51604000  0.01604000  1
  O  O19  1  0.98396000  0.98396000  0.98396000  1
  O  O20  1  0.96025000  0.69419200  0.81881700  1
  O  O21  1  0.18118300  0.46025000  0.80580800  1
  O  O22  1  0.19419200  0.68118300  0.03975000  1
  O  O23  1  0.46025000  0.80580800  0.18118300  1
  O  O24  1  0.68118300  0.03975000  0.19419200  1
  O  O25  1  0.69419200  0.81881700  0.96025000  1
  O  O26  1  0.03975000  0.19419200  0.68118300  1
  O  O27  1  0.81881700  0.96025000  0.69419200  1
  O  O28  1  0.80580800  0.18118300  0.46025000  1
  O  O29  1  0.53975000  0.30580800  0.31881700  1
  O  O30  1  0.31881700  0.53975000  0.30580800  1
  O  O31  1  0.30580800  0.31881700  0.53975000  1
  O  O32  1  0.54736700  0.80306600  0.68856600  1
  O  O33  1  0.31143400  0.04736700  0.69693400  1
  O  O34  1  0.30306600  0.81143400  0.45263300  1
  O  O35  1  0.04736700  0.69693400  0.31143400  1
  O  O36  1  0.81143400  0.45263300  0.30306600  1
  O  O37  1  0.80306600  0.68856600  0.54736700  1
  O  O38  1  0.45263300  0.30306600  0.81143400  1
  O  O39  1  0.68856600  0.54736700  0.80306600  1
  O  O40  1  0.69693400  0.31143400  0.04736700  1
  O  O41  1  0.95263300  0.19693400  0.18856600  1
  O  O42  1  0.18856600  0.95263300  0.19693400  1
  O  O43  1  0.19693400  0.18856600  0.95263300  1
