# generated using pymatgen
data_CoPH8C3N3O7
_symmetry_space_group_name_H-M   'P 1'
_cell_length_a   7.48945100
_cell_length_b   8.94002456
_cell_length_c   15.64528356
_cell_angle_alpha   101.48790436
_cell_angle_beta   90.00000000
_cell_angle_gamma   90.00000000
_symmetry_Int_Tables_number   1
_chemical_formula_structural   CoPH8C3N3O7
_chemical_formula_sum   'Co4 P4 H32 C12 N12 O28'
_cell_volume   1026.55798239
_cell_formula_units_Z   4
loop_
 _symmetry_equiv_pos_site_id
 _symmetry_equiv_pos_as_xyz
  1  'x, y, z'
loop_
 _atom_site_type_symbol
 _atom_site_label
 _atom_site_symmetry_multiplicity
 _atom_site_fract_x
 _atom_site_fract_y
 _atom_site_fract_z
 _atom_site_occupancy
  Co  Co0  1  0.97344200  0.28810100  0.60505500  1
  Co  Co1  1  0.52655800  0.78810100  0.10505500  1
  Co  Co2  1  0.02655800  0.71189900  0.39494500  1
  Co  Co3  1  0.47344200  0.21189900  0.89494500  1
  P  P4  1  0.62256600  0.36795300  0.73440700  1
  P  P5  1  0.87743400  0.86795300  0.23440700  1
  P  P6  1  0.37743400  0.63204700  0.26559300  1
  P  P7  1  0.12256600  0.13204700  0.76559300  1
  H  H8  1  0.55724300  0.50406500  0.78633900  1
  H  H9  1  0.94275700  0.00406500  0.28633900  1
  H  H10  1  0.44275700  0.49593500  0.21366100  1
  H  H11  1  0.05724300  0.99593500  0.71366100  1
  H  H12  1  0.35376700  0.28822000  0.68153100  1
  H  H13  1  0.14623300  0.78822000  0.18153100  1
  H  H14  1  0.64623300  0.71178000  0.31846900  1
  H  H15  1  0.85376700  0.21178000  0.81846900  1
  H  H16  1  0.62736300  0.77023000  0.52618300  1
  H  H17  1  0.87263700  0.27023000  0.02618300  1
  H  H18  1  0.37263700  0.22977000  0.47381700  1
  H  H19  1  0.12736300  0.72977000  0.97381700  1
  H  H20  1  0.42199600  0.67407800  0.52713800  1
  H  H21  1  0.07800400  0.17407800  0.02713800  1
  H  H22  1  0.57800400  0.32592200  0.47286200  1
  H  H23  1  0.92199600  0.82592200  0.97286200  1
  H  H24  1  0.68562600  0.97006100  0.64348600  1
  H  H25  1  0.81437400  0.47006100  0.14348600  1
  H  H26  1  0.31437400  0.02993900  0.35651400  1
  H  H27  1  0.18562600  0.52993900  0.85651400  1
  H  H28  1  0.56979400  0.97917900  0.74024100  1
  H  H29  1  0.93020600  0.47917900  0.24024100  1
  H  H30  1  0.43020600  0.02082100  0.25975900  1
  H  H31  1  0.06979400  0.52082100  0.75975900  1
  H  H32  1  0.33419100  0.81992100  0.74875000  1
  H  H33  1  0.16580900  0.31992100  0.24875000  1
  H  H34  1  0.66580900  0.18007900  0.25125000  1
  H  H35  1  0.83419100  0.68007900  0.75125000  1
  H  H36  1  0.28432400  0.66755300  0.66218600  1
  H  H37  1  0.21567600  0.16755300  0.16218600  1
  H  H38  1  0.71567600  0.33244700  0.33781400  1
  H  H39  1  0.78432400  0.83244700  0.83781400  1
  C  C40  1  0.08624900  0.02453700  0.47937100  1
  C  C41  1  0.41375100  0.52453700  0.97937100  1
  C  C42  1  0.91375100  0.97546300  0.52062900  1
  C  C43  1  0.58624900  0.47546300  0.02062900  1
  C  C44  1  0.07471400  0.54203200  0.52981100  1
  C  C45  1  0.42528600  0.04203200  0.02981100  1
  C  C46  1  0.92528600  0.45796800  0.47018900  1
  C  C47  1  0.57471400  0.95796800  0.97018900  1
  C  C48  1  0.49769800  0.80281900  0.64316600  1
  C  C49  1  0.00230200  0.30281900  0.14316600  1
  C  C50  1  0.50230200  0.19718100  0.35683400  1
  C  C51  1  0.99769800  0.69718100  0.85683400  1
  N  N52  1  0.52592200  0.73245400  0.56043300  1
  N  N53  1  0.97407800  0.23245400  0.06043300  1
  N  N54  1  0.47407800  0.26754600  0.43956700  1
  N  N55  1  0.02592200  0.76754600  0.93956700  1
  N  N56  1  0.60698700  0.91520000  0.68168600  1
  N  N57  1  0.89301300  0.41520000  0.18168600  1
  N  N58  1  0.39301300  0.08480000  0.31831400  1
  N  N59  1  0.10698700  0.58480000  0.81831400  1
  N  N60  1  0.36583400  0.75592500  0.68958700  1
  N  N61  1  0.13416600  0.25592500  0.18958700  1
  N  N62  1  0.63416600  0.24407500  0.31041300  1
  N  N63  1  0.86583400  0.74407500  0.81041300  1
  O  O64  1  0.47583300  0.31620300  0.66172700  1
  O  O65  1  0.02416700  0.81620300  0.16172700  1
  O  O66  1  0.52416700  0.68379700  0.33827300  1
  O  O67  1  0.97583300  0.18379700  0.83827300  1
  O  O68  1  0.64591700  0.25098100  0.79365900  1
  O  O69  1  0.85408300  0.75098100  0.29365900  1
  O  O70  1  0.35408300  0.74901900  0.20634100  1
  O  O71  1  0.14591700  0.24901900  0.70634100  1
  O  O72  1  0.79164100  0.40820200  0.69061700  1
  O  O73  1  0.70835900  0.90820200  0.19061700  1
  O  O74  1  0.20835900  0.59179800  0.30938300  1
  O  O75  1  0.29164100  0.09179800  0.80938300  1
  O  O76  1  0.14668900  0.15640400  0.51054300  1
  O  O77  1  0.35331100  0.65640400  0.01054300  1
  O  O78  1  0.85331100  0.84359600  0.48945700  1
  O  O79  1  0.64668900  0.34359600  0.98945700  1
  O  O80  1  0.15411500  0.92952200  0.41649000  1
  O  O81  1  0.34588500  0.42952200  0.91649000  1
  O  O82  1  0.84588500  0.07047800  0.58351000  1
  O  O83  1  0.65411500  0.57047800  0.08351000  1
  O  O84  1  0.10996500  0.49597900  0.59978100  1
  O  O85  1  0.39003500  0.99597900  0.09978100  1
  O  O86  1  0.89003500  0.50402100  0.40021900  1
  O  O87  1  0.60996500  0.00402100  0.90021900  1
  O  O88  1  0.15183500  0.65188500  0.50473200  1
  O  O89  1  0.34816500  0.15188500  0.00473200  1
  O  O90  1  0.84816500  0.34811500  0.49526800  1
  O  O91  1  0.65183500  0.84811500  0.99526800  1
