# generated using pymatgen
data_K3Fe6F19
_symmetry_space_group_name_H-M   'P 1'
_cell_length_a   7.88222548
_cell_length_b   10.09808865
_cell_length_c   22.66325618
_cell_angle_alpha   90.00000000
_cell_angle_beta   90.00000000
_cell_angle_gamma   112.97211215
_symmetry_Int_Tables_number   1
_chemical_formula_structural   K3Fe6F19
_chemical_formula_sum   'K12 Fe24 F76'
_cell_volume   1660.83348098
_cell_formula_units_Z   4
loop_
 _symmetry_equiv_pos_site_id
 _symmetry_equiv_pos_as_xyz
  1  'x, y, z'
loop_
 _atom_site_type_symbol
 _atom_site_label
 _atom_site_symmetry_multiplicity
 _atom_site_fract_x
 _atom_site_fract_y
 _atom_site_fract_z
 _atom_site_occupancy
  K  K0  1  0.36765807  0.73531615  0.75000000  1
  K  K1  1  0.63234193  0.26468385  0.25000000  1
  K  K2  1  0.85992521  0.71985043  0.75000000  1
  K  K3  1  0.14007479  0.28014957  0.25000000  1
  K  K4  1  0.09833897  0.19667794  0.95013314  1
  K  K5  1  0.90166103  0.80332206  0.04986686  1
  K  K6  1  0.09833897  0.19667794  0.54986686  1
  K  K7  1  0.90166103  0.80332206  0.45013314  1
  K  K8  1  0.58405165  0.16810329  0.93572583  1
  K  K9  1  0.41594835  0.83189671  0.06427417  1
  K  K10  1  0.58405165  0.16810329  0.56427417  1
  K  K11  1  0.41594835  0.83189671  0.43572583  1
  Fe  Fe12  1  -0.00000000  0.50000000  -0.00000000  1
  Fe  Fe13  1  0.50000000  0.50000000  -0.00000000  1
  Fe  Fe14  1  -0.00000000  0.50000000  0.50000000  1
  Fe  Fe15  1  0.50000000  0.50000000  0.50000000  1
  Fe  Fe16  1  0.28673401  0.07248675  0.75000000  1
  Fe  Fe17  1  0.21424727  0.92751325  0.25000000  1
  Fe  Fe18  1  0.71326599  0.92751325  0.25000000  1
  Fe  Fe19  1  0.78575273  0.07248675  0.75000000  1
  Fe  Fe20  1  0.96194077  0.42364901  0.83449304  1
  Fe  Fe21  1  0.53829176  0.57635099  0.16550696  1
  Fe  Fe22  1  0.96194077  0.42364901  0.66550696  1
  Fe  Fe23  1  0.53829176  0.57635099  0.33449304  1
  Fe  Fe24  1  0.03805923  0.57635099  0.16550696  1
  Fe  Fe25  1  0.46170824  0.42364901  0.83449304  1
  Fe  Fe26  1  0.03805923  0.57635099  0.33449304  1
  Fe  Fe27  1  0.46170824  0.42364901  0.66550696  1
  Fe  Fe28  1  0.15918851  0.82062710  0.89148887  1
  Fe  Fe29  1  0.33856141  0.17937290  0.10851113  1
  Fe  Fe30  1  0.15918851  0.82062710  0.60851113  1
  Fe  Fe31  1  0.33856141  0.17937290  0.39148887  1
  Fe  Fe32  1  0.84081149  0.17937290  0.10851113  1
  Fe  Fe33  1  0.66143859  0.82062710  0.89148887  1
  Fe  Fe34  1  0.84081149  0.17937290  0.39148887  1
  Fe  Fe35  1  0.66143859  0.82062710  0.60851113  1
  F  F36  1  0.22701695  0.99759160  0.93145257  1
  F  F37  1  0.22942535  0.00240840  0.06854743  1
  F  F38  1  0.22701695  0.99759160  0.56854743  1
  F  F39  1  0.22942535  0.00240840  0.43145257  1
  F  F40  1  0.77298305  0.00240840  0.06854743  1
  F  F41  1  0.77057465  0.99759160  0.93145257  1
  F  F42  1  0.77298305  0.00240840  0.43145257  1
  F  F43  1  0.77057465  0.99759160  0.56854743  1
  F  F44  1  0.12663482  0.71604767  0.96538577  1
  F  F45  1  0.41058715  0.28395233  0.03461423  1
  F  F46  1  0.12663482  0.71604767  0.53461423  1
  F  F47  1  0.41058715  0.28395233  0.46538577  1
  F  F48  1  0.87336518  0.28395233  0.03461423  1
  F  F49  1  0.58941285  0.71604767  0.96538577  1
  F  F50  1  0.87336518  0.28395233  0.46538577  1
  F  F51  1  0.58941285  0.71604767  0.53461423  1
  F  F52  1  0.19857867  0.39715734  0.84460687  1
  F  F53  1  0.80142133  0.60284266  0.15539313  1
  F  F54  1  0.19857867  0.39715734  0.65539313  1
  F  F55  1  0.80142133  0.60284266  0.34460687  1
  F  F56  1  0.73021111  0.46042221  0.82388707  1
  F  F57  1  0.26978889  0.53957779  0.17611293  1
  F  F58  1  0.73021111  0.46042221  0.67611293  1
  F  F59  1  0.26978889  0.53957779  0.32388707  1
  F  F60  1  0.09618253  0.63395570  0.84592240  1
  F  F61  1  0.46222683  0.36604430  0.15407760  1
  F  F62  1  0.09618253  0.63395570  0.65407760  1
  F  F63  1  0.46222683  0.36604430  0.34592240  1
  F  F64  1  0.90381747  0.36604430  0.15407760  1
  F  F65  1  0.53777317  0.63395570  0.84592240  1
  F  F66  1  0.90381747  0.36604430  0.34592240  1
  F  F67  1  0.53777317  0.63395570  0.65407760  1
  F  F68  1  0.02246228  0.47513724  0.75000000  1
  F  F69  1  0.54732505  0.52486276  0.25000000  1
  F  F70  1  0.97753772  0.52486276  0.25000000  1
  F  F71  1  0.45267495  0.47513724  0.75000000  1
  F  F72  1  0.23626644  0.47253288  0.99315641  1
  F  F73  1  0.76373356  0.52746712  0.00684359  1
  F  F74  1  0.23626644  0.47253288  0.50684359  1
  F  F75  1  0.76373356  0.52746712  0.49315641  1
  F  F76  1  0.17945207  0.90104708  0.81235981  1
  F  F77  1  0.27840499  0.09895292  0.18764019  1
  F  F78  1  0.17945207  0.90104708  0.68764019  1
  F  F79  1  0.27840499  0.09895292  0.31235981  1
  F  F80  1  0.82054793  0.09895292  0.18764019  1
  F  F81  1  0.72159501  0.90104708  0.81235981  1
  F  F82  1  0.82054793  0.09895292  0.31235981  1
  F  F83  1  0.72159501  0.90104708  0.68764019  1
  F  F84  1  0.91414366  0.38662717  0.91778435  1
  F  F85  1  0.52751649  0.61337283  0.08221565  1
  F  F86  1  0.91414366  0.38662717  0.58221565  1
  F  F87  1  0.52751649  0.61337283  0.41778435  1
  F  F88  1  0.08585634  0.61337283  0.08221565  1
  F  F89  1  0.47248351  0.38662717  0.91778435  1
  F  F90  1  0.08585634  0.61337283  0.41778435  1
  F  F91  1  0.47248351  0.38662717  0.58221565  1
  F  F92  1  0.42379670  0.84759339  0.88684107  1
  F  F93  1  0.57620330  0.15240661  0.11315893  1
  F  F94  1  0.42379670  0.84759339  0.61315893  1
  F  F95  1  0.57620330  0.15240661  0.38684107  1
  F  F96  1  0.04812363  0.09624727  0.75000000  1
  F  F97  1  0.95187637  0.90375273  0.25000000  1
  F  F98  1  0.83239662  0.22389333  0.81783899  1
  F  F99  1  0.60850329  0.77610667  0.18216101  1
  F  F100  1  0.83239662  0.22389333  0.68216101  1
  F  F101  1  0.60850329  0.77610667  0.31783899  1
  F  F102  1  0.16760338  0.77610667  0.18216101  1
  F  F103  1  0.39149671  0.22389333  0.81783899  1
  F  F104  1  0.16760338  0.77610667  0.31783899  1
  F  F105  1  0.39149671  0.22389333  0.68216101  1
  F  F106  1  0.51528488  0.03056976  0.75000000  1
  F  F107  1  0.48471512  0.96943024  0.25000000  1
  F  F108  1  0.89234021  0.78468043  0.89047593  1
  F  F109  1  0.10765979  0.21531957  0.10952407  1
  F  F110  1  0.89234021  0.78468043  0.60952407  1
  F  F111  1  0.10765979  0.21531957  0.39047593  1
