# generated using pymatgen
data_Cd12Ge17(B4O29)2
_symmetry_space_group_name_H-M   'P 1'
_cell_length_a   15.15850900
_cell_length_b   15.15850900
_cell_length_c   4.77104500
_cell_angle_alpha   90.00000000
_cell_angle_beta   90.00000000
_cell_angle_gamma   90.00000000
_symmetry_Int_Tables_number   1
_chemical_formula_structural   Cd12Ge17(B4O29)2
_chemical_formula_sum   'Cd12 Ge17 B8 O58'
_cell_volume   1096.29260515
_cell_formula_units_Z   1
loop_
 _symmetry_equiv_pos_site_id
 _symmetry_equiv_pos_as_xyz
  1  'x, y, z'
loop_
 _atom_site_type_symbol
 _atom_site_label
 _atom_site_symmetry_multiplicity
 _atom_site_fract_x
 _atom_site_fract_y
 _atom_site_fract_z
 _atom_site_occupancy
  Cd  Cd0  1  0.85364800  0.89372700  0.48984200  1
  Cd  Cd1  1  0.14635200  0.10627300  0.48984200  1
  Cd  Cd2  1  0.89372700  0.14635200  0.51015800  1
  Cd  Cd3  1  0.10627300  0.85364800  0.51015800  1
  Cd  Cd4  1  0.63838100  0.75409700  0.49739400  1
  Cd  Cd5  1  0.36161900  0.24590300  0.49739400  1
  Cd  Cd6  1  0.75409700  0.36161900  0.50260600  1
  Cd  Cd7  1  0.24590300  0.63838100  0.50260600  1
  Cd  Cd8  1  0.67486600  0.01069500  0.48433100  1
  Cd  Cd9  1  0.32513400  0.98930500  0.48433100  1
  Cd  Cd10  1  0.01069500  0.32513400  0.51566900  1
  Cd  Cd11  1  0.98930500  0.67486600  0.51566900  1
  Ge  Ge12  1  0.00000000  0.00000000  0.00000000  1
  Ge  Ge13  1  0.51355600  0.89554000  0.99961000  1
  Ge  Ge14  1  0.48644400  0.10446000  0.99961000  1
  Ge  Ge15  1  0.89554000  0.48644400  0.00039000  1
  Ge  Ge16  1  0.10446000  0.51355600  0.00039000  1
  Ge  Ge17  1  0.28255300  0.80805100  0.00052400  1
  Ge  Ge18  1  0.71744700  0.19194900  0.00052400  1
  Ge  Ge19  1  0.80805100  0.71744700  0.99947600  1
  Ge  Ge20  1  0.19194900  0.28255300  0.99947600  1
  Ge  Ge21  1  0.46258500  0.64465900  0.99267300  1
  Ge  Ge22  1  0.53741500  0.35534100  0.99267300  1
  Ge  Ge23  1  0.64465900  0.53741500  0.00732700  1
  Ge  Ge24  1  0.35534100  0.46258500  0.00732700  1
  Ge  Ge25  1  0.42245900  0.78311400  0.49833600  1
  Ge  Ge26  1  0.57754100  0.21688600  0.49833600  1
  Ge  Ge27  1  0.78311400  0.57754100  0.50166400  1
  Ge  Ge28  1  0.21688600  0.42245900  0.50166400  1
  B  B29  1  0.70729600  0.88196600  0.97365800  1
  B  B30  1  0.29270400  0.11803400  0.97365800  1
  B  B31  1  0.88196600  0.29270400  0.02634200  1
  B  B32  1  0.11803400  0.70729600  0.02634200  1
  B  B33  1  0.18507000  0.97258500  0.96167900  1
  B  B34  1  0.81493000  0.02741500  0.96167900  1
  B  B35  1  0.97258500  0.81493000  0.03832100  1
  B  B36  1  0.02741500  0.18507000  0.03832100  1
  O  O37  1  0.76541600  0.95031100  0.84907400  1
  O  O38  1  0.23458400  0.04968900  0.84907400  1
  O  O39  1  0.95031100  0.23458400  0.15092600  1
  O  O40  1  0.04968900  0.76541600  0.15092600  1
  O  O41  1  0.96593500  0.82156000  0.74484500  1
  O  O42  1  0.03406500  0.17844000  0.74484500  1
  O  O43  1  0.82156000  0.03406500  0.25515500  1
  O  O44  1  0.17844000  0.96593500  0.25515500  1
  O  O45  1  0.50310100  0.71843300  0.72742700  1
  O  O46  1  0.49689900  0.28156700  0.72742700  1
  O  O47  1  0.71843300  0.49689900  0.27257300  1
  O  O48  1  0.28156700  0.50310100  0.27257300  1
  O  O49  1  0.34892800  0.85693200  0.26583700  1
  O  O50  1  0.65107200  0.14306800  0.26583700  1
  O  O51  1  0.85693200  0.65107200  0.73416300  1
  O  O52  1  0.14306800  0.34892800  0.73416300  1
  O  O53  1  0.51961000  0.81404300  0.26812000  1
  O  O54  1  0.48039000  0.18595700  0.26812000  1
  O  O55  1  0.81404300  0.48039000  0.73188000  1
  O  O56  1  0.18595700  0.51961000  0.73188000  1
  O  O57  1  0.32866600  0.74285300  0.72789400  1
  O  O58  1  0.67133400  0.25714700  0.72789400  1
  O  O59  1  0.74285300  0.67133400  0.27210600  1
  O  O60  1  0.25714700  0.32866600  0.27210600  1
  O  O61  1  0.22656600  0.89292100  0.81663000  1
  O  O62  1  0.77343400  0.10707900  0.81663000  1
  O  O63  1  0.89292100  0.77343400  0.18337000  1
  O  O64  1  0.10707900  0.22656600  0.18337000  1
  O  O65  1  0.50000000  0.00000000  0.17651100  1
  O  O66  1  0.00000000  0.50000000  0.82348900  1
  O  O67  1  0.61793900  0.89767200  0.83072000  1
  O  O68  1  0.38206100  0.10232800  0.83072000  1
  O  O69  1  0.89767200  0.38206100  0.16928000  1
  O  O70  1  0.10232800  0.61793900  0.16928000  1
  O  O71  1  0.09563800  0.97871800  0.79960100  1
  O  O72  1  0.90436200  0.02128200  0.79960100  1
  O  O73  1  0.97871800  0.90436200  0.20039900  1
  O  O74  1  0.02128200  0.09563800  0.20039900  1
  O  O75  1  0.70606000  0.87878800  0.27104400  1
  O  O76  1  0.29394000  0.12121200  0.27104400  1
  O  O77  1  0.87878800  0.29394000  0.72895600  1
  O  O78  1  0.12121200  0.70606000  0.72895600  1
  O  O79  1  0.55835300  0.60108600  0.16311900  1
  O  O80  1  0.44164700  0.39891400  0.16311900  1
  O  O81  1  0.60108600  0.44164700  0.83688100  1
  O  O82  1  0.39891400  0.55835300  0.83688100  1
  O  O83  1  0.39395000  0.68692400  0.26243000  1
  O  O84  1  0.60605000  0.31307600  0.26243000  1
  O  O85  1  0.68692400  0.60605000  0.73757000  1
  O  O86  1  0.31307600  0.39395000  0.73757000  1
  O  O87  1  0.20455200  0.73741700  0.16396800  1
  O  O88  1  0.79544800  0.26258300  0.16396800  1
  O  O89  1  0.73741700  0.79544800  0.83603200  1
  O  O90  1  0.26258300  0.20455200  0.83603200  1
  O  O91  1  0.43257700  0.88718500  0.73091000  1
  O  O92  1  0.56742300  0.11281500  0.73091000  1
  O  O93  1  0.88718500  0.56742300  0.26909000  1
  O  O94  1  0.11281500  0.43257700  0.26909000  1
