# generated using pymatgen
data_Er4(GeO5)3
_symmetry_space_group_name_H-M   'P 1'
_cell_length_a   9.32985670
_cell_length_b   9.32985670
_cell_length_c   7.08269200
_cell_angle_alpha   90.00000000
_cell_angle_beta   90.00000000
_cell_angle_gamma   109.99620587
_symmetry_Int_Tables_number   1
_chemical_formula_structural   Er4(GeO5)3
_chemical_formula_sum   'Er8 Ge6 O30'
_cell_volume   579.35476839
_cell_formula_units_Z   2
loop_
 _symmetry_equiv_pos_site_id
 _symmetry_equiv_pos_as_xyz
  1  'x, y, z'
loop_
 _atom_site_type_symbol
 _atom_site_label
 _atom_site_symmetry_multiplicity
 _atom_site_fract_x
 _atom_site_fract_y
 _atom_site_fract_z
 _atom_site_occupancy
  Er  Er0  1  0.57915600  0.83967000  0.25000000  1
  Er  Er1  1  0.16033000  0.42084400  0.75000000  1
  Er  Er2  1  0.42084400  0.16033000  0.75000000  1
  Er  Er3  1  0.83967000  0.57915600  0.25000000  1
  Er  Er4  1  0.19964600  0.90668100  0.25000000  1
  Er  Er5  1  0.09331900  0.80035400  0.75000000  1
  Er  Er6  1  0.80035400  0.09331900  0.75000000  1
  Er  Er7  1  0.90668100  0.19964600  0.25000000  1
  Ge  Ge8  1  0.50000000  0.50000000  0.00000000  1
  Ge  Ge9  1  0.50000000  0.50000000  0.50000000  1
  Ge  Ge10  1  0.53550800  0.22640900  0.25000000  1
  Ge  Ge11  1  0.77359100  0.46449200  0.75000000  1
  Ge  Ge12  1  0.46449200  0.77359100  0.75000000  1
  Ge  Ge13  1  0.22640900  0.53550800  0.25000000  1
  O  O14  1  0.46197000  0.28683200  0.04412100  1
  O  O15  1  0.71316800  0.53803000  0.95587900  1
  O  O16  1  0.46197000  0.28683200  0.45587900  1
  O  O17  1  0.71316800  0.53803000  0.54412100  1
  O  O18  1  0.53803000  0.71316800  0.95587900  1
  O  O19  1  0.28683200  0.46197000  0.04412100  1
  O  O20  1  0.53803000  0.71316800  0.54412100  1
  O  O21  1  0.28683200  0.46197000  0.45587900  1
  O  O22  1  0.46799500  0.02554700  0.25000000  1
  O  O23  1  0.97445300  0.53200500  0.75000000  1
  O  O24  1  0.53200500  0.97445300  0.75000000  1
  O  O25  1  0.02554700  0.46799500  0.25000000  1
  O  O26  1  0.31542600  0.73381400  0.25000000  1
  O  O27  1  0.26618700  0.68457400  0.75000000  1
  O  O28  1  0.68457400  0.26618700  0.75000000  1
  O  O29  1  0.73381400  0.31542600  0.25000000  1
  O  O30  1  0.43170200  0.43170200  0.75000000  1
  O  O31  1  0.56829800  0.56829800  0.25000000  1
  O  O32  1  0.25769700  0.98512400  0.94266600  1
  O  O33  1  0.01487600  0.74230300  0.05733400  1
  O  O34  1  0.25769700  0.98512400  0.55733400  1
  O  O35  1  0.01487600  0.74230300  0.44266600  1
  O  O36  1  0.74230300  0.01487600  0.05733400  1
  O  O37  1  0.98512400  0.25769700  0.94266600  1
  O  O38  1  0.74230300  0.01487600  0.44266600  1
  O  O39  1  0.98512400  0.25769700  0.55733400  1
  O  O40  1  0.13744900  0.13744900  0.75000000  1
  O  O41  1  0.86255100  0.86255100  0.25000000  1
  O  O42  1  0.07745600  0.07745600  0.25000000  1
  O  O43  1  0.92254400  0.92254400  0.75000000  1
