# generated using pymatgen
data_KUVIO10
_symmetry_space_group_name_H-M   'P 1'
_cell_length_a   5.03613700
_cell_length_b   10.15168000
_cell_length_c   17.30065800
_cell_angle_alpha   90.00000000
_cell_angle_beta   90.00000000
_cell_angle_gamma   90.00000000
_symmetry_Int_Tables_number   1
_chemical_formula_structural   KUVIO10
_chemical_formula_sum   'K4 U4 V4 I4 O40'
_cell_volume   884.50048722
_cell_formula_units_Z   4
loop_
 _symmetry_equiv_pos_site_id
 _symmetry_equiv_pos_as_xyz
  1  'x, y, z'
loop_
 _atom_site_type_symbol
 _atom_site_label
 _atom_site_symmetry_multiplicity
 _atom_site_fract_x
 _atom_site_fract_y
 _atom_site_fract_z
 _atom_site_occupancy
  K  K0  1  0.68961500  0.27259200  0.39809400  1
  K  K1  1  0.68961500  0.72740800  0.60190600  1
  K  K2  1  0.68961500  0.22740800  0.89809400  1
  K  K3  1  0.68961500  0.77259200  0.10190600  1
  U  U4  1  0.25358700  0.58696300  0.26553400  1
  U  U5  1  0.25358700  0.41303700  0.73446600  1
  U  U6  1  0.25358700  0.91303700  0.76553400  1
  U  U7  1  0.25358700  0.08696300  0.23446600  1
  V  V8  1  0.24625600  0.35843500  0.05635100  1
  V  V9  1  0.24625600  0.64156500  0.94364900  1
  V  V10  1  0.24625600  0.14156500  0.55635100  1
  V  V11  1  0.24625600  0.85843500  0.44364900  1
  I  I12  1  0.75955900  0.35236600  0.16596200  1
  I  I13  1  0.75955900  0.64763400  0.83403800  1
  I  I14  1  0.75955900  0.14763400  0.66596200  1
  I  I15  1  0.75955900  0.85236600  0.33403800  1
  O  O16  1  0.06659700  0.24275400  0.14656200  1
  O  O17  1  0.06659700  0.75724600  0.85343800  1
  O  O18  1  0.06659700  0.25724600  0.64656200  1
  O  O19  1  0.06659700  0.74275400  0.35343800  1
  O  O20  1  0.56737500  0.27247100  0.07917500  1
  O  O21  1  0.56737500  0.72752900  0.92082500  1
  O  O22  1  0.56737500  0.22752900  0.57917500  1
  O  O23  1  0.56737500  0.77247100  0.42082500  1
  O  O24  1  0.35583100  0.50000000  0.00000000  1
  O  O25  1  0.35583100  0.00000000  0.50000000  1
  O  O26  1  0.91667900  0.43975500  0.24950200  1
  O  O27  1  0.91667900  0.56024500  0.75049800  1
  O  O28  1  0.91667900  0.06024500  0.74950200  1
  O  O29  1  0.91667900  0.93975500  0.25049800  1
  O  O30  1  0.61850000  0.22381100  0.23144000  1
  O  O31  1  0.61850000  0.77618900  0.76856000  1
  O  O32  1  0.61850000  0.27618900  0.73144000  1
  O  O33  1  0.61850000  0.72381100  0.26856000  1
  O  O34  1  0.46130100  0.46533500  0.16831200  1
  O  O35  1  0.46130100  0.53466500  0.83168800  1
  O  O36  1  0.46130100  0.03466500  0.66831200  1
  O  O37  1  0.46130100  0.96533500  0.33168800  1
  O  O38  1  0.93889500  0.45785900  0.09128700  1
  O  O39  1  0.93889500  0.54214100  0.90871300  1
  O  O40  1  0.93889500  0.04214100  0.59128700  1
  O  O41  1  0.93889500  0.95785900  0.40871300  1
  O  O42  1  0.14502400  0.25963100  0.98829500  1
  O  O43  1  0.14502400  0.74036900  0.01170500  1
  O  O44  1  0.14502400  0.24036900  0.48829500  1
  O  O45  1  0.14502400  0.75963100  0.51170500  1
  O  O46  1  0.14374700  0.68606200  0.18453900  1
  O  O47  1  0.14374700  0.31393800  0.81546100  1
  O  O48  1  0.14374700  0.81393800  0.68453900  1
  O  O49  1  0.14374700  0.18606200  0.31546100  1
  O  O50  1  0.36898700  0.48948800  0.34665600  1
  O  O51  1  0.36898700  0.51051200  0.65334400  1
  O  O52  1  0.36898700  0.01051200  0.84665600  1
  O  O53  1  0.36898700  0.98948800  0.15334400  1
  O  O54  1  0.80522600  0.50000000  0.50000000  1
  O  O55  1  0.80522600  0.00000000  0.00000000  1
