# generated using pymatgen
data_AlPO6
_symmetry_space_group_name_H-M   'P 1'
_cell_length_a   9.11937700
_cell_length_b   9.58382502
_cell_length_c   9.67700593
_cell_angle_alpha   94.90289663
_cell_angle_beta   101.61619165
_cell_angle_gamma   95.93188703
_symmetry_Int_Tables_number   1
_chemical_formula_structural   AlPO6
_chemical_formula_sum   'Al6 P6 O36'
_cell_volume   819.08053049
_cell_formula_units_Z   6
loop_
 _symmetry_equiv_pos_site_id
 _symmetry_equiv_pos_as_xyz
  1  'x, y, z'
loop_
 _atom_site_type_symbol
 _atom_site_label
 _atom_site_symmetry_multiplicity
 _atom_site_fract_x
 _atom_site_fract_y
 _atom_site_fract_z
 _atom_site_occupancy
  Al  Al0  1  0.30100100  0.09219100  0.88187400  1
  Al  Al1  1  0.90597900  0.32590300  0.10011200  1
  Al  Al2  1  0.16048400  0.85918100  0.35829800  1
  Al  Al3  1  0.70134400  0.88683300  0.10656400  1
  Al  Al4  1  0.10288500  0.65770500  0.89053500  1
  Al  Al5  1  0.85892600  0.11907700  0.64068200  1
  P  P6  1  0.35478500  0.87583800  0.11411800  1
  P  P7  1  0.10743800  0.33586300  0.86597400  1
  P  P8  1  0.94600900  0.10326000  0.32811500  1
  P  P9  1  0.66008400  0.11167700  0.88610500  1
  P  P10  1  0.90932900  0.64737600  0.11999300  1
  P  P11  1  0.05799400  0.87315900  0.66277700  1
  O  O12  1  0.20811300  0.96863300  0.73182100  1
  O  O13  1  0.25708700  0.75975300  0.00552100  1
  O  O14  1  0.98219700  0.26338100  0.74335600  1
  O  O15  1  0.73726600  0.24290400  0.98981000  1
  O  O16  1  0.80741600  0.99909200  0.25298400  1
  O  O17  1  0.03759200  0.73050900  0.23083500  1
  O  O18  1  0.34699500  0.02224500  0.05278200  1
  O  O19  1  0.25378300  0.26649300  0.87411600  1
  O  O20  1  0.05570500  0.33031100  0.00913200  1
  O  O21  1  0.95643100  0.23613600  0.25055600  1
  O  O22  1  0.08920200  0.02904900  0.32151700  1
  O  O23  1  0.30829600  0.88349000  0.25613700  1
  O  O24  1  0.70032700  0.97694400  0.95617900  1
  O  O25  1  0.76580400  0.72141000  0.10551300  1
  O  O26  1  0.95013300  0.63499300  0.97252200  1
  O  O27  1  0.04598700  0.74005700  0.73851500  1
  O  O28  1  0.92005600  0.95111700  0.67072200  1
  O  O29  1  0.71758400  0.11200500  0.74782400  1
  O  O30  1  0.48937200  0.11564500  0.85290800  1
  O  O31  1  0.51933600  0.84856400  0.13475300  1
  O  O32  1  0.87537000  0.49685700  0.16059600  1
  O  O33  1  0.14694300  0.49028400  0.84052200  1
  O  O34  1  0.05528400  0.82916500  0.50495300  1
  O  O35  1  0.93593100  0.14481500  0.48142800  1
  O  O36  1  0.27214300  0.74502900  0.47765800  1
  O  O37  1  0.30708600  0.00312600  0.49855700  1
  O  O38  1  0.65751200  0.12471600  0.48840700  1
  O  O39  1  0.63017000  0.26007400  0.48157400  1
  O  O40  1  0.11344200  0.04220800  0.95931600  1
  O  O41  1  0.56324000  0.71262400  0.80800300  1
  O  O42  1  0.63966500  0.72888900  0.71850900  1
  O  O43  1  0.21601300  0.44175000  0.48458300  1
  O  O44  1  0.47308300  0.49076100  0.09495700  1
  O  O45  1  0.45432300  0.49219400  0.21702800  1
  O  O46  1  0.51270900  0.27984800  0.39483900  1
  O  O47  1  0.30024700  0.35556600  0.52611600  1
