# generated using pymatgen
data_CeH3CSO7
_symmetry_space_group_name_H-M   'P 1'
_cell_length_a   7.06726800
_cell_length_b   7.06726800
_cell_length_c   12.03962000
_cell_angle_alpha   90.00000000
_cell_angle_beta   90.00000000
_cell_angle_gamma   90.00000000
_symmetry_Int_Tables_number   1
_chemical_formula_structural   CeH3CSO7
_chemical_formula_sum   'Ce4 H12 C4 S4 O28'
_cell_volume   601.33419530
_cell_formula_units_Z   4
loop_
 _symmetry_equiv_pos_site_id
 _symmetry_equiv_pos_as_xyz
  1  'x, y, z'
loop_
 _atom_site_type_symbol
 _atom_site_label
 _atom_site_symmetry_multiplicity
 _atom_site_fract_x
 _atom_site_fract_y
 _atom_site_fract_z
 _atom_site_occupancy
  Ce  Ce0  1  0.86558800  0.60746400  0.72389400  1
  Ce  Ce1  1  0.13441200  0.39253600  0.22389400  1
  Ce  Ce2  1  0.60746400  0.13441200  0.47389400  1
  Ce  Ce3  1  0.39253600  0.86558800  0.97389400  1
  H  H4  1  0.34954400  0.52382900  0.68139000  1
  H  H5  1  0.65045600  0.47617100  0.18139000  1
  H  H6  1  0.52382900  0.65045600  0.43139000  1
  H  H7  1  0.47617100  0.34954400  0.93139000  1
  H  H8  1  0.04547000  0.88513200  0.55178300  1
  H  H9  1  0.95453000  0.11486800  0.05178300  1
  H  H10  1  0.88513200  0.95453000  0.30178300  1
  H  H11  1  0.11486800  0.04547000  0.80178300  1
  H  H12  1  0.08685100  0.68527000  0.50082900  1
  H  H13  1  0.91314900  0.31473000  0.00082900  1
  H  H14  1  0.68527000  0.91314900  0.25082900  1
  H  H15  1  0.31473000  0.08685100  0.75082900  1
  C  C16  1  0.35570400  0.60611200  0.75915200  1
  C  C17  1  0.64429600  0.39388800  0.25915200  1
  C  C18  1  0.60611200  0.64429600  0.50915200  1
  C  C19  1  0.39388800  0.35570400  0.00915200  1
  S  S20  1  0.74123600  0.11082600  0.77825800  1
  S  S21  1  0.25876400  0.88917400  0.27825800  1
  S  S22  1  0.11082600  0.25876400  0.52825800  1
  S  S23  1  0.88917400  0.74123600  0.02825800  1
  O  O24  1  0.88567900  0.96046000  0.75430200  1
  O  O25  1  0.11432100  0.03954000  0.25430200  1
  O  O26  1  0.96046000  0.11432100  0.50430200  1
  O  O27  1  0.03954000  0.88567900  0.00430200  1
  O  O28  1  0.61994600  0.04721000  0.87101400  1
  O  O29  1  0.38005400  0.95279000  0.37101400  1
  O  O30  1  0.04721000  0.38005400  0.62101400  1
  O  O31  1  0.95279000  0.61994600  0.12101400  1
  O  O32  1  0.62348600  0.14707600  0.67849900  1
  O  O33  1  0.37651400  0.85292400  0.17849900  1
  O  O34  1  0.14707600  0.37651400  0.42849900  1
  O  O35  1  0.85292400  0.62348600  0.92849900  1
  O  O36  1  0.83830500  0.28792600  0.81265100  1
  O  O37  1  0.16169500  0.71207400  0.31265100  1
  O  O38  1  0.28792600  0.16169500  0.56265100  1
  O  O39  1  0.71207400  0.83830500  0.06265100  1
  O  O40  1  0.20165900  0.64799500  0.80806700  1
  O  O41  1  0.79834100  0.35200500  0.30806700  1
  O  O42  1  0.64799500  0.79834100  0.55806700  1
  O  O43  1  0.35200500  0.20165900  0.05806700  1
  O  O44  1  0.51649000  0.65465200  0.79800500  1
  O  O45  1  0.48351000  0.34534800  0.29800500  1
  O  O46  1  0.65465200  0.48351000  0.54800500  1
  O  O47  1  0.34534800  0.51649000  0.04800500  1
  O  O48  1  0.06663500  0.75116500  0.57135500  1
  O  O49  1  0.93336500  0.24883500  0.07135500  1
  O  O50  1  0.75116500  0.93336500  0.32135500  1
  O  O51  1  0.24883500  0.06663500  0.82135500  1
