# generated using pymatgen
data_K4Th(S2O9)2
_symmetry_space_group_name_H-M   'P 1'
_cell_length_a   9.93495100
_cell_length_b   9.93706152
_cell_length_c   10.26420886
_cell_angle_alpha   117.64181300
_cell_angle_beta   89.56704866
_cell_angle_gamma   95.05827523
_symmetry_Int_Tables_number   1
_chemical_formula_structural   K4Th(S2O9)2
_chemical_formula_sum   'K8 Th2 S8 O36'
_cell_volume   893.53554216
_cell_formula_units_Z   2
loop_
 _symmetry_equiv_pos_site_id
 _symmetry_equiv_pos_as_xyz
  1  'x, y, z'
loop_
 _atom_site_type_symbol
 _atom_site_label
 _atom_site_symmetry_multiplicity
 _atom_site_fract_x
 _atom_site_fract_y
 _atom_site_fract_z
 _atom_site_occupancy
  K  K0  1  0.36515500  0.50406800  0.23527800  1
  K  K1  1  0.63484500  0.49593200  0.76472200  1
  K  K2  1  0.79292600  0.97796500  0.81821700  1
  K  K3  1  0.20707400  0.02203500  0.18178300  1
  K  K4  1  0.50000000  0.00000000  0.50000000  1
  K  K5  1  0.00000000  0.50000000  0.50000000  1
  K  K6  1  0.35148400  0.78072800  0.75262000  1
  K  K7  1  0.64851600  0.21927200  0.24738000  1
  Th  Th8  1  0.84044100  0.72313000  0.25837100  1
  Th  Th9  1  0.15955900  0.27687000  0.74162900  1
  S  S10  1  0.82404700  0.13774800  0.53036300  1
  S  S11  1  0.17595300  0.86225200  0.46963700  1
  S  S12  1  0.00847900  0.66425800  0.88506500  1
  S  S13  1  0.99152100  0.33574200  0.11493500  1
  S  S14  1  0.68809600  0.64168400  0.48748600  1
  S  S15  1  0.31190400  0.35831600  0.51251400  1
  S  S16  1  0.43928100  0.16866400  0.92485100  1
  S  S17  1  0.56071900  0.83133600  0.07514900  1
  O  O18  1  0.77537100  0.97017400  0.44367900  1
  O  O19  1  0.22462900  0.02982600  0.55632100  1
  O  O20  1  0.94609800  0.14928000  0.62512800  1
  O  O21  1  0.05390200  0.85072000  0.37487200  1
  O  O22  1  0.71583400  0.21533900  0.62661500  1
  O  O23  1  0.28416600  0.78466100  0.37338500  1
  O  O24  1  0.86572100  0.20078000  0.43062700  1
  O  O25  1  0.13427900  0.79922000  0.56937300  1
  O  O26  1  0.97060600  0.67416300  0.03531100  1
  O  O27  1  0.02939400  0.32583700  0.96468900  1
  O  O28  1  0.04939700  0.50440500  0.79549500  1
  O  O29  1  0.95060300  0.49559500  0.20450500  1
  O  O30  1  0.88973300  0.68128900  0.81297200  1
  O  O31  1  0.11026700  0.31871100  0.18702800  1
  O  O32  1  0.12332600  0.77677300  0.91000300  1
  O  O33  1  0.87667400  0.22322700  0.08999700  1
  O  O34  1  0.69509800  0.49696700  0.49299000  1
  O  O35  1  0.30490200  0.50303300  0.50701000  1
  O  O36  1  0.60479000  0.74661100  0.60139800  1
  O  O37  1  0.39521000  0.25338900  0.39860200  1
  O  O38  1  0.83087100  0.71710400  0.49863200  1
  O  O39  1  0.16912900  0.28289600  0.50136800  1
  O  O40  1  0.63750000  0.61176900  0.33531000  1
  O  O41  1  0.36250000  0.38823100  0.66469000  1
  O  O42  1  0.64799400  0.74756500  0.13499700  1
  O  O43  1  0.35200600  0.25243500  0.86500300  1
  O  O44  1  0.48888700  0.93498800  0.20447300  1
  O  O45  1  0.51111300  0.06501200  0.79552700  1
  O  O46  1  0.47011400  0.71405700  0.95699700  1
  O  O47  1  0.52988600  0.28594300  0.04300300  1
  O  O48  1  0.65388900  0.91606900  0.02057900  1
  O  O49  1  0.34611100  0.08393100  0.97942100  1
  O  O50  1  0.73533900  0.52306700  0.02841300  1
  O  O51  1  0.26466100  0.47693300  0.97158700  1
  O  O52  1  0.92880000  0.91624500  0.18542500  1
  O  O53  1  0.07120000  0.08375500  0.81457500  1
