# generated using pymatgen
data_Ca(BO4)3
_symmetry_space_group_name_H-M   'P 1'
_cell_length_a   12.82394700
_cell_length_b   8.58961600
_cell_length_c   11.13924572
_cell_angle_alpha   58.78957918
_cell_angle_beta   90.00000000
_cell_angle_gamma   90.00000000
_symmetry_Int_Tables_number   1
_chemical_formula_structural   Ca(BO4)3
_chemical_formula_sum   'Ca4 B12 O48'
_cell_volume   1049.43247787
_cell_formula_units_Z   4
loop_
 _symmetry_equiv_pos_site_id
 _symmetry_equiv_pos_as_xyz
  1  'x, y, z'
loop_
 _atom_site_type_symbol
 _atom_site_label
 _atom_site_symmetry_multiplicity
 _atom_site_fract_x
 _atom_site_fract_y
 _atom_site_fract_z
 _atom_site_occupancy
  Ca  Ca0  1  0.35687400  0.14073900  0.46999400  1
  Ca  Ca1  1  0.85687400  0.85926100  0.03000600  1
  Ca  Ca2  1  0.64312600  0.85926100  0.53000600  1
  Ca  Ca3  1  0.14312600  0.14073900  0.96999400  1
  B  B4  1  0.39518700  0.79393600  0.43684700  1
  B  B5  1  0.89518700  0.20606400  0.06315300  1
  B  B6  1  0.60481300  0.20606400  0.56315300  1
  B  B7  1  0.10481300  0.79393600  0.93684700  1
  B  B8  1  0.07150800  0.00924800  0.27588600  1
  B  B9  1  0.57150800  0.99075200  0.22411400  1
  B  B10  1  0.92849200  0.99075200  0.72411400  1
  B  B11  1  0.42849200  0.00924800  0.77588600  1
  B  B12  1  0.93409500  0.21521500  0.28152900  1
  B  B13  1  0.43409500  0.78478500  0.21847100  1
  B  B14  1  0.06590500  0.78478500  0.71847100  1
  B  B15  1  0.56590500  0.21521500  0.78152900  1
  O  O16  1  0.32621300  0.87631700  0.47810400  1
  O  O17  1  0.82621300  0.12368300  0.02189600  1
  O  O18  1  0.67378700  0.12368300  0.52189600  1
  O  O19  1  0.17378700  0.87631700  0.97810400  1
  O  O20  1  0.01507600  0.82453600  0.33052700  1
  O  O21  1  0.51507600  0.17546400  0.16947300  1
  O  O22  1  0.98492400  0.17546400  0.66947300  1
  O  O23  1  0.48492400  0.82453600  0.83052700  1
  O  O24  1  0.37435700  0.75701000  0.33109000  1
  O  O25  1  0.87435700  0.24299000  0.16891000  1
  O  O26  1  0.62564300  0.24299000  0.66891000  1
  O  O27  1  0.12564300  0.75701000  0.83109000  1
  O  O28  1  0.16549700  0.34186500  0.42162600  1
  O  O29  1  0.66549700  0.65813500  0.07837400  1
  O  O30  1  0.83450300  0.65813500  0.57837400  1
  O  O31  1  0.33450300  0.34186500  0.92162600  1
  O  O32  1  0.02056300  0.10237800  0.32882800  1
  O  O33  1  0.52056300  0.89762200  0.17117200  1
  O  O34  1  0.97943700  0.89762200  0.67117200  1
  O  O35  1  0.47943700  0.10237800  0.82882800  1
  O  O36  1  0.90586900  0.30049300  0.35039500  1
  O  O37  1  0.40586900  0.69950700  0.14960500  1
  O  O38  1  0.09413100  0.69950700  0.64960500  1
  O  O39  1  0.59413100  0.30049300  0.85039500  1
  O  O40  1  0.47091100  0.17805100  0.27609500  1
  O  O41  1  0.97091100  0.82194900  0.22390500  1
  O  O42  1  0.52908900  0.82194900  0.72390500  1
  O  O43  1  0.02908900  0.17805100  0.77609500  1
  O  O44  1  0.70278900  0.57786000  0.39442800  1
  O  O45  1  0.20278900  0.42214000  0.10557200  1
  O  O46  1  0.29721100  0.42214000  0.60557200  1
  O  O47  1  0.79721100  0.57786000  0.89442800  1
  O  O48  1  0.78254900  0.61186100  0.32356400  1
  O  O49  1  0.28254900  0.38813900  0.17643600  1
  O  O50  1  0.21745100  0.38813900  0.67643600  1
  O  O51  1  0.71745100  0.61186100  0.82356400  1
  O  O52  1  0.65197100  0.95192300  0.30475700  1
  O  O53  1  0.15197100  0.04807700  0.19524300  1
  O  O54  1  0.34802900  0.04807700  0.69524300  1
  O  O55  1  0.84802900  0.95192300  0.80475700  1
  O  O56  1  0.51280300  0.24651600  0.49330600  1
  O  O57  1  0.01280300  0.75348400  0.00669400  1
  O  O58  1  0.48719700  0.75348400  0.50669400  1
  O  O59  1  0.98719700  0.24651600  0.99330600  1
  O  O60  1  0.13960500  0.50285600  0.34691200  1
  O  O61  1  0.63960500  0.49714400  0.15308800  1
  O  O62  1  0.86039500  0.49714400  0.65308800  1
  O  O63  1  0.36039500  0.50285600  0.84691200  1
