# generated using pymatgen
data_Cs3P11(H3N)3
_symmetry_space_group_name_H-M   'P 1'
_cell_length_a   15.86668100
_cell_length_b   9.58776500
_cell_length_c   17.86254181
_cell_angle_alpha   58.91323820
_cell_angle_beta   90.00000000
_cell_angle_gamma   90.00000000
_symmetry_Int_Tables_number   1
_chemical_formula_structural   Cs3P11(H3N)3
_chemical_formula_sum   'Cs12 P44 H36 N12'
_cell_volume   2327.10776196
_cell_formula_units_Z   4
loop_
 _symmetry_equiv_pos_site_id
 _symmetry_equiv_pos_as_xyz
  1  'x, y, z'
loop_
 _atom_site_type_symbol
 _atom_site_label
 _atom_site_symmetry_multiplicity
 _atom_site_fract_x
 _atom_site_fract_y
 _atom_site_fract_z
 _atom_site_occupancy
  Cs  Cs0  1  0.21013000  0.51864400  0.14231000  1
  Cs  Cs1  1  0.28987000  0.51864400  0.64231000  1
  Cs  Cs2  1  0.78987000  0.48135600  0.85769000  1
  Cs  Cs3  1  0.71013000  0.48135600  0.35769000  1
  Cs  Cs4  1  0.39627900  0.30118200  0.45193100  1
  Cs  Cs5  1  0.10372100  0.30118200  0.95193100  1
  Cs  Cs6  1  0.60372100  0.69881800  0.54806900  1
  Cs  Cs7  1  0.89627900  0.69881800  0.04806900  1
  Cs  Cs8  1  0.13943000  0.96600900  0.43441400  1
  Cs  Cs9  1  0.36057000  0.96600900  0.93441400  1
  Cs  Cs10  1  0.86057000  0.03399100  0.56558600  1
  Cs  Cs11  1  0.63943000  0.03399100  0.06558600  1
  P  P12  1  0.09919800  0.73577200  0.90516700  1
  P  P13  1  0.40080200  0.73577200  0.40516700  1
  P  P14  1  0.90080200  0.26422800  0.09483300  1
  P  P15  1  0.59919800  0.26422800  0.59483300  1
  P  P16  1  0.22758600  0.04239000  0.74937000  1
  P  P17  1  0.27241400  0.04239000  0.24937000  1
  P  P18  1  0.77241400  0.95761000  0.25063000  1
  P  P19  1  0.72758600  0.95761000  0.75063000  1
  P  P20  1  0.99717700  0.67615400  0.75755900  1
  P  P21  1  0.50282300  0.67615400  0.25755900  1
  P  P22  1  0.00282300  0.32384600  0.24244100  1
  P  P23  1  0.49717700  0.32384600  0.74244100  1
  P  P24  1  0.08381200  0.04670500  0.62198800  1
  P  P25  1  0.41618800  0.04670500  0.12198800  1
  P  P26  1  0.91618800  0.95329500  0.37801200  1
  P  P27  1  0.58381200  0.95329500  0.87801200  1
  P  P28  1  0.11683500  0.12823000  0.79039900  1
  P  P29  1  0.38316500  0.12823000  0.29039900  1
  P  P30  1  0.88316500  0.87177000  0.20960100  1
  P  P31  1  0.61683500  0.87177000  0.70960100  1
  P  P32  1  0.20573300  0.15956200  0.60985600  1
  P  P33  1  0.29426700  0.15956200  0.10985600  1
  P  P34  1  0.79426700  0.84043800  0.39014400  1
  P  P35  1  0.70573300  0.84043800  0.89014400  1
  P  P36  1  0.11787900  0.78344100  0.69715900  1
  P  P37  1  0.38212100  0.78344100  0.19715900  1
  P  P38  1  0.88212100  0.21655900  0.30284100  1
  P  P39  1  0.61787900  0.21655900  0.80284100  1
  P  P40  1  0.19805300  0.77563700  0.80489900  1
  P  P41  1  0.30194700  0.77563700  0.30489900  1
  P  P42  1  0.80194700  0.22436300  0.19510100  1
  P  P43  1  0.69805300  0.22436300  0.69510100  1
  P  P44  1  0.98184700  0.80927300  0.82497200  1
  P  P45  1  0.51815300  0.80927300  0.32497200  1
  P  P46  1  0.01815300  0.19072700  0.17502800  1
  P  P47  1  0.48184700  0.19072700  0.67502800  1
  P  P48  1  0.11235600  0.93663100  0.92788600  1
  P  P49  1  0.38764400  0.93663100  0.42788600  1
  P  P50  1  0.88764400  0.06336900  0.07211400  1
  P  P51  1  0.61235600  0.06336900  0.57211400  1
  P  P52  1  0.01127600  0.07231100  0.72388500  1
  P  P53  1  0.48872400  0.07231100  0.22388500  1
  P  P54  1  0.98872400  0.92768900  0.27611500  1
  P  P55  1  0.51127600  0.92768900  0.77611500  1
  H  H56  1  0.12995200  0.45402000  0.35508500  1
  H  H57  1  0.37004800  0.45402000  0.85508500  1
  H  H58  1  0.87004800  0.54598000  0.64491500  1
  H  H59  1  0.62995200  0.54598000  0.14491500  1
  H  H60  1  0.16627400  0.30797300  0.44965800  1
  H  H61  1  0.33372600  0.30797300  0.94965800  1
  H  H62  1  0.83372600  0.69202700  0.55034200  1
  H  H63  1  0.66627400  0.69202700  0.05034200  1
  H  H64  1  0.19237900  0.31661500  0.35814600  1
  H  H65  1  0.30762100  0.31661500  0.85814600  1
  H  H66  1  0.80762100  0.68338500  0.64185400  1
  H  H67  1  0.69237900  0.68338500  0.14185400  1
  H  H68  1  0.17658900  0.88046400  0.14125100  1
  H  H69  1  0.32341100  0.88046400  0.64125100  1
  H  H70  1  0.82341100  0.11953600  0.85874900  1
  H  H71  1  0.67658900  0.11953600  0.35874900  1
  H  H72  1  0.10563000  0.78030700  0.21630000  1
  H  H73  1  0.39437000  0.78030700  0.71630000  1
  H  H74  1  0.89437000  0.21969300  0.78370000  1
  H  H75  1  0.60563000  0.21969300  0.28370000  1
  H  H76  1  0.08351800  0.84910300  0.11339900  1
  H  H77  1  0.41648200  0.84910300  0.61339900  1
  H  H78  1  0.91648200  0.15089700  0.88660100  1
  H  H79  1  0.58351800  0.15089700  0.38660100  1
  H  H80  1  0.05204300  0.63094400  0.48121200  1
  H  H81  1  0.44795700  0.63094400  0.98121200  1
  H  H82  1  0.94795700  0.36905600  0.51878800  1
  H  H83  1  0.55204300  0.36905600  0.01878800  1
  H  H84  1  0.12252000  0.48752500  0.53535800  1
  H  H85  1  0.37748000  0.48752500  0.03535800  1
  H  H86  1  0.87748000  0.51247500  0.46464200  1
  H  H87  1  0.62252000  0.51247500  0.96464200  1
  H  H88  1  0.06773000  0.56043100  0.58554200  1
  H  H89  1  0.43227000  0.56043100  0.08554200  1
  H  H90  1  0.93227000  0.43956900  0.41445800  1
  H  H91  1  0.56773000  0.43956900  0.91445800  1
  N  N92  1  0.12998500  0.79468100  0.15946300  1
  N  N93  1  0.37001500  0.79468100  0.65946300  1
  N  N94  1  0.87001500  0.20531900  0.84053700  1
  N  N95  1  0.62998500  0.20531900  0.34053700  1
  N  N96  1  0.18240000  0.38617000  0.38549900  1
  N  N97  1  0.31760000  0.38617000  0.88549900  1
  N  N98  1  0.81760000  0.61383000  0.61450100  1
  N  N99  1  0.68240000  0.61383000  0.11450100  1
  N  N100  1  0.09804200  0.59282000  0.52804800  1
  N  N101  1  0.40195800  0.59282000  0.02804800  1
  N  N102  1  0.90195800  0.40718000  0.47195200  1
  N  N103  1  0.59804200  0.40718000  0.97195200  1
