# generated using pymatgen
data_Zn(MoO6)2
_symmetry_space_group_name_H-M   'P 1'
_cell_length_a   6.23594397
_cell_length_b   8.36978154
_cell_length_c   19.31222500
_cell_angle_alpha   90.00000000
_cell_angle_beta   90.00000000
_cell_angle_gamma   93.84780550
_symmetry_Int_Tables_number   1
_chemical_formula_structural   Zn(MoO6)2
_chemical_formula_sum   'Zn4 Mo8 O48'
_cell_volume   1005.70025188
_cell_formula_units_Z   4
loop_
 _symmetry_equiv_pos_site_id
 _symmetry_equiv_pos_as_xyz
  1  'x, y, z'
loop_
 _atom_site_type_symbol
 _atom_site_label
 _atom_site_symmetry_multiplicity
 _atom_site_fract_x
 _atom_site_fract_y
 _atom_site_fract_z
 _atom_site_occupancy
  Zn  Zn0  1  0.36144300  0.51802800  0.55785300  1
  Zn  Zn1  1  0.63855700  0.98197200  0.05785300  1
  Zn  Zn2  1  0.63855700  0.48197200  0.44214700  1
  Zn  Zn3  1  0.36144300  0.01802800  0.94214700  1
  Mo  Mo4  1  0.07719800  0.13377000  0.57599900  1
  Mo  Mo5  1  0.92280200  0.36623000  0.07599900  1
  Mo  Mo6  1  0.92280200  0.86623000  0.42400100  1
  Mo  Mo7  1  0.07719800  0.63377000  0.92400100  1
  Mo  Mo8  1  0.61189900  0.93490000  0.57574400  1
  Mo  Mo9  1  0.38810100  0.56510000  0.07574400  1
  Mo  Mo10  1  0.38810100  0.06510000  0.42425600  1
  Mo  Mo11  1  0.61189900  0.43490000  0.92425600  1
  O  O12  1  0.16924900  0.34291500  0.58010900  1
  O  O13  1  0.83075100  0.15708500  0.08010900  1
  O  O14  1  0.83075100  0.65708500  0.41989100  1
  O  O15  1  0.16924900  0.84291500  0.91989100  1
  O  O16  1  0.36516400  0.04585400  0.54885400  1
  O  O17  1  0.63483600  0.45414600  0.04885400  1
  O  O18  1  0.63483600  0.95414600  0.45114600  1
  O  O19  1  0.36516400  0.54585400  0.95114600  1
  O  O20  1  0.91069500  0.89684900  0.54448200  1
  O  O21  1  0.08930500  0.60315100  0.04448200  1
  O  O22  1  0.08930500  0.10315100  0.45551800  1
  O  O23  1  0.91069500  0.39684900  0.95551800  1
  O  O24  1  0.78240800  0.16296200  0.56398900  1
  O  O25  1  0.21759200  0.33703800  0.06398900  1
  O  O26  1  0.21759200  0.83703800  0.43601100  1
  O  O27  1  0.78240800  0.66296200  0.93601100  1
  O  O28  1  0.09078500  0.07215500  0.66058800  1
  O  O29  1  0.90921500  0.42784500  0.16058800  1
  O  O30  1  0.90921500  0.92784500  0.33941200  1
  O  O31  1  0.09078500  0.57215500  0.83941200  1
  O  O32  1  0.63409600  0.94865300  0.66412800  1
  O  O33  1  0.36590400  0.55134700  0.16412800  1
  O  O34  1  0.36590400  0.05134700  0.33587200  1
  O  O35  1  0.63409600  0.44865300  0.83587200  1
  O  O36  1  0.49161500  0.73153100  0.56931900  1
  O  O37  1  0.50838500  0.76846900  0.06931900  1
  O  O38  1  0.50838500  0.26846900  0.43068100  1
  O  O39  1  0.49161500  0.23153100  0.93068100  1
  O  O40  1  0.44410800  0.57311500  0.71257100  1
  O  O41  1  0.55589200  0.92688500  0.21257100  1
  O  O42  1  0.55589200  0.42688500  0.28742900  1
  O  O43  1  0.44410800  0.07311500  0.78742900  1
  O  O44  1  0.65493800  0.43756000  0.54412800  1
  O  O45  1  0.34506200  0.06244000  0.04412800  1
  O  O46  1  0.34506200  0.56244000  0.45587200  1
  O  O47  1  0.65493800  0.93756000  0.95587200  1
  O  O48  1  0.00928400  0.67768300  0.63836900  1
  O  O49  1  0.99071600  0.82231700  0.13836900  1
  O  O50  1  0.99071600  0.32231700  0.36163100  1
  O  O51  1  0.00928400  0.17768300  0.86163100  1
  O  O52  1  0.48470500  0.68813600  0.75070700  1
  O  O53  1  0.51529500  0.81186400  0.25070700  1
  O  O54  1  0.51529500  0.31186400  0.24929300  1
  O  O55  1  0.48470500  0.18813600  0.74929300  1
  O  O56  1  0.02635600  0.73293500  0.69692200  1
  O  O57  1  0.97364400  0.76706500  0.19692200  1
  O  O58  1  0.97364400  0.26706500  0.30307800  1
  O  O59  1  0.02635600  0.23293500  0.80307800  1
