# generated using pymatgen
data_K2FeF5
_symmetry_space_group_name_H-M   'P 1'
_cell_length_a   5.78032600
_cell_length_b   7.48993500
_cell_length_c   11.74260600
_cell_angle_alpha   90.00000000
_cell_angle_beta   90.00000000
_cell_angle_gamma   90.00000000
_symmetry_Int_Tables_number   1
_chemical_formula_structural   K2FeF5
_chemical_formula_sum   'K8 Fe4 F20'
_cell_volume   508.38750792
_cell_formula_units_Z   4
loop_
 _symmetry_equiv_pos_site_id
 _symmetry_equiv_pos_as_xyz
  1  'x, y, z'
loop_
 _atom_site_type_symbol
 _atom_site_label
 _atom_site_symmetry_multiplicity
 _atom_site_fract_x
 _atom_site_fract_y
 _atom_site_fract_z
 _atom_site_occupancy
  K  K0  1  0.25000000  0.15693500  0.58506400  1
  K  K1  1  0.25000000  0.65693500  0.91493600  1
  K  K2  1  0.75000000  0.84306500  0.41493600  1
  K  K3  1  0.75000000  0.34306500  0.08506400  1
  K  K4  1  0.25000000  0.48866100  0.27226700  1
  K  K5  1  0.25000000  0.98866100  0.22773300  1
  K  K6  1  0.75000000  0.51133900  0.72773300  1
  K  K7  1  0.75000000  0.01133900  0.77226700  1
  Fe  Fe8  1  0.25000000  0.66999200  0.56138100  1
  Fe  Fe9  1  0.25000000  0.16999200  0.93861900  1
  Fe  Fe10  1  0.75000000  0.33000800  0.43861900  1
  Fe  Fe11  1  0.75000000  0.83000800  0.06138100  1
  F  F12  1  0.00000000  0.50000000  0.50000000  1
  F  F13  1  0.50000000  0.00000000  0.00000000  1
  F  F14  1  0.50000000  0.50000000  0.50000000  1
  F  F15  1  0.00000000  0.00000000  0.00000000  1
  F  F16  1  0.25000000  0.52558300  0.69581000  1
  F  F17  1  0.25000000  0.02558300  0.80419000  1
  F  F18  1  0.75000000  0.47441700  0.30419000  1
  F  F19  1  0.75000000  0.97441700  0.19581000  1
  F  F20  1  0.25000000  0.77817000  0.40952000  1
  F  F21  1  0.25000000  0.27817000  0.09048000  1
  F  F22  1  0.75000000  0.22183000  0.59048000  1
  F  F23  1  0.75000000  0.72183000  0.90952000  1
  F  F24  1  0.00840400  0.82424200  0.61304600  1
  F  F25  1  0.49159600  0.32424200  0.88695400  1
  F  F26  1  0.50840400  0.17575800  0.38695400  1
  F  F27  1  0.99159600  0.67575800  0.11304600  1
  F  F28  1  0.99159600  0.17575800  0.38695400  1
  F  F29  1  0.50840400  0.67575800  0.11304600  1
  F  F30  1  0.49159600  0.82424200  0.61304600  1
  F  F31  1  0.00840400  0.32424200  0.88695400  1
