# generated using pymatgen
data_Ho11(Ni10C)6
_symmetry_space_group_name_H-M   'P 1'
_cell_length_a   10.77325383
_cell_length_b   10.77325383
_cell_length_c   10.77325383
_cell_angle_alpha   109.47122063
_cell_angle_beta   109.47122063
_cell_angle_gamma   109.47122063
_symmetry_Int_Tables_number   1
_chemical_formula_structural   Ho11(Ni10C)6
_chemical_formula_sum   'Ho11 Ni60 C6'
_cell_volume   962.54000087
_cell_formula_units_Z   1
loop_
 _symmetry_equiv_pos_site_id
 _symmetry_equiv_pos_as_xyz
  1  'x, y, z'
loop_
 _atom_site_type_symbol
 _atom_site_label
 _atom_site_symmetry_multiplicity
 _atom_site_fract_x
 _atom_site_fract_y
 _atom_site_fract_z
 _atom_site_occupancy
  Ho  Ho0  1  0.00000000  0.00000000  0.33735300  1
  Ho  Ho1  1  0.00000000  0.33735300  0.00000000  1
  Ho  Ho2  1  0.33735300  0.00000000  0.00000000  1
  Ho  Ho3  1  0.66264700  0.66264700  0.66264700  1
  Ho  Ho4  1  0.00000000  0.00000000  0.66264700  1
  Ho  Ho5  1  0.00000000  0.66264700  0.00000000  1
  Ho  Ho6  1  0.66264700  0.00000000  0.00000000  1
  Ho  Ho7  1  0.33735300  0.33735300  0.33735300  1
  Ho  Ho8  1  0.50000000  0.50000000  0.00000000  1
  Ho  Ho9  1  0.50000000  0.00000000  0.50000000  1
  Ho  Ho10  1  0.00000000  0.50000000  0.50000000  1
  Ni  Ni11  1  0.00000000  0.76695700  0.41875400  1
  Ni  Ni12  1  0.23304300  0.23304300  0.65179700  1
  Ni  Ni13  1  0.76695700  0.00000000  0.41875400  1
  Ni  Ni14  1  0.00000000  0.41875400  0.76695700  1
  Ni  Ni15  1  0.76695700  0.41875400  0.00000000  1
  Ni  Ni16  1  0.23304300  0.65179700  0.23304300  1
  Ni  Ni17  1  0.65179700  0.23304300  0.23304300  1
  Ni  Ni18  1  0.41875400  0.76695700  0.00000000  1
  Ni  Ni19  1  0.41875400  0.00000000  0.76695700  1
  Ni  Ni20  1  0.34820300  0.58124600  0.58124600  1
  Ni  Ni21  1  0.58124600  0.58124600  0.34820300  1
  Ni  Ni22  1  0.58124600  0.34820300  0.58124600  1
  Ni  Ni23  1  0.00000000  0.23304300  0.58124600  1
  Ni  Ni24  1  0.76695700  0.76695700  0.34820300  1
  Ni  Ni25  1  0.23304300  0.00000000  0.58124600  1
  Ni  Ni26  1  0.00000000  0.58124600  0.23304300  1
  Ni  Ni27  1  0.23304300  0.58124600  0.00000000  1
  Ni  Ni28  1  0.76695700  0.34820300  0.76695700  1
  Ni  Ni29  1  0.34820300  0.76695700  0.76695700  1
  Ni  Ni30  1  0.58124600  0.23304300  0.00000000  1
  Ni  Ni31  1  0.58124600  0.00000000  0.23304300  1
  Ni  Ni32  1  0.65179700  0.41875400  0.41875400  1
  Ni  Ni33  1  0.41875400  0.41875400  0.65179700  1
  Ni  Ni34  1  0.41875400  0.65179700  0.41875400  1
  Ni  Ni35  1  0.14803400  0.31965800  0.46769300  1
  Ni  Ni36  1  0.68034200  0.82837600  0.14803400  1
  Ni  Ni37  1  0.17162400  0.85196600  0.31965800  1
  Ni  Ni38  1  0.85196600  0.17162400  0.31965800  1
  Ni  Ni39  1  0.31965800  0.14803400  0.46769300  1
  Ni  Ni40  1  0.82837600  0.68034200  0.14803400  1
  Ni  Ni41  1  0.85196600  0.31965800  0.17162400  1
  Ni  Ni42  1  0.31965800  0.46769300  0.14803400  1
  Ni  Ni43  1  0.82837600  0.14803400  0.68034200  1
  Ni  Ni44  1  0.14803400  0.46769300  0.31965800  1
  Ni  Ni45  1  0.68034200  0.14803400  0.82837600  1
  Ni  Ni46  1  0.17162400  0.31965800  0.85196600  1
  Ni  Ni47  1  0.14803400  0.68034200  0.82837600  1
  Ni  Ni48  1  0.31965800  0.17162400  0.85196600  1
  Ni  Ni49  1  0.46769300  0.14803400  0.31965800  1
  Ni  Ni50  1  0.14803400  0.82837600  0.68034200  1
  Ni  Ni51  1  0.31965800  0.85196600  0.17162400  1
  Ni  Ni52  1  0.46769300  0.31965800  0.14803400  1
  Ni  Ni53  1  0.85196600  0.68034200  0.53230700  1
  Ni  Ni54  1  0.68034200  0.53230700  0.85196600  1
  Ni  Ni55  1  0.53230700  0.85196600  0.68034200  1
  Ni  Ni56  1  0.85196600  0.53230700  0.68034200  1
  Ni  Ni57  1  0.68034200  0.85196600  0.53230700  1
  Ni  Ni58  1  0.53230700  0.68034200  0.85196600  1
  Ni  Ni59  1  0.85696000  0.85696000  0.00000000  1
  Ni  Ni60  1  0.14304000  0.00000000  0.14304000  1
  Ni  Ni61  1  0.00000000  0.14304000  0.14304000  1
  Ni  Ni62  1  0.14304000  0.14304000  0.00000000  1
  Ni  Ni63  1  0.85696000  0.00000000  0.85696000  1
  Ni  Ni64  1  0.00000000  0.85696000  0.85696000  1
  Ni  Ni65  1  0.75000000  0.25000000  0.50000000  1
  Ni  Ni66  1  0.75000000  0.50000000  0.25000000  1
  Ni  Ni67  1  0.50000000  0.25000000  0.75000000  1
  Ni  Ni68  1  0.25000000  0.50000000  0.75000000  1
  Ni  Ni69  1  0.25000000  0.75000000  0.50000000  1
  Ni  Ni70  1  0.50000000  0.75000000  0.25000000  1
  C  C71  1  0.70955800  0.70955800  0.00000000  1
  C  C72  1  0.29044200  0.00000000  0.29044200  1
  C  C73  1  0.00000000  0.29044200  0.29044200  1
  C  C74  1  0.29044200  0.29044200  0.00000000  1
  C  C75  1  0.70955800  0.00000000  0.70955800  1
  C  C76  1  0.00000000  0.70955800  0.70955800  1
