# generated using pymatgen
data_LiMnP3(H5O7)2
_symmetry_space_group_name_H-M   'P 1'
_cell_length_a   7.30586791
_cell_length_b   10.04432963
_cell_length_c   10.07727871
_cell_angle_alpha   61.58293775
_cell_angle_beta   70.66106546
_cell_angle_gamma   86.28449457
_symmetry_Int_Tables_number   1
_chemical_formula_structural   LiMnP3(H5O7)2
_chemical_formula_sum   'Li2 Mn2 P6 H20 O28'
_cell_volume   609.84632641
_cell_formula_units_Z   2
loop_
 _symmetry_equiv_pos_site_id
 _symmetry_equiv_pos_as_xyz
  1  'x, y, z'
loop_
 _atom_site_type_symbol
 _atom_site_label
 _atom_site_symmetry_multiplicity
 _atom_site_fract_x
 _atom_site_fract_y
 _atom_site_fract_z
 _atom_site_occupancy
  Li  Li0  1  0.12778500  0.32032500  0.31986800  1
  Li  Li1  1  0.87221500  0.67967500  0.68013200  1
  Mn  Mn2  1  0.44244200  0.28791500  0.80593300  1
  Mn  Mn3  1  0.55755800  0.71208500  0.19406700  1
  P  P4  1  0.99133700  0.86249700  0.84359500  1
  P  P5  1  0.00866300  0.13750300  0.15640500  1
  P  P6  1  0.83195700  0.32294400  0.90192000  1
  P  P7  1  0.16804300  0.67705600  0.09808000  1
  P  P8  1  0.91165100  0.79973900  0.30691500  1
  P  P9  1  0.08834900  0.20026100  0.69308500  1
  H  H10  1  0.51934300  0.69455600  0.87138600  1
  H  H11  1  0.48065700  0.30544400  0.12861400  1
  H  H12  1  0.57282400  0.80794400  0.68719200  1
  H  H13  1  0.42717600  0.19205600  0.31280800  1
  H  H14  1  0.79968400  0.96143500  0.61821000  1
  H  H15  1  0.20031600  0.03856500  0.38179000  1
  H  H16  1  0.24077700  0.91775100  0.53071300  1
  H  H17  1  0.75922300  0.08224900  0.46928700  1
  H  H18  1  0.70689000  0.51124500  0.49635800  1
  H  H19  1  0.29311000  0.48875500  0.50364200  1
  H  H20  1  0.18689300  0.64102600  0.44231600  1
  H  H21  1  0.81310700  0.35897400  0.55768400  1
  H  H22  1  0.80305800  0.48330800  0.21766100  1
  H  H23  1  0.19694200  0.51669200  0.78233900  1
  H  H24  1  0.40566900  0.58251500  0.77204600  1
  H  H25  1  0.59433100  0.41748500  0.22795400  1
  H  H26  1  0.37296900  0.98583600  0.11776900  1
  H  H27  1  0.62703100  0.01416400  0.88223100  1
  H  H28  1  0.42149600  0.93857900  0.27394100  1
  H  H29  1  0.57850400  0.06142100  0.72605900  1
  O  O30  1  0.12005800  0.02238000  0.77292200  1
  O  O31  1  0.87994200  0.97762000  0.22707800  1
  O  O32  1  0.87061400  0.25341600  0.07131100  1
  O  O33  1  0.12938600  0.74658400  0.92868900  1
  O  O34  1  0.00377600  0.16120700  0.29463000  1
  O  O35  1  0.99622400  0.83879300  0.70537000  1
  O  O36  1  0.20393700  0.14643300  0.03831200  1
  O  O37  1  0.79606300  0.85356700  0.96168800  1
  O  O38  1  0.05195200  0.52340000  0.20910600  1
  O  O39  1  0.94804800  0.47660000  0.79089400  1
  O  O40  1  0.61336400  0.30996600  0.94495200  1
  O  O41  1  0.38663600  0.69003400  0.05504800  1
  O  O42  1  0.27125600  0.28747900  0.66141900  1
  O  O43  1  0.72874400  0.71252100  0.33858100  1
  O  O44  1  0.01701700  0.24480200  0.55537100  1
  O  O45  1  0.98298300  0.75519800  0.44462900  1
  O  O46  1  0.91143300  0.20038600  0.84196700  1
  O  O47  1  0.08856700  0.79961400  0.15803300  1
  O  O48  1  0.57558800  0.70039600  0.76370200  1
  O  O49  1  0.42441200  0.29960400  0.23629800  1
  O  O50  1  0.31042400  0.99406900  0.41820900  1
  O  O51  1  0.68957600  0.00593100  0.58179100  1
  O  O52  1  0.69599200  0.40794100  0.58644800  1
  O  O53  1  0.30400800  0.59205900  0.41355200  1
  O  O54  1  0.66807800  0.50158400  0.22128300  1
  O  O55  1  0.33192200  0.49841600  0.77871700  1
  O  O56  1  0.45998900  0.92695900  0.17588100  1
  O  O57  1  0.54001100  0.07304100  0.82411900  1
