# generated using pymatgen
data_CsMnN9
_symmetry_space_group_name_H-M   'P 1'
_cell_length_a   7.78462900
_cell_length_b   6.52570900
_cell_length_c   16.11571991
_cell_angle_alpha   70.76937439
_cell_angle_beta   90.00000000
_cell_angle_gamma   90.00000000
_symmetry_Int_Tables_number   1
_chemical_formula_structural   CsMnN9
_chemical_formula_sum   'Cs4 Mn4 N36'
_cell_volume   773.00007729
_cell_formula_units_Z   4
loop_
 _symmetry_equiv_pos_site_id
 _symmetry_equiv_pos_as_xyz
  1  'x, y, z'
loop_
 _atom_site_type_symbol
 _atom_site_label
 _atom_site_symmetry_multiplicity
 _atom_site_fract_x
 _atom_site_fract_y
 _atom_site_fract_z
 _atom_site_occupancy
  Cs  Cs0  1  0.60366900  0.06683100  0.14705700  1
  Cs  Cs1  1  0.89633100  0.06683100  0.64705700  1
  Cs  Cs2  1  0.39633100  0.93316900  0.85294300  1
  Cs  Cs3  1  0.10366900  0.93316900  0.35294300  1
  Mn  Mn4  1  0.06229600  0.43990400  0.10920400  1
  Mn  Mn5  1  0.43770400  0.43990400  0.60920400  1
  Mn  Mn6  1  0.93770400  0.56009600  0.89079600  1
  Mn  Mn7  1  0.56229600  0.56009600  0.39079600  1
  N  N8  1  0.82202500  0.50567900  0.02240200  1
  N  N9  1  0.67797500  0.50567900  0.52240200  1
  N  N10  1  0.17797500  0.49432100  0.97759800  1
  N  N11  1  0.32202500  0.49432100  0.47759800  1
  N  N12  1  0.70600000  0.61474600  0.03457100  1
  N  N13  1  0.79400000  0.61474600  0.53457100  1
  N  N14  1  0.29400000  0.38525400  0.96542900  1
  N  N15  1  0.20600000  0.38525400  0.46542900  1
  N  N16  1  0.59289100  0.71968100  0.04685700  1
  N  N17  1  0.90710900  0.71968100  0.54685700  1
  N  N18  1  0.40710900  0.28031900  0.95314300  1
  N  N19  1  0.09289100  0.28031900  0.45314300  1
  N  N20  1  0.89158200  0.38013600  0.22808100  1
  N  N21  1  0.60841800  0.38013600  0.72808100  1
  N  N22  1  0.10841800  0.61986400  0.77191900  1
  N  N23  1  0.39158200  0.61986400  0.27191900  1
  N  N24  1  0.84407500  0.49769400  0.26597300  1
  N  N25  1  0.65592500  0.49769400  0.76597300  1
  N  N26  1  0.15592500  0.50230600  0.73402700  1
  N  N27  1  0.34407500  0.50230600  0.23402700  1
  N  N28  1  0.79583300  0.61454400  0.30410200  1
  N  N29  1  0.70416700  0.61454400  0.80410200  1
  N  N30  1  0.20416700  0.38545600  0.69589800  1
  N  N31  1  0.29583300  0.38545600  0.19589800  1
  N  N32  1  0.05744200  0.08960600  0.13748600  1
  N  N33  1  0.44255800  0.08960600  0.63748600  1
  N  N34  1  0.94255800  0.91039400  0.86251400  1
  N  N35  1  0.55744200  0.91039400  0.36251400  1
  N  N36  1  0.06726500  0.93730900  0.11300100  1
  N  N37  1  0.43273500  0.93730900  0.61300100  1
  N  N38  1  0.93273500  0.06269100  0.88699900  1
  N  N39  1  0.56726500  0.06269100  0.38699900  1
  N  N40  1  0.07681900  0.78472300  0.08942700  1
  N  N41  1  0.42318100  0.78472300  0.58942700  1
  N  N42  1  0.92318100  0.21527700  0.91057300  1
  N  N43  1  0.57681900  0.21527700  0.41057300  1
