# generated using pymatgen
data_CsMoS(ClO)2
_symmetry_space_group_name_H-M   'P 1'
_cell_length_a   21.15812800
_cell_length_b   7.62247900
_cell_length_c   10.71794791
_cell_angle_alpha   85.25451157
_cell_angle_beta   90.00000000
_cell_angle_gamma   90.00000000
_symmetry_Int_Tables_number   1
_chemical_formula_structural   CsMoS(ClO)2
_chemical_formula_sum   'Cs8 Mo8 S8 Cl16 O16'
_cell_volume   1722.63714812
_cell_formula_units_Z   8
loop_
 _symmetry_equiv_pos_site_id
 _symmetry_equiv_pos_as_xyz
  1  'x, y, z'
loop_
 _atom_site_type_symbol
 _atom_site_label
 _atom_site_symmetry_multiplicity
 _atom_site_fract_x
 _atom_site_fract_y
 _atom_site_fract_z
 _atom_site_occupancy
  Cs  Cs0  1  0.92986500  0.79797800  0.51387500  1
  Cs  Cs1  1  0.42986500  0.20202200  0.98612500  1
  Cs  Cs2  1  0.07013500  0.20202200  0.48612500  1
  Cs  Cs3  1  0.57013500  0.79797800  0.01387500  1
  Cs  Cs4  1  0.70131400  0.40254500  0.78054800  1
  Cs  Cs5  1  0.20131400  0.59745500  0.71945200  1
  Cs  Cs6  1  0.29868600  0.59745500  0.21945200  1
  Cs  Cs7  1  0.79868600  0.40254500  0.28054800  1
  Mo  Mo8  1  0.92004300  0.25555500  0.76960300  1
  Mo  Mo9  1  0.42004300  0.74444500  0.73039700  1
  Mo  Mo10  1  0.07995700  0.74444500  0.23039700  1
  Mo  Mo11  1  0.57995700  0.25555500  0.26960300  1
  Mo  Mo12  1  0.82343500  0.99254000  0.01697500  1
  Mo  Mo13  1  0.32343500  0.00746000  0.48302500  1
  Mo  Mo14  1  0.17656500  0.00746000  0.98302500  1
  Mo  Mo15  1  0.67656500  0.99254000  0.51697500  1
  S  S16  1  0.84889900  0.83047000  0.83645900  1
  S  S17  1  0.34889900  0.16953000  0.66354100  1
  S  S18  1  0.15110100  0.16953000  0.16354100  1
  S  S19  1  0.65110100  0.83047000  0.33645900  1
  S  S20  1  0.58021300  0.17793800  0.48392200  1
  S  S21  1  0.08021300  0.82206200  0.01607800  1
  S  S22  1  0.41978700  0.82206200  0.51607800  1
  S  S23  1  0.91978700  0.17793800  0.98392200  1
  Cl  Cl24  1  0.92020100  0.35970700  0.50980700  1
  Cl  Cl25  1  0.42020100  0.64029300  0.99019300  1
  Cl  Cl26  1  0.07979900  0.64029300  0.49019300  1
  Cl  Cl27  1  0.57979900  0.35970700  0.00980700  1
  Cl  Cl28  1  0.64934000  0.94140400  0.73326000  1
  Cl  Cl29  1  0.14934000  0.05859600  0.76674000  1
  Cl  Cl30  1  0.35066000  0.05859600  0.26674000  1
  Cl  Cl31  1  0.85066000  0.94140400  0.23326000  1
  Cl  Cl32  1  0.75587700  0.75449600  0.54759100  1
  Cl  Cl33  1  0.25587700  0.24550400  0.95240900  1
  Cl  Cl34  1  0.24412300  0.24550400  0.45240900  1
  Cl  Cl35  1  0.74412300  0.75449600  0.04759100  1
  Cl  Cl36  1  0.49759700  0.52934200  0.72348500  1
  Cl  Cl37  1  0.99759700  0.47065800  0.77651500  1
  Cl  Cl38  1  0.50240300  0.47065800  0.27651500  1
  Cl  Cl39  1  0.00240300  0.52934200  0.22348500  1
  O  O40  1  0.88724200  0.77645200  0.96004500  1
  O  O41  1  0.38724200  0.22354800  0.53995500  1
  O  O42  1  0.11275800  0.22354800  0.03995500  1
  O  O43  1  0.61275800  0.77645200  0.46004500  1
  O  O44  1  0.84088300  0.30415600  0.74423900  1
  O  O45  1  0.34088300  0.69584400  0.75576100  1
  O  O46  1  0.15911700  0.69584400  0.25576100  1
  O  O47  1  0.65911700  0.30415600  0.24423900  1
  O  O48  1  0.94250300  0.05892400  0.70896200  1
  O  O49  1  0.44250300  0.94107600  0.79103800  1
  O  O50  1  0.05749700  0.94107600  0.29103800  1
  O  O51  1  0.55749700  0.05892400  0.20896200  1
  O  O52  1  0.72918500  0.16551400  0.49523700  1
  O  O53  1  0.22918500  0.83448600  0.00476300  1
  O  O54  1  0.27081500  0.83448600  0.50476300  1
  O  O55  1  0.77081500  0.16551400  0.99523700  1
