# generated using pymatgen
data_CaP3NO9
_symmetry_space_group_name_H-M   'P 1'
_cell_length_a   10.28539700
_cell_length_b   7.55274200
_cell_length_c   14.68110126
_cell_angle_alpha   59.21914964
_cell_angle_beta   90.00000000
_cell_angle_gamma   90.00000000
_symmetry_Int_Tables_number   1
_chemical_formula_structural   CaP3NO9
_chemical_formula_sum   'Ca4 P12 N4 O36'
_cell_volume   979.81419268
_cell_formula_units_Z   4
loop_
 _symmetry_equiv_pos_site_id
 _symmetry_equiv_pos_as_xyz
  1  'x, y, z'
loop_
 _atom_site_type_symbol
 _atom_site_label
 _atom_site_symmetry_multiplicity
 _atom_site_fract_x
 _atom_site_fract_y
 _atom_site_fract_z
 _atom_site_occupancy
  Ca  Ca0  1  0.01330700  0.52452700  0.21858600  1
  Ca  Ca1  1  0.51330700  0.47547300  0.28141400  1
  Ca  Ca2  1  0.98669300  0.47547300  0.78141400  1
  Ca  Ca3  1  0.48669300  0.52452700  0.71858600  1
  P  P4  1  0.74994400  0.90381000  0.66345500  1
  P  P5  1  0.24994400  0.09619000  0.83654500  1
  P  P6  1  0.25005600  0.09619000  0.33654500  1
  P  P7  1  0.75005600  0.90381000  0.16345500  1
  P  P8  1  0.74957200  0.32782300  0.63239800  1
  P  P9  1  0.24957200  0.67217700  0.86760200  1
  P  P10  1  0.25042800  0.67217700  0.36760200  1
  P  P11  1  0.75042800  0.32782300  0.13239800  1
  P  P12  1  0.78685100  0.26112800  0.45519000  1
  P  P13  1  0.28685100  0.73887200  0.04481000  1
  P  P14  1  0.21314900  0.73887200  0.54481000  1
  P  P15  1  0.71314900  0.26112800  0.95519000  1
  N  N16  1  0.40886800  0.14197900  0.58434500  1
  N  N17  1  0.90886800  0.85802100  0.91565500  1
  N  N18  1  0.59113200  0.85802100  0.41565500  1
  N  N19  1  0.09113200  0.14197900  0.08434500  1
  O  O20  1  0.81990200  0.02655300  0.54934100  1
  O  O21  1  0.31990200  0.97344700  0.95065900  1
  O  O22  1  0.18009800  0.97344700  0.45065900  1
  O  O23  1  0.68009800  0.02655300  0.04934100  1
  O  O24  1  0.71913200  0.08288400  0.68928600  1
  O  O25  1  0.21913200  0.91711600  0.81071400  1
  O  O26  1  0.28086800  0.91711600  0.31071400  1
  O  O27  1  0.78086800  0.08288400  0.18928600  1
  O  O28  1  0.80819200  0.38342800  0.51912600  1
  O  O29  1  0.30819200  0.61657200  0.98087400  1
  O  O30  1  0.19180800  0.61657200  0.48087400  1
  O  O31  1  0.69180800  0.38342800  0.01912600  1
  O  O32  1  0.84614200  0.75479000  0.74248100  1
  O  O33  1  0.34614200  0.24521000  0.75751900  1
  O  O34  1  0.15385800  0.24521000  0.25751900  1
  O  O35  1  0.65385800  0.75479000  0.24248100  1
  O  O36  1  0.62286600  0.81173900  0.65801300  1
  O  O37  1  0.12286600  0.18826100  0.84198700  1
  O  O38  1  0.37713400  0.18826100  0.34198700  1
  O  O39  1  0.87713400  0.81173900  0.15801300  1
  O  O40  1  0.85371900  0.36173900  0.69280800  1
  O  O41  1  0.35371900  0.63826100  0.80719200  1
  O  O42  1  0.14628100  0.63826100  0.30719200  1
  O  O43  1  0.64628100  0.36173900  0.19280800  1
  O  O44  1  0.62245700  0.43484400  0.61974100  1
  O  O45  1  0.12245700  0.56515600  0.88025900  1
  O  O46  1  0.37754300  0.56515600  0.38025900  1
  O  O47  1  0.87754300  0.43484400  0.11974100  1
  O  O48  1  0.64624300  0.27442500  0.42646200  1
  O  O49  1  0.14624300  0.72557500  0.07353800  1
  O  O50  1  0.35375700  0.72557500  0.57353800  1
  O  O51  1  0.85375700  0.27442500  0.92646200  1
  O  O52  1  0.88936200  0.32780600  0.37259200  1
  O  O53  1  0.38936200  0.67219400  0.12740800  1
  O  O54  1  0.11063800  0.67219400  0.62740800  1
  O  O55  1  0.61063800  0.32780600  0.87259200  1
