# generated using pymatgen
data_Os2Xe(O3F5)2
_symmetry_space_group_name_H-M   'P 1'
_cell_length_a   7.84387000
_cell_length_b   11.83770500
_cell_length_c   13.17169100
_cell_angle_alpha   90.00000000
_cell_angle_beta   90.00000000
_cell_angle_gamma   90.00000000
_symmetry_Int_Tables_number   1
_chemical_formula_structural   Os2Xe(O3F5)2
_chemical_formula_sum   'Os8 Xe4 O24 F40'
_cell_volume   1223.03654492
_cell_formula_units_Z   4
loop_
 _symmetry_equiv_pos_site_id
 _symmetry_equiv_pos_as_xyz
  1  'x, y, z'
loop_
 _atom_site_type_symbol
 _atom_site_label
 _atom_site_symmetry_multiplicity
 _atom_site_fract_x
 _atom_site_fract_y
 _atom_site_fract_z
 _atom_site_occupancy
  Os  Os0  1  0.00846600  0.57041500  0.17666500  1
  Os  Os1  1  0.49153400  0.92958500  0.67666500  1
  Os  Os2  1  0.99153400  0.07041500  0.82333500  1
  Os  Os3  1  0.50846600  0.42958500  0.32333500  1
  Os  Os4  1  0.99153400  0.42958500  0.82333500  1
  Os  Os5  1  0.50846600  0.07041500  0.32333500  1
  Os  Os6  1  0.00846600  0.92958500  0.17666500  1
  Os  Os7  1  0.49153400  0.57041500  0.67666500  1
  Xe  Xe8  1  0.63307500  0.75000000  0.05265900  1
  Xe  Xe9  1  0.86692500  0.75000000  0.55265900  1
  Xe  Xe10  1  0.36692500  0.25000000  0.94734100  1
  Xe  Xe11  1  0.13307500  0.25000000  0.44734100  1
  O  O12  1  0.92628700  0.43747700  0.16106700  1
  O  O13  1  0.57371300  0.06252300  0.66106700  1
  O  O14  1  0.07371300  0.93747700  0.83893300  1
  O  O15  1  0.42628700  0.56252300  0.33893300  1
  O  O16  1  0.07371300  0.56252300  0.83893300  1
  O  O17  1  0.42628700  0.93747700  0.33893300  1
  O  O18  1  0.92628700  0.06252300  0.16106700  1
  O  O19  1  0.57371300  0.43747700  0.66106700  1
  O  O20  1  0.04825000  0.57484500  0.30444700  1
  O  O21  1  0.45175000  0.92515500  0.80444700  1
  O  O22  1  0.95175000  0.07484500  0.69555300  1
  O  O23  1  0.54825000  0.42515500  0.19555300  1
  O  O24  1  0.95175000  0.42515500  0.69555300  1
  O  O25  1  0.54825000  0.07484500  0.19555300  1
  O  O26  1  0.04825000  0.92515500  0.30444700  1
  O  O27  1  0.45175000  0.57484500  0.80444700  1
  O  O28  1  0.20881800  0.55709800  0.12534700  1
  O  O29  1  0.29118200  0.94290200  0.62534700  1
  O  O30  1  0.79118200  0.05709800  0.87465300  1
  O  O31  1  0.70881800  0.44290200  0.37465300  1
  O  O32  1  0.79118200  0.44290200  0.87465300  1
  O  O33  1  0.70881800  0.05709800  0.37465300  1
  O  O34  1  0.20881800  0.94290200  0.12534700  1
  O  O35  1  0.29118200  0.55709800  0.62534700  1
  F  F36  1  0.06484400  0.75000000  0.18329000  1
  F  F37  1  0.43515600  0.75000000  0.68329000  1
  F  F38  1  0.93515600  0.25000000  0.81671000  1
  F  F39  1  0.56484400  0.25000000  0.31671000  1
  F  F40  1  0.47378800  0.75000000  0.17003900  1
  F  F41  1  0.02621200  0.75000000  0.67003900  1
  F  F42  1  0.52621200  0.25000000  0.82996100  1
  F  F43  1  0.97378800  0.25000000  0.32996100  1
  F  F44  1  0.41119400  0.75000000  0.98128200  1
  F  F45  1  0.08880600  0.75000000  0.48128200  1
  F  F46  1  0.58880600  0.25000000  0.01871800  1
  F  F47  1  0.91119400  0.25000000  0.51871800  1
  F  F48  1  0.71170400  0.75000000  0.90922500  1
  F  F49  1  0.78829600  0.75000000  0.40922500  1
  F  F50  1  0.28829600  0.25000000  0.09077500  1
  F  F51  1  0.21170400  0.25000000  0.59077500  1
  F  F52  1  0.58625800  0.58648000  0.03683600  1
  F  F53  1  0.91374200  0.91352000  0.53683600  1
  F  F54  1  0.41374200  0.08648000  0.96316400  1
  F  F55  1  0.08625800  0.41352000  0.46316400  1
  F  F56  1  0.41374200  0.41352000  0.96316400  1
  F  F57  1  0.08625800  0.08648000  0.46316400  1
  F  F58  1  0.58625800  0.91352000  0.03683600  1
  F  F59  1  0.91374200  0.58648000  0.53683600  1
  F  F60  1  0.77571800  0.63579800  0.20475900  1
  F  F61  1  0.72428200  0.86420200  0.70475900  1
  F  F62  1  0.22428200  0.13579800  0.79524100  1
  F  F63  1  0.27571800  0.36420200  0.29524100  1
  F  F64  1  0.22428200  0.36420200  0.79524100  1
  F  F65  1  0.27571800  0.13579800  0.29524100  1
  F  F66  1  0.77571800  0.86420200  0.20475900  1
  F  F67  1  0.72428200  0.63579800  0.70475900  1
  F  F68  1  0.92479900  0.62749300  0.04264300  1
  F  F69  1  0.57520100  0.87250700  0.54264300  1
  F  F70  1  0.07520100  0.12749300  0.95735700  1
  F  F71  1  0.42479900  0.37250700  0.45735700  1
  F  F72  1  0.07520100  0.37250700  0.95735700  1
  F  F73  1  0.42479900  0.12749300  0.45735700  1
  F  F74  1  0.92479900  0.87250700  0.04264300  1
  F  F75  1  0.57520100  0.62749300  0.54264300  1
