# generated using pymatgen
data_Yb2PbAu2
_symmetry_space_group_name_H-M   'P 1'
_cell_length_a   8.24822100
_cell_length_b   8.24822100
_cell_length_c   3.61066700
_cell_angle_alpha   90.00000000
_cell_angle_beta   90.00000000
_cell_angle_gamma   90.00000000
_symmetry_Int_Tables_number   1
_chemical_formula_structural   Yb2PbAu2
_chemical_formula_sum   'Yb4 Pb2 Au4'
_cell_volume   245.64504840
_cell_formula_units_Z   2
loop_
 _symmetry_equiv_pos_site_id
 _symmetry_equiv_pos_as_xyz
  1  'x, y, z'
loop_
 _atom_site_type_symbol
 _atom_site_label
 _atom_site_symmetry_multiplicity
 _atom_site_fract_x
 _atom_site_fract_y
 _atom_site_fract_z
 _atom_site_occupancy
  Yb  Yb0  1  0.32722400  0.82722400  0.00000000  1
  Yb  Yb1  1  0.67277600  0.17277600  0.00000000  1
  Yb  Yb2  1  0.82722400  0.67277600  0.00000000  1
  Yb  Yb3  1  0.17277600  0.32722400  0.00000000  1
  Pb  Pb4  1  0.00000000  0.00000000  0.50000000  1
  Pb  Pb5  1  0.50000000  0.50000000  0.50000000  1
  Au  Au6  1  0.37627400  0.12372600  0.50000000  1
  Au  Au7  1  0.62372600  0.87627400  0.50000000  1
  Au  Au8  1  0.87627400  0.37627400  0.50000000  1
  Au  Au9  1  0.12372600  0.62372600  0.50000000  1
