# generated using pymatgen
data_Dy4Bi2S9
_symmetry_space_group_name_H-M   'P 1'
_cell_length_a   28.06605100
_cell_length_b   3.85027000
_cell_length_c   12.60386300
_cell_angle_alpha   90.00000000
_cell_angle_beta   90.00000000
_cell_angle_gamma   90.00000000
_symmetry_Int_Tables_number   1
_chemical_formula_structural   Dy4Bi2S9
_chemical_formula_sum   'Dy16 Bi8 S36'
_cell_volume   1361.99705774
_cell_formula_units_Z   4
loop_
 _symmetry_equiv_pos_site_id
 _symmetry_equiv_pos_as_xyz
  1  'x, y, z'
loop_
 _atom_site_type_symbol
 _atom_site_label
 _atom_site_symmetry_multiplicity
 _atom_site_fract_x
 _atom_site_fract_y
 _atom_site_fract_z
 _atom_site_occupancy
  Dy  Dy0  1  0.68853400  0.25000000  0.89157300  1
  Dy  Dy1  1  0.18853400  0.25000000  0.60842700  1
  Dy  Dy2  1  0.31146600  0.75000000  0.10842700  1
  Dy  Dy3  1  0.81146600  0.75000000  0.39157300  1
  Dy  Dy4  1  0.81776300  0.25000000  0.74132100  1
  Dy  Dy5  1  0.31776300  0.25000000  0.75867900  1
  Dy  Dy6  1  0.18223700  0.75000000  0.25867900  1
  Dy  Dy7  1  0.68223700  0.75000000  0.24132100  1
  Dy  Dy8  1  0.05763600  0.25000000  0.73994000  1
  Dy  Dy9  1  0.55763600  0.25000000  0.76006000  1
  Dy  Dy10  1  0.94236400  0.75000000  0.26006000  1
  Dy  Dy11  1  0.44236400  0.75000000  0.23994000  1
  Dy  Dy12  1  0.80431900  0.25000000  0.07372100  1
  Dy  Dy13  1  0.30431900  0.25000000  0.42627900  1
  Dy  Dy14  1  0.19568100  0.75000000  0.92627900  1
  Dy  Dy15  1  0.69568100  0.75000000  0.57372100  1
  Bi  Bi16  1  0.56127300  0.25000000  0.43287700  1
  Bi  Bi17  1  0.06127300  0.25000000  0.06712300  1
  Bi  Bi18  1  0.43872700  0.75000000  0.56712300  1
  Bi  Bi19  1  0.93872700  0.75000000  0.93287700  1
  Bi  Bi20  1  0.93323900  0.25000000  0.56481100  1
  Bi  Bi21  1  0.43323900  0.25000000  0.93518900  1
  Bi  Bi22  1  0.06676100  0.75000000  0.43518900  1
  Bi  Bi23  1  0.56676100  0.75000000  0.06481100  1
  S  S24  1  0.99281700  0.25000000  0.38358200  1
  S  S25  1  0.49281700  0.25000000  0.11641800  1
  S  S26  1  0.00718300  0.75000000  0.61641800  1
  S  S27  1  0.50718300  0.75000000  0.88358200  1
  S  S28  1  0.63942000  0.25000000  0.10660800  1
  S  S29  1  0.13942000  0.25000000  0.39339200  1
  S  S30  1  0.36058000  0.75000000  0.89339200  1
  S  S31  1  0.86058000  0.75000000  0.60660800  1
  S  S32  1  0.95745300  0.25000000  0.10738300  1
  S  S33  1  0.45745300  0.25000000  0.39261700  1
  S  S34  1  0.04254700  0.75000000  0.89261700  1
  S  S35  1  0.54254700  0.75000000  0.60738300  1
  S  S36  1  0.44186300  0.25000000  0.71095800  1
  S  S37  1  0.94186300  0.25000000  0.78904200  1
  S  S38  1  0.55813700  0.75000000  0.28904200  1
  S  S39  1  0.05813700  0.75000000  0.21095800  1
  S  S40  1  0.76899900  0.25000000  0.53621100  1
  S  S41  1  0.26899900  0.25000000  0.96378900  1
  S  S42  1  0.23100100  0.75000000  0.46378900  1
  S  S43  1  0.73100100  0.75000000  0.03621100  1
  S  S44  1  0.88330200  0.25000000  0.37566500  1
  S  S45  1  0.38330200  0.25000000  0.12433500  1
  S  S46  1  0.11669800  0.75000000  0.62433500  1
  S  S47  1  0.61669800  0.75000000  0.87566500  1
  S  S48  1  0.65930900  0.25000000  0.40765800  1
  S  S49  1  0.15930900  0.25000000  0.09234200  1
  S  S50  1  0.34069100  0.75000000  0.59234200  1
  S  S51  1  0.84069100  0.75000000  0.90765800  1
  S  S52  1  0.75554300  0.25000000  0.26790300  1
  S  S53  1  0.25554300  0.25000000  0.23209700  1
  S  S54  1  0.24445700  0.75000000  0.73209700  1
  S  S55  1  0.74445700  0.75000000  0.76790300  1
  S  S56  1  0.65000300  0.25000000  0.68178800  1
  S  S57  1  0.15000300  0.25000000  0.81821200  1
  S  S58  1  0.34999700  0.75000000  0.31821200  1
  S  S59  1  0.84999700  0.75000000  0.18178800  1
