# generated using pymatgen
data_RbSi2BP(H3C)9
_symmetry_space_group_name_H-M   'P 1'
_cell_length_a   14.25320683
_cell_length_b   16.84008986
_cell_length_c   17.48800988
_cell_angle_alpha   113.54625276
_cell_angle_beta   90.00000000
_cell_angle_gamma   90.00000000
_symmetry_Int_Tables_number   1
_chemical_formula_structural   RbSi2BP(H3C)9
_chemical_formula_sum   'Rb8 Si16 B8 P8 H216 C72'
_cell_volume   3848.06641458
_cell_formula_units_Z   8
loop_
 _symmetry_equiv_pos_site_id
 _symmetry_equiv_pos_as_xyz
  1  'x, y, z'
loop_
 _atom_site_type_symbol
 _atom_site_label
 _atom_site_symmetry_multiplicity
 _atom_site_fract_x
 _atom_site_fract_y
 _atom_site_fract_z
 _atom_site_occupancy
  Rb  Rb0  1  0.93847542  0.93352269  0.09415575  1
  Rb  Rb1  1  0.56152458  0.43352269  0.59415575  1
  Rb  Rb2  1  0.06152458  0.06647731  0.90584425  1
  Rb  Rb3  1  0.43847542  0.56647731  0.40584425  1
  Rb  Rb4  1  0.82375486  0.75840124  0.81128957  1
  Rb  Rb5  1  0.67624514  0.25840124  0.31128957  1
  Rb  Rb6  1  0.17624514  0.24159876  0.18871043  1
  Rb  Rb7  1  0.32375486  0.74159876  0.68871043  1
  Si  Si8  1  0.77488390  0.93730346  0.29113942  1
  Si  Si9  1  0.72511610  0.43730346  0.79113942  1
  Si  Si10  1  0.22511610  0.06269654  0.70886058  1
  Si  Si11  1  0.27488390  0.56269654  0.20886058  1
  Si  Si12  1  0.88642081  0.76571601  0.18911132  1
  Si  Si13  1  0.61357919  0.26571601  0.68911132  1
  Si  Si14  1  0.11357919  0.23428399  0.81088868  1
  Si  Si15  1  0.38642081  0.73428399  0.31088868  1
  Si  Si16  1  0.12944827  0.63273199  0.77705463  1
  Si  Si17  1  0.37055173  0.13273199  0.27705463  1
  Si  Si18  1  0.87055173  0.36726801  0.22294537  1
  Si  Si19  1  0.62944827  0.86726801  0.72294537  1
  Si  Si20  1  0.32731276  0.62907407  0.85409833  1
  Si  Si21  1  0.17268724  0.12907407  0.35409833  1
  Si  Si22  1  0.67268724  0.37092593  0.14590167  1
  Si  Si23  1  0.82731276  0.87092593  0.64590167  1
  B  B24  1  0.76393091  0.80756996  0.99834322  1
  B  B25  1  0.73606909  0.30756996  0.49834322  1
  B  B26  1  0.23606909  0.19243004  0.00165678  1
  B  B27  1  0.26393091  0.69243004  0.50165678  1
  B  B28  1  0.09395401  0.86152144  0.91134728  1
  B  B29  1  0.40604599  0.36152144  0.41134728  1
  B  B30  1  0.90604599  0.13847856  0.08865272  1
  B  B31  1  0.59395401  0.63847856  0.58865272  1
  P  P32  1  0.72021711  0.81824142  0.10741456  1
  P  P33  1  0.77978289  0.31824142  0.60741456  1
  P  P34  1  0.27978289  0.18175858  0.89258544  1
  P  P35  1  0.22021711  0.68175858  0.39258544  1
  P  P36  1  0.20412639  0.79541000  0.91780511  1
  P  P37  1  0.29587361  0.29541000  0.41780511  1
  P  P38  1  0.79587361  0.20459000  0.08219489  1
  P  P39  1  0.70412639  0.70459000  0.58219489  1
  H  H40  1  0.70120117  0.66342928  0.07432135  1
  H  H41  1  0.79879883  0.16342928  0.57432135  1
  H  H42  1  0.29879883  0.33657072  0.92567865  1
  H  H43  1  0.20120117  0.83657072  0.42567865  1
  H  H44  1  0.60001360  0.70789598  0.04604803  1
  H  H45  1  0.89998640  0.20789598  0.54604803  1
  H  H46  1  0.39998640  0.29210402  0.95395197  1
  H  H47  1  0.10001360  0.79210402  0.45395197  1
  H  H48  1  0.62126553  0.72697759  0.15324633  1
  H  H49  1  0.87873447  0.22697759  0.65324633  1
  H  H50  1  0.37873447  0.27302241  0.84675367  1
  H  H51  1  0.12126553  0.77302241  0.34675367  1
  H  H52  1  0.58531024  0.90193343  0.18759871  1
  H  H53  1  0.91468976  0.40193343  0.68759871  1
  H  H54  1  0.41468976  0.09806657  0.81240129  1
  H  H55  1  0.08531024  0.59806657  0.31240129  1
  H  H56  1  0.57190822  0.86695630  0.07738429  1
  H  H57  1  0.92809178  0.36695630  0.57738429  1
  H  H58  1  0.42809178  0.13304370  0.92261571  1
  H  H59  1  0.07190822  0.63304370  0.42261571  1
  H  H60  1  0.64546440  0.95703459  0.13297455  1
  H  H61  1  0.85453560  0.45703459  0.63297455  1
  H  H62  1  0.35453560  0.04296541  0.86702545  1
  H  H63  1  0.14546440  0.54296541  0.36702545  1
  H  H64  1  0.81713972  0.06815068  0.26117432  1
  H  H65  1  0.68286028  0.56815068  0.76117432  1
  H  H66  1  0.18286028  0.93184932  0.73882568  1
  H  H67  1  0.31713972  0.43184932  0.23882568  1
  H  H68  1  0.74366294  0.09607873  0.35057937  1
  H  H69  1  0.75633706  0.59607873  0.85057937  1
  H  H70  1  0.25633706  0.90392127  0.64942063  1
  H  H71  1  0.24366294  0.40392127  0.14942063  1
  H  H72  1  0.69400832  0.04757735  0.24845430  1
  H  H73  1  0.80599168  0.54757735  0.74845430  1
  H  H74  1  0.30599168  0.95242265  0.75154570  1
  H  H75  1  0.19400832  0.45242265  0.25154570  1
  H  H76  1  0.60327483  0.91367592  0.31585099  1
  H  H77  1  0.89672517  0.41367592  0.81585099  1
  H  H78  1  0.39672517  0.08632408  0.68414901  1
  H  H79  1  0.10327483  0.58632408  0.18414901  1
  H  H80  1  0.66137341  0.97787847  0.40997971  1
  H  H81  1  0.83862659  0.47787847  0.90997971  1
  H  H82  1  0.33862659  0.02212153  0.59002029  1
  H  H83  1  0.16137341  0.52212153  0.09002029  1
  H  H84  1  0.67911678  0.86359053  0.36377566  1
  H  H85  1  0.82088322  0.36359053  0.86377566  1
  H  H86  1  0.32088322  0.13640947  0.63622434  1
  H  H87  1  0.17911678  0.63640947  0.13622434  1
  H  H88  1  0.89494043  0.90471778  0.38223162  1
  H  H89  1  0.60505957  0.40471778  0.88223162  1
  H  H90  1  0.10505957  0.09528222  0.61776838  1
  H  H91  1  0.39494043  0.59528222  0.11776838  1
  H  H92  1  0.85223307  0.01245026  0.42753004  1
  H  H93  1  0.64776693  0.51245026  0.92753004  1
  H  H94  1  0.14776693  0.98754974  0.57246996  1
  H  H95  1  0.35223307  0.48754974  0.07246996  1
  H  H96  1  0.93832341  0.98354271  0.34768032  1
  H  H97  1  0.56167659  0.48354271  0.84768032  1
  H  H98  1  0.06167659  0.01645729  0.65231968  1
  H  H99  1  0.43832341  0.51645729  0.15231968  1
  H  H100  1  0.85891142  0.76433570  0.33174234  1
  H  H101  1  0.64108858  0.26433570  0.83174234  1
  H  H102  1  0.14108858  0.23566430  0.66825766  1
  H  H103  1  0.35891142  0.73566430  0.16825766  1
  H  H104  1  0.90958175  0.66564933  0.26135611  1
  H  H105  1  0.59041825  0.16564933  0.76135611  1
  H  H106  1  0.09041825  0.33435067  0.73864389  1
  H  H107  1  0.40958175  0.83435067  0.23864389  1
  H  H108  1  0.78783379  0.68634147  0.25471181  1
  H  H109  1  0.71216621  0.18634147  0.75471181  1
  H  H110  1  0.21216621  0.31365853  0.74528819  1
  H  H111  1  0.28783379  0.81365853  0.24528819  1
  H  H112  1  0.83733271  0.62830597  0.06664648  1
  H  H113  1  0.66266729  0.12830597  0.56664648  1
  H  H114  1  0.16266729  0.37169403  0.93335352  1
  H  H115  1  0.33733271  0.87169403  0.43335352  1
  H  H116  1  0.95681205  0.62800127  0.09383259  1
  H  H117  1  0.54318795  0.12800127  0.59383259  1
  H  H118  1  0.04318795  0.37199873  0.90616741  1
  H  H119  1  0.45681205  0.87199873  0.40616741  1
  H  H120  1  0.92033477  0.68705415  0.03451907  1
  H  H121  1  0.57966523  0.18705415  0.53451907  1
  H  H122  1  0.07966523  0.31294585  0.96548093  1
  H  H123  1  0.42033477  0.81294585  0.46548093  1
  H  H124  1  0.04209735  0.82609081  0.16590842  1
  H  H125  1  0.45790265  0.32609081  0.66590842  1
  H  H126  1  0.95790265  0.17390919  0.83409158  1
  H  H127  1  0.54209735  0.67390919  0.33409158  1
  H  H128  1  0.05621313  0.75560171  0.21672815  1
  H  H129  1  0.44378687  0.25560171  0.71672815  1
  H  H130  1  0.94378687  0.24439829  0.78327185  1
  H  H131  1  0.55621313  0.74439829  0.28327185  1
  H  H132  1  0.01779246  0.86357965  0.27441824  1
  H  H133  1  0.48220754  0.36357965  0.77441824  1
  H  H134  1  0.98220754  0.13642035  0.72558176  1
  H  H135  1  0.51779246  0.63642035  0.22558176  1
  H  H136  1  0.70242100  0.77064593  0.94778919  1
  H  H137  1  0.79757900  0.27064593  0.44778919  1
  H  H138  1  0.29757900  0.22935407  0.05221081  1
  H  H139  1  0.20242100  0.72935407  0.55221081  1
  H  H140  1  0.83822936  0.76741059  0.98115080  1
  H  H141  1  0.66177064  0.26741059  0.48115080  1
  H  H142  1  0.16177064  0.23258941  0.01884920  1
  H  H143  1  0.33822936  0.73258941  0.51884920  1
  H  H144  1  0.77416062  0.88184744  0.00239174  1
  H  H145  1  0.72583938  0.38184744  0.50239174  1
  H  H146  1  0.22583938  0.11815256  0.99760826  1
  H  H147  1  0.27416062  0.61815256  0.49760826  1
  H  H148  1  0.13455500  0.74993029  0.02047465  1
  H  H149  1  0.36544500  0.24993029  0.52047465  1
  H  H150  1  0.86544500  0.25006971  0.97952535  1
  H  H151  1  0.63455500  0.75006971  0.47952535  1
  H  H152  1  0.18557835  0.85588058  0.06977590  1
  H  H153  1  0.31442165  0.35588058  0.56977590  1
  H  H154  1  0.81442165  0.14411942  0.93022410  1
  H  H155  1  0.68557835  0.64411942  0.43022410  1
  H  H156  1  0.25788668  0.76187881  0.03596062  1
  H  H157  1  0.24211332  0.26187881  0.53596062  1
  H  H158  1  0.74211332  0.23812119  0.96403938  1
  H  H159  1  0.75788668  0.73812119  0.46403938  1
  H  H160  1  0.36784277  0.84556223  0.94804377  1
  H  H161  1  0.13215723  0.34556223  0.44804377  1
  H  H162  1  0.63215723  0.15443777  0.05195623  1
  H  H163  1  0.86784277  0.65443777  0.55195623  1
  H  H164  1  0.28552372  0.93255536  0.98895594  1
  H  H165  1  0.21447628  0.43255536  0.48895594  1
  H  H166  1  0.71447628  0.06744464  0.01104406  1
  H  H167  1  0.78552372  0.56744464  0.51104406  1
  H  H168  1  0.31063061  0.88650244  0.88035362  1
  H  H169  1  0.18936939  0.38650244  0.38035362  1
  H  H170  1  0.68936939  0.11349756  0.11964638  1
  H  H171  1  0.81063061  0.61349756  0.61964638  1
  H  H172  1  0.06209975  0.57022028  0.87388499  1
  H  H173  1  0.43790025  0.07022028  0.37388499  1
  H  H174  1  0.93790025  0.42977972  0.12611501  1
  H  H175  1  0.56209975  0.92977972  0.62611501  1
  H  H176  1  0.97673438  0.57122110  0.80043365  1
  H  H177  1  0.52326562  0.07122110  0.30043365  1
  H  H178  1  0.02326562  0.42877890  0.19956635  1
  H  H179  1  0.47673438  0.92877890  0.69956635  1
  H  H180  1  0.00476983  0.66839739  0.88812926  1
  H  H181  1  0.49523017  0.16839739  0.38812926  1
  H  H182  1  0.99523017  0.33160261  0.11187074  1
  H  H183  1  0.50476983  0.83160261  0.61187074  1
  H  H184  1  0.21158227  0.52956409  0.64765010  1
  H  H185  1  0.28841773  0.02956409  0.14765010  1
  H  H186  1  0.78841773  0.47043591  0.35234990  1
  H  H187  1  0.71158227  0.97043591  0.85234990  1
  H  H188  1  0.09974077  0.49119314  0.66126922  1
  H  H189  1  0.40025923  0.99119314  0.16126922  1
  H  H190  1  0.90025923  0.50880686  0.33873078  1
  H  H191  1  0.59974077  0.00880686  0.83873078  1
  H  H192  1  0.19683049  0.47960561  0.71932684  1
  H  H193  1  0.30316951  0.97960561  0.21932684  1
  H  H194  1  0.80316951  0.52039439  0.28067316  1
  H  H195  1  0.69683049  0.02039439  0.78067316  1
  H  H196  1  0.04625415  0.75311836  0.75266850  1
  H  H197  1  0.45374585  0.25311836  0.25266850  1
  H  H198  1  0.95374585  0.24688164  0.24733150  1
  H  H199  1  0.54625415  0.74688164  0.74733150  1
  H  H200  1  0.00403297  0.64799729  0.68450742  1
  H  H201  1  0.49596703  0.14799729  0.18450742  1
  H  H202  1  0.99596703  0.35200271  0.31549258  1
  H  H203  1  0.50403297  0.85200271  0.81549258  1
  H  H204  1  0.11050423  0.68775527  0.66258364  1
  H  H205  1  0.38949577  0.18775527  0.16258364  1
  H  H206  1  0.88949577  0.31224473  0.33741636  1
  H  H207  1  0.61050423  0.81224473  0.83741636  1
  H  H208  1  0.25465910  0.57432710  0.95456841  1
  H  H209  1  0.24534090  0.07432710  0.45456841  1
  H  H210  1  0.74534090  0.42567290  0.04543159  1
  H  H211  1  0.75465910  0.92567290  0.54543159  1
  H  H212  1  0.34904934  0.50669437  0.89891101  1
  H  H213  1  0.15095066  0.00669437  0.39891101  1
  H  H214  1  0.65095066  0.49330563  0.10108899  1
  H  H215  1  0.84904934  0.99330563  0.60108899  1
  H  H216  1  0.23744675  0.49797354  0.85085946  1
  H  H217  1  0.26255325  0.99797354  0.35085946  1
  H  H218  1  0.76255325  0.50202646  0.14914054  1
  H  H219  1  0.73744675  0.00202646  0.64914054  1
  H  H220  1  0.35211029  0.52972282  0.70112462  1
  H  H221  1  0.14788971  0.02972282  0.20112462  1
  H  H222  1  0.64788971  0.47027718  0.29887538  1
  H  H223  1  0.85211029  0.97027718  0.79887538  1
  H  H224  1  0.44309596  0.52076693  0.76697370  1
  H  H225  1  0.05690404  0.02076693  0.26697370  1
  H  H226  1  0.55690404  0.47923307  0.23302630  1
  H  H227  1  0.94309596  0.97923307  0.73302630  1
  H  H228  1  0.44243948  0.61036735  0.73780684  1
  H  H229  1  0.05756052  0.11036735  0.23780684  1
  H  H230  1  0.55756052  0.38963265  0.26219316  1
  H  H231  1  0.94243948  0.88963265  0.76219316  1
  H  H232  1  0.46360711  0.73331838  0.90673082  1
  H  H233  1  0.03639289  0.23331838  0.40673082  1
  H  H234  1  0.53639289  0.26668162  0.09326918  1
  H  H235  1  0.96360711  0.76668162  0.59326918  1
  H  H236  1  0.47355444  0.64246596  0.93310054  1
  H  H237  1  0.02644556  0.14246596  0.43310054  1
  H  H238  1  0.52644556  0.35753404  0.06689946  1
  H  H239  1  0.97355444  0.85753404  0.56689946  1
  H  H240  1  0.39963317  0.72964273  0.99276905  1
  H  H241  1  0.10036683  0.22964273  0.49276905  1
  H  H242  1  0.60036683  0.27035727  0.00723095  1
  H  H243  1  0.89963317  0.77035727  0.50723095  1
  H  H244  1  0.10040827  0.87769800  0.84921235  1
  H  H245  1  0.39959173  0.37769800  0.34921235  1
  H  H246  1  0.89959173  0.12230200  0.15078765  1
  H  H247  1  0.60040827  0.62230200  0.65078765  1
  H  H248  1  0.02172682  0.82181955  0.91130045  1
  H  H249  1  0.47827318  0.32181955  0.41130045  1
  H  H250  1  0.97827318  0.17818045  0.08869955  1
  H  H251  1  0.52172682  0.67818045  0.58869955  1
  H  H252  1  0.10012224  0.92825142  0.97548766  1
  H  H253  1  0.39987776  0.42825142  0.47548766  1
  H  H254  1  0.89987776  0.07174858  0.02451234  1
  H  H255  1  0.60012224  0.57174858  0.52451234  1
  C  C256  1  0.80165623  0.84938999  0.18916436  1
  C  C257  1  0.69834377  0.34938999  0.68916436  1
  C  C258  1  0.19834377  0.15061001  0.81083564  1
  C  C259  1  0.30165623  0.65061001  0.31083564  1
  C  C260  1  0.65422721  0.71954847  0.09405480  1
  C  C261  1  0.84577279  0.21954847  0.59405480  1
  C  C262  1  0.34577279  0.28045153  0.90594520  1
  C  C263  1  0.15422721  0.78045153  0.40594520  1
  C  C264  1  0.62140019  0.89382743  0.12950657  1
  C  C265  1  0.87859981  0.39382743  0.62950657  1
  C  C266  1  0.37859981  0.10617257  0.87049343  1
  C  C267  1  0.12140019  0.60617257  0.37049343  1
  C  C268  1  0.23098689  0.69512115  0.83772095  1
  C  C269  1  0.26901311  0.19512115  0.33772095  1
  C  C270  1  0.76901311  0.30487885  0.16227905  1
  C  C271  1  0.73098689  0.80487885  0.66227905  1
  C  C272  1  0.19503509  0.79047829  0.02098507  1
  C  C273  1  0.30496491  0.29047829  0.52098507  1
  C  C274  1  0.80496491  0.20952171  0.97901493  1
  C  C275  1  0.69503509  0.70952171  0.47901493  1
  C  C276  1  0.30191340  0.87180535  0.93569355  1
  C  C277  1  0.19808660  0.37180535  0.43569355  1
  C  C278  1  0.69808660  0.12819465  0.06430645  1
  C  C279  1  0.80191340  0.62819465  0.56430645  1
  C  C280  1  0.75539897  0.04767753  0.28659341  1
  C  C281  1  0.74460103  0.54767753  0.78659341  1
  C  C282  1  0.24460103  0.95232247  0.71340659  1
  C  C283  1  0.25539897  0.45232247  0.21340659  1
  C  C284  1  0.66963557  0.92152502  0.35024252  1
  C  C285  1  0.83036443  0.42152502  0.85024252  1
  C  C286  1  0.33036443  0.07847498  0.64975748  1
  C  C287  1  0.16963557  0.57847498  0.14975748  1
  C  C288  1  0.87498020  0.96061928  0.36852663  1
  C  C289  1  0.62501980  0.46061928  0.86852663  1
  C  C290  1  0.12501980  0.03938072  0.63147337  1
  C  C291  1  0.37498020  0.53938072  0.13147337  1
  C  C292  1  0.85790063  0.71631218  0.26687387  1
  C  C293  1  0.64209937  0.21631218  0.76687387  1
  C  C294  1  0.14209937  0.28368782  0.73312613  1
  C  C295  1  0.35790063  0.78368782  0.23312613  1
  C  C296  1  0.90042093  0.66891355  0.08602871  1
  C  C297  1  0.59957907  0.16891355  0.58602871  1
  C  C298  1  0.09957907  0.33108645  0.91397129  1
  C  C299  1  0.40042093  0.83108645  0.41397129  1
  C  C300  1  0.01135675  0.80782166  0.21439625  1
  C  C301  1  0.48864325  0.30782166  0.71439625  1
  C  C302  1  0.98864325  0.19217834  0.78560375  1
  C  C303  1  0.51135675  0.69217834  0.28560375  1
  C  C304  1  0.03437258  0.60863204  0.84072225  1
  C  C305  1  0.46562742  0.10863204  0.34072225  1
  C  C306  1  0.96562742  0.39136796  0.15927775  1
  C  C307  1  0.53437258  0.89136796  0.65927775  1
  C  C308  1  0.16395166  0.52323605  0.69443101  1
  C  C309  1  0.33604834  0.02323605  0.19443101  1
  C  C310  1  0.83604834  0.47676395  0.30556899  1
  C  C311  1  0.66395166  0.97676395  0.80556899  1
  C  C312  1  0.06697719  0.68622513  0.71399320  1
  C  C313  1  0.43302281  0.18622513  0.21399320  1
  C  C314  1  0.93302281  0.31377487  0.28600680  1
  C  C315  1  0.56697719  0.81377487  0.78600680  1
  C  C316  1  0.28812610  0.54402402  0.89290209  1
  C  C317  1  0.21187390  0.04402402  0.39290209  1
  C  C318  1  0.71187390  0.45597598  0.10709791  1
  C  C319  1  0.78812610  0.95597598  0.60709791  1
  C  C320  1  0.39691462  0.56697194  0.75460018  1
  C  C321  1  0.10308538  0.06697194  0.25460018  1
  C  C322  1  0.60308538  0.43302806  0.24539982  1
  C  C323  1  0.89691462  0.93302806  0.74539982  1
  C  C324  1  0.42391919  0.69083196  0.92907341  1
  C  C325  1  0.07608081  0.19083196  0.42907341  1
  C  C326  1  0.57608081  0.30916804  0.07092659  1
  C  C327  1  0.92391919  0.80916804  0.57092659  1
