# generated using pymatgen
data_NaP2PtO9
_symmetry_space_group_name_H-M   'P 1'
_cell_length_a   7.80126428
_cell_length_b   7.79347553
_cell_length_c   12.53768296
_cell_angle_alpha   86.30045828
_cell_angle_beta   84.90367204
_cell_angle_gamma   67.93817735
_symmetry_Int_Tables_number   1
_chemical_formula_structural   NaP2PtO9
_chemical_formula_sum   'Na4 P8 Pt4 O36'
_cell_volume   703.26963743
_cell_formula_units_Z   4
loop_
 _symmetry_equiv_pos_site_id
 _symmetry_equiv_pos_as_xyz
  1  'x, y, z'
loop_
 _atom_site_type_symbol
 _atom_site_label
 _atom_site_symmetry_multiplicity
 _atom_site_fract_x
 _atom_site_fract_y
 _atom_site_fract_z
 _atom_site_occupancy
  Na  Na0  1  0.12668400  0.15114000  0.59805300  1
  Na  Na1  1  0.87331600  0.84886000  0.40194700  1
  Na  Na2  1  0.39436800  0.36394500  0.85657600  1
  Na  Na3  1  0.60563200  0.63605500  0.14342400  1
  P  P4  1  0.87151600  0.29850300  0.84844100  1
  P  P5  1  0.12848400  0.70149700  0.15155900  1
  P  P6  1  0.63846700  0.12021100  0.09985500  1
  P  P7  1  0.36153300  0.87978900  0.90014500  1
  P  P8  1  0.18883600  0.64420700  0.64670000  1
  P  P9  1  0.81116400  0.35579300  0.35330000  1
  P  P10  1  0.39581700  0.86061100  0.40034700  1
  P  P11  1  0.60418300  0.13938900  0.59965300  1
  Pt  Pt12  1  0.04725000  0.10892200  0.05838300  1
  Pt  Pt13  1  0.95275000  0.89107800  0.94161700  1
  Pt  Pt14  1  0.39224600  0.46292900  0.43533300  1
  Pt  Pt15  1  0.60775400  0.53707100  0.56466700  1
  O  O16  1  0.18174900  0.88277500  0.14426300  1
  O  O17  1  0.81825100  0.11722500  0.85573700  1
  O  O18  1  0.91396500  0.33055000  0.96656400  1
  O  O19  1  0.08603500  0.66945000  0.03343600  1
  O  O20  1  0.80841300  0.15068700  0.14681200  1
  O  O21  1  0.19158700  0.84931300  0.85318800  1
  O  O22  1  0.27854300  0.06886700  0.96258400  1
  O  O23  1  0.72145700  0.93113300  0.03741600  1
  O  O24  1  0.18608700  0.51688000  0.55140100  1
  O  O25  1  0.81391300  0.48312000  0.44859900  1
  O  O26  1  0.59925500  0.42120300  0.32361000  1
  O  O27  1  0.40074500  0.57879700  0.67639000  1
  O  O28  1  0.28283200  0.72946100  0.38727700  1
  O  O29  1  0.71716800  0.27053900  0.61272300  1
  O  O30  1  0.50554400  0.20303500  0.48846300  1
  O  O31  1  0.49445600  0.79696500  0.51153700  1
  O  O32  1  0.13130600  0.25776800  0.14787400  1
  O  O33  1  0.86869400  0.74223200  0.85212600  1
  O  O34  1  0.24655000  0.39807900  0.33598900  1
  O  O35  1  0.75345000  0.60192100  0.66401100  1
  O  O36  1  0.04123200  0.25444000  0.77190300  1
  O  O37  1  0.95876800  0.74556000  0.22809700  1
  O  O38  1  0.69540600  0.46051300  0.82141200  1
  O  O39  1  0.30459400  0.53948700  0.17858800  1
  O  O40  1  0.54359400  0.27974900  0.02267200  1
  O  O41  1  0.45640600  0.72025100  0.97732800  1
  O  O42  1  0.50442900  0.10107300  0.19148400  1
  O  O43  1  0.49557100  0.89892700  0.80851600  1
  O  O44  1  0.09459100  0.58073300  0.74488000  1
  O  O45  1  0.90540900  0.41926700  0.25512000  1
  O  O46  1  0.12271300  0.84500000  0.61014500  1
  O  O47  1  0.87728700  0.15500000  0.38985500  1
  O  O48  1  0.26113400  0.05636100  0.41251300  1
  O  O49  1  0.73886600  0.94363900  0.58748700  1
  O  O50  1  0.55320700  0.81635500  0.31235000  1
  O  O51  1  0.44679300  0.18364500  0.68765000  1
