# generated using pymatgen
data_LaB7IO15
_symmetry_space_group_name_H-M   'P 1'
_cell_length_a   17.48978100
_cell_length_b   8.21953500
_cell_length_c   12.87807747
_cell_angle_alpha   50.71812512
_cell_angle_beta   90.00000000
_cell_angle_gamma   90.00000000
_symmetry_Int_Tables_number   1
_chemical_formula_structural   LaB7IO15
_chemical_formula_sum   'La4 B28 I4 O60'
_cell_volume   1433.00055768
_cell_formula_units_Z   4
loop_
 _symmetry_equiv_pos_site_id
 _symmetry_equiv_pos_as_xyz
  1  'x, y, z'
loop_
 _atom_site_type_symbol
 _atom_site_label
 _atom_site_symmetry_multiplicity
 _atom_site_fract_x
 _atom_site_fract_y
 _atom_site_fract_z
 _atom_site_occupancy
  La  La0  1  0.79997600  0.43370700  0.75433400  1
  La  La1  1  0.70002400  0.43370700  0.25433400  1
  La  La2  1  0.20002400  0.56629300  0.24566600  1
  La  La3  1  0.29997600  0.56629300  0.74566600  1
  B  B4  1  0.91578700  0.09227700  0.21619200  1
  B  B5  1  0.58421300  0.09227700  0.71619200  1
  B  B6  1  0.08421300  0.90772300  0.78380800  1
  B  B7  1  0.41578700  0.90772300  0.28380800  1
  B  B8  1  0.80504700  0.92934200  0.36736100  1
  B  B9  1  0.69495300  0.92934200  0.86736100  1
  B  B10  1  0.19495300  0.07065800  0.63263900  1
  B  B11  1  0.30504700  0.07065800  0.13263900  1
  B  B12  1  0.79991800  0.85111500  0.75005800  1
  B  B13  1  0.70008200  0.85111500  0.25005800  1
  B  B14  1  0.20008200  0.14888500  0.24994200  1
  B  B15  1  0.29991800  0.14888500  0.74994200  1
  B  B16  1  0.78865700  0.19144400  0.11066300  1
  B  B17  1  0.71134300  0.19144400  0.61066300  1
  B  B18  1  0.21134300  0.80855600  0.88933700  1
  B  B19  1  0.28865700  0.80855600  0.38933700  1
  B  B20  1  0.74921700  0.56988500  0.47719700  1
  B  B21  1  0.75078300  0.56988500  0.97719700  1
  B  B22  1  0.25078300  0.43011500  0.52280300  1
  B  B23  1  0.24921700  0.43011500  0.02280300  1
  B  B24  1  0.94431000  0.91630000  0.72894500  1
  B  B25  1  0.55569000  0.91630000  0.22894500  1
  B  B26  1  0.05569000  0.08370000  0.27105500  1
  B  B27  1  0.44431000  0.08370000  0.77105500  1
  B  B28  1  0.72712300  0.03748200  0.01033600  1
  B  B29  1  0.77287700  0.03748200  0.51033600  1
  B  B30  1  0.27287700  0.96251800  0.98966400  1
  B  B31  1  0.22712300  0.96251800  0.48966400  1
  I  I32  1  0.57857500  0.65270900  0.66532400  1
  I  I33  1  0.92142500  0.65270900  0.16532400  1
  I  I34  1  0.42142500  0.34729100  0.33467600  1
  I  I35  1  0.07857500  0.34729100  0.83467600  1
  O  O36  1  0.87144700  0.91161800  0.76997200  1
  O  O37  1  0.62855300  0.91161800  0.26997200  1
  O  O38  1  0.12855300  0.08838200  0.23002800  1
  O  O39  1  0.37144700  0.08838200  0.73002800  1
  O  O40  1  0.78456400  0.71234400  0.48402100  1
  O  O41  1  0.71543600  0.71234400  0.98402100  1
  O  O42  1  0.21543600  0.28765600  0.51597900  1
  O  O43  1  0.28456400  0.28765600  0.01597900  1
  O  O44  1  0.75917400  0.20132600  0.99930700  1
  O  O45  1  0.74082600  0.20132600  0.49930700  1
  O  O46  1  0.24082600  0.79867400  0.00069300  1
  O  O47  1  0.25917400  0.79867400  0.50069300  1
  O  O48  1  0.73665200  0.98615700  0.74257700  1
  O  O49  1  0.76334800  0.98615700  0.24257700  1
  O  O50  1  0.26334800  0.01384300  0.25742300  1
  O  O51  1  0.23665200  0.01384300  0.75742300  1
  O  O52  1  0.79653900  0.85846300  0.63171200  1
  O  O53  1  0.70346100  0.85846300  0.13171200  1
  O  O54  1  0.20346100  0.14153700  0.36828800  1
  O  O55  1  0.29653900  0.14153700  0.86828800  1
  O  O56  1  0.99373100  0.11508100  0.19410100  1
  O  O57  1  0.50626900  0.11508100  0.69410100  1
  O  O58  1  0.00626900  0.88491900  0.80589900  1
  O  O59  1  0.49373100  0.88491900  0.30589900  1
  O  O60  1  0.86997400  0.21015100  0.10468800  1
  O  O61  1  0.63002600  0.21015100  0.60468800  1
  O  O62  1  0.13002600  0.78984900  0.89531200  1
  O  O63  1  0.36997400  0.78984900  0.39531200  1
  O  O64  1  0.88546400  0.95498700  0.34285800  1
  O  O65  1  0.61453600  0.95498700  0.84285800  1
  O  O66  1  0.11453600  0.04501300  0.65714200  1
  O  O67  1  0.38546400  0.04501300  0.15714200  1
  O  O68  1  0.74800500  0.36831200  0.59796200  1
  O  O69  1  0.75199500  0.36831200  0.09796200  1
  O  O70  1  0.25199500  0.63168800  0.40203800  1
  O  O71  1  0.24800500  0.63168800  0.90203800  1
  O  O72  1  0.96786800  0.49367000  0.76289100  1
  O  O73  1  0.53213200  0.49367000  0.26289100  1
  O  O74  1  0.03213200  0.50633000  0.23710900  1
  O  O75  1  0.46786800  0.50633000  0.73710900  1
  O  O76  1  0.78236600  0.62578800  0.86145400  1
  O  O77  1  0.71763400  0.62578800  0.36145400  1
  O  O78  1  0.21763400  0.37421200  0.13854600  1
  O  O79  1  0.28236600  0.37421200  0.63854600  1
  O  O80  1  0.89073500  0.18527800  0.84677300  1
  O  O81  1  0.60926500  0.18527800  0.34677300  1
  O  O82  1  0.10926500  0.81472200  0.15322700  1
  O  O83  1  0.39073500  0.81472200  0.65322700  1
  O  O84  1  0.72504800  0.07456900  0.89027000  1
  O  O85  1  0.77495200  0.07456900  0.39027000  1
  O  O86  1  0.27495200  0.92543100  0.10973000  1
  O  O87  1  0.22504800  0.92543100  0.60973000  1
  O  O88  1  0.93903500  0.51359300  0.66144600  1
  O  O89  1  0.56096500  0.51359300  0.16144600  1
  O  O90  1  0.06096500  0.48640700  0.33855400  1
  O  O91  1  0.43903500  0.48640700  0.83855400  1
  O  O92  1  0.95338700  0.94420300  0.61395900  1
  O  O93  1  0.54661300  0.94420300  0.11395900  1
  O  O94  1  0.04661300  0.05579700  0.38604100  1
  O  O95  1  0.45338700  0.05579700  0.88604100  1
