# generated using pymatgen
data_InP2H9(NO4)2
_symmetry_space_group_name_H-M   'P 1'
_cell_length_a   10.15875871
_cell_length_b   10.05739874
_cell_length_c   6.74795693
_cell_angle_alpha   71.31434988
_cell_angle_beta   69.69173297
_cell_angle_gamma   38.99391715
_symmetry_Int_Tables_number   1
_chemical_formula_structural   InP2H9(NO4)2
_chemical_formula_sum   'In2 P4 H18 N4 O16'
_cell_volume   405.35687104
_cell_formula_units_Z   2
loop_
 _symmetry_equiv_pos_site_id
 _symmetry_equiv_pos_as_xyz
  1  'x, y, z'
loop_
 _atom_site_type_symbol
 _atom_site_label
 _atom_site_symmetry_multiplicity
 _atom_site_fract_x
 _atom_site_fract_y
 _atom_site_fract_z
 _atom_site_occupancy
  In  In0  1  0.39811700  0.10188300  0.39811700  1
  In  In1  1  0.14811700  0.85188300  0.14811700  1
  P  P2  1  0.95913800  0.63681400  0.28833500  1
  P  P3  1  0.28833500  0.11571300  0.95913800  1
  P  P4  1  0.61318600  0.29086200  0.13428700  1
  P  P5  1  0.13428700  0.96166500  0.61318600  1
  H  H6  1  0.02521800  0.47478200  0.02521800  1
  H  H7  1  0.77521800  0.22478200  0.77521800  1
  H  H8  1  0.62494000  0.01034900  0.74539300  1
  H  H9  1  0.74539300  0.61931800  0.62494000  1
  H  H10  1  0.23965100  0.62506000  0.63068200  1
  H  H11  1  0.63068200  0.50460700  0.23965100  1
  H  H12  1  0.85842900  0.82110800  0.84001900  1
  H  H13  1  0.84001900  0.48044400  0.85842900  1
  H  H14  1  0.42889200  0.39157100  0.76955600  1
  H  H15  1  0.76955600  0.40998100  0.42889200  1
  H  H16  1  0.79134500  0.02598400  0.67423800  1
  H  H17  1  0.67423800  0.50843200  0.79134500  1
  H  H18  1  0.22401600  0.45865500  0.74156800  1
  H  H19  1  0.74156800  0.57576200  0.22401600  1
  H  H20  1  0.85419700  0.84888200  0.57370000  1
  H  H21  1  0.57370000  0.72322100  0.85419700  1
  H  H22  1  0.40111800  0.39580300  0.52677900  1
  H  H23  1  0.52677900  0.67630000  0.40111800  1
  N  N24  1  0.78297200  0.92561000  0.70893700  1
  N  N25  1  0.70893700  0.58248100  0.78297200  1
  N  N26  1  0.32439000  0.46702800  0.66751900  1
  N  N27  1  0.66751900  0.54106300  0.32439000  1
  O  O28  1  0.08322000  0.41955500  0.41661200  1
  O  O29  1  0.41661200  0.08061400  0.08322000  1
  O  O30  1  0.83044500  0.16678000  0.16938600  1
  O  O31  1  0.16938600  0.83338800  0.83044500  1
  O  O32  1  0.72338600  0.78077700  0.39563900  1
  O  O33  1  0.39563900  0.10019800  0.72338600  1
  O  O34  1  0.46922300  0.52661400  0.14980200  1
  O  O35  1  0.14980200  0.85436100  0.46922300  1
  O  O36  1  0.02343000  0.73030000  0.30068500  1
  O  O37  1  0.30068500  0.94558600  0.02343000  1
  O  O38  1  0.51970000  0.22657000  0.30441400  1
  O  O39  1  0.30441400  0.94931500  0.51970000  1
  O  O40  1  0.98649600  0.61701900  0.05130400  1
  O  O41  1  0.05130400  0.34518000  0.98649600  1
  O  O42  1  0.63298100  0.26350400  0.90482000  1
  O  O43  1  0.90482000  0.19869600  0.63298100  1
