# generated using pymatgen
data_WSCl4
_symmetry_space_group_name_H-M   'P 1'
_cell_length_a   6.44390900
_cell_length_b   7.47810271
_cell_length_c   8.61714947
_cell_angle_alpha   75.42673834
_cell_angle_beta   68.23344696
_cell_angle_gamma   84.29207900
_symmetry_Int_Tables_number   1
_chemical_formula_structural   WSCl4
_chemical_formula_sum   'W2 S2 Cl8'
_cell_volume   373.22306454
_cell_formula_units_Z   2
loop_
 _symmetry_equiv_pos_site_id
 _symmetry_equiv_pos_as_xyz
  1  'x, y, z'
loop_
 _atom_site_type_symbol
 _atom_site_label
 _atom_site_symmetry_multiplicity
 _atom_site_fract_x
 _atom_site_fract_y
 _atom_site_fract_z
 _atom_site_occupancy
  W  W0  1  0.13949600  0.76047900  0.78455300  1
  W  W1  1  0.86050400  0.23952100  0.21544700  1
  S  S2  1  0.29877600  0.01762500  0.70987700  1
  S  S3  1  0.70122400  0.98237500  0.29012300  1
  Cl  Cl4  1  0.11746100  0.65756400  0.06899900  1
  Cl  Cl5  1  0.88253900  0.34243600  0.93100100  1
  Cl  Cl6  1  0.43412000  0.55812500  0.71803100  1
  Cl  Cl7  1  0.56588000  0.44187500  0.28196900  1
  Cl  Cl8  1  0.08241800  0.73414400  0.54299800  1
  Cl  Cl9  1  0.91758200  0.26585600  0.45700200  1
  Cl  Cl10  1  0.76791900  0.83732900  0.89186300  1
  Cl  Cl11  1  0.23208100  0.16267100  0.10813700  1
