# generated using pymatgen
data_Na2NdN5O16
_symmetry_space_group_name_H-M   'P 1'
_cell_length_a   8.06823659
_cell_length_b   15.19879182
_cell_length_c   21.40686603
_cell_angle_alpha   90.22637788
_cell_angle_beta   90.00000000
_cell_angle_gamma   90.00000000
_symmetry_Int_Tables_number   1
_chemical_formula_structural   Na2NdN5O16
_chemical_formula_sum   'Na16 Nd8 N40 O128'
_cell_volume   2625.04886751
_cell_formula_units_Z   8
loop_
 _symmetry_equiv_pos_site_id
 _symmetry_equiv_pos_as_xyz
  1  'x, y, z'
loop_
 _atom_site_type_symbol
 _atom_site_label
 _atom_site_symmetry_multiplicity
 _atom_site_fract_x
 _atom_site_fract_y
 _atom_site_fract_z
 _atom_site_occupancy
  Na  Na0  1  0.33007977  0.65872414  0.12723886  1
  Na  Na1  1  0.33007977  0.84127586  0.87276114  1
  Na  Na2  1  0.66992023  0.34127586  0.87276114  1
  Na  Na3  1  0.66992023  0.15872414  0.12723886  1
  Na  Na4  1  0.18655586  0.53939494  0.36979175  1
  Na  Na5  1  0.18655586  0.96060506  0.63020825  1
  Na  Na6  1  0.81344414  0.46060506  0.63020825  1
  Na  Na7  1  0.81344414  0.03939494  0.36979175  1
  Na  Na8  1  0.32563042  0.88176178  0.39215290  1
  Na  Na9  1  0.32563042  0.61823822  0.60784710  1
  Na  Na10  1  0.67436958  0.11823822  0.60784710  1
  Na  Na11  1  0.67436958  0.38176178  0.39215290  1
  Na  Na12  1  0.23409310  0.96615424  0.11881518  1
  Na  Na13  1  0.23409310  0.53384576  0.88118482  1
  Na  Na14  1  0.76590690  0.03384576  0.88118482  1
  Na  Na15  1  0.76590690  0.46615424  0.11881518  1
  Nd  Nd16  1  0.82317322  0.75000000  0.00000000  1
  Nd  Nd17  1  0.17682678  0.25000000  0.00000000  1
  Nd  Nd18  1  0.85107373  0.75000000  0.50000000  1
  Nd  Nd19  1  0.14892627  0.25000000  0.50000000  1
  Nd  Nd20  1  0.83000929  0.75428620  0.24902625  1
  Nd  Nd21  1  0.83000929  0.74571380  0.75097375  1
  Nd  Nd22  1  0.16999071  0.24571380  0.75097375  1
  Nd  Nd23  1  0.16999071  0.25428620  0.24902625  1
  N  N24  1  0.51004540  0.81468115  0.18069200  1
  N  N25  1  0.51004540  0.68531885  0.81930800  1
  N  N26  1  0.48995460  0.18531885  0.81930800  1
  N  N27  1  0.48995460  0.31468115  0.18069200  1
  N  N28  1  0.15527380  0.70913699  0.42285312  1
  N  N29  1  0.15527380  0.79086301  0.57714688  1
  N  N30  1  0.84472620  0.29086301  0.57714688  1
  N  N31  1  0.84472620  0.20913699  0.42285312  1
  N  N32  1  0.52026886  0.87125081  0.00430384  1
  N  N33  1  0.52026886  0.62874919  0.99569616  1
  N  N34  1  0.47973114  0.12874919  0.99569616  1
  N  N35  1  0.47973114  0.37125081  0.00430384  1
  N  N36  1  0.01638562  0.60918047  0.07061758  1
  N  N37  1  0.01638562  0.89081953  0.92938242  1
  N  N38  1  0.98361438  0.39081953  0.92938242  1
  N  N39  1  0.98361438  0.10918047  0.07061758  1
  N  N40  1  0.70529129  0.56588557  0.24695865  1
  N  N41  1  0.70529129  0.93411443  0.75304135  1
  N  N42  1  0.29470871  0.43411443  0.75304135  1
  N  N43  1  0.29470871  0.06588557  0.24695865  1
  N  N44  1  0.14133274  0.64289938  0.24933429  1
  N  N45  1  0.14133274  0.85710062  0.75066571  1
  N  N46  1  0.85866726  0.35710062  0.75066571  1
  N  N47  1  0.85866726  0.14289938  0.24933429  1
  N  N48  1  0.01668910  0.60167810  0.67955319  1
  N  N49  1  0.01668910  0.89832190  0.32044681  1
  N  N50  1  0.98331090  0.39832190  0.32044681  1
  N  N51  1  0.98331090  0.10167810  0.67955319  1
  N  N52  1  0.64930232  0.78294242  0.37868837  1
  N  N53  1  0.64930232  0.71705758  0.62131163  1
  N  N54  1  0.35069768  0.21705758  0.62131163  1
  N  N55  1  0.35069768  0.28294242  0.37868837  1
  N  N56  1  0.74265571  0.94527722  0.50390724  1
  N  N57  1  0.74265571  0.55472278  0.49609276  1
  N  N58  1  0.25734429  0.05472278  0.49609276  1
  N  N59  1  0.25734429  0.44527722  0.50390724  1
  N  N60  1  0.95052810  0.83647034  0.12459491  1
  N  N61  1  0.95052810  0.66352966  0.87540509  1
  N  N62  1  0.04947190  0.16352966  0.87540509  1
  N  N63  1  0.04947190  0.33647034  0.12459491  1
  O  O64  1  0.50316975  0.00696132  0.36907226  1
  O  O65  1  0.50316975  0.49303868  0.63092774  1
  O  O66  1  0.49683025  0.99303868  0.63092774  1
  O  O67  1  0.49683025  0.50696132  0.36907226  1
  O  O68  1  0.52228893  0.01166866  0.12882514  1
  O  O69  1  0.52228893  0.48833134  0.87117486  1
  O  O70  1  0.47771107  0.98833134  0.87117486  1
  O  O71  1  0.47771107  0.51166866  0.12882514  1
  O  O72  1  0.61003829  0.87467692  0.19795686  1
  O  O73  1  0.61003829  0.62532308  0.80204314  1
  O  O74  1  0.38996171  0.12532308  0.80204314  1
  O  O75  1  0.38996171  0.37467692  0.19795686  1
  O  O76  1  0.54947628  0.73493780  0.19506685  1
  O  O77  1  0.54947628  0.76506220  0.80493315  1
  O  O78  1  0.45052372  0.26506220  0.80493315  1
  O  O79  1  0.45052372  0.23493780  0.19506685  1
  O  O80  1  0.38063938  0.82880724  0.15094170  1
  O  O81  1  0.38063938  0.67119276  0.84905830  1
  O  O82  1  0.61936062  0.17119276  0.84905830  1
  O  O83  1  0.61936062  0.32880724  0.15094170  1
  O  O84  1  0.04897938  0.65015012  0.43697744  1
  O  O85  1  0.04897938  0.84984988  0.56302256  1
  O  O86  1  0.95102062  0.34984988  0.56302256  1
  O  O87  1  0.95102062  0.15015012  0.43697744  1
  O  O88  1  0.28260152  0.69139332  0.39305130  1
  O  O89  1  0.28260152  0.80860668  0.60694870  1
  O  O90  1  0.71739848  0.30860668  0.60694870  1
  O  O91  1  0.71739848  0.19139332  0.39305130  1
  O  O92  1  0.12286048  0.78821173  0.44088330  1
  O  O93  1  0.12286048  0.71178827  0.55911670  1
  O  O94  1  0.87713952  0.21178827  0.55911670  1
  O  O95  1  0.87713952  0.28821173  0.44088330  1
  O  O96  1  0.54868377  0.82313451  0.95543086  1
  O  O97  1  0.54868377  0.67686549  0.04456914  1
  O  O98  1  0.45131623  0.17686549  0.04456914  1
  O  O99  1  0.45131623  0.32313451  0.95543086  1
  O  O100  1  0.63023189  0.86834921  0.04722544  1
  O  O101  1  0.63023189  0.63165079  0.95277456  1
  O  O102  1  0.36976811  0.13165079  0.95277456  1
  O  O103  1  0.36976811  0.36834921  0.04722544  1
  O  O104  1  0.39356288  0.91654484  0.00854445  1
  O  O105  1  0.39356288  0.58345516  0.99145555  1
  O  O106  1  0.60643712  0.08345516  0.99145555  1
  O  O107  1  0.60643712  0.41654484  0.00854445  1
  O  O108  1  0.86563005  0.59747485  0.05328016  1
  O  O109  1  0.86563005  0.90252515  0.94671984  1
  O  O110  1  0.13436995  0.40252515  0.94671984  1
  O  O111  1  0.13436995  0.09747485  0.05328016  1
  O  O112  1  0.09068484  0.55415933  0.10265899  1
  O  O113  1  0.09068484  0.94584067  0.89734101  1
  O  O114  1  0.90931516  0.44584067  0.89734101  1
  O  O115  1  0.90931516  0.05415933  0.10265899  1
  O  O116  1  0.08555129  0.68150188  0.05404393  1
  O  O117  1  0.08555129  0.81849812  0.94595607  1
  O  O118  1  0.91444871  0.31849812  0.94595607  1
  O  O119  1  0.91444871  0.18150188  0.05404393  1
  O  O120  1  0.78534864  0.59968339  0.20053469  1
  O  O121  1  0.78534864  0.90031661  0.79946531  1
  O  O122  1  0.21465136  0.40031661  0.79946531  1
  O  O123  1  0.21465136  0.09968339  0.20053469  1
  O  O124  1  0.67593009  0.61702692  0.29315366  1
  O  O125  1  0.67593009  0.88297308  0.70684634  1
  O  O126  1  0.32406991  0.38297308  0.70684634  1
  O  O127  1  0.32406991  0.11702692  0.29315366  1
  O  O128  1  0.33900693  0.98799305  0.24582457  1
  O  O129  1  0.33900693  0.51200695  0.75417543  1
  O  O130  1  0.66099307  0.01200695  0.75417543  1
  O  O131  1  0.66099307  0.48799305  0.24582457  1
  O  O132  1  0.03635468  0.64070175  0.29450362  1
  O  O133  1  0.03635468  0.85929825  0.70549638  1
  O  O134  1  0.96364532  0.35929825  0.70549638  1
  O  O135  1  0.96364532  0.14070175  0.29450362  1
  O  O136  1  0.26743019  0.59685797  0.24910929  1
  O  O137  1  0.26743019  0.90314203  0.75089071  1
  O  O138  1  0.73256981  0.40314203  0.75089071  1
  O  O139  1  0.73256981  0.09685797  0.24910929  1
  O  O140  1  0.10708929  0.69553522  0.20432143  1
  O  O141  1  0.10708929  0.80446478  0.79567857  1
  O  O142  1  0.89291071  0.30446478  0.79567857  1
  O  O143  1  0.89291071  0.19553522  0.20432143  1
  O  O144  1  0.86495468  0.59315269  0.69680051  1
  O  O145  1  0.86495468  0.90684731  0.30319949  1
  O  O146  1  0.13504532  0.40684731  0.30319949  1
  O  O147  1  0.13504532  0.09315269  0.69680051  1
  O  O148  1  0.08436184  0.54370337  0.64690960  1
  O  O149  1  0.08436184  0.95629663  0.35309040  1
  O  O150  1  0.91563816  0.45629663  0.35309040  1
  O  O151  1  0.91563816  0.04370337  0.64690960  1
  O  O152  1  0.09282407  0.67108946  0.69614806  1
  O  O153  1  0.09282407  0.82891054  0.30385194  1
  O  O154  1  0.90717593  0.32891054  0.30385194  1
  O  O155  1  0.90717593  0.17108946  0.69614806  1
  O  O156  1  0.79811255  0.75338321  0.37601678  1
  O  O157  1  0.79811255  0.74661679  0.62398322  1
  O  O158  1  0.20188745  0.24661679  0.62398322  1
  O  O159  1  0.20188745  0.25338321  0.37601678  1
  O  O160  1  0.58391215  0.79449147  0.43171823  1
  O  O161  1  0.58391215  0.70550853  0.56828177  1
  O  O162  1  0.41608785  0.20550853  0.56828177  1
  O  O163  1  0.41608785  0.29449147  0.43171823  1
  O  O164  1  0.57471747  0.80101739  0.32889386  1
  O  O165  1  0.57471747  0.69898261  0.67110614  1
  O  O166  1  0.42528253  0.19898261  0.67110614  1
  O  O167  1  0.42528253  0.30101739  0.32889386  1
  O  O168  1  0.69731849  0.89118800  0.54579836  1
  O  O169  1  0.69731849  0.60881200  0.45420164  1
  O  O170  1  0.30268151  0.10881200  0.45420164  1
  O  O171  1  0.30268151  0.39118800  0.54579836  1
  O  O172  1  0.83386667  0.91439240  0.45940529  1
  O  O173  1  0.83386667  0.58560760  0.54059471  1
  O  O174  1  0.16613333  0.08560760  0.54059471  1
  O  O175  1  0.16613333  0.41439240  0.45940529  1
  O  O176  1  0.29857084  0.52416552  0.50476933  1
  O  O177  1  0.29857084  0.97583448  0.49523067  1
  O  O178  1  0.70142916  0.47583448  0.49523067  1
  O  O179  1  0.70142916  0.02416552  0.50476933  1
  O  O180  1  0.00489455  0.86248633  0.07292516  1
  O  O181  1  0.00489455  0.63751367  0.92707484  1
  O  O182  1  0.99510545  0.13751367  0.92707484  1
  O  O183  1  0.99510545  0.36248633  0.07292516  1
  O  O184  1  0.99476759  0.87027510  0.17561567  1
  O  O185  1  0.99476759  0.62972490  0.82438433  1
  O  O186  1  0.00523241  0.12972490  0.82438433  1
  O  O187  1  0.00523241  0.37027510  0.17561567  1
  O  O188  1  0.84713495  0.77183990  0.12551182  1
  O  O189  1  0.84713495  0.72816010  0.87448818  1
  O  O190  1  0.15286505  0.22816010  0.87448818  1
  O  O191  1  0.15286505  0.27183990  0.12551182  1
