# generated using pymatgen
data_Tb2S3
_symmetry_space_group_name_H-M   'P 1'
_cell_length_a   3.91248800
_cell_length_b   7.32031800
_cell_length_c   15.24465400
_cell_angle_alpha   90.00000000
_cell_angle_beta   90.00000000
_cell_angle_gamma   90.00000000
_symmetry_Int_Tables_number   1
_chemical_formula_structural   Tb2S3
_chemical_formula_sum   'Tb8 S12'
_cell_volume   436.61689610
_cell_formula_units_Z   4
loop_
 _symmetry_equiv_pos_site_id
 _symmetry_equiv_pos_as_xyz
  1  'x, y, z'
loop_
 _atom_site_type_symbol
 _atom_site_label
 _atom_site_symmetry_multiplicity
 _atom_site_fract_x
 _atom_site_fract_y
 _atom_site_fract_z
 _atom_site_occupancy
  Tb  Tb0  1  0.25000000  0.76672000  0.45657400  1
  Tb  Tb1  1  0.25000000  0.26672000  0.04342600  1
  Tb  Tb2  1  0.75000000  0.23328000  0.54342600  1
  Tb  Tb3  1  0.75000000  0.73328000  0.95657400  1
  Tb  Tb4  1  0.25000000  0.14187200  0.79579700  1
  Tb  Tb5  1  0.25000000  0.64187200  0.70420300  1
  Tb  Tb6  1  0.75000000  0.85812800  0.20420300  1
  Tb  Tb7  1  0.75000000  0.35812800  0.29579700  1
  S  S8  1  0.25000000  0.00897000  0.60863300  1
  S  S9  1  0.25000000  0.50897000  0.89136700  1
  S  S10  1  0.75000000  0.99103000  0.39136700  1
  S  S11  1  0.75000000  0.49103000  0.10863300  1
  S  S12  1  0.25000000  0.14871500  0.21847700  1
  S  S13  1  0.25000000  0.64871500  0.28152300  1
  S  S14  1  0.75000000  0.85128500  0.78152300  1
  S  S15  1  0.75000000  0.35128500  0.71847700  1
  S  S16  1  0.25000000  0.37570200  0.43286500  1
  S  S17  1  0.25000000  0.87570200  0.06713500  1
  S  S18  1  0.75000000  0.62429800  0.56713500  1
  S  S19  1  0.75000000  0.12429800  0.93286500  1
