# generated using pymatgen
data_CsLa(SO6)2
_symmetry_space_group_name_H-M   'P 1'
_cell_length_a   20.29575700
_cell_length_b   6.52541500
_cell_length_c   8.89366854
_cell_angle_alpha   87.79645057
_cell_angle_beta   90.00000000
_cell_angle_gamma   90.00000000
_symmetry_Int_Tables_number   1
_chemical_formula_structural   CsLa(SO6)2
_chemical_formula_sum   'Cs4 La4 S8 O48'
_cell_volume   1176.99079800
_cell_formula_units_Z   4
loop_
 _symmetry_equiv_pos_site_id
 _symmetry_equiv_pos_as_xyz
  1  'x, y, z'
loop_
 _atom_site_type_symbol
 _atom_site_label
 _atom_site_symmetry_multiplicity
 _atom_site_fract_x
 _atom_site_fract_y
 _atom_site_fract_z
 _atom_site_occupancy
  Cs  Cs0  1  0.70913500  0.86450900  0.63218700  1
  Cs  Cs1  1  0.20913500  0.13549100  0.86781300  1
  Cs  Cs2  1  0.29086500  0.13549100  0.36781300  1
  Cs  Cs3  1  0.79086500  0.86450900  0.13218700  1
  La  La4  1  0.36460600  0.61671700  0.71194000  1
  La  La5  1  0.86460600  0.38328300  0.78806000  1
  La  La6  1  0.63539400  0.38328300  0.28806000  1
  La  La7  1  0.13539400  0.61671700  0.21194000  1
  S  S8  1  0.93042000  0.81800000  0.79067500  1
  S  S9  1  0.43042000  0.18200000  0.70932500  1
  S  S10  1  0.06958000  0.18200000  0.20932500  1
  S  S11  1  0.56958000  0.81800000  0.29067500  1
  S  S12  1  0.21556900  0.61937400  0.60597700  1
  S  S13  1  0.71556900  0.38062600  0.89402300  1
  S  S14  1  0.78443100  0.38062600  0.39402300  1
  S  S15  1  0.28443100  0.61937400  0.10597700  1
  O  O16  1  0.39476500  0.98035900  0.68451400  1
  O  O17  1  0.89476500  0.01964100  0.81548600  1
  O  O18  1  0.60523500  0.01964100  0.31548600  1
  O  O19  1  0.10523500  0.98035900  0.18451400  1
  O  O20  1  0.00031800  0.85142400  0.76781200  1
  O  O21  1  0.50031800  0.14857600  0.73218800  1
  O  O22  1  0.99968200  0.14857600  0.23218800  1
  O  O23  1  0.49968200  0.85142400  0.26781200  1
  O  O24  1  0.89644500  0.72413800  0.65936100  1
  O  O25  1  0.39644500  0.27586200  0.84063900  1
  O  O26  1  0.10355500  0.27586200  0.34063900  1
  O  O27  1  0.60355500  0.72413800  0.15936100  1
  O  O28  1  0.91640000  0.67341100  0.92312300  1
  O  O29  1  0.41640000  0.32658900  0.57687700  1
  O  O30  1  0.08360000  0.32658900  0.07687700  1
  O  O31  1  0.58360000  0.67341100  0.42312300  1
  O  O32  1  0.25749300  0.80566900  0.63246600  1
  O  O33  1  0.75749300  0.19433100  0.86753400  1
  O  O34  1  0.74250700  0.19433100  0.36753400  1
  O  O35  1  0.24250700  0.80566900  0.13246600  1
  O  O36  1  0.31045500  0.63641200  0.94864000  1
  O  O37  1  0.81045500  0.36358800  0.55136000  1
  O  O38  1  0.68954500  0.36358800  0.05136000  1
  O  O39  1  0.18954500  0.63641200  0.44864000  1
  O  O40  1  0.16293900  0.59138600  0.71564500  1
  O  O41  1  0.66293900  0.40861400  0.78435500  1
  O  O42  1  0.83706100  0.40861400  0.28435500  1
  O  O43  1  0.33706100  0.59138600  0.21564500  1
  O  O44  1  0.76430600  0.55787300  0.88319600  1
  O  O45  1  0.26430600  0.44212700  0.61680400  1
  O  O46  1  0.23569400  0.44212700  0.11680400  1
  O  O47  1  0.73569400  0.55787300  0.38319600  1
  O  O48  1  0.57531400  0.82376100  0.83721600  1
  O  O49  1  0.07531400  0.17623900  0.66278400  1
  O  O50  1  0.42468600  0.17623900  0.16278400  1
  O  O51  1  0.92468600  0.82376100  0.33721600  1
  O  O52  1  0.10830200  0.80599400  0.96413300  1
  O  O53  1  0.60830200  0.19400600  0.53586700  1
  O  O54  1  0.89169800  0.19400600  0.03586700  1
  O  O55  1  0.39169800  0.80599400  0.46413300  1
  O  O56  1  0.47640300  0.70080900  0.87672800  1
  O  O57  1  0.97640300  0.29919100  0.62327200  1
  O  O58  1  0.52359700  0.29919100  0.12327200  1
  O  O59  1  0.02359700  0.70080900  0.37672800  1
  O  O60  1  0.53115500  0.70120500  0.79811900  1
  O  O61  1  0.03115500  0.29879500  0.70188100  1
  O  O62  1  0.46884500  0.29879500  0.20188100  1
  O  O63  1  0.96884500  0.70120500  0.29811900  1
