# generated using pymatgen
data_KV5NiO22
_symmetry_space_group_name_H-M   'P 1'
_cell_length_a   9.82121100
_cell_length_b   10.88422190
_cell_length_c   10.97766485
_cell_angle_alpha   65.67227531
_cell_angle_beta   68.68974953
_cell_angle_gamma   75.15456049
_symmetry_Int_Tables_number   1
_chemical_formula_structural   KV5NiO22
_chemical_formula_sum   'K2 V10 Ni2 O44'
_cell_volume   988.29088008
_cell_formula_units_Z   2
loop_
 _symmetry_equiv_pos_site_id
 _symmetry_equiv_pos_as_xyz
  1  'x, y, z'
loop_
 _atom_site_type_symbol
 _atom_site_label
 _atom_site_symmetry_multiplicity
 _atom_site_fract_x
 _atom_site_fract_y
 _atom_site_fract_z
 _atom_site_occupancy
  K  K0  1  0.27725700  0.27908300  0.43505700  1
  K  K1  1  0.72274300  0.72091700  0.56494300  1
  V  V2  1  0.62809100  0.31546200  0.75943400  1
  V  V3  1  0.37190900  0.68453800  0.24056600  1
  V  V4  1  0.32161600  0.26170700  0.76573600  1
  V  V5  1  0.67838400  0.73829300  0.23426400  1
  V  V6  1  0.61273700  0.05238200  0.70910600  1
  V  V7  1  0.38726300  0.94761800  0.29089400  1
  V  V8  1  0.36005400  0.24393400  0.04830900  1
  V  V9  1  0.63994600  0.75606600  0.95169100  1
  V  V10  1  0.33965000  0.97553500  0.00788300  1
  V  V11  1  0.66035000  0.02446500  0.99211700  1
  Ni  Ni12  1  0.80292100  0.31159700  0.17416000  1
  Ni  Ni13  1  0.19707900  0.68840300  0.82584000  1
  O  O14  1  0.46575700  0.37440300  0.69369300  1
  O  O15  1  0.53424300  0.62559700  0.30630700  1
  O  O16  1  0.60717800  0.35296800  0.16360300  1
  O  O17  1  0.39282200  0.64703200  0.83639700  1
  O  O18  1  0.73820700  0.05996000  0.30386300  1
  O  O19  1  0.26179300  0.94004000  0.69613700  1
  O  O20  1  0.92834600  0.27650300  0.28181400  1
  O  O21  1  0.07165400  0.72349700  0.71818600  1
  O  O22  1  0.60559500  0.35918500  0.28021000  1
  O  O23  1  0.39440500  0.64081500  0.71979000  1
  O  O24  1  0.92961400  0.40324700  0.29524400  1
  O  O25  1  0.07038600  0.59675300  0.70475600  1
  O  O26  1  0.20394600  0.34054300  0.67724400  1
  O  O27  1  0.79605400  0.65945700  0.32275600  1
  O  O28  1  0.92369600  0.28613000  0.03216900  1
  O  O29  1  0.07630400  0.71387000  0.96783100  1
  O  O30  1  0.72607700  0.44129000  0.67574000  1
  O  O31  1  0.27392300  0.55871000  0.32426000  1
  O  O32  1  0.00178600  0.39068400  0.37324700  1
  O  O33  1  0.99821400  0.60931600  0.62675300  1
  O  O34  1  0.15794800  0.03160800  0.68925600  1
  O  O35  1  0.84205200  0.96839200  0.31074400  1
  O  O36  1  0.44716900  0.15265500  0.66021600  1
  O  O37  1  0.55283100  0.84734500  0.33978400  1
  O  O38  1  0.24868100  0.30947900  0.92980900  1
  O  O39  1  0.75131900  0.69052100  0.07019100  1
  O  O40  1  0.70645000  0.19685700  0.65522600  1
  O  O41  1  0.29355000  0.80314300  0.34477400  1
  O  O42  1  0.50862900  0.34598800  0.92751100  1
  O  O43  1  0.49137100  0.65401200  0.07248900  1
  O  O44  1  0.48945700  0.11774500  0.90198500  1
  O  O45  1  0.51054300  0.88225500  0.09801500  1
  O  O46  1  0.48711500  0.90438700  0.86719700  1
  O  O47  1  0.51288500  0.09561300  0.13280300  1
  O  O48  1  0.23675000  0.08744300  0.89782000  1
  O  O49  1  0.76325000  0.91255700  0.10218000  1
  O  O50  1  0.28051200  0.31065100  0.16999600  1
  O  O51  1  0.71948800  0.68934900  0.83000400  1
  O  O52  1  0.28053300  0.06074800  0.14223100  1
  O  O53  1  0.71946700  0.93925200  0.85776900  1
  O  O54  1  0.25943100  0.82712100  0.11072700  1
  O  O55  1  0.74056900  0.17287900  0.88927300  1
  O  O56  1  0.69268300  0.97588900  0.59569200  1
  O  O57  1  0.30731700  0.02411100  0.40430800  1
