# generated using pymatgen
data_Mn2PO5
_symmetry_space_group_name_H-M   'P 1'
_cell_length_a   13.28550500
_cell_length_b   9.65373100
_cell_length_c   12.33581474
_cell_angle_alpha   72.60045176
_cell_angle_beta   90.00000000
_cell_angle_gamma   90.00000000
_symmetry_Int_Tables_number   1
_chemical_formula_structural   Mn2PO5
_chemical_formula_sum   'Mn32 P16 O80'
_cell_volume   1509.73227323
_cell_formula_units_Z   16
loop_
 _symmetry_equiv_pos_site_id
 _symmetry_equiv_pos_as_xyz
  1  'x, y, z'
loop_
 _atom_site_type_symbol
 _atom_site_label
 _atom_site_symmetry_multiplicity
 _atom_site_fract_x
 _atom_site_fract_y
 _atom_site_fract_z
 _atom_site_occupancy
  Mn  Mn0  1  0.01194500  0.80434000  0.69902300  1
  Mn  Mn1  1  0.51194500  0.19566000  0.80097700  1
  Mn  Mn2  1  0.98805500  0.19566000  0.30097700  1
  Mn  Mn3  1  0.48805500  0.80434000  0.19902300  1
  Mn  Mn4  1  0.49437700  0.78345900  0.69596100  1
  Mn  Mn5  1  0.99437700  0.21654100  0.80403900  1
  Mn  Mn6  1  0.50562300  0.21654100  0.30403900  1
  Mn  Mn7  1  0.00562300  0.78345900  0.19596100  1
  Mn  Mn8  1  0.24195700  0.28647700  0.19666700  1
  Mn  Mn9  1  0.74195700  0.71352300  0.30333300  1
  Mn  Mn10  1  0.75804300  0.71352300  0.80333300  1
  Mn  Mn11  1  0.25804300  0.28647700  0.69666700  1
  Mn  Mn12  1  0.75820900  0.30102800  0.19484000  1
  Mn  Mn13  1  0.25820900  0.69897200  0.30516000  1
  Mn  Mn14  1  0.24179100  0.69897200  0.80516000  1
  Mn  Mn15  1  0.74179100  0.30102800  0.69484000  1
  Mn  Mn16  1  0.42822900  0.52807900  0.60467100  1
  Mn  Mn17  1  0.92822900  0.47192100  0.89532900  1
  Mn  Mn18  1  0.57177100  0.47192100  0.39532900  1
  Mn  Mn19  1  0.07177100  0.52807900  0.10467100  1
  Mn  Mn20  1  0.92882600  0.54544100  0.59891800  1
  Mn  Mn21  1  0.42882600  0.45455900  0.90108200  1
  Mn  Mn22  1  0.07117400  0.45455900  0.40108200  1
  Mn  Mn23  1  0.57117400  0.54544100  0.09891800  1
  Mn  Mn24  1  0.17758400  0.02632400  0.11690400  1
  Mn  Mn25  1  0.67758400  0.97367600  0.38309600  1
  Mn  Mn26  1  0.82241600  0.97367600  0.88309600  1
  Mn  Mn27  1  0.32241600  0.02632400  0.61690400  1
  Mn  Mn28  1  0.67948500  0.04083500  0.08653000  1
  Mn  Mn29  1  0.17948500  0.95916500  0.41347000  1
  Mn  Mn30  1  0.32051500  0.95916500  0.91347000  1
  Mn  Mn31  1  0.82051500  0.04083500  0.58653000  1
  P  P32  1  0.17492600  0.37083600  0.92504600  1
  P  P33  1  0.67492600  0.62916400  0.57495400  1
  P  P34  1  0.82507400  0.62916400  0.07495400  1
  P  P35  1  0.32507400  0.37083600  0.42504600  1
  P  P36  1  0.67065400  0.38663400  0.92311400  1
  P  P37  1  0.17065400  0.61336600  0.57688600  1
  P  P38  1  0.32934600  0.61336600  0.07688600  1
  P  P39  1  0.82934600  0.38663400  0.42311400  1
  P  P40  1  0.41881900  0.88475900  0.42687100  1
  P  P41  1  0.91881900  0.11524100  0.07312900  1
  P  P42  1  0.58118100  0.11524100  0.57312900  1
  P  P43  1  0.08118100  0.88475900  0.92687100  1
  P  P44  1  0.92548300  0.87783800  0.42279600  1
  P  P45  1  0.42548300  0.12216200  0.07720400  1
  P  P46  1  0.07451700  0.12216200  0.57720400  1
  P  P47  1  0.57451700  0.87783800  0.92279600  1
  O  O48  1  0.08089900  0.52931200  0.54813000  1
  O  O49  1  0.58089900  0.47068800  0.95187000  1
  O  O50  1  0.91910100  0.47068800  0.45187000  1
  O  O51  1  0.41910100  0.52931200  0.04813000  1
  O  O52  1  0.59170500  0.52732900  0.54885200  1
  O  O53  1  0.09170500  0.47267100  0.95114800  1
  O  O54  1  0.40829500  0.47267100  0.45114800  1
  O  O55  1  0.90829500  0.52732900  0.04885200  1
  O  O56  1  0.34087700  0.01292800  0.07099100  1
  O  O57  1  0.84087700  0.98707200  0.42900900  1
  O  O58  1  0.65912300  0.98707200  0.92900900  1
  O  O59  1  0.15912300  0.01292800  0.57099100  1
  O  O60  1  0.83361700  0.03022000  0.03224000  1
  O  O61  1  0.33361700  0.96978000  0.46776000  1
  O  O62  1  0.16638300  0.96978000  0.96776000  1
  O  O63  1  0.66638300  0.03022000  0.53224000  1
  O  O64  1  0.45440400  0.75361400  0.52612100  1
  O  O65  1  0.95440400  0.24638600  0.97387900  1
  O  O66  1  0.54559600  0.24638600  0.47387900  1
  O  O67  1  0.04559600  0.75361400  0.02612100  1
  O  O68  1  0.94379600  0.77284800  0.54399700  1
  O  O69  1  0.44379600  0.22715200  0.95600300  1
  O  O70  1  0.05620400  0.22715200  0.45600300  1
  O  O71  1  0.55620400  0.77284800  0.04399700  1
  O  O72  1  0.20258800  0.24675000  0.03357800  1
  O  O73  1  0.70258800  0.75325000  0.46642200  1
  O  O74  1  0.79741200  0.75325000  0.96642200  1
  O  O75  1  0.29741200  0.24675000  0.53357800  1
  O  O76  1  0.70481400  0.26903400  0.03300200  1
  O  O77  1  0.20481400  0.73096600  0.46699800  1
  O  O78  1  0.29518600  0.73096600  0.96699800  1
  O  O79  1  0.79518600  0.26903400  0.53300200  1
  O  O80  1  0.14318800  0.30279700  0.83104700  1
  O  O81  1  0.64318800  0.69720300  0.66895300  1
  O  O82  1  0.85681200  0.69720300  0.16895300  1
  O  O83  1  0.35681200  0.30279700  0.33104700  1
  O  O84  1  0.64136600  0.31819400  0.82897800  1
  O  O85  1  0.14136600  0.68180600  0.67102200  1
  O  O86  1  0.35863400  0.68180600  0.17102200  1
  O  O87  1  0.85863400  0.31819400  0.32897800  1
  O  O88  1  0.38188700  0.83129000  0.32718900  1
  O  O89  1  0.88188700  0.16871000  0.17281100  1
  O  O90  1  0.61811300  0.16871000  0.67281100  1
  O  O91  1  0.11811300  0.83129000  0.82718900  1
  O  O92  1  0.90001100  0.79184900  0.33866500  1
  O  O93  1  0.40001100  0.20815100  0.16133500  1
  O  O94  1  0.09998900  0.20815100  0.66133500  1
  O  O95  1  0.59998900  0.79184900  0.83866500  1
  O  O96  1  0.26849300  0.46947200  0.88193900  1
  O  O97  1  0.76849300  0.53052800  0.61806100  1
  O  O98  1  0.73150700  0.53052800  0.11806100  1
  O  O99  1  0.23150700  0.46947200  0.38193900  1
  O  O100  1  0.75917400  0.49447400  0.87946700  1
  O  O101  1  0.25917400  0.50552600  0.62053300  1
  O  O102  1  0.24082600  0.50552600  0.12053300  1
  O  O103  1  0.74082600  0.49447400  0.37946700  1
  O  O104  1  0.02202900  0.97032100  0.38107000  1
  O  O105  1  0.52202900  0.02967900  0.11893000  1
  O  O106  1  0.97797100  0.02967900  0.61893000  1
  O  O107  1  0.47797100  0.97032100  0.88107000  1
  O  O108  1  0.50682100  0.99260400  0.38218900  1
  O  O109  1  0.00682100  0.00739600  0.11781100  1
  O  O110  1  0.49317900  0.00739600  0.61781100  1
  O  O111  1  0.99317900  0.99260400  0.88218900  1
  O  O112  1  0.40562300  0.33317300  0.70562000  1
  O  O113  1  0.90562300  0.66682700  0.79438000  1
  O  O114  1  0.59437700  0.66682700  0.29438000  1
  O  O115  1  0.09437700  0.33317300  0.20562000  1
  O  O116  1  0.95256300  0.41585400  0.75847000  1
  O  O117  1  0.45256300  0.58414600  0.74153000  1
  O  O118  1  0.04743700  0.58414600  0.24153000  1
  O  O119  1  0.54743700  0.41585400  0.25847000  1
  O  O120  1  0.14947900  0.83290800  0.21422000  1
  O  O121  1  0.64947900  0.16709200  0.28578000  1
  O  O122  1  0.85052100  0.16709200  0.78578000  1
  O  O123  1  0.35052100  0.83290800  0.71422000  1
  O  O124  1  0.70492500  0.91342400  0.24847200  1
  O  O125  1  0.20492500  0.08657600  0.25152800  1
  O  O126  1  0.29507500  0.08657600  0.75152800  1
  O  O127  1  0.79507500  0.91342400  0.74847200  1
