# generated using pymatgen
data_Ti2P3H7NO13
_symmetry_space_group_name_H-M   'P 1'
_cell_length_a   10.02908300
_cell_length_b   10.02908300
_cell_length_c   10.02908300
_cell_angle_alpha   90.00000000
_cell_angle_beta   90.00000000
_cell_angle_gamma   90.00000000
_symmetry_Int_Tables_number   1
_chemical_formula_structural   Ti2P3H7NO13
_chemical_formula_sum   'Ti8 P12 H28 N4 O52'
_cell_volume   1008.75029923
_cell_formula_units_Z   4
loop_
 _symmetry_equiv_pos_site_id
 _symmetry_equiv_pos_as_xyz
  1  'x, y, z'
loop_
 _atom_site_type_symbol
 _atom_site_label
 _atom_site_symmetry_multiplicity
 _atom_site_fract_x
 _atom_site_fract_y
 _atom_site_fract_z
 _atom_site_occupancy
  Ti  Ti0  1  0.41057200  0.91057200  0.58942800  1
  Ti  Ti1  1  0.91057200  0.58942800  0.41057200  1
  Ti  Ti2  1  0.58942800  0.41057200  0.91057200  1
  Ti  Ti3  1  0.08942800  0.08942800  0.08942800  1
  Ti  Ti4  1  0.14177500  0.64177500  0.85822500  1
  Ti  Ti5  1  0.64177500  0.85822500  0.14177500  1
  Ti  Ti6  1  0.85822500  0.14177500  0.64177500  1
  Ti  Ti7  1  0.35822500  0.35822500  0.35822500  1
  P  P8  1  0.12351900  0.95958100  0.77126500  1
  P  P9  1  0.22873500  0.62351900  0.54041900  1
  P  P10  1  0.45958100  0.72873500  0.87648100  1
  P  P11  1  0.62351900  0.54041900  0.22873500  1
  P  P12  1  0.72873500  0.87648100  0.45958100  1
  P  P13  1  0.95958100  0.77126500  0.12351900  1
  P  P14  1  0.87648100  0.45958100  0.72873500  1
  P  P15  1  0.77126500  0.12351900  0.95958100  1
  P  P16  1  0.54041900  0.22873500  0.62351900  1
  P  P17  1  0.37648100  0.04041900  0.27126500  1
  P  P18  1  0.27126500  0.37648100  0.04041900  1
  P  P19  1  0.04041900  0.27126500  0.37648100  1
  H  H20  1  0.32634000  0.04156800  0.92582900  1
  H  H21  1  0.07417100  0.82634000  0.45843200  1
  H  H22  1  0.54156800  0.57417100  0.67366000  1
  H  H23  1  0.82634000  0.45843200  0.07417100  1
  H  H24  1  0.57417100  0.67366000  0.54156800  1
  H  H25  1  0.04156800  0.92582900  0.32634000  1
  H  H26  1  0.67366000  0.54156800  0.57417100  1
  H  H27  1  0.92582900  0.32634000  0.04156800  1
  H  H28  1  0.45843200  0.07417100  0.82634000  1
  H  H29  1  0.17366000  0.95843200  0.42582900  1
  H  H30  1  0.42582900  0.17366000  0.95843200  1
  H  H31  1  0.95843200  0.42582900  0.17366000  1
  H  H32  1  0.48306200  0.01693800  0.98306200  1
  H  H33  1  0.01693800  0.98306200  0.48306200  1
  H  H34  1  0.51693800  0.51693800  0.51693800  1
  H  H35  1  0.98306200  0.48306200  0.01693800  1
  H  H36  1  0.90627900  0.80220900  0.78053800  1
  H  H37  1  0.21946200  0.40627900  0.69779100  1
  H  H38  1  0.30220900  0.71946200  0.09372100  1
  H  H39  1  0.40627900  0.69779100  0.21946200  1
  H  H40  1  0.71946200  0.09372100  0.30220900  1
  H  H41  1  0.80220900  0.78053800  0.90627900  1
  H  H42  1  0.09372100  0.30220900  0.71946200  1
  H  H43  1  0.78053800  0.90627900  0.80220900  1
  H  H44  1  0.69779100  0.21946200  0.40627900  1
  H  H45  1  0.59372100  0.19779100  0.28053800  1
  H  H46  1  0.28053800  0.59372100  0.19779100  1
  H  H47  1  0.19779100  0.28053800  0.59372100  1
  N  N48  1  0.42413800  0.07586200  0.92413800  1
  N  N49  1  0.07586200  0.92413800  0.42413800  1
  N  N50  1  0.57586200  0.57586200  0.57586200  1
  N  N51  1  0.92413800  0.42413800  0.07586200  1
  O  O52  1  0.25366600  0.97135300  0.69090700  1
  O  O53  1  0.30909300  0.75366600  0.52864700  1
  O  O54  1  0.47135300  0.80909300  0.74633400  1
  O  O55  1  0.75366600  0.52864700  0.30909300  1
  O  O56  1  0.80909300  0.74633400  0.47135300  1
  O  O57  1  0.97135300  0.69090700  0.25366600  1
  O  O58  1  0.74633400  0.47135300  0.80909300  1
  O  O59  1  0.69090700  0.25366600  0.97135300  1
  O  O60  1  0.52864700  0.30909300  0.75366600  1
  O  O61  1  0.24633400  0.02864700  0.19090700  1
  O  O62  1  0.19090700  0.24633400  0.02864700  1
  O  O63  1  0.02864700  0.19090700  0.24633400  1
  O  O64  1  0.07057200  0.81256300  0.76806800  1
  O  O65  1  0.23193200  0.57057200  0.68743700  1
  O  O66  1  0.31256300  0.73193200  0.92942800  1
  O  O67  1  0.57057200  0.68743700  0.23193200  1
  O  O68  1  0.73193200  0.92942800  0.31256300  1
  O  O69  1  0.81256300  0.76806800  0.07057200  1
  O  O70  1  0.92942800  0.31256300  0.73193200  1
  O  O71  1  0.76806800  0.07057200  0.81256300  1
  O  O72  1  0.68743700  0.23193200  0.57057200  1
  O  O73  1  0.42942800  0.18743700  0.26806800  1
  O  O74  1  0.26806800  0.42942800  0.18743700  1
  O  O75  1  0.18743700  0.26806800  0.42942800  1
  O  O76  1  0.14862600  0.00314500  0.91703500  1
  O  O77  1  0.08296500  0.64862600  0.49685500  1
  O  O78  1  0.50314500  0.58296500  0.85137400  1
  O  O79  1  0.64862600  0.49685500  0.08296500  1
  O  O80  1  0.58296500  0.85137400  0.50314500  1
  O  O81  1  0.00314500  0.91703500  0.14862600  1
  O  O82  1  0.85137400  0.50314500  0.58296500  1
  O  O83  1  0.91703500  0.14862600  0.00314500  1
  O  O84  1  0.49685500  0.08296500  0.64862600  1
  O  O85  1  0.35137400  0.99685500  0.41703500  1
  O  O86  1  0.41703500  0.35137400  0.99685500  1
  O  O87  1  0.99685500  0.41703500  0.35137400  1
  O  O88  1  0.01876100  0.04879300  0.70365700  1
  O  O89  1  0.29634300  0.51876100  0.45120700  1
  O  O90  1  0.54879300  0.79634300  0.98123900  1
  O  O91  1  0.51876100  0.45120700  0.29634300  1
  O  O92  1  0.79634300  0.98123900  0.54879300  1
  O  O93  1  0.04879300  0.70365700  0.01876100  1
  O  O94  1  0.98123900  0.54879300  0.79634300  1
  O  O95  1  0.70365700  0.01876100  0.04879300  1
  O  O96  1  0.45120700  0.29634300  0.51876100  1
  O  O97  1  0.48123900  0.95120700  0.20365700  1
  O  O98  1  0.20365700  0.48123900  0.95120700  1
  O  O99  1  0.95120700  0.20365700  0.48123900  1
  O  O100  1  0.80755700  0.80755700  0.80755700  1
  O  O101  1  0.19244300  0.30755700  0.69244300  1
  O  O102  1  0.30755700  0.69244300  0.19244300  1
  O  O103  1  0.69244300  0.19244300  0.30755700  1
