# generated using pymatgen
data_KCoMo3(AsO6)3
_symmetry_space_group_name_H-M   'P 1'
_cell_length_a   15.20295503
_cell_length_b   15.20295503
_cell_length_c   15.20295503
_cell_angle_alpha   90.00000000
_cell_angle_beta   90.00000000
_cell_angle_gamma   90.00000000
_symmetry_Int_Tables_number   1
_chemical_formula_structural   KCoMo3(AsO6)3
_chemical_formula_sum   'K8 Co8 Mo24 As24 O144'
_cell_volume   3513.85658861
_cell_formula_units_Z   8
loop_
 _symmetry_equiv_pos_site_id
 _symmetry_equiv_pos_as_xyz
  1  'x, y, z'
loop_
 _atom_site_type_symbol
 _atom_site_label
 _atom_site_symmetry_multiplicity
 _atom_site_fract_x
 _atom_site_fract_y
 _atom_site_fract_z
 _atom_site_occupancy
  K  K0  1  0.25180448  0.75180448  0.74819552  1
  K  K1  1  0.74819552  0.25180448  0.75180448  1
  K  K2  1  0.24819552  0.24819552  0.24819552  1
  K  K3  1  0.75180448  0.74819552  0.25180448  1
  K  K4  1  0.74819552  0.24819552  0.25180448  1
  K  K5  1  0.25180448  0.74819552  0.24819552  1
  K  K6  1  0.75180448  0.75180448  0.75180448  1
  K  K7  1  0.24819552  0.25180448  0.74819552  1
  Co  Co8  1  0.50000000  0.50000000  -0.00000000  1
  Co  Co9  1  0.50000000  0.00000000  0.50000000  1
  Co  Co10  1  -0.00000000  0.50000000  0.50000000  1
  Co  Co11  1  -0.00000000  0.00000000  -0.00000000  1
  Co  Co12  1  0.50000000  0.50000000  0.50000000  1
  Co  Co13  1  0.50000000  0.00000000  -0.00000000  1
  Co  Co14  1  -0.00000000  0.50000000  -0.00000000  1
  Co  Co15  1  -0.00000000  0.00000000  0.50000000  1
  Mo  Mo16  1  0.34138631  0.50274630  0.84049511  1
  Mo  Mo17  1  0.65861369  0.00274630  0.65950489  1
  Mo  Mo18  1  0.15861369  0.49725370  0.34049511  1
  Mo  Mo19  1  0.84138631  0.99725370  0.15950489  1
  Mo  Mo20  1  0.84049511  0.34138631  0.50274630  1
  Mo  Mo21  1  0.65950489  0.65861369  0.00274630  1
  Mo  Mo22  1  0.34049511  0.15861369  0.49725370  1
  Mo  Mo23  1  0.15950489  0.84138631  0.99725370  1
  Mo  Mo24  1  0.50274630  0.84049511  0.34138631  1
  Mo  Mo25  1  0.00274630  0.65950489  0.65861369  1
  Mo  Mo26  1  0.49725370  0.34049511  0.15861369  1
  Mo  Mo27  1  0.99725370  0.15950489  0.84138631  1
  Mo  Mo28  1  0.65861369  0.49725370  0.15950489  1
  Mo  Mo29  1  0.34138631  0.99725370  0.34049511  1
  Mo  Mo30  1  0.84138631  0.50274630  0.65950489  1
  Mo  Mo31  1  0.15861369  0.00274630  0.84049511  1
  Mo  Mo32  1  0.15950489  0.65861369  0.49725370  1
  Mo  Mo33  1  0.34049511  0.34138631  0.99725370  1
  Mo  Mo34  1  0.65950489  0.84138631  0.50274630  1
  Mo  Mo35  1  0.84049511  0.15861369  0.00274630  1
  Mo  Mo36  1  0.49725370  0.15950489  0.65861369  1
  Mo  Mo37  1  0.99725370  0.34049511  0.34138631  1
  Mo  Mo38  1  0.50274630  0.65950489  0.84138631  1
  Mo  Mo39  1  0.00274630  0.84049511  0.15861369  1
  As  As40  1  0.51137576  0.34463191  0.83145339  1
  As  As41  1  0.48862424  0.84463191  0.66854661  1
  As  As42  1  0.98862424  0.65536809  0.33145339  1
  As  As43  1  0.01137576  0.15536809  0.16854661  1
  As  As44  1  0.83145339  0.51137576  0.34463191  1
  As  As45  1  0.66854661  0.48862424  0.84463191  1
  As  As46  1  0.33145339  0.98862424  0.65536809  1
  As  As47  1  0.16854661  0.01137576  0.15536809  1
  As  As48  1  0.34463191  0.83145339  0.51137576  1
  As  As49  1  0.84463191  0.66854661  0.48862424  1
  As  As50  1  0.65536809  0.33145339  0.98862424  1
  As  As51  1  0.15536809  0.16854661  0.01137576  1
  As  As52  1  0.48862424  0.65536809  0.16854661  1
  As  As53  1  0.51137576  0.15536809  0.33145339  1
  As  As54  1  0.01137576  0.34463191  0.66854661  1
  As  As55  1  0.98862424  0.84463191  0.83145339  1
  As  As56  1  0.16854661  0.48862424  0.65536809  1
  As  As57  1  0.33145339  0.51137576  0.15536809  1
  As  As58  1  0.66854661  0.01137576  0.34463191  1
  As  As59  1  0.83145339  0.98862424  0.84463191  1
  As  As60  1  0.65536809  0.16854661  0.48862424  1
  As  As61  1  0.15536809  0.33145339  0.51137576  1
  As  As62  1  0.34463191  0.66854661  0.01137576  1
  As  As63  1  0.84463191  0.83145339  0.98862424  1
  O  O64  1  0.45458909  0.41829848  0.91262558  1
  O  O65  1  0.54541091  0.91829848  0.58737442  1
  O  O66  1  0.04541091  0.58170152  0.41262558  1
  O  O67  1  0.95458909  0.08170152  0.08737442  1
  O  O68  1  0.91262558  0.45458909  0.41829848  1
  O  O69  1  0.58737442  0.54541091  0.91829848  1
  O  O70  1  0.41262558  0.04541091  0.58170152  1
  O  O71  1  0.08737442  0.95458909  0.08170152  1
  O  O72  1  0.41829848  0.91262558  0.45458909  1
  O  O73  1  0.91829848  0.58737442  0.54541091  1
  O  O74  1  0.58170152  0.41262558  0.04541091  1
  O  O75  1  0.08170152  0.08737442  0.95458909  1
  O  O76  1  0.54541091  0.58170152  0.08737442  1
  O  O77  1  0.45458909  0.08170152  0.41262558  1
  O  O78  1  0.95458909  0.41829848  0.58737442  1
  O  O79  1  0.04541091  0.91829848  0.91262558  1
  O  O80  1  0.08737442  0.54541091  0.58170152  1
  O  O81  1  0.41262558  0.45458909  0.08170152  1
  O  O82  1  0.58737442  0.95458909  0.41829848  1
  O  O83  1  0.91262558  0.04541091  0.91829848  1
  O  O84  1  0.58170152  0.08737442  0.54541091  1
  O  O85  1  0.08170152  0.41262558  0.45458909  1
  O  O86  1  0.41829848  0.58737442  0.95458909  1
  O  O87  1  0.91829848  0.91262558  0.04541091  1
  O  O88  1  0.26492125  0.58593380  0.82390690  1
  O  O89  1  0.73507875  0.08593380  0.67609310  1
  O  O90  1  0.23507875  0.41406620  0.32390690  1
  O  O91  1  0.76492125  0.91406620  0.17609310  1
  O  O92  1  0.82390690  0.26492125  0.58593380  1
  O  O93  1  0.67609310  0.73507875  0.08593380  1
  O  O94  1  0.32390690  0.23507875  0.41406620  1
  O  O95  1  0.17609310  0.76492125  0.91406620  1
  O  O96  1  0.58593380  0.82390690  0.26492125  1
  O  O97  1  0.08593380  0.67609310  0.73507875  1
  O  O98  1  0.41406620  0.32390690  0.23507875  1
  O  O99  1  0.91406620  0.17609310  0.76492125  1
  O  O100  1  0.73507875  0.41406620  0.17609310  1
  O  O101  1  0.26492125  0.91406620  0.32390690  1
  O  O102  1  0.76492125  0.58593380  0.67609310  1
  O  O103  1  0.23507875  0.08593380  0.82390690  1
  O  O104  1  0.17609310  0.73507875  0.41406620  1
  O  O105  1  0.32390690  0.26492125  0.91406620  1
  O  O106  1  0.67609310  0.76492125  0.58593380  1
  O  O107  1  0.82390690  0.23507875  0.08593380  1
  O  O108  1  0.41406620  0.17609310  0.73507875  1
  O  O109  1  0.91406620  0.32390690  0.26492125  1
  O  O110  1  0.58593380  0.67609310  0.76492125  1
  O  O111  1  0.08593380  0.82390690  0.23507875  1
  O  O112  1  0.29054399  0.44565746  0.94265048  1
  O  O113  1  0.70945601  0.94565746  0.55734952  1
  O  O114  1  0.20945601  0.55434254  0.44265048  1
  O  O115  1  0.79054399  0.05434254  0.05734952  1
  O  O116  1  0.94265048  0.29054399  0.44565746  1
  O  O117  1  0.55734952  0.70945601  0.94565746  1
  O  O118  1  0.44265048  0.20945601  0.55434254  1
  O  O119  1  0.05734952  0.79054399  0.05434254  1
  O  O120  1  0.44565746  0.94265048  0.29054399  1
  O  O121  1  0.94565746  0.55734952  0.70945601  1
  O  O122  1  0.55434254  0.44265048  0.20945601  1
  O  O123  1  0.05434254  0.05734952  0.79054399  1
  O  O124  1  0.70945601  0.55434254  0.05734952  1
  O  O125  1  0.29054399  0.05434254  0.44265048  1
  O  O126  1  0.79054399  0.44565746  0.55734952  1
  O  O127  1  0.20945601  0.94565746  0.94265048  1
  O  O128  1  0.05734952  0.70945601  0.55434254  1
  O  O129  1  0.44265048  0.29054399  0.05434254  1
  O  O130  1  0.55734952  0.79054399  0.44565746  1
  O  O131  1  0.94265048  0.20945601  0.94565746  1
  O  O132  1  0.55434254  0.05734952  0.70945601  1
  O  O133  1  0.05434254  0.44265048  0.29054399  1
  O  O134  1  0.44565746  0.55734952  0.79054399  1
  O  O135  1  0.94565746  0.94265048  0.20945601  1
  O  O136  1  0.31945342  0.42361021  0.75985430  1
  O  O137  1  0.68054658  0.92361021  0.74014570  1
  O  O138  1  0.18054658  0.57638979  0.25985430  1
  O  O139  1  0.81945342  0.07638979  0.24014570  1
  O  O140  1  0.75985430  0.31945342  0.42361021  1
  O  O141  1  0.74014570  0.68054658  0.92361021  1
  O  O142  1  0.25985430  0.18054658  0.57638979  1
  O  O143  1  0.24014570  0.81945342  0.07638979  1
  O  O144  1  0.42361021  0.75985430  0.31945342  1
  O  O145  1  0.92361021  0.74014570  0.68054658  1
  O  O146  1  0.57638979  0.25985430  0.18054658  1
  O  O147  1  0.07638979  0.24014570  0.81945342  1
  O  O148  1  0.68054658  0.57638979  0.24014570  1
  O  O149  1  0.31945342  0.07638979  0.25985430  1
  O  O150  1  0.81945342  0.42361021  0.74014570  1
  O  O151  1  0.18054658  0.92361021  0.75985430  1
  O  O152  1  0.24014570  0.68054658  0.57638979  1
  O  O153  1  0.25985430  0.31945342  0.07638979  1
  O  O154  1  0.74014570  0.81945342  0.42361021  1
  O  O155  1  0.75985430  0.18054658  0.92361021  1
  O  O156  1  0.57638979  0.24014570  0.68054658  1
  O  O157  1  0.07638979  0.25985430  0.31945342  1
  O  O158  1  0.42361021  0.74014570  0.81945342  1
  O  O159  1  0.92361021  0.75985430  0.18054658  1
  O  O160  1  0.58100019  0.28514485  0.90739913  1
  O  O161  1  0.41899981  0.78514485  0.59260087  1
  O  O162  1  0.91899981  0.71485515  0.40739913  1
  O  O163  1  0.08100019  0.21485515  0.09260087  1
  O  O164  1  0.90739913  0.58100019  0.28514485  1
  O  O165  1  0.59260087  0.41899981  0.78514485  1
  O  O166  1  0.40739913  0.91899981  0.71485515  1
  O  O167  1  0.09260087  0.08100019  0.21485515  1
  O  O168  1  0.28514485  0.90739913  0.58100019  1
  O  O169  1  0.78514485  0.59260087  0.41899981  1
  O  O170  1  0.71485515  0.40739913  0.91899981  1
  O  O171  1  0.21485515  0.09260087  0.08100019  1
  O  O172  1  0.41899981  0.71485515  0.09260087  1
  O  O173  1  0.58100019  0.21485515  0.40739913  1
  O  O174  1  0.08100019  0.28514485  0.59260087  1
  O  O175  1  0.91899981  0.78514485  0.90739913  1
  O  O176  1  0.09260087  0.41899981  0.71485515  1
  O  O177  1  0.40739913  0.58100019  0.21485515  1
  O  O178  1  0.59260087  0.08100019  0.28514485  1
  O  O179  1  0.90739913  0.91899981  0.78514485  1
  O  O180  1  0.71485515  0.09260087  0.41899981  1
  O  O181  1  0.21485515  0.40739913  0.58100019  1
  O  O182  1  0.28514485  0.59260087  0.08100019  1
  O  O183  1  0.78514485  0.90739913  0.91899981  1
  O  O184  1  0.42150440  0.55474515  0.43286327  1
  O  O185  1  0.57849560  0.05474515  0.06713673  1
  O  O186  1  0.07849560  0.44525485  0.93286327  1
  O  O187  1  0.92150440  0.94525485  0.56713673  1
  O  O188  1  0.43286327  0.42150440  0.55474515  1
  O  O189  1  0.06713673  0.57849560  0.05474515  1
  O  O190  1  0.93286327  0.07849560  0.44525485  1
  O  O191  1  0.56713673  0.92150440  0.94525485  1
  O  O192  1  0.55474515  0.43286327  0.42150440  1
  O  O193  1  0.05474515  0.06713673  0.57849560  1
  O  O194  1  0.44525485  0.93286327  0.07849560  1
  O  O195  1  0.94525485  0.56713673  0.92150440  1
  O  O196  1  0.57849560  0.44525485  0.56713673  1
  O  O197  1  0.42150440  0.94525485  0.93286327  1
  O  O198  1  0.92150440  0.55474515  0.06713673  1
  O  O199  1  0.07849560  0.05474515  0.43286327  1
  O  O200  1  0.56713673  0.57849560  0.44525485  1
  O  O201  1  0.93286327  0.42150440  0.94525485  1
  O  O202  1  0.06713673  0.92150440  0.55474515  1
  O  O203  1  0.43286327  0.07849560  0.05474515  1
  O  O204  1  0.44525485  0.56713673  0.57849560  1
  O  O205  1  0.94525485  0.93286327  0.42150440  1
  O  O206  1  0.55474515  0.06713673  0.92150440  1
  O  O207  1  0.05474515  0.43286327  0.07849560  1
