# generated using pymatgen
data_Na6Ni3B9P6H3O38
_symmetry_space_group_name_H-M   'P 1'
_cell_length_a   11.81205414
_cell_length_b   11.81205414
_cell_length_c   12.19898100
_cell_angle_alpha   90.00000000
_cell_angle_beta   90.00000000
_cell_angle_gamma   120.00000080
_symmetry_Int_Tables_number   1
_chemical_formula_structural   Na6Ni3B9P6H3O38
_chemical_formula_sum   'Na12 Ni6 B18 P12 H6 O76'
_cell_volume   1474.02565050
_cell_formula_units_Z   2
loop_
 _symmetry_equiv_pos_site_id
 _symmetry_equiv_pos_as_xyz
  1  'x, y, z'
loop_
 _atom_site_type_symbol
 _atom_site_label
 _atom_site_symmetry_multiplicity
 _atom_site_fract_x
 _atom_site_fract_y
 _atom_site_fract_z
 _atom_site_occupancy
  Na  Na0  1  0.71925700  0.70159600  0.02880600  1
  Na  Na1  1  0.29840400  0.01766100  0.02880600  1
  Na  Na2  1  0.98233900  0.28074300  0.02880600  1
  Na  Na3  1  0.28074300  0.29840400  0.52880600  1
  Na  Na4  1  0.70159600  0.98233900  0.52880600  1
  Na  Na5  1  0.01766100  0.71925700  0.52880600  1
  Na  Na6  1  0.66666700  0.33333300  0.38087500  1
  Na  Na7  1  0.33333300  0.66666700  0.88087500  1
  Na  Na8  1  0.33333300  0.66666700  0.37301900  1
  Na  Na9  1  0.66666700  0.33333300  0.87301900  1
  Na  Na10  1  0.00000000  0.00000000  0.98530100  1
  Na  Na11  1  0.00000000  0.00000000  0.48530100  1
  Ni  Ni12  1  0.99717300  0.50108300  0.28108200  1
  Ni  Ni13  1  0.49891700  0.49609000  0.28108200  1
  Ni  Ni14  1  0.50391000  0.00282700  0.28108200  1
  Ni  Ni15  1  0.00282700  0.49891700  0.78108200  1
  Ni  Ni16  1  0.50108300  0.50391000  0.78108200  1
  Ni  Ni17  1  0.49609000  0.99717300  0.78108200  1
  B  B18  1  0.03818200  0.74925100  0.13225600  1
  B  B19  1  0.25074900  0.28893100  0.13225600  1
  B  B20  1  0.71106900  0.96181800  0.13225600  1
  B  B21  1  0.96181800  0.25074900  0.63225600  1
  B  B22  1  0.74925100  0.71106900  0.63225600  1
  B  B23  1  0.28893100  0.03818200  0.63225600  1
  B  B24  1  0.29614600  0.04310700  0.43053300  1
  B  B25  1  0.95689300  0.25303900  0.43053300  1
  B  B26  1  0.74696100  0.70385400  0.43053300  1
  B  B27  1  0.70385400  0.95689300  0.93053300  1
  B  B28  1  0.04310700  0.74696100  0.93053300  1
  B  B29  1  0.25303900  0.29614600  0.93053300  1
  B  B30  1  0.08817600  0.59343200  0.03545500  1
  B  B31  1  0.40656800  0.49474400  0.03545500  1
  B  B32  1  0.50525600  0.91182400  0.03545500  1
  B  B33  1  0.91182400  0.40656800  0.53545500  1
  B  B34  1  0.59343200  0.50525600  0.53545500  1
  B  B35  1  0.49474400  0.08817600  0.53545500  1
  P  P36  1  0.18754700  0.80746900  0.31615200  1
  P  P37  1  0.19253100  0.38007900  0.31615200  1
  P  P38  1  0.61992100  0.81245300  0.31615200  1
  P  P39  1  0.81245300  0.19253100  0.81615200  1
  P  P40  1  0.80746900  0.61992100  0.81615200  1
  P  P41  1  0.38007900  0.18754700  0.81615200  1
  P  P42  1  0.81398000  0.19686000  0.24230600  1
  P  P43  1  0.80314000  0.61712000  0.24230600  1
  P  P44  1  0.38288000  0.18602000  0.24230600  1
  P  P45  1  0.18602000  0.80314000  0.74230600  1
  P  P46  1  0.19686000  0.38288000  0.74230600  1
  P  P47  1  0.61712000  0.81398000  0.74230600  1
  H  H48  1  0.16499700  0.50586600  0.11705200  1
  H  H49  1  0.49413400  0.65913100  0.11705200  1
  H  H50  1  0.34086900  0.83500300  0.11705200  1
  H  H51  1  0.83500300  0.49413400  0.61705200  1
  H  H52  1  0.50586600  0.34086900  0.61705200  1
  H  H53  1  0.65913100  0.16499700  0.61705200  1
  O  O54  1  0.11394100  0.83684600  0.22344900  1
  O  O55  1  0.16315400  0.27709600  0.22344900  1
  O  O56  1  0.72290400  0.88605900  0.22344900  1
  O  O57  1  0.88605900  0.16315400  0.72344900  1
  O  O58  1  0.83684600  0.72290400  0.72344900  1
  O  O59  1  0.27709600  0.11394100  0.72344900  1
  O  O60  1  0.80597300  0.10301700  0.14780700  1
  O  O61  1  0.89698300  0.70295600  0.14780700  1
  O  O62  1  0.29704400  0.19402700  0.14780700  1
  O  O63  1  0.19402700  0.89698300  0.64780700  1
  O  O64  1  0.10301700  0.29704400  0.64780700  1
  O  O65  1  0.70295600  0.80597300  0.64780700  1
  O  O66  1  0.20160400  0.90087300  0.41289700  1
  O  O67  1  0.09912700  0.30073100  0.41289700  1
  O  O68  1  0.69926900  0.79839600  0.41289700  1
  O  O69  1  0.79839600  0.09912700  0.91289700  1
  O  O70  1  0.90087300  0.69926900  0.91289700  1
  O  O71  1  0.30073100  0.20160400  0.91289700  1
  O  O72  1  0.88222300  0.16594600  0.34000300  1
  O  O73  1  0.83405400  0.71627700  0.34000300  1
  O  O74  1  0.28372300  0.11777700  0.34000300  1
  O  O75  1  0.11777700  0.83405400  0.84000300  1
  O  O76  1  0.16594600  0.28372300  0.84000300  1
  O  O77  1  0.71627700  0.88222300  0.84000300  1
  O  O78  1  0.05911900  0.63303500  0.13235100  1
  O  O79  1  0.36696500  0.42608400  0.13235100  1
  O  O80  1  0.57391600  0.94088100  0.13235100  1
  O  O81  1  0.94088100  0.36696500  0.63235100  1
  O  O82  1  0.63303500  0.57391600  0.63235100  1
  O  O83  1  0.42608400  0.05911900  0.63235100  1
  O  O84  1  0.93538900  0.36967300  0.43451900  1
  O  O85  1  0.63032700  0.56571500  0.43451900  1
  O  O86  1  0.43428500  0.06461100  0.43451900  1
  O  O87  1  0.06461100  0.63032700  0.93451900  1
  O  O88  1  0.36967300  0.43428500  0.93451900  1
  O  O89  1  0.56571500  0.93538900  0.93451900  1
  O  O90  1  0.10566900  0.67066000  0.36612400  1
  O  O91  1  0.32934000  0.43500900  0.36612400  1
  O  O92  1  0.56499100  0.89433100  0.36612400  1
  O  O93  1  0.89433100  0.32934000  0.86612400  1
  O  O94  1  0.67066000  0.56499100  0.86612400  1
  O  O95  1  0.43500900  0.10566900  0.86612400  1
  O  O96  1  0.90369100  0.33335400  0.19482200  1
  O  O97  1  0.66664600  0.57033800  0.19482200  1
  O  O98  1  0.42966200  0.09630900  0.19482200  1
  O  O99  1  0.09630900  0.66664600  0.69482200  1
  O  O100  1  0.33335400  0.42966200  0.69482200  1
  O  O101  1  0.57033800  0.90369100  0.69482200  1
  O  O102  1  0.08176300  0.82172000  0.03090100  1
  O  O103  1  0.17828000  0.26004300  0.03090100  1
  O  O104  1  0.73995700  0.91823700  0.03090100  1
  O  O105  1  0.91823700  0.17828000  0.53090100  1
  O  O106  1  0.82172000  0.73995700  0.53090100  1
  O  O107  1  0.26004300  0.08176300  0.53090100  1
  O  O108  1  0.32063100  0.83245800  0.27312800  1
  O  O109  1  0.16754200  0.48817300  0.27312800  1
  O  O110  1  0.51182700  0.67936900  0.27312800  1
  O  O111  1  0.67936900  0.16754200  0.77312800  1
  O  O112  1  0.83245800  0.51182700  0.77312800  1
  O  O113  1  0.48817300  0.32063100  0.77312800  1
  O  O114  1  0.82947700  0.50981100  0.28104100  1
  O  O115  1  0.49018900  0.31966600  0.28104100  1
  O  O116  1  0.68033400  0.17052300  0.28104100  1
  O  O117  1  0.17052300  0.49018900  0.78104100  1
  O  O118  1  0.50981100  0.68033400  0.78104100  1
  O  O119  1  0.31966600  0.82947700  0.78104100  1
  O  O120  1  0.14537700  0.51575600  0.03962200  1
  O  O121  1  0.48424400  0.62962000  0.03962200  1
  O  O122  1  0.37038000  0.85462300  0.03962200  1
  O  O123  1  0.85462300  0.48424400  0.53962200  1
  O  O124  1  0.51575600  0.37038000  0.53962200  1
  O  O125  1  0.62962000  0.14537700  0.53962200  1
  O  O126  1  0.66666700  0.33333300  0.07702000  1
  O  O127  1  0.33333300  0.66666700  0.57702000  1
  O  O128  1  0.00000000  0.00000000  0.78250400  1
  O  O129  1  0.00000000  0.00000000  0.28250400  1
