# generated using pymatgen
data_NpCrH8C2(NO2)4
_symmetry_space_group_name_H-M   'P 1'
_cell_length_a   13.16795500
_cell_length_b   7.23013200
_cell_length_c   13.25716424
_cell_angle_alpha   59.52058540
_cell_angle_beta   90.00000000
_cell_angle_gamma   90.00000000
_symmetry_Int_Tables_number   1
_chemical_formula_structural   NpCrH8C2(NO2)4
_chemical_formula_sum   'Np4 Cr4 H32 C8 N16 O32'
_cell_volume   1087.74590973
_cell_formula_units_Z   4
loop_
 _symmetry_equiv_pos_site_id
 _symmetry_equiv_pos_as_xyz
  1  'x, y, z'
loop_
 _atom_site_type_symbol
 _atom_site_label
 _atom_site_symmetry_multiplicity
 _atom_site_fract_x
 _atom_site_fract_y
 _atom_site_fract_z
 _atom_site_occupancy
  Np  Np0  1  0.57415500  0.06222900  0.19996900  1
  Np  Np1  1  0.92584500  0.06222900  0.69996900  1
  Np  Np2  1  0.42584500  0.93777100  0.80003100  1
  Np  Np3  1  0.07415500  0.93777100  0.30003100  1
  Cr  Cr4  1  0.51055600  0.62841200  0.12893000  1
  Cr  Cr5  1  0.98944400  0.62841200  0.62893000  1
  Cr  Cr6  1  0.48944400  0.37158800  0.87107000  1
  Cr  Cr7  1  0.01055600  0.37158800  0.37107000  1
  H  H8  1  0.57974200  0.82017800  0.58662000  1
  H  H9  1  0.92025800  0.82017800  0.08662000  1
  H  H10  1  0.42025800  0.17982200  0.41338000  1
  H  H11  1  0.07974200  0.17982200  0.91338000  1
  H  H12  1  0.70744500  0.84848800  0.61198500  1
  H  H13  1  0.79255500  0.84848800  0.11198500  1
  H  H14  1  0.29255500  0.15151200  0.38801500  1
  H  H15  1  0.20744500  0.15151200  0.88801500  1
  H  H16  1  0.76890400  0.22546600  0.32196400  1
  H  H17  1  0.73109600  0.22546600  0.82196400  1
  H  H18  1  0.23109600  0.77453400  0.67803600  1
  H  H19  1  0.26890400  0.77453400  0.17803600  1
  H  H20  1  0.81337800  0.07452700  0.46471700  1
  H  H21  1  0.68662200  0.07452700  0.96471700  1
  H  H22  1  0.18662200  0.92547300  0.53528300  1
  H  H23  1  0.31337800  0.92547300  0.03528300  1
  H  H24  1  0.77884800  0.74917400  0.33762000  1
  H  H25  1  0.72115200  0.74917400  0.83762000  1
  H  H26  1  0.22115200  0.25082600  0.66238000  1
  H  H27  1  0.27884800  0.25082600  0.16238000  1
  H  H28  1  0.80831100  0.50812700  0.46374100  1
  H  H29  1  0.69168900  0.50812700  0.96374100  1
  H  H30  1  0.19168900  0.49187300  0.53625900  1
  H  H31  1  0.30831100  0.49187300  0.03625900  1
  H  H32  1  0.55605600  0.35903200  0.55982500  1
  H  H33  1  0.94394400  0.35903200  0.05982500  1
  H  H34  1  0.44394400  0.64096800  0.44017500  1
  H  H35  1  0.05605600  0.64096800  0.94017500  1
  H  H36  1  0.68468800  0.29036400  0.58762900  1
  H  H37  1  0.81531200  0.29036400  0.08762900  1
  H  H38  1  0.31531200  0.70963600  0.41237100  1
  H  H39  1  0.18468800  0.70963600  0.91237100  1
  C  C40  1  0.66148400  0.03615600  0.44230400  1
  C  C41  1  0.83851600  0.03615600  0.94230400  1
  C  C42  1  0.33851600  0.96384400  0.55769600  1
  C  C43  1  0.16148400  0.96384400  0.05769600  1
  C  C44  1  0.65558700  0.57556700  0.43651000  1
  C  C45  1  0.84441300  0.57556700  0.93651000  1
  C  C46  1  0.34441300  0.42443300  0.56349000  1
  C  C47  1  0.15558700  0.42443300  0.06349000  1
  N  N48  1  0.64841000  0.89009000  0.55556100  1
  N  N49  1  0.85159000  0.89009000  0.05556100  1
  N  N50  1  0.35159000  0.10991000  0.44443900  1
  N  N51  1  0.14841000  0.10991000  0.94443900  1
  N  N52  1  0.75445800  0.12123300  0.40744000  1
  N  N53  1  0.74554200  0.12123300  0.90744000  1
  N  N54  1  0.24554200  0.87876700  0.59256000  1
  N  N55  1  0.25445800  0.87876700  0.09256000  1
  N  N56  1  0.75495600  0.61324700  0.40969800  1
  N  N57  1  0.74504400  0.61324700  0.90969800  1
  N  N58  1  0.24504400  0.38675300  0.59030200  1
  N  N59  1  0.25495600  0.38675300  0.09030200  1
  N  N60  1  0.63019100  0.39363800  0.53452900  1
  N  N61  1  0.86980900  0.39363800  0.03452900  1
  N  N62  1  0.36980900  0.60636200  0.46547100  1
  N  N63  1  0.13019100  0.60636200  0.96547100  1
  O  O64  1  0.43867800  0.04930100  0.21443500  1
  O  O65  1  0.06132200  0.04930100  0.71443500  1
  O  O66  1  0.56132200  0.95069900  0.78556500  1
  O  O67  1  0.93867800  0.95069900  0.28556500  1
  O  O68  1  0.71154300  0.06993600  0.18910500  1
  O  O69  1  0.78845700  0.06993600  0.68910500  1
  O  O70  1  0.28845700  0.93006400  0.81089500  1
  O  O71  1  0.21154300  0.93006400  0.31089500  1
  O  O72  1  0.43239600  0.52911900  0.23765000  1
  O  O73  1  0.06760400  0.52911900  0.73765000  1
  O  O74  1  0.56760400  0.47088100  0.76235000  1
  O  O75  1  0.93239600  0.47088100  0.26235000  1
  O  O76  1  0.55858400  0.25298200  0.99638200  1
  O  O77  1  0.94141600  0.25298200  0.49638200  1
  O  O78  1  0.44141600  0.74701800  0.00361800  1
  O  O79  1  0.05858400  0.74701800  0.50361800  1
  O  O80  1  0.58571100  0.81146300  0.13475800  1
  O  O81  1  0.91428900  0.81146300  0.63475800  1
  O  O82  1  0.41428900  0.18853700  0.86524200  1
  O  O83  1  0.08571100  0.18853700  0.36524200  1
  O  O84  1  0.58267800  0.43118700  0.13440000  1
  O  O85  1  0.91732200  0.43118700  0.63440000  1
  O  O86  1  0.41732200  0.56881300  0.86560000  1
  O  O87  1  0.08267800  0.56881300  0.36560000  1
  O  O88  1  0.58575700  0.70650500  0.37190900  1
  O  O89  1  0.91424300  0.70650500  0.87190900  1
  O  O90  1  0.41424300  0.29349500  0.62809100  1
  O  O91  1  0.08575700  0.29349500  0.12809100  1
  O  O92  1  0.58668400  0.09203100  0.37020900  1
  O  O93  1  0.91331600  0.09203100  0.87020900  1
  O  O94  1  0.41331600  0.90796900  0.62979100  1
  O  O95  1  0.08668400  0.90796900  0.12979100  1
