# generated using pymatgen
data_H7C2SNO2
_symmetry_space_group_name_H-M   'P 1'
_cell_length_a   6.33957000
_cell_length_b   6.61995872
_cell_length_c   13.43486204
_cell_angle_alpha   97.64886754
_cell_angle_beta   102.18678192
_cell_angle_gamma   91.50271586
_symmetry_Int_Tables_number   1
_chemical_formula_structural   H7C2SNO2
_chemical_formula_sum   'H28 C8 S4 N4 O8'
_cell_volume   545.36093461
_cell_formula_units_Z   4
loop_
 _symmetry_equiv_pos_site_id
 _symmetry_equiv_pos_as_xyz
  1  'x, y, z'
loop_
 _atom_site_type_symbol
 _atom_site_label
 _atom_site_symmetry_multiplicity
 _atom_site_fract_x
 _atom_site_fract_y
 _atom_site_fract_z
 _atom_site_occupancy
  H  H0  1  0.85719800  0.29854300  0.63435500  1
  H  H1  1  0.14280200  0.70145700  0.36564500  1
  H  H2  1  0.67522800  0.15686500  0.52357100  1
  H  H3  1  0.32477200  0.84313500  0.47642900  1
  H  H4  1  0.66720300  0.43060800  0.54995400  1
  H  H5  1  0.33279700  0.56939200  0.45004600  1
  H  H6  1  0.69977300  0.17137500  0.88377800  1
  H  H7  1  0.30022700  0.82862500  0.11622200  1
  H  H8  1  0.81914800  0.36304100  0.99209100  1
  H  H9  1  0.18085200  0.63695900  0.00790900  1
  H  H10  1  0.53039200  0.33851000  0.94483000  1
  H  H11  1  0.46960800  0.66149000  0.05517000  1
  H  H12  1  0.18958700  0.67767200  0.78404900  1
  H  H13  1  0.81041300  0.32232800  0.21595100  1
  H  H14  1  0.35176100  0.84217800  0.74724100  1
  H  H15  1  0.64823900  0.15782200  0.25275900  1
  H  H16  1  0.07905000  0.66617100  0.60545200  1
  H  H17  1  0.92095000  0.33382900  0.39454800  1
  H  H18  1  0.87840500  0.78432700  0.66711300  1
  H  H19  1  0.12159500  0.21567300  0.33288700  1
  H  H20  1  0.06460700  0.93908500  0.62160300  1
  H  H21  1  0.93539300  0.06091500  0.37839700  1
  H  H22  1  0.27039900  0.99053300  0.90500300  1
  H  H23  1  0.72960100  0.00946700  0.09499700  1
  H  H24  1  0.14578900  0.12541100  0.80219000  1
  H  H25  1  0.85421100  0.87458900  0.19781000  1
  H  H26  1  0.98754600  0.94371200  0.84788500  1
  H  H27  1  0.01245400  0.05628800  0.15211500  1
  C  C28  1  0.69635400  0.28939600  0.58375200  1
  C  C29  1  0.30364600  0.71060400  0.41624800  1
  C  C30  1  0.68779600  0.32443400  0.92394000  1
  C  C31  1  0.31220400  0.67556600  0.07606000  1
  C  C32  1  0.04305000  0.79980400  0.65495400  1
  C  C33  1  0.95695000  0.20019600  0.34504600  1
  C  C34  1  0.14694400  0.98112500  0.83380800  1
  C  C35  1  0.85305600  0.01887500  0.16619200  1
  S  S36  1  0.49661800  0.25803600  0.65652100  1
  S  S37  1  0.50338200  0.74196400  0.34347900  1
  S  S38  1  0.71118200  0.50630500  0.83987800  1
  S  S39  1  0.28881800  0.49369500  0.16012200  1
  N  N40  1  0.51588500  0.45694800  0.74114400  1
  N  N41  1  0.48411500  0.54305200  0.25885600  1
  N  N42  1  0.19617700  0.81603500  0.75681400  1
  N  N43  1  0.80382300  0.18396500  0.24318600  1
  O  O44  1  0.28726600  0.26117000  0.58667800  1
  O  O45  1  0.71273400  0.73883000  0.41332200  1
  O  O46  1  0.54004200  0.06809900  0.70155200  1
  O  O47  1  0.45995800  0.93190100  0.29844800  1
  O  O48  1  0.67177300  0.70474200  0.89210900  1
  O  O49  1  0.32822700  0.29525800  0.10789100  1
  O  O50  1  0.92667200  0.48665200  0.81577200  1
  O  O51  1  0.07332800  0.51334800  0.18422800  1
