# generated using pymatgen
data_Y3H
_symmetry_space_group_name_H-M   'P 1'
_cell_length_a   3.67463000
_cell_length_b   6.36587300
_cell_length_c   17.37780400
_cell_angle_alpha   90.00000000
_cell_angle_beta   90.00000000
_cell_angle_gamma   90.00000000
_symmetry_Int_Tables_number   1
_chemical_formula_structural   Y3H
_chemical_formula_sum   'Y12 H4'
_cell_volume   406.50555160
_cell_formula_units_Z   4
loop_
 _symmetry_equiv_pos_site_id
 _symmetry_equiv_pos_as_xyz
  1  'x, y, z'
loop_
 _atom_site_type_symbol
 _atom_site_label
 _atom_site_symmetry_multiplicity
 _atom_site_fract_x
 _atom_site_fract_y
 _atom_site_fract_z
 _atom_site_occupancy
  Y  Y0  1  0.00000000  0.66596600  0.41103500  1
  Y  Y1  1  0.00000000  0.33403400  0.58896500  1
  Y  Y2  1  0.00000000  0.66596600  0.08896500  1
  Y  Y3  1  0.00000000  0.33403400  0.91103500  1
  Y  Y4  1  0.00000000  0.32875300  0.25000000  1
  Y  Y5  1  0.00000000  0.67124700  0.75000000  1
  Y  Y6  1  0.50000000  0.17055800  0.41705700  1
  Y  Y7  1  0.50000000  0.82944200  0.58294300  1
  Y  Y8  1  0.50000000  0.17055800  0.08294300  1
  Y  Y9  1  0.50000000  0.82944200  0.91705700  1
  Y  Y10  1  0.50000000  0.83354100  0.25000000  1
  Y  Y11  1  0.50000000  0.16645900  0.75000000  1
  H  H12  1  0.00000000  0.33220100  0.37996400  1
  H  H13  1  0.00000000  0.66779900  0.62003600  1
  H  H14  1  0.00000000  0.33220100  0.12003600  1
  H  H15  1  0.00000000  0.66779900  0.87996400  1
