# generated using pymatgen
data_K2FeF5
_symmetry_space_group_name_H-M   'P 1'
_cell_length_a   7.22982711
_cell_length_b   7.22982711
_cell_length_c   7.48776944
_cell_angle_alpha   64.79716715
_cell_angle_beta   64.79716715
_cell_angle_gamma   47.50065910
_symmetry_Int_Tables_number   1
_chemical_formula_structural   K2FeF5
_chemical_formula_sum   'K4 Fe2 F10'
_cell_volume   255.43573189
_cell_formula_units_Z   2
loop_
 _symmetry_equiv_pos_site_id
 _symmetry_equiv_pos_as_xyz
  1  'x, y, z'
loop_
 _atom_site_type_symbol
 _atom_site_label
 _atom_site_symmetry_multiplicity
 _atom_site_fract_x
 _atom_site_fract_y
 _atom_site_fract_z
 _atom_site_occupancy
  K  K0  1  0.47602800  0.47602800  0.24879100  1
  K  K1  1  0.52397200  0.52397200  0.75120900  1
  K  K2  1  0.16653800  0.16653800  0.22720000  1
  K  K3  1  0.83346200  0.83346200  0.77280000  1
  Fe  Fe4  1  0.18962600  0.18962600  0.71520800  1
  Fe  Fe5  1  0.81037400  0.81037400  0.28479200  1
  F  F6  1  0.00000000  0.50000000  0.50000000  1
  F  F7  1  0.50000000  0.00000000  0.50000000  1
  F  F8  1  0.05726700  0.05726700  0.67041500  1
  F  F9  1  0.94273300  0.94273300  0.32958500  1
  F  F10  1  0.34293400  0.34293400  0.68983100  1
  F  F11  1  0.65706600  0.65706600  0.31016900  1
  F  F12  1  0.89780000  0.37974400  0.91502600  1
  F  F13  1  0.37974400  0.89780000  0.91502600  1
  F  F14  1  0.10220000  0.62025600  0.08497400  1
  F  F15  1  0.62025600  0.10220000  0.08497400  1
