# generated using pymatgen
data_K2SbF5
_symmetry_space_group_name_H-M   'P 1'
_cell_length_a   6.61869233
_cell_length_b   17.47206415
_cell_length_c   29.05318916
_cell_angle_alpha   100.90552985
_cell_angle_beta   90.00000000
_cell_angle_gamma   90.00000000
_symmetry_Int_Tables_number   1
_chemical_formula_structural   K2SbF5
_chemical_formula_sum   'K44 Sb22 F110'
_cell_volume   3299.09920253
_cell_formula_units_Z   22
loop_
 _symmetry_equiv_pos_site_id
 _symmetry_equiv_pos_as_xyz
  1  'x, y, z'
loop_
 _atom_site_type_symbol
 _atom_site_label
 _atom_site_symmetry_multiplicity
 _atom_site_fract_x
 _atom_site_fract_y
 _atom_site_fract_z
 _atom_site_occupancy
  K  K0  1  0.24899178  0.07913642  0.80810720  1
  K  K1  1  0.74899178  0.92086358  0.19189280  1
  K  K2  1  0.75004234  0.10268354  0.73757203  1
  K  K3  1  0.25004234  0.89731646  0.26242797  1
  K  K4  1  0.24091125  0.44371113  0.89825934  1
  K  K5  1  0.74091125  0.55628887  0.10174066  1
  K  K6  1  0.74328949  0.46561811  0.82922348  1
  K  K7  1  0.24328949  0.53438189  0.17077652  1
  K  K8  1  0.23766985  0.35261605  0.62416343  1
  K  K9  1  0.73766985  0.64738395  0.37583657  1
  K  K10  1  0.73607573  0.37372246  0.55659163  1
  K  K11  1  0.23607573  0.62627754  0.44340837  1
  K  K12  1  0.72948867  0.01031815  0.46661864  1
  K  K13  1  0.22948867  0.98968185  0.53338136  1
  K  K14  1  0.24532561  0.26160060  0.35302955  1
  K  K15  1  0.74532561  0.73839940  0.64697045  1
  K  K16  1  0.74712383  0.28339585  0.28375260  1
  K  K17  1  0.24712383  0.71660415  0.71624740  1
  K  K18  1  0.23180859  0.17123443  0.07867249  1
  K  K19  1  0.73180859  0.82876557  0.92132751  1
  K  K20  1  0.73115237  0.19166423  0.01164708  1
  K  K21  1  0.23115237  0.80833577  0.98835292  1
  K  K22  1  0.75481749  0.04488509  0.88591297  1
  K  K23  1  0.25481749  0.95511491  0.11408703  1
  K  K24  1  0.25434328  0.13582949  0.65868112  1
  K  K25  1  0.75434328  0.86417051  0.34131888  1
  K  K26  1  0.23036273  0.22979338  0.93256962  1
  K  K27  1  0.73036273  0.77020662  0.06743038  1
  K  K28  1  0.73056823  0.31762239  0.70410866  1
  K  K29  1  0.23056823  0.68237761  0.29589134  1
  K  K30  1  0.74937724  0.40672403  0.97661776  1
  K  K31  1  0.24937724  0.59327597  0.02338224  1
  K  K32  1  0.23919833  0.41210621  0.47789541  1
  K  K33  1  0.73919833  0.58789379  0.52210459  1
  K  K34  1  0.73966955  0.49957178  0.25046397  1
  K  K35  1  0.23966955  0.50042822  0.74953603  1
  K  K36  1  0.75394591  0.22558541  0.43083236  1
  K  K37  1  0.25394591  0.77441459  0.56916764  1
  K  K38  1  0.24988871  0.31777959  0.20429923  1
  K  K39  1  0.74988871  0.68222041  0.79570077  1
  K  K40  1  0.22734395  0.04706050  0.38678246  1
  K  K41  1  0.72734395  0.95293950  0.61321754  1
  K  K42  1  0.72765032  0.13495115  0.15871184  1
  K  K43  1  0.22765032  0.86504885  0.84128816  1
  Sb  Sb44  1  0.25785414  0.01610255  0.95785757  1
  Sb  Sb45  1  0.75785414  0.98389745  0.04214243  1
  Sb  Sb46  1  0.73993279  0.25581117  0.86095911  1
  Sb  Sb47  1  0.23993279  0.74418883  0.13904089  1
  Sb  Sb48  1  0.24069616  0.28879659  0.77463632  1
  Sb  Sb49  1  0.74069616  0.71120341  0.22536368  1
  Sb  Sb50  1  0.75691951  0.16565278  0.58752595  1
  Sb  Sb51  1  0.25691951  0.83434722  0.41247405  1
  Sb  Sb52  1  0.25702925  0.19801233  0.50306981  1
  Sb  Sb53  1  0.75702925  0.80198767  0.49693019  1
  Sb  Sb54  1  0.73824220  0.07400910  0.31501635  1
  Sb  Sb55  1  0.23824220  0.92599090  0.68498365  1
  Sb  Sb56  1  0.23700038  0.10733445  0.22964319  1
  Sb  Sb57  1  0.73700038  0.89266555  0.77035681  1
  Sb  Sb58  1  0.74580829  0.43737751  0.40626184  1
  Sb  Sb59  1  0.24580829  0.56262249  0.59373816  1
  Sb  Sb60  1  0.24706369  0.47019389  0.32117164  1
  Sb  Sb61  1  0.74706369  0.52980611  0.67882836  1
  Sb  Sb62  1  0.75326984  0.34785110  0.13322634  1
  Sb  Sb63  1  0.25326984  0.65214890  0.86677366  1
  Sb  Sb64  1  0.25256688  0.38037818  0.04856933  1
  Sb  Sb65  1  0.75256688  0.61962182  0.95143067  1
  F  F66  1  0.19423571  0.03430369  0.89379522  1
  F  F67  1  0.69423571  0.96569631  0.10620478  1
  F  F68  1  0.46493334  0.10620756  0.95597939  1
  F  F69  1  0.96493334  0.89379244  0.04402061  1
  F  F70  1  0.47558371  0.94280453  0.91970885  1
  F  F71  1  0.97558371  0.05719547  0.08029115  1
  F  F72  1  0.04932581  0.92253320  0.93421625  1
  F  F73  1  0.54932581  0.07746680  0.06578375  1
  F  F74  1  0.03611580  0.10615252  0.97348005  1
  F  F75  1  0.53611580  0.89384748  0.02651995  1
  F  F76  1  0.76017235  0.23441814  0.92579793  1
  F  F77  1  0.26017235  0.76558186  0.07420207  1
  F  F78  1  0.96982949  0.16942264  0.85244379  1
  F  F79  1  0.46982949  0.83057736  0.14755621  1
  F  F80  1  0.95089489  0.34258518  0.89113589  1
  F  F81  1  0.45089489  0.65741482  0.10886411  1
  F  F82  1  0.51487429  0.33234311  0.89421607  1
  F  F83  1  0.01487429  0.66765689  0.10578393  1
  F  F84  1  0.53092007  0.16356140  0.85498575  1
  F  F85  1  0.03092007  0.83643860  0.14501425  1
  F  F86  1  0.26055261  0.31119173  0.70970095  1
  F  F87  1  0.76055261  0.68880827  0.29029905  1
  F  F88  1  0.47018536  0.20925969  0.74546848  1
  F  F89  1  0.97018536  0.79074031  0.25453152  1
  F  F90  1  0.45405627  0.38125367  0.78521947  1
  F  F91  1  0.95405627  0.61874633  0.21478053  1
  F  F92  1  0.01279264  0.37432014  0.77827633  1
  F  F93  1  0.51279264  0.62567986  0.22172367  1
  F  F94  1  0.03464751  0.20510611  0.73983844  1
  F  F95  1  0.53464751  0.79489389  0.26016156  1
  F  F96  1  0.69882167  0.14743488  0.65178502  1
  F  F97  1  0.19882167  0.85256512  0.34821498  1
  F  F98  1  0.97979989  0.23782419  0.62467393  1
  F  F99  1  0.47979989  0.76217581  0.37532607  1
  F  F100  1  0.96090333  0.07404884  0.58813999  1
  F  F101  1  0.46090333  0.92595116  0.41186001  1
  F  F102  1  0.52811567  0.07813248  0.57334368  1
  F  F103  1  0.02811567  0.92186752  0.42665632  1
  F  F104  1  0.55421583  0.26062328  0.61222390  1
  F  F105  1  0.05421583  0.73937672  0.38777610  1
  F  F106  1  0.19869984  0.21656675  0.43886059  1
  F  F107  1  0.69869984  0.78343325  0.56113941  1
  F  F108  1  0.47058268  0.28623598  0.50136155  1
  F  F109  1  0.97058268  0.71376402  0.49863845  1
  F  F110  1  0.47034331  0.12230662  0.46509728  1
  F  F111  1  0.97034331  0.87769338  0.53490272  1
  F  F112  1  0.04145060  0.10750179  0.47931050  1
  F  F113  1  0.54145060  0.89249821  0.52068950  1
  F  F114  1  0.04154649  0.29034814  0.51848400  1
  F  F115  1  0.54154649  0.70965186  0.48151600  1
  F  F116  1  0.76618474  0.05399002  0.38004256  1
  F  F117  1  0.26618474  0.94600998  0.61995744  1
  F  F118  1  0.95265012  0.16096690  0.34368306  1
  F  F119  1  0.45265012  0.83903310  0.65631694  1
  F  F120  1  0.96404534  0.98558663  0.30536493  1
  F  F121  1  0.46404534  0.01441337  0.69463507  1
  F  F122  1  0.52414457  0.98429517  0.31152204  1
  F  F123  1  0.02414457  0.01570483  0.68847796  1
  F  F124  1  0.51811372  0.15199411  0.34863402  1
  F  F125  1  0.01811372  0.84800589  0.65136598  1
  F  F126  1  0.26943489  0.12911224  0.16518961  1
  F  F127  1  0.76943489  0.87088776  0.83481039  1
  F  F128  1  0.45659409  0.19771795  0.24125585  1
  F  F129  1  0.95659409  0.80228205  0.75874415  1
  F  F130  1  0.45909626  0.02315972  0.20177915  1
  F  F131  1  0.95909626  0.97684028  0.79822085  1
  F  F132  1  0.02411980  0.02782894  0.19413111  1
  F  F133  1  0.52411980  0.97217106  0.80586889  1
  F  F134  1  0.01723583  0.19512340  0.23257007  1
  F  F135  1  0.51723583  0.80487660  0.76742993  1
  F  F136  1  0.73995766  0.41660443  0.47135305  1
  F  F137  1  0.23995766  0.58339557  0.52864695  1
  F  F138  1  0.95461852  0.52211187  0.43935221  1
  F  F139  1  0.45461852  0.47788813  0.56064779  1
  F  F140  1  0.97566867  0.35227456  0.40198077  1
  F  F141  1  0.47566867  0.64772544  0.59801923  1
  F  F142  1  0.53798802  0.34376722  0.39690246  1
  F  F143  1  0.03798802  0.65623278  0.60309754  1
  F  F144  1  0.51781255  0.51669825  0.43637193  1
  F  F145  1  0.01781255  0.48330175  0.56362807  1
  F  F146  1  0.23903053  0.49121491  0.25624626  1
  F  F147  1  0.73903053  0.50878509  0.74375374  1
  F  F148  1  0.45341245  0.56411140  0.32844170  1
  F  F149  1  0.95341245  0.43588860  0.67155830  1
  F  F150  1  0.48023630  0.39561231  0.28970199  1
  F  F151  1  0.98023630  0.60438769  0.71029801  1
  F  F152  1  0.04649126  0.38065659  0.28985252  1
  F  F153  1  0.54649126  0.61934341  0.71014748  1
  F  F154  1  0.01282203  0.55442935  0.32801056  1
  F  F155  1  0.51282203  0.44557065  0.67198944  1
  F  F156  1  0.71308300  0.32865491  0.19802802  1
  F  F157  1  0.21308300  0.67134509  0.80197198  1
  F  F158  1  0.98324474  0.41958200  0.16819001  1
  F  F159  1  0.48324474  0.58041800  0.83180999  1
  F  F160  1  0.95575637  0.25433866  0.13062152  1
  F  F161  1  0.45575637  0.74566134  0.86937848  1
  F  F162  1  0.51820181  0.26300707  0.12213522  1
  F  F163  1  0.01820181  0.73699293  0.87786478  1
  F  F164  1  0.55477621  0.44210710  0.16062047  1
  F  F165  1  0.05477621  0.55789290  0.83937953  1
  F  F166  1  0.21293474  0.39992644  0.98388167  1
  F  F167  1  0.71293474  0.60007356  0.01611833  1
  F  F168  1  0.47483653  0.46653417  0.04863076  1
  F  F169  1  0.97483653  0.53346583  0.95136924  1
  F  F170  1  0.46271564  0.30044555  0.01226842  1
  F  F171  1  0.96271564  0.69955445  0.98773158  1
  F  F172  1  0.02915140  0.29484837  0.02264941  1
  F  F173  1  0.52915140  0.70515163  0.97735059  1
  F  F174  1  0.04191465  0.47396305  0.06188606  1
  F  F175  1  0.54191465  0.52603695  0.93811394  1
