# generated using pymatgen
data_RbNdNb2O7
_symmetry_space_group_name_H-M   'P 1'
_cell_length_a   3.92387400
_cell_length_b   3.92387400
_cell_length_c   11.37253400
_cell_angle_alpha   90.00000000
_cell_angle_beta   90.00000000
_cell_angle_gamma   90.00000000
_symmetry_Int_Tables_number   1
_chemical_formula_structural   RbNdNb2O7
_chemical_formula_sum   'Rb1 Nd1 Nb2 O7'
_cell_volume   175.10048556
_cell_formula_units_Z   1
loop_
 _symmetry_equiv_pos_site_id
 _symmetry_equiv_pos_as_xyz
  1  'x, y, z'
loop_
 _atom_site_type_symbol
 _atom_site_label
 _atom_site_symmetry_multiplicity
 _atom_site_fract_x
 _atom_site_fract_y
 _atom_site_fract_z
 _atom_site_occupancy
  Rb  Rb0  1  0.50000000  0.50000000  0.50000000  1
  Nd  Nd1  1  0.50000000  0.50000000  0.00000000  1
  Nb  Nb2  1  0.00000000  0.00000000  0.19983500  1
  Nb  Nb3  1  0.00000000  0.00000000  0.80016500  1
  O  O4  1  0.00000000  0.50000000  0.15974200  1
  O  O5  1  0.00000000  0.50000000  0.84025800  1
  O  O6  1  0.50000000  0.00000000  0.15974200  1
  O  O7  1  0.50000000  0.00000000  0.84025800  1
  O  O8  1  0.00000000  0.00000000  0.35905400  1
  O  O9  1  0.00000000  0.00000000  0.64094600  1
  O  O10  1  0.00000000  0.00000000  0.00000000  1
