# generated using pymatgen
data_Ba2YInSe5
_symmetry_space_group_name_H-M   'P 1'
_cell_length_a   9.80231590
_cell_length_b   9.80231590
_cell_length_c   13.55904600
_cell_angle_alpha   90.00000000
_cell_angle_beta   90.00000000
_cell_angle_gamma   154.56881748
_symmetry_Int_Tables_number   1
_chemical_formula_structural   Ba2YInSe5
_chemical_formula_sum   'Ba4 Y2 In2 Se10'
_cell_volume   559.46840486
_cell_formula_units_Z   2
loop_
 _symmetry_equiv_pos_site_id
 _symmetry_equiv_pos_as_xyz
  1  'x, y, z'
loop_
 _atom_site_type_symbol
 _atom_site_label
 _atom_site_symmetry_multiplicity
 _atom_site_fract_x
 _atom_site_fract_y
 _atom_site_fract_z
 _atom_site_occupancy
  Ba  Ba0  1  0.86743200  0.13256800  0.18641400  1
  Ba  Ba1  1  0.13256800  0.86743200  0.68641400  1
  Ba  Ba2  1  0.88261000  0.11739000  0.81910900  1
  Ba  Ba3  1  0.11739000  0.88261000  0.31910900  1
  Y  Y4  1  0.78870900  0.21129100  0.48174800  1
  Y  Y5  1  0.21129100  0.78870900  0.98174800  1
  In  In6  1  0.55272600  0.44727400  0.06359900  1
  In  In7  1  0.44727400  0.55272600  0.56359900  1
  Se  Se8  1  0.64433300  0.35566700  0.49971800  1
  Se  Se9  1  0.35566700  0.64433300  0.99971800  1
  Se  Se10  1  0.70915200  0.29084800  0.84294400  1
  Se  Se11  1  0.29084800  0.70915200  0.34294400  1
  Se  Se12  1  0.68675200  0.31324800  0.12901600  1
  Se  Se13  1  0.31324800  0.68675200  0.62901600  1
  Se  Se14  1  0.49520000  0.50480000  0.23351300  1
  Se  Se15  1  0.50480000  0.49520000  0.73351300  1
  Se  Se16  1  0.94907700  0.05092300  0.45083000  1
  Se  Se17  1  0.05092300  0.94907700  0.95083000  1
