# generated using pymatgen
data_Ag6Mo10O33
_symmetry_space_group_name_H-M   'P 1'
_cell_length_a   7.66744932
_cell_length_b   8.44169330
_cell_length_c   11.47017810
_cell_angle_alpha   82.42516054
_cell_angle_beta   77.37467099
_cell_angle_gamma   73.86612511
_symmetry_Int_Tables_number   1
_chemical_formula_structural   Ag6Mo10O33
_chemical_formula_sum   'Ag6 Mo10 O33'
_cell_volume   693.93304124
_cell_formula_units_Z   1
loop_
 _symmetry_equiv_pos_site_id
 _symmetry_equiv_pos_as_xyz
  1  'x, y, z'
loop_
 _atom_site_type_symbol
 _atom_site_label
 _atom_site_symmetry_multiplicity
 _atom_site_fract_x
 _atom_site_fract_y
 _atom_site_fract_z
 _atom_site_occupancy
  Ag  Ag0  1  0.34653800  0.00539800  0.24819500  1
  Ag  Ag1  1  0.65346200  0.99460200  0.75180500  1
  Ag  Ag2  1  0.16183300  0.47800500  0.21113000  1
  Ag  Ag3  1  0.83816700  0.52199500  0.78887000  1
  Ag  Ag4  1  0.55516200  0.52369300  0.23784700  1
  Ag  Ag5  1  0.44483800  0.47630700  0.76215300  1
  Mo  Mo6  1  0.43115300  0.22558900  0.48878200  1
  Mo  Mo7  1  0.56884700  0.77441100  0.51121800  1
  Mo  Mo8  1  0.92834200  0.23086600  0.49004600  1
  Mo  Mo9  1  0.07165800  0.76913400  0.50995400  1
  Mo  Mo10  1  0.85602800  0.80205200  0.03037000  1
  Mo  Mo11  1  0.14397200  0.19794800  0.96963000  1
  Mo  Mo12  1  0.70326500  0.20319800  0.01510400  1
  Mo  Mo13  1  0.29673500  0.79680200  0.98489600  1
  Mo  Mo14  1  0.81654600  0.99968500  0.31815500  1
  Mo  Mo15  1  0.18345400  0.00031500  0.68184500  1
  O  O16  1  0.00000000  0.00000000  0.00000000  1
  O  O17  1  0.11283500  0.67031700  0.02419000  1
  O  O18  1  0.88716500  0.32968300  0.97581000  1
  O  O19  1  0.65114800  0.99446100  0.07940200  1
  O  O20  1  0.34885200  0.00553900  0.92059800  1
  O  O21  1  0.50963000  0.34787200  0.08471100  1
  O  O22  1  0.49037000  0.65212800  0.91528900  1
  O  O23  1  0.75437500  0.64917600  0.11170500  1
  O  O24  1  0.24562500  0.35082400  0.88829500  1
  O  O25  1  0.17249800  0.20304200  0.11748900  1
  O  O26  1  0.82750200  0.79695800  0.88251100  1
  O  O27  1  0.33701100  0.79608000  0.13046900  1
  O  O28  1  0.66298900  0.20392000  0.86953100  1
  O  O29  1  0.78078800  0.17129900  0.21247800  1
  O  O30  1  0.21921200  0.82870100  0.78752200  1
  O  O31  1  0.90238900  0.83242700  0.22714100  1
  O  O32  1  0.09761100  0.16757300  0.77285900  1
  O  O33  1  0.40222900  0.33481200  0.34914800  1
  O  O34  1  0.59777100  0.66518800  0.65085200  1
  O  O35  1  0.96245900  0.37277700  0.36768400  1
  O  O36  1  0.03754100  0.62722300  0.63231600  1
  O  O37  1  0.03121800  0.00789900  0.37855200  1
  O  O38  1  0.96878200  0.99210100  0.62144800  1
  O  O39  1  0.55392000  0.98739300  0.37927500  1
  O  O40  1  0.44608000  0.01260700  0.62072500  1
  O  O41  1  0.18446500  0.65340000  0.38805100  1
  O  O42  1  0.81553500  0.34660000  0.61194900  1
  O  O43  1  0.60995100  0.62486900  0.41128800  1
  O  O44  1  0.39004900  0.37513100  0.58871200  1
  O  O45  1  0.70420900  0.17404600  0.46579200  1
  O  O46  1  0.29579100  0.82595400  0.53420800  1
  O  O47  1  0.81511000  0.82428000  0.48176000  1
  O  O48  1  0.18489000  0.17572000  0.51824000  1
