# generated using pymatgen
data_Tm3Ru2
_symmetry_space_group_name_H-M   'P 1'
_cell_length_a   4.66688600
_cell_length_b   7.53167622
_cell_length_c   7.53167622
_cell_angle_alpha   120.00000191
_cell_angle_beta   90.00000000
_cell_angle_gamma   90.00000000
_symmetry_Int_Tables_number   1
_chemical_formula_structural   Tm3Ru2
_chemical_formula_sum   'Tm6 Ru4'
_cell_volume   229.26676286
_cell_formula_units_Z   2
loop_
 _symmetry_equiv_pos_site_id
 _symmetry_equiv_pos_as_xyz
  1  'x, y, z'
loop_
 _atom_site_type_symbol
 _atom_site_label
 _atom_site_symmetry_multiplicity
 _atom_site_fract_x
 _atom_site_fract_y
 _atom_site_fract_z
 _atom_site_occupancy
  Tm  Tm0  1  0.75000000  0.61363200  0.69443500  1
  Tm  Tm1  1  0.25000000  0.38636800  0.30556500  1
  Tm  Tm2  1  0.75000000  0.08080300  0.38636800  1
  Tm  Tm3  1  0.25000000  0.91919700  0.61363200  1
  Tm  Tm4  1  0.75000000  0.30556500  0.91919700  1
  Tm  Tm5  1  0.25000000  0.69443500  0.08080300  1
  Ru  Ru6  1  0.75000000  0.66666700  0.33333300  1
  Ru  Ru7  1  0.25000000  0.33333300  0.66666700  1
  Ru  Ru8  1  0.00000000  0.00000000  0.00000000  1
  Ru  Ru9  1  0.50000000  0.00000000  0.00000000  1
