# generated using pymatgen
data_LaMn3V4O12
_symmetry_space_group_name_H-M   'P 1'
_cell_length_a   6.58530830
_cell_length_b   6.58530830
_cell_length_c   7.57765549
_cell_angle_alpha   55.00224958
_cell_angle_beta   55.00224958
_cell_angle_gamma   69.98849382
_symmetry_Int_Tables_number   1
_chemical_formula_structural   LaMn3V4O12
_chemical_formula_sum   'La1 Mn3 V4 O12'
_cell_volume   220.47291638
_cell_formula_units_Z   1
loop_
 _symmetry_equiv_pos_site_id
 _symmetry_equiv_pos_as_xyz
  1  'x, y, z'
loop_
 _atom_site_type_symbol
 _atom_site_label
 _atom_site_symmetry_multiplicity
 _atom_site_fract_x
 _atom_site_fract_y
 _atom_site_fract_z
 _atom_site_occupancy
  La  La0  1  0.00000000  0.00000000  0.00000000  1
  Mn  Mn1  1  0.50000000  0.50000000  0.00000000  1
  Mn  Mn2  1  0.00000000  0.00000000  0.50000000  1
  Mn  Mn3  1  0.50000000  0.50000000  0.50000000  1
  V  V4  1  0.50000000  0.00000000  0.50000000  1
  V  V5  1  0.00000000  0.50000000  0.50000000  1
  V  V6  1  0.50000000  0.00000000  0.00000000  1
  V  V7  1  0.00000000  0.50000000  0.00000000  1
  O  O8  1  0.30580400  0.68356100  0.82623700  1
  O  O9  1  0.31643900  0.69419600  0.17376300  1
  O  O10  1  0.68356100  0.30580400  0.82623700  1
  O  O11  1  0.69419600  0.31643900  0.17376300  1
  O  O12  1  0.82087800  0.82087800  0.88842100  1
  O  O13  1  0.18555500  0.18555500  0.52169300  1
  O  O14  1  0.81444500  0.81444500  0.47830700  1
  O  O15  1  0.17912200  0.17912200  0.11157900  1
  O  O16  1  0.89200000  0.51591300  0.28551200  1
  O  O17  1  0.51591300  0.89200000  0.28551200  1
  O  O18  1  0.48408700  0.10800000  0.71448800  1
  O  O19  1  0.10800000  0.48408700  0.71448800  1
