# generated using pymatgen
data_ZnWO4
_symmetry_space_group_name_H-M   'P 1'
_cell_length_a   6.73293446
_cell_length_b   6.73293446
_cell_length_c   5.39443800
_cell_angle_alpha   90.00000000
_cell_angle_beta   90.00000000
_cell_angle_gamma   109.70331613
_symmetry_Int_Tables_number   1
_chemical_formula_structural   ZnWO4
_chemical_formula_sum   'Zn4 W4 O16'
_cell_volume   230.22512403
_cell_formula_units_Z   4
loop_
 _symmetry_equiv_pos_site_id
 _symmetry_equiv_pos_as_xyz
  1  'x, y, z'
loop_
 _atom_site_type_symbol
 _atom_site_label
 _atom_site_symmetry_multiplicity
 _atom_site_fract_x
 _atom_site_fract_y
 _atom_site_fract_z
 _atom_site_occupancy
  Zn  Zn0  1  0.10994200  0.39005800  0.75000000  1
  Zn  Zn1  1  0.39005800  0.10994200  0.25000000  1
  Zn  Zn2  1  0.89005800  0.60994200  0.25000000  1
  Zn  Zn3  1  0.60994200  0.89005800  0.75000000  1
  W  W4  1  0.89174900  0.10825100  0.26547400  1
  W  W5  1  0.10825100  0.89174900  0.73452600  1
  W  W6  1  0.60825100  0.39174900  0.76547400  1
  W  W7  1  0.39174900  0.60825100  0.23452600  1
  O  O8  1  0.42040400  0.07959600  0.75000000  1
  O  O9  1  0.07959600  0.42040400  0.25000000  1
  O  O10  1  0.57959600  0.92040400  0.25000000  1
  O  O11  1  0.92040400  0.57959600  0.75000000  1
  O  O12  1  0.77933600  0.22066400  0.53546600  1
  O  O13  1  0.22066400  0.77933600  0.46453400  1
  O  O14  1  0.72066400  0.27933600  0.03546600  1
  O  O15  1  0.27933600  0.72066400  0.96453400  1
  O  O16  1  0.34826300  0.34826300  0.00000000  1
  O  O17  1  0.84826300  0.84826300  0.50000000  1
  O  O18  1  0.65173700  0.65173700  0.00000000  1
  O  O19  1  0.15173700  0.15173700  0.50000000  1
  O  O20  1  0.92022500  0.07977500  0.88322600  1
  O  O21  1  0.07977500  0.92022500  0.11677400  1
  O  O22  1  0.57977500  0.42022500  0.38322600  1
  O  O23  1  0.42022500  0.57977500  0.61677400  1
