# generated using pymatgen
data_NbFe(PbO3)2
_symmetry_space_group_name_H-M   'P 1'
_cell_length_a   4.05212100
_cell_length_b   4.05212100
_cell_length_c   8.12374300
_cell_angle_alpha   90.00000000
_cell_angle_beta   90.00000000
_cell_angle_gamma   90.00000000
_symmetry_Int_Tables_number   1
_chemical_formula_structural   NbFe(PbO3)2
_chemical_formula_sum   'Nb1 Fe1 Pb2 O6'
_cell_volume   133.38929782
_cell_formula_units_Z   1
loop_
 _symmetry_equiv_pos_site_id
 _symmetry_equiv_pos_as_xyz
  1  'x, y, z'
loop_
 _atom_site_type_symbol
 _atom_site_label
 _atom_site_symmetry_multiplicity
 _atom_site_fract_x
 _atom_site_fract_y
 _atom_site_fract_z
 _atom_site_occupancy
  Nb  Nb0  1  0.00000000  0.00000000  0.00000000  1
  Fe  Fe1  1  0.00000000  0.00000000  0.50000000  1
  Pb  Pb2  1  0.50000000  0.50000000  0.28225700  1
  Pb  Pb3  1  0.50000000  0.50000000  0.71774300  1
  O  O4  1  0.50000000  0.00000000  0.00000000  1
  O  O5  1  0.50000000  0.00000000  0.50000000  1
  O  O6  1  0.00000000  0.50000000  0.00000000  1
  O  O7  1  0.00000000  0.50000000  0.50000000  1
  O  O8  1  0.00000000  0.00000000  0.24880000  1
  O  O9  1  0.00000000  0.00000000  0.75120000  1
