data_image0
_chemical_formula_structural       H12MgO12S2
_chemical_formula_sum              "H12 Mg1 O12 S2"
_cell_length_a       7.15176
_cell_length_b       5.86295
_cell_length_c       5.76609
_cell_angle_alpha    95.677
_cell_angle_beta     108.112
_cell_angle_gamma    89.4122

_space_group_name_H-M_alt    "P 1"
_space_group_IT_number       1

loop_
  _space_group_symop_operation_xyz
  'x, y, z'

loop_
  _atom_site_type_symbol
  _atom_site_label
  _atom_site_symmetry_multiplicity
  _atom_site_fract_x
  _atom_site_fract_y
  _atom_site_fract_z
  _atom_site_occupancy
  H   H1        1.0  0.76100  0.50000  0.05620  1.0000
  H   H2        1.0  0.48300  0.70800  0.16400  1.0000
  H   H3        1.0  0.69500  0.11300  0.21100  1.0000
  H   H4        1.0  0.49200  0.08610  0.24000  1.0000
  H   H5        1.0  0.99700  0.75700  0.40100  1.0000
  H   H6        1.0  0.65900  0.88700  0.48700  1.0000
  H   H7        1.0  0.34100  0.11300  0.51400  1.0000
  H   H8        1.0  0.00265  0.24300  0.59900  1.0000
  H   H9        1.0  0.50800  0.91400  0.76000  1.0000
  H   H10       1.0  0.30500  0.88700  0.78900  1.0000
  H   H11       1.0  0.51700  0.29200  0.83600  1.0000
  H   H12       1.0  0.23900  0.50000  0.94400  1.0000
  Mg  Mg1       1.0  0.00000  0.00002  1.00000  1.0000
  O   O1        1.0  0.28800  0.93900  0.07360  1.0000
  O   O2        1.0  0.76200  0.66600  0.13100  1.0000
  O   O3        1.0  0.34000  0.70900  0.14400  1.0000
  O   O4        1.0  0.96800  0.73700  0.21600  1.0000
  O   O5        1.0  0.04150  0.24200  0.32300  1.0000
  O   O6        1.0  0.63000  0.13500  0.34100  1.0000
  O   O7        1.0  0.37000  0.86500  0.65900  1.0000
  O   O8        1.0  0.95900  0.75800  0.67700  1.0000
  O   O9        1.0  0.03180  0.26300  0.78400  1.0000
  O   O10       1.0  0.66000  0.29100  0.85600  1.0000
  O   O11       1.0  0.23800  0.33400  0.86900  1.0000
  O   O12       1.0  0.71200  0.06130  0.92600  1.0000
  S   S1        1.0  0.26600  0.31400  0.40800  1.0000
  S   S2        1.0  0.73400  0.68600  0.59200  1.0000
