# generated using pymatgen
data_K2Tl6Tc
_symmetry_space_group_name_H-M   'P 1'
_cell_length_a   7.34200567
_cell_length_b   7.34200567
_cell_length_c   7.34200567
_cell_angle_alpha   60.00000000
_cell_angle_beta   60.00000000
_cell_angle_gamma   60.00000000
_symmetry_Int_Tables_number   1
_chemical_formula_structural   K2Tl6Tc
_chemical_formula_sum   'K2 Tl6 Tc1'
_cell_volume   279.85247340
_cell_formula_units_Z   1
loop_
 _symmetry_equiv_pos_site_id
 _symmetry_equiv_pos_as_xyz
  1  'x, y, z'
loop_
 _atom_site_type_symbol
 _atom_site_label
 _atom_site_symmetry_multiplicity
 _atom_site_fract_x
 _atom_site_fract_y
 _atom_site_fract_z
 _atom_site_occupancy
  K  K0  1  0.25000000  0.25000000  0.25000000  1
  K  K1  1  0.75000000  0.75000000  0.75000000  1
  Tl  Tl2  1  0.73171700  0.26828300  0.26828300  1
  Tl  Tl3  1  0.26828300  0.73171700  0.73171700  1
  Tl  Tl4  1  0.26828300  0.73171700  0.26828300  1
  Tl  Tl5  1  0.73171700  0.26828300  0.73171700  1
  Tl  Tl6  1  0.26828300  0.26828300  0.73171700  1
  Tl  Tl7  1  0.73171700  0.73171700  0.26828300  1
  Tc  Tc8  1  0.00000000  0.00000000  0.00000000  1
