# generated using pymatgen
data_Mo3Se
_symmetry_space_group_name_H-M   'P 1'
_cell_length_a   5.01992900
_cell_length_b   5.01992900
_cell_length_c   5.01992900
_cell_angle_alpha   90.00000000
_cell_angle_beta   90.00000000
_cell_angle_gamma   90.00000000
_symmetry_Int_Tables_number   1
_chemical_formula_structural   Mo3Se
_chemical_formula_sum   'Mo6 Se2'
_cell_volume   126.50064039
_cell_formula_units_Z   2
loop_
 _symmetry_equiv_pos_site_id
 _symmetry_equiv_pos_as_xyz
  1  'x, y, z'
loop_
 _atom_site_type_symbol
 _atom_site_label
 _atom_site_symmetry_multiplicity
 _atom_site_fract_x
 _atom_site_fract_y
 _atom_site_fract_z
 _atom_site_occupancy
  Mo  Mo0  1  0.25000000  0.00000000  0.50000000  1
  Mo  Mo1  1  0.75000000  0.00000000  0.50000000  1
  Mo  Mo2  1  0.50000000  0.25000000  0.00000000  1
  Mo  Mo3  1  0.50000000  0.75000000  0.00000000  1
  Mo  Mo4  1  0.00000000  0.50000000  0.25000000  1
  Mo  Mo5  1  0.00000000  0.50000000  0.75000000  1
  Se  Se6  1  0.00000000  0.00000000  0.00000000  1
  Se  Se7  1  0.50000000  0.50000000  0.50000000  1
