# generated using pymatgen
data_BaPrFeCuO5
_symmetry_space_group_name_H-M   'P 1'
_cell_length_a   3.96020200
_cell_length_b   3.96020200
_cell_length_c   7.98722200
_cell_angle_alpha   90.00000000
_cell_angle_beta   90.00000000
_cell_angle_gamma   90.00000000
_symmetry_Int_Tables_number   1
_chemical_formula_structural   BaPrFeCuO5
_chemical_formula_sum   'Ba1 Pr1 Fe1 Cu1 O5'
_cell_volume   125.26519912
_cell_formula_units_Z   1
loop_
 _symmetry_equiv_pos_site_id
 _symmetry_equiv_pos_as_xyz
  1  'x, y, z'
loop_
 _atom_site_type_symbol
 _atom_site_label
 _atom_site_symmetry_multiplicity
 _atom_site_fract_x
 _atom_site_fract_y
 _atom_site_fract_z
 _atom_site_occupancy
  Ba  Ba0  1  0.50000000  0.50000000  0.76473000  1
  Pr  Pr1  1  0.50000000  0.50000000  0.23530600  1
  Fe  Fe2  1  0.00000000  0.00000000  0.48611700  1
  Cu  Cu3  1  0.00000000  0.00000000  0.01346300  1
  O  O4  1  0.50000000  0.00000000  0.03793800  1
  O  O5  1  0.00000000  0.50000000  0.03793800  1
  O  O6  1  0.50000000  0.00000000  0.42193700  1
  O  O7  1  0.00000000  0.50000000  0.42193700  1
  O  O8  1  0.00000000  0.00000000  0.71863400  1
