# generated using pymatgen
data_SmFeGe2
_symmetry_space_group_name_H-M   'P 1'
_cell_length_a   8.49432481
_cell_length_b   8.49432481
_cell_length_c   4.31585200
_cell_angle_alpha   90.00000000
_cell_angle_beta   90.00000000
_cell_angle_gamma   151.00277400
_symmetry_Int_Tables_number   1
_chemical_formula_structural   SmFeGe2
_chemical_formula_sum   'Sm2 Fe2 Ge4'
_cell_volume   150.95849741
_cell_formula_units_Z   2
loop_
 _symmetry_equiv_pos_site_id
 _symmetry_equiv_pos_as_xyz
  1  'x, y, z'
loop_
 _atom_site_type_symbol
 _atom_site_label
 _atom_site_symmetry_multiplicity
 _atom_site_fract_x
 _atom_site_fract_y
 _atom_site_fract_z
 _atom_site_occupancy
  Sm  Sm0  1  0.60684900  0.39315100  0.75000000  1
  Sm  Sm1  1  0.39315100  0.60684900  0.25000000  1
  Fe  Fe2  1  0.81543000  0.18457000  0.75000000  1
  Fe  Fe3  1  0.18457000  0.81543000  0.25000000  1
  Ge  Ge4  1  0.95535500  0.04464500  0.75000000  1
  Ge  Ge5  1  0.04464500  0.95535500  0.25000000  1
  Ge  Ge6  1  0.24890600  0.75109400  0.75000000  1
  Ge  Ge7  1  0.75109400  0.24890600  0.25000000  1
