data_image0
_chemical_formula_structural       Te4Ti5
_chemical_formula_sum              "Te4 Ti5"
_cell_length_a       3.72179
_cell_length_b       7.44165
_cell_length_c       7.44165
_cell_angle_alpha    93.5852
_cell_angle_beta     75.5187
_cell_angle_gamma    104.481

_space_group_name_H-M_alt    "P 1"
_space_group_IT_number       1

loop_
  _space_group_symop_operation_xyz
  'x, y, z'

loop_
  _atom_site_type_symbol
  _atom_site_label
  _atom_site_symmetry_multiplicity
  _atom_site_fract_x
  _atom_site_fract_y
  _atom_site_fract_z
  _atom_site_occupancy
  Te  Te1       1.0  0.05740  0.33700  0.22200  1.0000
  Te  Te2       1.0  0.72000  0.77800  0.33700  1.0000
  Te  Te3       1.0  0.28000  0.22200  0.66300  1.0000
  Te  Te4       1.0  0.94300  0.66300  0.77800  1.0000
  Ti  Ti1       1.0  0.00000  0.00000  0.00000  1.0000
  Ti  Ti2       1.0  0.31400  0.69100  0.06260  1.0000
  Ti  Ti3       1.0  0.37700  0.06260  0.30900  1.0000
  Ti  Ti4       1.0  0.62300  0.93700  0.69100  1.0000
  Ti  Ti5       1.0  0.68600  0.30900  0.93700  1.0000
