# generated using pymatgen
data_Zr3FeF6
_symmetry_space_group_name_H-M   'P 1'
_cell_length_a   5.84201021
_cell_length_b   7.67687510
_cell_length_c   8.10558308
_cell_angle_alpha   89.76738979
_cell_angle_beta   86.99638111
_cell_angle_gamma   112.97603532
_symmetry_Int_Tables_number   1
_chemical_formula_structural   Zr3FeF6
_chemical_formula_sum   'Zr3 Fe1 F6'
_cell_volume   334.10481718
_cell_formula_units_Z   1
loop_
 _symmetry_equiv_pos_site_id
 _symmetry_equiv_pos_as_xyz
  1  'x, y, z'
loop_
 _atom_site_type_symbol
 _atom_site_label
 _atom_site_symmetry_multiplicity
 _atom_site_fract_x
 _atom_site_fract_y
 _atom_site_fract_z
 _atom_site_occupancy
  Zr  Zr0  1  0.00000000  0.00000000  0.50000000  1
  Zr  Zr1  1  0.50000000  0.50000000  0.00000000  1
  Zr  Zr2  1  0.00000000  0.50000000  0.00000000  1
  Fe  Fe3  1  0.00000000  0.00000000  0.00000000  1
  F  F4  1  0.86498900  0.21103800  0.99930300  1
  F  F5  1  0.13501100  0.78896200  0.00069700  1
  F  F6  1  0.94736600  0.96854100  0.74749500  1
  F  F7  1  0.05263400  0.03145900  0.25250500  1
  F  F8  1  0.64094800  0.78369000  0.03699400  1
  F  F9  1  0.35905200  0.21631000  0.96300600  1
