# generated using pymatgen
data_U2(SiAu)3
_symmetry_space_group_name_H-M   'P 1'
_cell_length_a   2.68347400
_cell_length_b   2.68347400
_cell_length_c   21.86717400
_cell_angle_alpha   90.00000000
_cell_angle_beta   90.00000000
_cell_angle_gamma   90.00000000
_symmetry_Int_Tables_number   1
_chemical_formula_structural   U2(SiAu)3
_chemical_formula_sum   'U2 Si3 Au3'
_cell_volume   157.46623522
_cell_formula_units_Z   1
loop_
 _symmetry_equiv_pos_site_id
 _symmetry_equiv_pos_as_xyz
  1  'x, y, z'
loop_
 _atom_site_type_symbol
 _atom_site_label
 _atom_site_symmetry_multiplicity
 _atom_site_fract_x
 _atom_site_fract_y
 _atom_site_fract_z
 _atom_site_occupancy
  U  U0  1  0.50000000  0.50000000  0.74301100  1
  U  U1  1  0.50000000  0.50000000  0.25698900  1
  Si  Si2  1  0.50000000  0.50000000  0.38607800  1
  Si  Si3  1  0.50000000  0.50000000  0.61392200  1
  Si  Si4  1  0.50000000  0.50000000  0.00000000  1
  Au  Au5  1  0.50000000  0.50000000  0.11763200  1
  Au  Au6  1  0.50000000  0.50000000  0.88236800  1
  Au  Au7  1  0.50000000  0.50000000  0.50000000  1
