# generated using pymatgen
data_UFeSi2
_symmetry_space_group_name_H-M   'P 1'
_cell_length_a   8.60901677
_cell_length_b   8.60901677
_cell_length_c   3.90954900
_cell_angle_alpha   90.00000000
_cell_angle_beta   90.00000000
_cell_angle_gamma   154.33884130
_symmetry_Int_Tables_number   1
_chemical_formula_structural   UFeSi2
_chemical_formula_sum   'U2 Fe2 Si4'
_cell_volume   125.47868061
_cell_formula_units_Z   2
loop_
 _symmetry_equiv_pos_site_id
 _symmetry_equiv_pos_as_xyz
  1  'x, y, z'
loop_
 _atom_site_type_symbol
 _atom_site_label
 _atom_site_symmetry_multiplicity
 _atom_site_fract_x
 _atom_site_fract_y
 _atom_site_fract_z
 _atom_site_occupancy
  U  U0  1  0.61039000  0.38961000  0.25000000  1
  U  U1  1  0.38961000  0.61039000  0.75000000  1
  Fe  Fe2  1  0.82968800  0.17031200  0.25000000  1
  Fe  Fe3  1  0.17031200  0.82968800  0.75000000  1
  Si  Si4  1  0.96267000  0.03733000  0.25000000  1
  Si  Si5  1  0.03733000  0.96267000  0.75000000  1
  Si  Si6  1  0.24976200  0.75023800  0.25000000  1
  Si  Si7  1  0.75023800  0.24976200  0.75000000  1
