# generated using pymatgen
data_VNiO3
_symmetry_space_group_name_H-M   'P 1'
_cell_length_a   4.97597500
_cell_length_b   5.10328914
_cell_length_c   5.43285379
_cell_angle_alpha   62.24145115
_cell_angle_beta   63.85920922
_cell_angle_gamma   60.87878473
_symmetry_Int_Tables_number   1
_chemical_formula_structural   VNiO3
_chemical_formula_sum   'V2 Ni2 O6'
_cell_volume   102.48717837
_cell_formula_units_Z   2
loop_
 _symmetry_equiv_pos_site_id
 _symmetry_equiv_pos_as_xyz
  1  'x, y, z'
loop_
 _atom_site_type_symbol
 _atom_site_label
 _atom_site_symmetry_multiplicity
 _atom_site_fract_x
 _atom_site_fract_y
 _atom_site_fract_z
 _atom_site_occupancy
  V  V0  1  0.64803000  0.65974200  0.04793900  1
  V  V1  1  0.35197000  0.34025800  0.95206100  1
  Ni  Ni2  1  0.85143500  0.85237400  0.44382500  1
  Ni  Ni3  1  0.14856500  0.14762600  0.55617500  1
  O  O4  1  0.26943600  0.93888000  0.23742300  1
  O  O5  1  0.73056400  0.06112000  0.76257700  1
  O  O6  1  0.45569400  0.73104900  0.76285900  1
  O  O7  1  0.54430600  0.26895100  0.23714100  1
  O  O8  1  0.93031100  0.55692800  0.23860300  1
  O  O9  1  0.06968900  0.44307200  0.76139700  1
