# generated using pymatgen
data_Sm2(GeIr)3
_symmetry_space_group_name_H-M   'P 1'
_cell_length_a   2.84107900
_cell_length_b   2.84107900
_cell_length_c   21.13816900
_cell_angle_alpha   90.00000000
_cell_angle_beta   90.00000000
_cell_angle_gamma   90.00000000
_symmetry_Int_Tables_number   1
_chemical_formula_structural   Sm2(GeIr)3
_chemical_formula_sum   'Sm2 Ge3 Ir3'
_cell_volume   170.62159042
_cell_formula_units_Z   1
loop_
 _symmetry_equiv_pos_site_id
 _symmetry_equiv_pos_as_xyz
  1  'x, y, z'
loop_
 _atom_site_type_symbol
 _atom_site_label
 _atom_site_symmetry_multiplicity
 _atom_site_fract_x
 _atom_site_fract_y
 _atom_site_fract_z
 _atom_site_occupancy
  Sm  Sm0  1  0.50000000  0.50000000  0.76221200  1
  Sm  Sm1  1  0.50000000  0.50000000  0.23778800  1
  Ge  Ge2  1  0.50000000  0.50000000  0.38681900  1
  Ge  Ge3  1  0.50000000  0.50000000  0.61318100  1
  Ge  Ge4  1  0.50000000  0.50000000  0.00000000  1
  Ir  Ir5  1  0.50000000  0.50000000  0.11327000  1
  Ir  Ir6  1  0.50000000  0.50000000  0.88673000  1
  Ir  Ir7  1  0.50000000  0.50000000  0.50000000  1
