# generated using pymatgen
data_Y2Cl2O
_symmetry_space_group_name_H-M   'P 1'
_cell_length_a   4.18451300
_cell_length_b   4.18451300
_cell_length_c   12.71454700
_cell_angle_alpha   90.00000000
_cell_angle_beta   90.00000000
_cell_angle_gamma   90.00000000
_symmetry_Int_Tables_number   1
_chemical_formula_structural   Y2Cl2O
_chemical_formula_sum   'Y2 Cl2 O1'
_cell_volume   222.63361304
_cell_formula_units_Z   1
loop_
 _symmetry_equiv_pos_site_id
 _symmetry_equiv_pos_as_xyz
  1  'x, y, z'
loop_
 _atom_site_type_symbol
 _atom_site_label
 _atom_site_symmetry_multiplicity
 _atom_site_fract_x
 _atom_site_fract_y
 _atom_site_fract_z
 _atom_site_occupancy
  Y  Y0  1  0.50000000  0.50000000  0.16246600  1
  Y  Y1  1  0.50000000  0.50000000  0.83753400  1
  Cl  Cl2  1  0.50000000  0.50000000  0.64390900  1
  Cl  Cl3  1  0.50000000  0.50000000  0.35609100  1
  O  O4  1  0.50000000  0.50000000  0.00000000  1
