# generated using pymatgen
data_Dy2CoGe6
_symmetry_space_group_name_H-M   'P 1'
_cell_length_a   4.06575300
_cell_length_b   4.00299400
_cell_length_c   10.88791024
_cell_angle_alpha   100.59278441
_cell_angle_beta   90.00000000
_cell_angle_gamma   90.00000000
_symmetry_Int_Tables_number   1
_chemical_formula_structural   Dy2CoGe6
_chemical_formula_sum   'Dy2 Co1 Ge6'
_cell_volume   174.18295259
_cell_formula_units_Z   1
loop_
 _symmetry_equiv_pos_site_id
 _symmetry_equiv_pos_as_xyz
  1  'x, y, z'
loop_
 _atom_site_type_symbol
 _atom_site_label
 _atom_site_symmetry_multiplicity
 _atom_site_fract_x
 _atom_site_fract_y
 _atom_site_fract_z
 _atom_site_occupancy
  Dy  Dy0  1  0.50000000  0.22214400  0.44428700  1
  Dy  Dy1  1  0.50000000  0.88654000  0.77307900  1
  Co  Co2  1  0.00000000  0.44521800  0.89043500  1
  Ge  Ge3  1  0.50000000  0.49988600  0.99977200  1
  Ge  Ge4  1  0.50000000  0.61711800  0.23423600  1
  Ge  Ge5  1  0.00000000  0.00097300  0.00194700  1
  Ge  Ge6  1  0.00000000  0.11882300  0.23764600  1
  Ge  Ge7  1  0.00000000  0.33884400  0.67768900  1
  Ge  Ge8  1  0.00000000  0.76345400  0.52690900  1
