# generated using pymatgen
data_Ba3SnF6
_symmetry_space_group_name_H-M   'P 1'
_cell_length_a   8.57174111
_cell_length_b   8.43751671
_cell_length_c   8.32745783
_cell_angle_alpha   64.60145028
_cell_angle_beta   153.83315783
_cell_angle_gamma   117.34120488
_symmetry_Int_Tables_number   1
_chemical_formula_structural   Ba3SnF6
_chemical_formula_sum   'Ba3 Sn1 F6'
_cell_volume   235.71111860
_cell_formula_units_Z   1
loop_
 _symmetry_equiv_pos_site_id
 _symmetry_equiv_pos_as_xyz
  1  'x, y, z'
loop_
 _atom_site_type_symbol
 _atom_site_label
 _atom_site_symmetry_multiplicity
 _atom_site_fract_x
 _atom_site_fract_y
 _atom_site_fract_z
 _atom_site_occupancy
  Ba  Ba0  1  0.00000000  0.00000000  0.50000000  1
  Ba  Ba1  1  0.50000000  0.50000000  0.00000000  1
  Ba  Ba2  1  0.00000000  0.50000000  0.00000000  1
  Sn  Sn3  1  0.00000000  0.00000000  0.00000000  1
  F  F4  1  0.92067600  0.39598500  0.66590000  1
  F  F5  1  0.07932400  0.60401500  0.33410000  1
  F  F6  1  0.61916200  0.68940500  0.39621800  1
  F  F7  1  0.38083800  0.31059500  0.60378200  1
  F  F8  1  0.50504700  0.84202500  0.91387100  1
  F  F9  1  0.49495300  0.15797500  0.08612900  1
