# generated using pymatgen
data_NdClO2
_symmetry_space_group_name_H-M   'P 1'
_cell_length_a   4.34060000
_cell_length_b   5.10331200
_cell_length_c   6.59839180
_cell_angle_alpha   71.65193420
_cell_angle_beta   90.00000000
_cell_angle_gamma   90.00000000
_symmetry_Int_Tables_number   1
_chemical_formula_structural   NdClO2
_chemical_formula_sum   'Nd2 Cl2 O4'
_cell_volume   138.73313715
_cell_formula_units_Z   2
loop_
 _symmetry_equiv_pos_site_id
 _symmetry_equiv_pos_as_xyz
  1  'x, y, z'
loop_
 _atom_site_type_symbol
 _atom_site_label
 _atom_site_symmetry_multiplicity
 _atom_site_fract_x
 _atom_site_fract_y
 _atom_site_fract_z
 _atom_site_occupancy
  Nd  Nd0  1  0.25000000  0.17820300  0.66728200  1
  Nd  Nd1  1  0.75000000  0.82179700  0.33271800  1
  Cl  Cl2  1  0.25000000  0.21379700  0.08699100  1
  Cl  Cl3  1  0.75000000  0.78620300  0.91300900  1
  O  O4  1  0.25000000  0.75442900  0.54718800  1
  O  O5  1  0.75000000  0.24557100  0.45281200  1
  O  O6  1  0.25000000  0.61688700  0.37687900  1
  O  O7  1  0.75000000  0.38311300  0.62312100  1
