# generated using pymatgen
data_Pr2As3Au
_symmetry_space_group_name_H-M   'P 1'
_cell_length_a   8.66637200
_cell_length_b   8.66637200
_cell_length_c   38.04456500
_cell_angle_alpha   90.00000000
_cell_angle_beta   90.00000000
_cell_angle_gamma   90.00000000
_symmetry_Int_Tables_number   1
_chemical_formula_structural   Pr2As3Au
_chemical_formula_sum   'Pr2 As3 Au1'
_cell_volume   2857.37523746
_cell_formula_units_Z   1
loop_
 _symmetry_equiv_pos_site_id
 _symmetry_equiv_pos_as_xyz
  1  'x, y, z'
loop_
 _atom_site_type_symbol
 _atom_site_label
 _atom_site_symmetry_multiplicity
 _atom_site_fract_x
 _atom_site_fract_y
 _atom_site_fract_z
 _atom_site_occupancy
  Pr  Pr0  1  0.50000000  0.50000000  0.24308000  1
  Pr  Pr1  1  0.50000000  0.50000000  0.75692000  1
  As  As2  1  0.50000000  0.50000000  0.69102900  1
  As  As3  1  0.50000000  0.50000000  0.30897100  1
  As  As4  1  0.50000000  0.50000000  0.00000000  1
  Au  Au5  1  0.50000000  0.50000000  0.50000000  1
