# generated using pymatgen
data_Tb2ZnSb3
_symmetry_space_group_name_H-M   'P 1'
_cell_length_a   9.20267600
_cell_length_b   9.20267600
_cell_length_c   40.04069500
_cell_angle_alpha   90.00000000
_cell_angle_beta   90.00000000
_cell_angle_gamma   90.00000000
_symmetry_Int_Tables_number   1
_chemical_formula_structural   Tb2ZnSb3
_chemical_formula_sum   'Tb2 Zn1 Sb3'
_cell_volume   3391.01625129
_cell_formula_units_Z   1
loop_
 _symmetry_equiv_pos_site_id
 _symmetry_equiv_pos_as_xyz
  1  'x, y, z'
loop_
 _atom_site_type_symbol
 _atom_site_label
 _atom_site_symmetry_multiplicity
 _atom_site_fract_x
 _atom_site_fract_y
 _atom_site_fract_z
 _atom_site_occupancy
  Tb  Tb0  1  0.50000000  0.50000000  0.24306800  1
  Tb  Tb1  1  0.50000000  0.50000000  0.75693200  1
  Zn  Zn2  1  0.50000000  0.50000000  0.50000000  1
  Sb  Sb3  1  0.50000000  0.50000000  0.69106100  1
  Sb  Sb4  1  0.50000000  0.50000000  0.30893900  1
  Sb  Sb5  1  0.50000000  0.50000000  0.00000000  1
