# generated using pymatgen
data_SrO3
_symmetry_space_group_name_H-M   'P 1'
_cell_length_a   3.77349900
_cell_length_b   4.79406800
_cell_length_c   6.06400500
_cell_angle_alpha   90.00000000
_cell_angle_beta   90.00000000
_cell_angle_gamma   90.00000000
_symmetry_Int_Tables_number   1
_chemical_formula_structural   SrO3
_chemical_formula_sum   'Sr2 O6'
_cell_volume   109.70034157
_cell_formula_units_Z   2
loop_
 _symmetry_equiv_pos_site_id
 _symmetry_equiv_pos_as_xyz
  1  'x, y, z'
loop_
 _atom_site_type_symbol
 _atom_site_label
 _atom_site_symmetry_multiplicity
 _atom_site_fract_x
 _atom_site_fract_y
 _atom_site_fract_z
 _atom_site_occupancy
  Sr  Sr0  1  0.50000000  0.29082100  0.00746700  1
  Sr  Sr1  1  0.50000000  0.70917900  0.50746700  1
  O  O2  1  0.50000000  0.19994100  0.60338300  1
  O  O3  1  0.50000000  0.80005900  0.10338300  1
  O  O4  1  0.00000000  0.81762900  0.99395300  1
  O  O5  1  0.00000000  0.18237100  0.49395300  1
  O  O6  1  0.00000000  0.37449300  0.32299700  1
  O  O7  1  0.00000000  0.62550700  0.82299700  1
