# generated using pymatgen
data_CeCO
_symmetry_space_group_name_H-M   'P 1'
_cell_length_a   3.93572263
_cell_length_b   3.93572263
_cell_length_c   6.83399297
_cell_angle_alpha   83.76857857
_cell_angle_beta   83.76857857
_cell_angle_gamma   58.99459587
_symmetry_Int_Tables_number   1
_chemical_formula_structural   CeCO
_chemical_formula_sum   'Ce2 C2 O2'
_cell_volume   90.02450919
_cell_formula_units_Z   2
loop_
 _symmetry_equiv_pos_site_id
 _symmetry_equiv_pos_as_xyz
  1  'x, y, z'
loop_
 _atom_site_type_symbol
 _atom_site_label
 _atom_site_symmetry_multiplicity
 _atom_site_fract_x
 _atom_site_fract_y
 _atom_site_fract_z
 _atom_site_occupancy
  Ce  Ce0  1  0.30665700  0.30665700  0.22508500  1
  Ce  Ce1  1  0.69334300  0.69334300  0.77491500  1
  C  C2  1  0.94325400  0.94325400  0.43127100  1
  C  C3  1  0.05674600  0.05674600  0.56872900  1
  O  O4  1  0.65181900  0.65181900  0.12322000  1
  O  O5  1  0.34818100  0.34818100  0.87678000  1
