# generated using pymatgen
data_EuO3
_symmetry_space_group_name_H-M   'P 1'
_cell_length_a   3.21285300
_cell_length_b   4.95870200
_cell_length_c   6.48817900
_cell_angle_alpha   90.00000000
_cell_angle_beta   90.00000000
_cell_angle_gamma   90.00000000
_symmetry_Int_Tables_number   1
_chemical_formula_structural   EuO3
_chemical_formula_sum   'Eu2 O6'
_cell_volume   103.36694667
_cell_formula_units_Z   2
loop_
 _symmetry_equiv_pos_site_id
 _symmetry_equiv_pos_as_xyz
  1  'x, y, z'
loop_
 _atom_site_type_symbol
 _atom_site_label
 _atom_site_symmetry_multiplicity
 _atom_site_fract_x
 _atom_site_fract_y
 _atom_site_fract_z
 _atom_site_occupancy
  Eu  Eu0  1  0.50000000  0.37438500  0.01067400  1
  Eu  Eu1  1  0.50000000  0.62561500  0.51067400  1
  O  O2  1  0.50000000  0.09704000  0.61727700  1
  O  O3  1  0.50000000  0.90296000  0.11727700  1
  O  O4  1  0.00000000  0.96054200  0.02995300  1
  O  O5  1  0.00000000  0.03945800  0.52995300  1
  O  O6  1  0.00000000  0.47325400  0.26989600  1
  O  O7  1  0.00000000  0.52674600  0.76989600  1
