# generated using pymatgen
data_KYbI3
_symmetry_space_group_name_H-M   'P 1'
_cell_length_a   8.04725340
_cell_length_b   8.04725340
_cell_length_c   11.78395400
_cell_angle_alpha   90.00000000
_cell_angle_beta   90.00000000
_cell_angle_gamma   146.84840330
_symmetry_Int_Tables_number   1
_chemical_formula_structural   KYbI3
_chemical_formula_sum   'K2 Yb2 I6'
_cell_volume   417.31065994
_cell_formula_units_Z   2
loop_
 _symmetry_equiv_pos_site_id
 _symmetry_equiv_pos_as_xyz
  1  'x, y, z'
loop_
 _atom_site_type_symbol
 _atom_site_label
 _atom_site_symmetry_multiplicity
 _atom_site_fract_x
 _atom_site_fract_y
 _atom_site_fract_z
 _atom_site_occupancy
  K  K0  1  0.24900900  0.75099100  0.25000000  1
  K  K1  1  0.75099100  0.24900900  0.75000000  1
  Yb  Yb2  1  0.00000000  0.00000000  0.00000000  1
  Yb  Yb3  1  0.00000000  0.00000000  0.50000000  1
  I  I4  1  0.63309300  0.36690700  0.05578500  1
  I  I5  1  0.36690700  0.63309300  0.94421500  1
  I  I6  1  0.36690700  0.63309300  0.55578500  1
  I  I7  1  0.63309300  0.36690700  0.44421500  1
  I  I8  1  0.92642800  0.07357200  0.25000000  1
  I  I9  1  0.07357200  0.92642800  0.75000000  1
