# generated using pymatgen
data_Th2BiTe2
_symmetry_space_group_name_H-M   'P 1'
_cell_length_a   3.29920600
_cell_length_b   3.29920600
_cell_length_c   17.29507600
_cell_angle_alpha   90.00000000
_cell_angle_beta   90.00000000
_cell_angle_gamma   90.00000000
_symmetry_Int_Tables_number   1
_chemical_formula_structural   Th2BiTe2
_chemical_formula_sum   'Th2 Bi1 Te2'
_cell_volume   188.25275543
_cell_formula_units_Z   1
loop_
 _symmetry_equiv_pos_site_id
 _symmetry_equiv_pos_as_xyz
  1  'x, y, z'
loop_
 _atom_site_type_symbol
 _atom_site_label
 _atom_site_symmetry_multiplicity
 _atom_site_fract_x
 _atom_site_fract_y
 _atom_site_fract_z
 _atom_site_occupancy
  Th  Th0  1  0.50000000  0.50000000  0.18742300  1
  Th  Th1  1  0.50000000  0.50000000  0.81257700  1
  Bi  Bi2  1  0.50000000  0.50000000  0.00000000  1
  Te  Te3  1  0.50000000  0.50000000  0.63750700  1
  Te  Te4  1  0.50000000  0.50000000  0.36249300  1
