# generated using pymatgen
data_Dy2Cl2O
_symmetry_space_group_name_H-M   'P 1'
_cell_length_a   4.11150700
_cell_length_b   4.11150700
_cell_length_c   13.00656600
_cell_angle_alpha   90.00000000
_cell_angle_beta   90.00000000
_cell_angle_gamma   90.00000000
_symmetry_Int_Tables_number   1
_chemical_formula_structural   Dy2Cl2O
_chemical_formula_sum   'Dy2 Cl2 O1'
_cell_volume   219.86936242
_cell_formula_units_Z   1
loop_
 _symmetry_equiv_pos_site_id
 _symmetry_equiv_pos_as_xyz
  1  'x, y, z'
loop_
 _atom_site_type_symbol
 _atom_site_label
 _atom_site_symmetry_multiplicity
 _atom_site_fract_x
 _atom_site_fract_y
 _atom_site_fract_z
 _atom_site_occupancy
  Dy  Dy0  1  0.50000000  0.50000000  0.15862600  1
  Dy  Dy1  1  0.50000000  0.50000000  0.84137400  1
  Cl  Cl2  1  0.50000000  0.50000000  0.65183700  1
  Cl  Cl3  1  0.50000000  0.50000000  0.34816300  1
  O  O4  1  0.50000000  0.50000000  0.00000000  1
