# generated using pymatgen
data_Th2(SiPt)3
_symmetry_space_group_name_H-M   'P 1'
_cell_length_a   2.86561100
_cell_length_b   2.86561100
_cell_length_c   21.07597600
_cell_angle_alpha   90.00000000
_cell_angle_beta   90.00000000
_cell_angle_gamma   90.00000000
_symmetry_Int_Tables_number   1
_chemical_formula_structural   Th2(SiPt)3
_chemical_formula_sum   'Th2 Si3 Pt3'
_cell_volume   173.07014859
_cell_formula_units_Z   1
loop_
 _symmetry_equiv_pos_site_id
 _symmetry_equiv_pos_as_xyz
  1  'x, y, z'
loop_
 _atom_site_type_symbol
 _atom_site_label
 _atom_site_symmetry_multiplicity
 _atom_site_fract_x
 _atom_site_fract_y
 _atom_site_fract_z
 _atom_site_occupancy
  Th  Th0  1  0.50000000  0.50000000  0.75353100  1
  Th  Th1  1  0.50000000  0.50000000  0.24646900  1
  Si  Si2  1  0.50000000  0.50000000  0.38837500  1
  Si  Si3  1  0.50000000  0.50000000  0.61162500  1
  Si  Si4  1  0.50000000  0.50000000  0.00000000  1
  Pt  Pt5  1  0.50000000  0.50000000  0.11237700  1
  Pt  Pt6  1  0.50000000  0.50000000  0.88762300  1
  Pt  Pt7  1  0.50000000  0.50000000  0.50000000  1
