# generated using pymatgen
data_CoCl6
_symmetry_space_group_name_H-M   'P 1'
_cell_length_a   8.16002032
_cell_length_b   8.16002032
_cell_length_c   43.41169800
_cell_angle_alpha   90.00000000
_cell_angle_beta   90.00000000
_cell_angle_gamma   103.88874035
_symmetry_Int_Tables_number   1
_chemical_formula_structural   CoCl6
_chemical_formula_sum   'Co1 Cl6'
_cell_volume   2806.09758395
_cell_formula_units_Z   1
loop_
 _symmetry_equiv_pos_site_id
 _symmetry_equiv_pos_as_xyz
  1  'x, y, z'
loop_
 _atom_site_type_symbol
 _atom_site_label
 _atom_site_symmetry_multiplicity
 _atom_site_fract_x
 _atom_site_fract_y
 _atom_site_fract_z
 _atom_site_occupancy
  Co  Co0  1  0.00000000  0.00000000  0.00000000  1
  Cl  Cl1  1  0.00000000  0.00000000  0.24998000  1
  Cl  Cl2  1  0.00000000  0.00000000  0.75002000  1
  Cl  Cl3  1  0.26768400  0.03559300  0.00000000  1
  Cl  Cl4  1  0.73231600  0.96440700  0.00000000  1
  Cl  Cl5  1  0.03559300  0.26768400  0.00000000  1
  Cl  Cl6  1  0.96440700  0.73231600  0.00000000  1
