# generated using pymatgen
data_RbScBr3
_symmetry_space_group_name_H-M   'P 1'
_cell_length_a   6.21478400
_cell_length_b   7.89448650
_cell_length_c   7.89448650
_cell_angle_alpha   120.00000417
_cell_angle_beta   90.00000000
_cell_angle_gamma   90.00000000
_symmetry_Int_Tables_number   1
_chemical_formula_structural   RbScBr3
_chemical_formula_sum   'Rb2 Sc2 Br6'
_cell_volume   335.43194847
_cell_formula_units_Z   2
loop_
 _symmetry_equiv_pos_site_id
 _symmetry_equiv_pos_as_xyz
  1  'x, y, z'
loop_
 _atom_site_type_symbol
 _atom_site_label
 _atom_site_symmetry_multiplicity
 _atom_site_fract_x
 _atom_site_fract_y
 _atom_site_fract_z
 _atom_site_occupancy
  Rb  Rb0  1  0.25000000  0.66666700  0.33333300  1
  Rb  Rb1  1  0.75000000  0.33333300  0.66666700  1
  Sc  Sc2  1  0.00000000  0.00000000  0.00000000  1
  Sc  Sc3  1  0.50000000  0.00000000  0.00000000  1
  Br  Br4  1  0.75000000  0.83341000  0.16659000  1
  Br  Br5  1  0.25000000  0.16659000  0.83341000  1
  Br  Br6  1  0.75000000  0.33317900  0.16659000  1
  Br  Br7  1  0.25000000  0.66682100  0.83341000  1
  Br  Br8  1  0.75000000  0.83341000  0.66682100  1
  Br  Br9  1  0.25000000  0.16659000  0.33317900  1
