# generated using pymatgen
data_Rb2O2
_symmetry_space_group_name_H-M   'P 1'
_cell_length_a   5.62359881
_cell_length_b   5.62359881
_cell_length_c   4.25649900
_cell_angle_alpha   90.00000000
_cell_angle_beta   90.00000000
_cell_angle_gamma   139.00543450
_symmetry_Int_Tables_number   1
_chemical_formula_structural   Rb2O2
_chemical_formula_sum   'Rb2 O2'
_cell_volume   88.30325678
_cell_formula_units_Z   1
loop_
 _symmetry_equiv_pos_site_id
 _symmetry_equiv_pos_as_xyz
  1  'x, y, z'
loop_
 _atom_site_type_symbol
 _atom_site_label
 _atom_site_symmetry_multiplicity
 _atom_site_fract_x
 _atom_site_fract_y
 _atom_site_fract_z
 _atom_site_occupancy
  Rb  Rb0  1  0.62604400  0.37395600  0.25000000  1
  Rb  Rb1  1  0.37395600  0.62604400  0.75000000  1
  O  O2  1  0.91859000  0.08141000  0.25000000  1
  O  O3  1  0.08141000  0.91859000  0.75000000  1
