# generated using pymatgen
data_BaLaCo2O5
_symmetry_space_group_name_H-M   'P 1'
_cell_length_a   3.92420700
_cell_length_b   4.03351800
_cell_length_c   7.85234800
_cell_angle_alpha   90.00000000
_cell_angle_beta   90.00000000
_cell_angle_gamma   90.00000000
_symmetry_Int_Tables_number   1
_chemical_formula_structural   BaLaCo2O5
_chemical_formula_sum   'Ba1 La1 Co2 O5'
_cell_volume   124.28978761
_cell_formula_units_Z   1
loop_
 _symmetry_equiv_pos_site_id
 _symmetry_equiv_pos_as_xyz
  1  'x, y, z'
loop_
 _atom_site_type_symbol
 _atom_site_label
 _atom_site_symmetry_multiplicity
 _atom_site_fract_x
 _atom_site_fract_y
 _atom_site_fract_z
 _atom_site_occupancy
  Ba  Ba0  1  0.50000000  0.50000000  0.00000000  1
  La  La1  1  0.50000000  0.50000000  0.50000000  1
  Co  Co2  1  0.00000000  0.00000000  0.25265900  1
  Co  Co3  1  0.00000000  0.00000000  0.74734100  1
  O  O4  1  0.50000000  0.00000000  0.30543900  1
  O  O5  1  0.50000000  0.00000000  0.69456100  1
  O  O6  1  0.00000000  0.50000000  0.29973100  1
  O  O7  1  0.00000000  0.50000000  0.70026900  1
  O  O8  1  0.00000000  0.00000000  0.00000000  1
