# generated using pymatgen
data_Yb2CuSb3
_symmetry_space_group_name_H-M   'P 1'
_cell_length_a   10.39727100
_cell_length_b   10.39727100
_cell_length_c   42.07514800
_cell_angle_alpha   90.00000000
_cell_angle_beta   90.00000000
_cell_angle_gamma   90.00000000
_symmetry_Int_Tables_number   1
_chemical_formula_structural   Yb2CuSb3
_chemical_formula_sum   'Yb2 Cu1 Sb3'
_cell_volume   4548.46000099
_cell_formula_units_Z   1
loop_
 _symmetry_equiv_pos_site_id
 _symmetry_equiv_pos_as_xyz
  1  'x, y, z'
loop_
 _atom_site_type_symbol
 _atom_site_label
 _atom_site_symmetry_multiplicity
 _atom_site_fract_x
 _atom_site_fract_y
 _atom_site_fract_z
 _atom_site_occupancy
  Yb  Yb0  1  0.50000000  0.50000000  0.24251100  1
  Yb  Yb1  1  0.50000000  0.50000000  0.75748900  1
  Cu  Cu2  1  0.50000000  0.50000000  0.50000000  1
  Sb  Sb3  1  0.50000000  0.50000000  0.69061200  1
  Sb  Sb4  1  0.50000000  0.50000000  0.30938800  1
  Sb  Sb5  1  0.50000000  0.50000000  0.00000000  1
