# generated using pymatgen
data_Nd(AlSi)2
_symmetry_space_group_name_H-M   'P 1'
_cell_length_a   4.23612040
_cell_length_b   4.23612040
_cell_length_c   6.80981700
_cell_angle_alpha   90.00000000
_cell_angle_beta   90.00000000
_cell_angle_gamma   120.00000631
_symmetry_Int_Tables_number   1
_chemical_formula_structural   Nd(AlSi)2
_chemical_formula_sum   'Nd1 Al2 Si2'
_cell_volume   105.82849905
_cell_formula_units_Z   1
loop_
 _symmetry_equiv_pos_site_id
 _symmetry_equiv_pos_as_xyz
  1  'x, y, z'
loop_
 _atom_site_type_symbol
 _atom_site_label
 _atom_site_symmetry_multiplicity
 _atom_site_fract_x
 _atom_site_fract_y
 _atom_site_fract_z
 _atom_site_occupancy
  Nd  Nd0  1  0.00000000  0.00000000  0.00000000  1
  Al  Al1  1  0.33333300  0.66666700  0.64022800  1
  Al  Al2  1  0.66666700  0.33333300  0.35977200  1
  Si  Si3  1  0.33333300  0.66666700  0.26822300  1
  Si  Si4  1  0.66666700  0.33333300  0.73177700  1
