# generated using pymatgen
data_LuAgTe2
_symmetry_space_group_name_H-M   'P 1'
_cell_length_a   4.43383907
_cell_length_b   4.43383907
_cell_length_c   7.38623400
_cell_angle_alpha   90.00000000
_cell_angle_beta   90.00000000
_cell_angle_gamma   119.99998609
_symmetry_Int_Tables_number   1
_chemical_formula_structural   LuAgTe2
_chemical_formula_sum   'Lu1 Ag1 Te2'
_cell_volume   125.75162514
_cell_formula_units_Z   1
loop_
 _symmetry_equiv_pos_site_id
 _symmetry_equiv_pos_as_xyz
  1  'x, y, z'
loop_
 _atom_site_type_symbol
 _atom_site_label
 _atom_site_symmetry_multiplicity
 _atom_site_fract_x
 _atom_site_fract_y
 _atom_site_fract_z
 _atom_site_occupancy
  Lu  Lu0  1  0.00000000  0.00000000  0.58936100  1
  Ag  Ag1  1  0.33333300  0.66666700  0.99971300  1
  Te  Te2  1  0.66666700  0.33333300  0.82882700  1
  Te  Te3  1  0.33333300  0.66666700  0.37450000  1
