# generated using pymatgen
data_Tb2TiGe2
_symmetry_space_group_name_H-M   'P 1'
_cell_length_a   3.00193700
_cell_length_b   3.00193700
_cell_length_c   14.31737800
_cell_angle_alpha   90.00000000
_cell_angle_beta   90.00000000
_cell_angle_gamma   90.00000000
_symmetry_Int_Tables_number   1
_chemical_formula_structural   Tb2TiGe2
_chemical_formula_sum   'Tb2 Ti1 Ge2'
_cell_volume   129.02285229
_cell_formula_units_Z   1
loop_
 _symmetry_equiv_pos_site_id
 _symmetry_equiv_pos_as_xyz
  1  'x, y, z'
loop_
 _atom_site_type_symbol
 _atom_site_label
 _atom_site_symmetry_multiplicity
 _atom_site_fract_x
 _atom_site_fract_y
 _atom_site_fract_z
 _atom_site_occupancy
  Tb  Tb0  1  0.50000000  0.50000000  0.62080900  1
  Tb  Tb1  1  0.50000000  0.50000000  0.37919100  1
  Ti  Ti2  1  0.50000000  0.50000000  0.00000000  1
  Ge  Ge3  1  0.50000000  0.50000000  0.17606900  1
  Ge  Ge4  1  0.50000000  0.50000000  0.82393100  1
