# generated using pymatgen
data_Tm2Te3
_symmetry_space_group_name_H-M   'P 1'
_cell_length_a   9.47316400
_cell_length_b   9.47316400
_cell_length_c   35.69310700
_cell_angle_alpha   90.00000000
_cell_angle_beta   90.00000000
_cell_angle_gamma   90.00000000
_symmetry_Int_Tables_number   1
_chemical_formula_structural   Tm2Te3
_chemical_formula_sum   'Tm2 Te3'
_cell_volume   3203.12926772
_cell_formula_units_Z   1
loop_
 _symmetry_equiv_pos_site_id
 _symmetry_equiv_pos_as_xyz
  1  'x, y, z'
loop_
 _atom_site_type_symbol
 _atom_site_label
 _atom_site_symmetry_multiplicity
 _atom_site_fract_x
 _atom_site_fract_y
 _atom_site_fract_z
 _atom_site_occupancy
  Tm  Tm0  1  0.50000000  0.50000000  0.28436800  1
  Tm  Tm1  1  0.50000000  0.50000000  0.71563200  1
  Te  Te2  1  0.50000000  0.50000000  0.64226300  1
  Te  Te3  1  0.50000000  0.50000000  0.35773700  1
  Te  Te4  1  0.50000000  0.50000000  0.00000000  1
