# generated using pymatgen
data_Lu2Te3
_symmetry_space_group_name_H-M   'P 1'
_cell_length_a   9.52369200
_cell_length_b   9.52369200
_cell_length_c   35.55053900
_cell_angle_alpha   90.00000000
_cell_angle_beta   90.00000000
_cell_angle_gamma   90.00000000
_symmetry_Int_Tables_number   1
_chemical_formula_structural   Lu2Te3
_chemical_formula_sum   'Lu2 Te3'
_cell_volume   3224.45910368
_cell_formula_units_Z   1
loop_
 _symmetry_equiv_pos_site_id
 _symmetry_equiv_pos_as_xyz
  1  'x, y, z'
loop_
 _atom_site_type_symbol
 _atom_site_label
 _atom_site_symmetry_multiplicity
 _atom_site_fract_x
 _atom_site_fract_y
 _atom_site_fract_z
 _atom_site_occupancy
  Lu  Lu0  1  0.50000000  0.50000000  0.28424300  1
  Lu  Lu1  1  0.50000000  0.50000000  0.71575700  1
  Te  Te2  1  0.50000000  0.50000000  0.64212900  1
  Te  Te3  1  0.50000000  0.50000000  0.35787100  1
  Te  Te4  1  0.50000000  0.50000000  0.00000000  1
