# generated using pymatgen
data_Tl2FeS2
_symmetry_space_group_name_H-M   'P 1'
_cell_length_a   6.23308400
_cell_length_b   6.23308400
_cell_length_c   5.98137224
_cell_angle_alpha   121.40212617
_cell_angle_beta   121.40212617
_cell_angle_gamma   90.00000000
_symmetry_Int_Tables_number   1
_chemical_formula_structural   Tl2FeS2
_chemical_formula_sum   'Tl2 Fe1 S2'
_cell_volume   157.10139968
_cell_formula_units_Z   1
loop_
 _symmetry_equiv_pos_site_id
 _symmetry_equiv_pos_as_xyz
  1  'x, y, z'
loop_
 _atom_site_type_symbol
 _atom_site_label
 _atom_site_symmetry_multiplicity
 _atom_site_fract_x
 _atom_site_fract_y
 _atom_site_fract_z
 _atom_site_occupancy
  Tl  Tl0  1  0.25000000  0.75000000  0.50000000  1
  Tl  Tl1  1  0.75000000  0.25000000  0.50000000  1
  Fe  Fe2  1  0.00000000  0.00000000  0.00000000  1
  S  S3  1  0.26290800  0.26290800  0.52581700  1
  S  S4  1  0.73709200  0.73709200  0.47418300  1
