# generated using pymatgen
data_Tb2In8Co
_symmetry_space_group_name_H-M   'P 1'
_cell_length_a   4.64003700
_cell_length_b   4.64003700
_cell_length_c   12.02607200
_cell_angle_alpha   90.00000000
_cell_angle_beta   90.00000000
_cell_angle_gamma   90.00000000
_symmetry_Int_Tables_number   1
_chemical_formula_structural   Tb2In8Co
_chemical_formula_sum   'Tb2 In8 Co1'
_cell_volume   258.92064902
_cell_formula_units_Z   1
loop_
 _symmetry_equiv_pos_site_id
 _symmetry_equiv_pos_as_xyz
  1  'x, y, z'
loop_
 _atom_site_type_symbol
 _atom_site_label
 _atom_site_symmetry_multiplicity
 _atom_site_fract_x
 _atom_site_fract_y
 _atom_site_fract_z
 _atom_site_occupancy
  Tb  Tb0  1  0.00000000  0.00000000  0.30596000  1
  Tb  Tb1  1  0.00000000  0.00000000  0.69404000  1
  In  In2  1  0.00000000  0.50000000  0.11928100  1
  In  In3  1  0.00000000  0.50000000  0.88071900  1
  In  In4  1  0.50000000  0.00000000  0.11928100  1
  In  In5  1  0.50000000  0.00000000  0.88071900  1
  In  In6  1  0.50000000  0.50000000  0.30476000  1
  In  In7  1  0.50000000  0.50000000  0.69524000  1
  In  In8  1  0.00000000  0.50000000  0.50000000  1
  In  In9  1  0.50000000  0.00000000  0.50000000  1
  Co  Co10  1  0.00000000  0.00000000  0.00000000  1
