# generated using pymatgen
data_Sr2FeSbO6
_symmetry_space_group_name_H-M   'P 1'
_cell_length_a   8.02295500
_cell_length_b   9.82936986
_cell_length_c   8.02294900
_cell_angle_alpha   114.08654559
_cell_angle_beta   89.99874310
_cell_angle_gamma   65.91344803
_symmetry_Int_Tables_number   1
_chemical_formula_structural   Sr2FeSbO6
_chemical_formula_sum   'Sr8 Fe4 Sb4 O24'
_cell_volume   516.67365948
_cell_formula_units_Z   4
loop_
 _symmetry_equiv_pos_site_id
 _symmetry_equiv_pos_as_xyz
  1  'x, y, z'
loop_
 _atom_site_type_symbol
 _atom_site_label
 _atom_site_symmetry_multiplicity
 _atom_site_fract_x
 _atom_site_fract_y
 _atom_site_fract_z
 _atom_site_occupancy
  Sr  Sr0  1  0.62500300  0.24999900  0.87500100  1
  Sr  Sr1  1  0.37500000  0.74999900  0.62499900  1
  Sr  Sr2  1  0.12499900  0.25000000  0.37500100  1
  Sr  Sr3  1  0.87499900  0.74999900  0.12500000  1
  Sr  Sr4  1  0.37500000  0.75000100  0.12500000  1
  Sr  Sr5  1  0.12499900  0.25000000  0.87500000  1
  Sr  Sr6  1  0.87499900  0.75000000  0.62500100  1
  Sr  Sr7  1  0.62499800  0.25000000  0.37500000  1
  Fe  Fe8  1  0.75000000  0.49999700  0.24999600  1
  Fe  Fe9  1  0.50000000  0.00000800  0.00000200  1
  Fe  Fe10  1  0.00000700  0.00000300  0.49999500  1
  Fe  Fe11  1  0.25000600  0.49999100  0.75000300  1
  Sb  Sb12  1  0.75000100  0.50000000  0.74999900  1
  Sb  Sb13  1  0.50000100  0.00000100  0.50000100  1
  Sb  Sb14  1  0.24999900  0.50000300  0.25000200  1
  Sb  Sb15  1  0.00000100  0.99999800  0.99999800  1
  O  O16  1  0.74877100  0.99988200  0.49993500  1
  O  O17  1  0.49865800  0.50010500  0.25004700  1
  O  O18  1  0.24877000  0.99988300  0.99993600  1
  O  O19  1  0.99865800  0.50010700  0.75004600  1
  O  O20  1  0.25134000  0.99989300  0.49995300  1
  O  O21  1  0.00122800  0.50011700  0.25006400  1
  O  O22  1  0.75134100  0.99989500  0.99995200  1
  O  O23  1  0.50122700  0.50011900  0.75006500  1
  O  O24  1  0.87435200  0.25129000  0.62564800  1
  O  O25  1  0.62435100  0.75129200  0.37565000  1
  O  O26  1  0.37434900  0.25129400  0.12564900  1
  O  O27  1  0.12435400  0.75128800  0.87564700  1
  O  O28  1  0.12564800  0.74870900  0.37435300  1
  O  O29  1  0.87564900  0.24870600  0.12435200  1
  O  O30  1  0.62564900  0.74870600  0.87435100  1
  O  O31  1  0.37564600  0.24871000  0.62435200  1
  O  O32  1  0.99995200  0.00010800  0.75134300  1
  O  O33  1  0.75006500  0.49988300  0.50122900  1
  O  O34  1  0.49995200  0.00010600  0.25134000  1
  O  O35  1  0.25006500  0.49988200  0.00122900  1
  O  O36  1  0.99993400  0.00012000  0.24877200  1
  O  O37  1  0.75004600  0.49989400  0.99865800  1
  O  O38  1  0.49993400  0.00011800  0.74877000  1
  O  O39  1  0.25004800  0.49989200  0.49865900  1
