# generated using pymatgen
data_Tl2CoSe2
_symmetry_space_group_name_H-M   'P 1'
_cell_length_a   5.03450000
_cell_length_b   5.03450000
_cell_length_c   7.08704035
_cell_angle_alpha   110.80512527
_cell_angle_beta   110.80512527
_cell_angle_gamma   90.00000000
_symmetry_Int_Tables_number   1
_chemical_formula_structural   Tl2CoSe2
_chemical_formula_sum   'Tl2 Co1 Se2'
_cell_volume   155.32282255
_cell_formula_units_Z   1
loop_
 _symmetry_equiv_pos_site_id
 _symmetry_equiv_pos_as_xyz
  1  'x, y, z'
loop_
 _atom_site_type_symbol
 _atom_site_label
 _atom_site_symmetry_multiplicity
 _atom_site_fract_x
 _atom_site_fract_y
 _atom_site_fract_z
 _atom_site_occupancy
  Tl  Tl0  1  0.25000000  0.75000000  0.50000000  1
  Tl  Tl1  1  0.75000000  0.25000000  0.50000000  1
  Co  Co2  1  0.00000000  0.00000000  0.00000000  1
  Se  Se3  1  0.40190300  0.40190300  0.80380700  1
  Se  Se4  1  0.59809700  0.59809700  0.19619300  1
