# generated using pymatgen
data_Pr2S2F
_symmetry_space_group_name_H-M   'P 1'
_cell_length_a   5.43585800
_cell_length_b   5.43585800
_cell_length_c   13.64305500
_cell_angle_alpha   90.00000000
_cell_angle_beta   90.00000000
_cell_angle_gamma   90.00000000
_symmetry_Int_Tables_number   1
_chemical_formula_structural   Pr2S2F
_chemical_formula_sum   'Pr2 S2 F1'
_cell_volume   403.13252278
_cell_formula_units_Z   1
loop_
 _symmetry_equiv_pos_site_id
 _symmetry_equiv_pos_as_xyz
  1  'x, y, z'
loop_
 _atom_site_type_symbol
 _atom_site_label
 _atom_site_symmetry_multiplicity
 _atom_site_fract_x
 _atom_site_fract_y
 _atom_site_fract_z
 _atom_site_occupancy
  Pr  Pr0  1  0.50000000  0.50000000  0.18203200  1
  Pr  Pr1  1  0.50000000  0.50000000  0.81796800  1
  S  S2  1  0.50000000  0.50000000  0.64298400  1
  S  S3  1  0.50000000  0.50000000  0.35701600  1
  F  F4  1  0.50000000  0.50000000  0.00000000  1
