# generated using pymatgen
data_Tl2NiS2
_symmetry_space_group_name_H-M   'P 1'
_cell_length_a   6.80110689
_cell_length_b   6.80110689
_cell_length_c   6.80110689
_cell_angle_alpha   137.68222259
_cell_angle_beta   137.68222259
_cell_angle_gamma   61.39003954
_symmetry_Int_Tables_number   1
_chemical_formula_structural   Tl2NiS2
_chemical_formula_sum   'Tl2 Ni1 S2'
_cell_volume   140.97834143
_cell_formula_units_Z   1
loop_
 _symmetry_equiv_pos_site_id
 _symmetry_equiv_pos_as_xyz
  1  'x, y, z'
loop_
 _atom_site_type_symbol
 _atom_site_label
 _atom_site_symmetry_multiplicity
 _atom_site_fract_x
 _atom_site_fract_y
 _atom_site_fract_z
 _atom_site_occupancy
  Tl  Tl0  1  0.75000000  0.25000000  0.50000000  1
  Tl  Tl1  1  0.25000000  0.75000000  0.50000000  1
  Ni  Ni2  1  0.00000000  0.00000000  0.00000000  1
  S  S3  1  0.37217500  0.37217500  0.00000000  1
  S  S4  1  0.62782500  0.62782500  0.00000000  1
