# generated using pymatgen
data_Zr2FeB2Ru5
_symmetry_space_group_name_H-M   'P 1'
_cell_length_a   9.35611700
_cell_length_b   9.35611700
_cell_length_c   3.07790700
_cell_angle_alpha   90.00000000
_cell_angle_beta   90.00000000
_cell_angle_gamma   90.00000000
_symmetry_Int_Tables_number   1
_chemical_formula_structural   Zr2FeB2Ru5
_chemical_formula_sum   'Zr4 Fe2 B4 Ru10'
_cell_volume   269.43051519
_cell_formula_units_Z   2
loop_
 _symmetry_equiv_pos_site_id
 _symmetry_equiv_pos_as_xyz
  1  'x, y, z'
loop_
 _atom_site_type_symbol
 _atom_site_label
 _atom_site_symmetry_multiplicity
 _atom_site_fract_x
 _atom_site_fract_y
 _atom_site_fract_z
 _atom_site_occupancy
  Zr  Zr0  1  0.67553100  0.17553100  0.00000000  1
  Zr  Zr1  1  0.32446900  0.82446900  0.00000000  1
  Zr  Zr2  1  0.17553100  0.32446900  0.00000000  1
  Zr  Zr3  1  0.82446900  0.67553100  0.00000000  1
  Fe  Fe4  1  0.00000000  0.00000000  0.00000000  1
  Fe  Fe5  1  0.50000000  0.50000000  0.00000000  1
  B  B6  1  0.12430200  0.62430200  0.00000000  1
  B  B7  1  0.87569800  0.37569800  0.00000000  1
  B  B8  1  0.62430200  0.87569800  0.00000000  1
  B  B9  1  0.37569800  0.12430200  0.00000000  1
  Ru  Ru10  1  0.21353100  0.07021400  0.50000000  1
  Ru  Ru11  1  0.78646900  0.92978600  0.50000000  1
  Ru  Ru12  1  0.07021400  0.78646900  0.50000000  1
  Ru  Ru13  1  0.71353100  0.42978600  0.50000000  1
  Ru  Ru14  1  0.92978600  0.21353100  0.50000000  1
  Ru  Ru15  1  0.28646900  0.57021400  0.50000000  1
  Ru  Ru16  1  0.57021400  0.71353100  0.50000000  1
  Ru  Ru17  1  0.42978600  0.28646900  0.50000000  1
  Ru  Ru18  1  0.50000000  0.00000000  0.50000000  1
  Ru  Ru19  1  0.00000000  0.50000000  0.50000000  1
