# generated using pymatgen
data_ZnH6
_symmetry_space_group_name_H-M   'P 1'
_cell_length_a   5.75903300
_cell_length_b   8.19701400
_cell_length_c   11.85307900
_cell_angle_alpha   90.00000000
_cell_angle_beta   90.00000000
_cell_angle_gamma   90.00000000
_symmetry_Int_Tables_number   1
_chemical_formula_structural   ZnH6
_chemical_formula_sum   'Zn4 H24'
_cell_volume   559.54680838
_cell_formula_units_Z   4
loop_
 _symmetry_equiv_pos_site_id
 _symmetry_equiv_pos_as_xyz
  1  'x, y, z'
loop_
 _atom_site_type_symbol
 _atom_site_label
 _atom_site_symmetry_multiplicity
 _atom_site_fract_x
 _atom_site_fract_y
 _atom_site_fract_z
 _atom_site_occupancy
  Zn  Zn0  1  0.13800500  0.24927100  0.14987600  1
  Zn  Zn1  1  0.86199500  0.74927100  0.85012400  1
  Zn  Zn2  1  0.86199500  0.24927100  0.64987600  1
  Zn  Zn3  1  0.13800500  0.74927100  0.35012400  1
  H  H4  1  0.17361500  0.40971600  0.08526200  1
  H  H5  1  0.82638500  0.90971600  0.91473800  1
  H  H6  1  0.82638500  0.40971600  0.58526200  1
  H  H7  1  0.17361500  0.90971600  0.41473800  1
  H  H8  1  0.56353200  0.25342600  0.12525500  1
  H  H9  1  0.43646800  0.75342600  0.87474500  1
  H  H10  1  0.43646800  0.25342600  0.62525500  1
  H  H11  1  0.56353200  0.75342600  0.37474500  1
  H  H12  1  0.09755100  0.08947600  0.21513300  1
  H  H13  1  0.90244900  0.58947600  0.78486700  1
  H  H14  1  0.90244900  0.08947600  0.71513300  1
  H  H15  1  0.09755100  0.58947600  0.28486700  1
  H  H16  1  0.74386000  0.10090100  0.45145700  1
  H  H17  1  0.25614000  0.60090100  0.54854300  1
  H  H18  1  0.25614000  0.10090100  0.95145700  1
  H  H19  1  0.74386000  0.60090100  0.04854300  1
  H  H20  1  0.17040600  0.05127000  0.98591400  1
  H  H21  1  0.82959400  0.55127000  0.01408600  1
  H  H22  1  0.82959400  0.05127000  0.48591400  1
  H  H23  1  0.17040600  0.55127000  0.51408600  1
  H  H24  1  0.59403600  0.18093900  0.16195200  1
  H  H25  1  0.40596400  0.68093900  0.83804800  1
  H  H26  1  0.40596400  0.18093900  0.66195200  1
  H  H27  1  0.59403600  0.68093900  0.33804800  1
