# generated using pymatgen
data_Pr2(PRh)3
_symmetry_space_group_name_H-M   'P 1'
_cell_length_a   2.92443600
_cell_length_b   2.92443600
_cell_length_c   19.90179400
_cell_angle_alpha   90.00000000
_cell_angle_beta   90.00000000
_cell_angle_gamma   90.00000000
_symmetry_Int_Tables_number   1
_chemical_formula_structural   Pr2(PRh)3
_chemical_formula_sum   'Pr2 P3 Rh3'
_cell_volume   170.20662864
_cell_formula_units_Z   1
loop_
 _symmetry_equiv_pos_site_id
 _symmetry_equiv_pos_as_xyz
  1  'x, y, z'
loop_
 _atom_site_type_symbol
 _atom_site_label
 _atom_site_symmetry_multiplicity
 _atom_site_fract_x
 _atom_site_fract_y
 _atom_site_fract_z
 _atom_site_occupancy
  Pr  Pr0  1  0.50000000  0.50000000  0.75384500  1
  Pr  Pr1  1  0.50000000  0.50000000  0.24615500  1
  P  P2  1  0.50000000  0.50000000  0.38809600  1
  P  P3  1  0.50000000  0.50000000  0.61190400  1
  P  P4  1  0.50000000  0.50000000  0.00000000  1
  Rh  Rh5  1  0.50000000  0.50000000  0.10723900  1
  Rh  Rh6  1  0.50000000  0.50000000  0.89276100  1
  Rh  Rh7  1  0.50000000  0.50000000  0.50000000  1
