# generated using pymatgen
data_Yb3TlS6
_symmetry_space_group_name_H-M   'P 1'
_cell_length_a   9.82023450
_cell_length_b   11.31166205
_cell_length_c   61.21281291
_cell_angle_alpha   90.00000000
_cell_angle_beta   90.00000000
_cell_angle_gamma   115.72649043
_symmetry_Int_Tables_number   1
_chemical_formula_structural   Yb3TlS6
_chemical_formula_sum   'Yb3 Tl1 S6'
_cell_volume   6125.70162122
_cell_formula_units_Z   1
loop_
 _symmetry_equiv_pos_site_id
 _symmetry_equiv_pos_as_xyz
  1  'x, y, z'
loop_
 _atom_site_type_symbol
 _atom_site_label
 _atom_site_symmetry_multiplicity
 _atom_site_fract_x
 _atom_site_fract_y
 _atom_site_fract_z
 _atom_site_occupancy
  Yb  Yb0  1  0.00000000  -0.00000000  0.50000000  1
  Yb  Yb1  1  0.50000000  0.50000000  0.00000000  1
  Yb  Yb2  1  -0.00000000  0.50000000  0.00000000  1
  Tl  Tl3  1  0.00000000  0.00000000  0.00000000  1
  S  S4  1  0.00000000  0.00000000  0.76904063  1
  S  S5  1  -0.00000000  -0.00000000  0.23095937  1
  S  S6  1  0.75147359  0.71646929  -0.00000000  1
  S  S7  1  0.24852641  0.28353071  -0.00000000  1
  S  S8  1  0.03500430  0.28353071  0.00000000  1
  S  S9  1  0.96499570  0.71646929  0.00000000  1
