# generated using pymatgen
data_ErSBr
_symmetry_space_group_name_H-M   'P 1'
_cell_length_a   10.64355600
_cell_length_b   13.59221800
_cell_length_c   34.23895500
_cell_angle_alpha   90.00000000
_cell_angle_beta   90.00000000
_cell_angle_gamma   90.00000000
_symmetry_Int_Tables_number   1
_chemical_formula_structural   ErSBr
_chemical_formula_sum   'Er2 S2 Br2'
_cell_volume   4953.33364557
_cell_formula_units_Z   2
loop_
 _symmetry_equiv_pos_site_id
 _symmetry_equiv_pos_as_xyz
  1  'x, y, z'
loop_
 _atom_site_type_symbol
 _atom_site_label
 _atom_site_symmetry_multiplicity
 _atom_site_fract_x
 _atom_site_fract_y
 _atom_site_fract_z
 _atom_site_occupancy
  Er  Er0  1  0.50000000  0.50000000  0.11607400  1
  Er  Er1  1  0.50000000  0.50000000  0.88392600  1
  S  S2  1  0.50000000  0.50000000  0.04982600  1
  S  S3  1  0.50000000  0.50000000  0.95017400  1
  Br  Br4  1  0.50000000  0.50000000  0.67167700  1
  Br  Br5  1  0.50000000  0.50000000  0.32832300  1
