# generated using pymatgen
data_PbI6
_symmetry_space_group_name_H-M   'P 1'
_cell_length_a   12.41272465
_cell_length_b   12.37750751
_cell_length_c   53.13284574
_cell_angle_alpha   90.00000000
_cell_angle_beta   90.00000000
_cell_angle_gamma   120.09416217
_symmetry_Int_Tables_number   1
_chemical_formula_structural   PbI6
_chemical_formula_sum   'Pb1 I6'
_cell_volume   7062.86930642
_cell_formula_units_Z   1
loop_
 _symmetry_equiv_pos_site_id
 _symmetry_equiv_pos_as_xyz
  1  'x, y, z'
loop_
 _atom_site_type_symbol
 _atom_site_label
 _atom_site_symmetry_multiplicity
 _atom_site_fract_x
 _atom_site_fract_y
 _atom_site_fract_z
 _atom_site_occupancy
  Pb  Pb0  1  0.00000000  0.00000000  -0.00000000  1
  I  I1  1  0.00000000  0.00000000  0.75000834  1
  I  I2  1  0.00000000  0.00000000  0.24999166  1
  I  I3  1  0.74523266  0.74805267  -0.00000000  1
  I  I4  1  0.25476734  0.25194733  -0.00000000  1
  I  I5  1  0.99717999  0.25194733  -0.00000000  1
  I  I6  1  0.00282001  0.74805267  -0.00000000  1
