# generated using pymatgen
data_MgCl6
_symmetry_space_group_name_H-M   'P 1'
_cell_length_a   9.39450262
_cell_length_b   9.39450262
_cell_length_c   47.40683500
_cell_angle_alpha   90.00000000
_cell_angle_beta   90.00000000
_cell_angle_gamma   114.30809353
_symmetry_Int_Tables_number   1
_chemical_formula_structural   MgCl6
_chemical_formula_sum   'Mg1 Cl6'
_cell_volume   3813.04057208
_cell_formula_units_Z   1
loop_
 _symmetry_equiv_pos_site_id
 _symmetry_equiv_pos_as_xyz
  1  'x, y, z'
loop_
 _atom_site_type_symbol
 _atom_site_label
 _atom_site_symmetry_multiplicity
 _atom_site_fract_x
 _atom_site_fract_y
 _atom_site_fract_z
 _atom_site_occupancy
  Mg  Mg0  1  0.00000000  0.00000000  0.00000000  1
  Cl  Cl1  1  0.00000000  0.00000000  0.24998200  1
  Cl  Cl2  1  0.00000000  0.00000000  0.75001800  1
  Cl  Cl3  1  0.25256400  0.00874700  0.00000000  1
  Cl  Cl4  1  0.74743600  0.99125300  0.00000000  1
  Cl  Cl5  1  0.00874700  0.25256400  0.00000000  1
  Cl  Cl6  1  0.99125300  0.74743600  0.00000000  1
