# generated using pymatgen
data_Ho2CuAs3
_symmetry_space_group_name_H-M   'P 1'
_cell_length_a   12.92495842
_cell_length_b   12.92495842
_cell_length_c   44.33687534
_cell_angle_alpha   90.00000000
_cell_angle_beta   90.00000000
_cell_angle_gamma   90.00000000
_symmetry_Int_Tables_number   1
_chemical_formula_structural   Ho2CuAs3
_chemical_formula_sum   'Ho2 Cu1 As3'
_cell_volume   7406.67676537
_cell_formula_units_Z   1
loop_
 _symmetry_equiv_pos_site_id
 _symmetry_equiv_pos_as_xyz
  1  'x, y, z'
loop_
 _atom_site_type_symbol
 _atom_site_label
 _atom_site_symmetry_multiplicity
 _atom_site_fract_x
 _atom_site_fract_y
 _atom_site_fract_z
 _atom_site_occupancy
  Ho  Ho0  1  0.50000000  0.50000000  0.24896544  1
  Ho  Ho1  1  0.50000000  0.50000000  0.75103456  1
  Cu  Cu2  1  0.50000000  0.50000000  0.50000000  1
  As  As3  1  0.50000000  0.50000000  0.69675386  1
  As  As4  1  0.50000000  0.50000000  0.30324614  1
  As  As5  1  0.50000000  0.50000000  -0.00000000  1
