# generated using pymatgen
data_ZnC4(N2O)4
_symmetry_space_group_name_H-M   'P 1'
_cell_length_a   10.05779376
_cell_length_b   10.05779376
_cell_length_c   10.05779376
_cell_angle_alpha   120.66011790
_cell_angle_beta   120.66011790
_cell_angle_gamma   88.86039505
_symmetry_Int_Tables_number   1
_chemical_formula_structural   ZnC4(N2O)4
_chemical_formula_sum   'Zn2 C8 N16 O8'
_cell_volume   712.10658470
_cell_formula_units_Z   2
loop_
 _symmetry_equiv_pos_site_id
 _symmetry_equiv_pos_as_xyz
  1  'x, y, z'
loop_
 _atom_site_type_symbol
 _atom_site_label
 _atom_site_symmetry_multiplicity
 _atom_site_fract_x
 _atom_site_fract_y
 _atom_site_fract_z
 _atom_site_occupancy
  Zn  Zn0  1  0.75000000  0.25000000  0.50000000  1
  Zn  Zn1  1  0.00000000  0.00000000  0.00000000  1
  C  C2  1  0.05300200  0.12500000  0.42800200  1
  C  C3  1  0.69699800  0.62500000  0.57199800  1
  C  C4  1  0.87500000  0.30300200  0.92800200  1
  C  C5  1  0.37500000  0.94699800  0.07199800  1
  C  C6  1  0.90533800  0.12500000  0.28033800  1
  C  C7  1  0.84466200  0.62500000  0.71966200  1
  C  C8  1  0.87500000  0.15533800  0.78033800  1
  C  C9  1  0.37500000  0.09466200  0.21966200  1
  N  N10  1  0.24110000  0.12847200  0.20692000  1
  N  N11  1  0.92155300  0.03418100  0.79308000  1
  N  N12  1  0.87152800  0.07844700  0.11262800  1
  N  N13  1  0.50890000  0.21581900  0.38737200  1
  N  N14  1  0.96581900  0.75890000  0.88737200  1
  N  N15  1  0.82844700  0.12152800  0.61262800  1
  N  N16  1  0.87847200  0.49110000  0.70692000  1
  N  N17  1  0.78418100  0.17155300  0.29308000  1
  N  N18  1  0.29561400  0.27508500  0.37217200  1
  N  N19  1  0.90291300  0.92344300  0.62782800  1
  N  N20  1  0.72491500  0.09708700  0.02052900  1
  N  N21  1  0.45438600  0.32655700  0.47947100  1
  N  N22  1  0.07655700  0.70438600  0.97947100  1
  N  N23  1  0.84708700  0.97491500  0.52052900  1
  N  N24  1  0.02508500  0.54561400  0.87217200  1
  N  N25  1  0.67344300  0.15291300  0.12782800  1
  O  O26  1  0.11514800  0.22794500  0.60260200  1
  O  O27  1  0.62534300  0.51254700  0.39739800  1
  O  O28  1  0.77205500  0.37465700  0.88720300  1
  O  O29  1  0.63485200  0.73745300  0.61279700  1
  O  O30  1  0.48745300  0.88485200  0.11279700  1
  O  O31  1  0.12465700  0.02205500  0.38720300  1
  O  O32  1  0.97794500  0.36514800  0.10260200  1
  O  O33  1  0.26254700  0.87534300  0.89739800  1
