# generated using pymatgen
data_Sm2MnSi2
_symmetry_space_group_name_H-M   'P 1'
_cell_length_a   2.89249300
_cell_length_b   2.89249300
_cell_length_c   13.95296700
_cell_angle_alpha   90.00000000
_cell_angle_beta   90.00000000
_cell_angle_gamma   90.00000000
_symmetry_Int_Tables_number   1
_chemical_formula_structural   Sm2MnSi2
_chemical_formula_sum   'Sm2 Mn1 Si2'
_cell_volume   116.73771824
_cell_formula_units_Z   1
loop_
 _symmetry_equiv_pos_site_id
 _symmetry_equiv_pos_as_xyz
  1  'x, y, z'
loop_
 _atom_site_type_symbol
 _atom_site_label
 _atom_site_symmetry_multiplicity
 _atom_site_fract_x
 _atom_site_fract_y
 _atom_site_fract_z
 _atom_site_occupancy
  Sm  Sm0  1  0.50000000  0.50000000  0.62518700  1
  Sm  Sm1  1  0.50000000  0.50000000  0.37481300  1
  Mn  Mn2  1  0.50000000  0.50000000  0.00000000  1
  Si  Si3  1  0.50000000  0.50000000  0.16591800  1
  Si  Si4  1  0.50000000  0.50000000  0.83408200  1
