# generated using pymatgen
data_ZnCu2(BO3)2
_symmetry_space_group_name_H-M   'P 1'
_cell_length_a   14.93299500
_cell_length_b   3.37434700
_cell_length_c   9.35990798
_cell_angle_alpha   83.02729502
_cell_angle_beta   90.00000000
_cell_angle_gamma   90.00000000
_symmetry_Int_Tables_number   1
_chemical_formula_structural   ZnCu2(BO3)2
_chemical_formula_sum   'Zn4 Cu8 B8 O24'
_cell_volume   468.14921867
_cell_formula_units_Z   4
loop_
 _symmetry_equiv_pos_site_id
 _symmetry_equiv_pos_as_xyz
  1  'x, y, z'
loop_
 _atom_site_type_symbol
 _atom_site_label
 _atom_site_symmetry_multiplicity
 _atom_site_fract_x
 _atom_site_fract_y
 _atom_site_fract_z
 _atom_site_occupancy
  Zn  Zn0  1  0.13814200  0.26687600  0.86370800  1
  Zn  Zn1  1  0.86185800  0.73312400  0.13629200  1
  Zn  Zn2  1  0.63814200  0.73312400  0.63629200  1
  Zn  Zn3  1  0.36185800  0.26687600  0.36370800  1
  Cu  Cu4  1  0.25934600  0.84657200  0.62338700  1
  Cu  Cu5  1  0.74065400  0.15342800  0.37661300  1
  Cu  Cu6  1  0.75934600  0.15342800  0.87661300  1
  Cu  Cu7  1  0.24065400  0.84657200  0.12338700  1
  Cu  Cu8  1  0.04320300  0.79944000  0.63463600  1
  Cu  Cu9  1  0.95679700  0.20056000  0.36536400  1
  Cu  Cu10  1  0.54320300  0.20056000  0.86536400  1
  Cu  Cu11  1  0.45679700  0.79944000  0.13463600  1
  B  B12  1  0.42066200  0.66671400  0.66723100  1
  B  B13  1  0.57933800  0.33328600  0.33276900  1
  B  B14  1  0.92066200  0.33328600  0.83276900  1
  B  B15  1  0.07933800  0.66671400  0.16723100  1
  B  B16  1  0.84797700  0.68249700  0.59603500  1
  B  B17  1  0.15202300  0.31750300  0.40396500  1
  B  B18  1  0.34797700  0.31750300  0.90396500  1
  B  B19  1  0.65202300  0.68249700  0.09603500  1
  O  O20  1  0.00685400  0.39120100  0.79373000  1
  O  O21  1  0.99314600  0.60879900  0.20627000  1
  O  O22  1  0.50685400  0.60879900  0.70627000  1
  O  O23  1  0.49314600  0.39120100  0.29373000  1
  O  O24  1  0.38413100  0.86224700  0.54482700  1
  O  O25  1  0.61586900  0.13775300  0.45517300  1
  O  O26  1  0.88413100  0.13775300  0.95517300  1
  O  O27  1  0.11586900  0.86224700  0.04482700  1
  O  O28  1  0.92648900  0.81845300  0.53594400  1
  O  O29  1  0.07351100  0.18154700  0.46405600  1
  O  O30  1  0.42648900  0.18154700  0.96405600  1
  O  O31  1  0.57351100  0.81845300  0.03594400  1
  O  O32  1  0.15493700  0.80676000  0.73774300  1
  O  O33  1  0.84506300  0.19324000  0.26225700  1
  O  O34  1  0.65493700  0.19324000  0.76225700  1
  O  O35  1  0.34506300  0.80676000  0.23774300  1
  O  O36  1  0.76597300  0.73047900  0.53154800  1
  O  O37  1  0.23402700  0.26952100  0.46845200  1
  O  O38  1  0.26597300  0.26952100  0.96845200  1
  O  O39  1  0.73402700  0.73047900  0.03154800  1
  O  O40  1  0.34874300  0.52527400  0.76326800  1
  O  O41  1  0.65125700  0.47472600  0.23673200  1
  O  O42  1  0.84874300  0.47472600  0.73673200  1
  O  O43  1  0.15125700  0.52527400  0.26326800  1
