# generated using pymatgen
data_ZnCdB2O5
_symmetry_space_group_name_H-M   'P 1'
_cell_length_a   3.47760200
_cell_length_b   6.50265900
_cell_length_c   17.94926200
_cell_angle_alpha   90.00000000
_cell_angle_beta   90.00000000
_cell_angle_gamma   90.00000000
_symmetry_Int_Tables_number   1
_chemical_formula_structural   ZnCdB2O5
_chemical_formula_sum   'Zn4 Cd4 B8 O20'
_cell_volume   405.89850711
_cell_formula_units_Z   4
loop_
 _symmetry_equiv_pos_site_id
 _symmetry_equiv_pos_as_xyz
  1  'x, y, z'
loop_
 _atom_site_type_symbol
 _atom_site_label
 _atom_site_symmetry_multiplicity
 _atom_site_fract_x
 _atom_site_fract_y
 _atom_site_fract_z
 _atom_site_occupancy
  Zn  Zn0  1  0.01623300  0.60038700  0.20779600  1
  Zn  Zn1  1  0.48376700  0.39961300  0.70779600  1
  Zn  Zn2  1  0.98376700  0.10038700  0.29220400  1
  Zn  Zn3  1  0.51623300  0.89961300  0.79220400  1
  Cd  Cd4  1  0.62115800  0.48185400  0.02647400  1
  Cd  Cd5  1  0.87884200  0.51814600  0.52647400  1
  Cd  Cd6  1  0.37884200  0.98185400  0.47352600  1
  Cd  Cd7  1  0.12115800  0.01814600  0.97352600  1
  B  B8  1  0.01606500  0.14512300  0.61491800  1
  B  B9  1  0.48393500  0.85487700  0.11491800  1
  B  B10  1  0.98393500  0.64512300  0.88508200  1
  B  B11  1  0.51606500  0.35487700  0.38508200  1
  B  B12  1  0.15078000  0.19890200  0.14373400  1
  B  B13  1  0.34922000  0.80109800  0.64373400  1
  B  B14  1  0.84922000  0.69890200  0.35626600  1
  B  B15  1  0.65078000  0.30109800  0.85626600  1
  O  O16  1  0.29440100  0.00114100  0.15832200  1
  O  O17  1  0.20559900  0.99885900  0.65832200  1
  O  O18  1  0.70559900  0.50114100  0.34167800  1
  O  O19  1  0.79440100  0.49885900  0.84167800  1
  O  O20  1  0.39154500  0.38375900  0.45577300  1
  O  O21  1  0.10845500  0.61624100  0.95577300  1
  O  O22  1  0.60845500  0.88375900  0.04422700  1
  O  O23  1  0.89154500  0.11624100  0.54422700  1
  O  O24  1  0.02164400  0.29650500  0.20728300  1
  O  O25  1  0.47835600  0.70349500  0.70728300  1
  O  O26  1  0.97835600  0.79650500  0.29271700  1
  O  O27  1  0.52164400  0.20349500  0.79271700  1
  O  O28  1  0.12900700  0.28043300  0.07364400  1
  O  O29  1  0.37099300  0.71956700  0.57364400  1
  O  O30  1  0.87099300  0.78043300  0.42635600  1
  O  O31  1  0.62900700  0.21956700  0.92635600  1
  O  O32  1  0.48146400  0.16078000  0.35113600  1
  O  O33  1  0.01853600  0.83922000  0.85113600  1
  O  O34  1  0.51853600  0.66078000  0.14886400  1
  O  O35  1  0.98146400  0.33922000  0.64886400  1
