# generated using pymatgen
data_Tl(BiSe2)3
_symmetry_space_group_name_H-M   'P 1'
_cell_length_a   10.10461746
_cell_length_b   12.11386444
_cell_length_c   65.69016481
_cell_angle_alpha   90.00000000
_cell_angle_beta   90.00000000
_cell_angle_gamma   114.64963288
_symmetry_Int_Tables_number   1
_chemical_formula_structural   Tl(BiSe2)3
_chemical_formula_sum   'Tl1 Bi3 Se6'
_cell_volume   7308.14528245
_cell_formula_units_Z   1
loop_
 _symmetry_equiv_pos_site_id
 _symmetry_equiv_pos_as_xyz
  1  'x, y, z'
loop_
 _atom_site_type_symbol
 _atom_site_label
 _atom_site_symmetry_multiplicity
 _atom_site_fract_x
 _atom_site_fract_y
 _atom_site_fract_z
 _atom_site_occupancy
  Tl  Tl0  1  0.00000000  -0.00000000  -0.00000000  1
  Bi  Bi1  1  0.00000000  -0.00000000  0.50000000  1
  Bi  Bi2  1  0.50000000  0.50000000  -0.00000000  1
  Bi  Bi3  1  0.00000000  0.50000000  -0.00000000  1
  Se  Se4  1  0.00000000  -0.00000000  0.76899389  1
  Se  Se5  1  0.00000000  -0.00000000  0.23100611  1
  Se  Se6  1  0.74363094  0.72216077  -0.00000000  1
  Se  Se7  1  0.25636906  0.27783923  -0.00000000  1
  Se  Se8  1  0.02147018  0.27783923  -0.00000000  1
  Se  Se9  1  0.97852982  0.72216077  -0.00000000  1
