data_image0
_chemical_formula_structural       Al2Mg2Se5
_chemical_formula_sum              "Al2 Mg2 Se5"
_cell_length_a       3.91111
_cell_length_b       3.91116
_cell_length_c       16.2673
_cell_angle_alpha    90
_cell_angle_beta     90.0009
_cell_angle_gamma    120

_space_group_name_H-M_alt    "P 1"
_space_group_IT_number       1

loop_
  _space_group_symop_operation_xyz
  'x, y, z'

loop_
  _atom_site_type_symbol
  _atom_site_label
  _atom_site_symmetry_multiplicity
  _atom_site_fract_x
  _atom_site_fract_y
  _atom_site_fract_z
  _atom_site_occupancy
  Al  Al1       1.0  0.33300  0.66700  0.17200  1.0000
  Al  Al2       1.0  0.66700  0.33300  0.82800  1.0000
  Mg  Mg1       1.0  0.66700  0.33300  0.40100  1.0000
  Mg  Mg2       1.0  0.33300  0.66700  0.59900  1.0000
  Se  Se1       1.0  0.66700  0.33300  0.10600  1.0000
  Se  Se2       1.0  0.33300  0.66700  0.31400  1.0000
  Se  Se3       1.0  0.00000  1.00000  0.50000  1.0000
  Se  Se4       1.0  0.66700  0.33300  0.68600  1.0000
  Se  Se5       1.0  0.33300  0.66700  0.89400  1.0000
