# generated using pymatgen
data_YFe3(BO3)4
_symmetry_space_group_name_H-M   'P 1'
_cell_length_a   6.12433214
_cell_length_b   6.12433214
_cell_length_c   6.12433292
_cell_angle_alpha   103.91920562
_cell_angle_beta   103.91920562
_cell_angle_gamma   103.91920774
_symmetry_Int_Tables_number   1
_chemical_formula_structural   YFe3(BO3)4
_chemical_formula_sum   'Y1 Fe3 B4 O12'
_cell_volume   205.27246716
_cell_formula_units_Z   1
loop_
 _symmetry_equiv_pos_site_id
 _symmetry_equiv_pos_as_xyz
  1  'x, y, z'
loop_
 _atom_site_type_symbol
 _atom_site_label
 _atom_site_symmetry_multiplicity
 _atom_site_fract_x
 _atom_site_fract_y
 _atom_site_fract_z
 _atom_site_occupancy
  Y  Y0  1  0.50000000  0.50000000  0.50000000  1
  Fe  Fe1  1  0.04668700  0.95331300  0.50000000  1
  Fe  Fe2  1  0.95331300  0.50000000  0.04668700  1
  Fe  Fe3  1  0.50000000  0.04668700  0.95331300  1
  B  B4  1  0.45236700  0.54763300  0.00000000  1
  B  B5  1  0.54763300  0.00000000  0.45236700  1
  B  B6  1  0.00000000  0.45236700  0.54763300  1
  B  B7  1  0.00000000  0.00000000  0.00000000  1
  O  O8  1  0.29782300  0.52528300  0.13076100  1
  O  O9  1  0.52528300  0.13076100  0.29782300  1
  O  O10  1  0.70217700  0.86923900  0.47471700  1
  O  O11  1  0.13076100  0.29782300  0.52528300  1
  O  O12  1  0.47471700  0.70217700  0.86923900  1
  O  O13  1  0.86923900  0.47471700  0.70217700  1
  O  O14  1  0.85664300  0.14335700  0.00000000  1
  O  O15  1  0.14335700  0.00000000  0.85664300  1
  O  O16  1  0.00000000  0.85664300  0.14335700  1
  O  O17  1  0.59495700  0.40504300  0.00000000  1
  O  O18  1  0.40504300  0.00000000  0.59495700  1
  O  O19  1  0.00000000  0.59495700  0.40504300  1
