# generated using pymatgen
data_ZnH2C4(S3N2)2
_symmetry_space_group_name_H-M   'P 1'
_cell_length_a   7.75265600
_cell_length_b   11.71100000
_cell_length_c   13.12739000
_cell_angle_alpha   90.00000000
_cell_angle_beta   90.00000000
_cell_angle_gamma   90.00000000
_symmetry_Int_Tables_number   1
_chemical_formula_structural   ZnH2C4(S3N2)2
_chemical_formula_sum   'Zn4 H8 C16 S24 N16'
_cell_volume   1191.85351805
_cell_formula_units_Z   4
loop_
 _symmetry_equiv_pos_site_id
 _symmetry_equiv_pos_as_xyz
  1  'x, y, z'
loop_
 _atom_site_type_symbol
 _atom_site_label
 _atom_site_symmetry_multiplicity
 _atom_site_fract_x
 _atom_site_fract_y
 _atom_site_fract_z
 _atom_site_occupancy
  Zn  Zn0  1  0.25000000  0.66316200  0.50000000  1
  Zn  Zn1  1  0.75000000  0.33683800  0.50000000  1
  Zn  Zn2  1  0.75000000  0.83683800  0.00000000  1
  Zn  Zn3  1  0.25000000  0.16316200  0.00000000  1
  H  H4  1  0.10875300  0.85386300  0.84413400  1
  H  H5  1  0.89124700  0.14613700  0.15586600  1
  H  H6  1  0.60875300  0.64613700  0.65586600  1
  H  H7  1  0.39124700  0.85386300  0.15586600  1
  H  H8  1  0.39124700  0.35386300  0.34413400  1
  H  H9  1  0.60875300  0.14613700  0.84413400  1
  H  H10  1  0.89124700  0.64613700  0.34413400  1
  H  H11  1  0.10875300  0.35386300  0.65586600  1
  C  C12  1  0.07188500  0.68948700  0.90111400  1
  C  C13  1  0.92811500  0.31051300  0.09888600  1
  C  C14  1  0.57188500  0.81051300  0.59888600  1
  C  C15  1  0.42811500  0.68948700  0.09888600  1
  C  C16  1  0.42811500  0.18948700  0.40111400  1
  C  C17  1  0.57188500  0.31051300  0.90111400  1
  C  C18  1  0.92811500  0.81051300  0.40111400  1
  C  C19  1  0.07188500  0.18948700  0.59888600  1
  C  C20  1  0.19605400  0.62041100  0.73861300  1
  C  C21  1  0.80394600  0.37958900  0.26138700  1
  C  C22  1  0.69605400  0.87958900  0.76138700  1
  C  C23  1  0.30394600  0.62041100  0.26138700  1
  C  C24  1  0.30394600  0.12041100  0.23861300  1
  C  C25  1  0.69605400  0.37958900  0.73861300  1
  C  C26  1  0.80394600  0.87958900  0.23861300  1
  C  C27  1  0.19605400  0.12041100  0.76138700  1
  S  S28  1  0.11839300  0.55614500  0.85075100  1
  S  S29  1  0.88160700  0.44385500  0.14924900  1
  S  S30  1  0.61839300  0.94385500  0.64924900  1
  S  S31  1  0.38160700  0.55614500  0.14924900  1
  S  S32  1  0.38160700  0.05614500  0.35075100  1
  S  S33  1  0.61839300  0.44385500  0.85075100  1
  S  S34  1  0.88160700  0.94385500  0.35075100  1
  S  S35  1  0.11839300  0.05614500  0.64924900  1
  S  S36  1  0.27892600  0.53973100  0.64057000  1
  S  S37  1  0.72107400  0.46026900  0.35943000  1
  S  S38  1  0.77892600  0.96026900  0.85943000  1
  S  S39  1  0.22107400  0.53973100  0.35943000  1
  S  S40  1  0.22107400  0.03973100  0.14057000  1
  S  S41  1  0.77892600  0.46026900  0.64057000  1
  S  S42  1  0.72107400  0.96026900  0.14057000  1
  S  S43  1  0.27892600  0.03973100  0.85943000  1
  S  S44  1  0.00721200  0.78745500  0.51993300  1
  S  S45  1  0.99278800  0.21254500  0.48006700  1
  S  S46  1  0.50721200  0.71254500  0.98006700  1
  S  S47  1  0.49278800  0.78745500  0.48006700  1
  S  S48  1  0.49278800  0.28745500  0.01993300  1
  S  S49  1  0.50721200  0.21254500  0.51993300  1
  S  S50  1  0.99278800  0.71254500  0.01993300  1
  S  S51  1  0.00721200  0.28745500  0.98006700  1
  N  N52  1  0.18376900  0.73271400  0.74074200  1
  N  N53  1  0.81623100  0.26728600  0.25925800  1
  N  N54  1  0.68376900  0.76728600  0.75925800  1
  N  N55  1  0.31623100  0.73271400  0.25925800  1
  N  N56  1  0.31623100  0.23271400  0.24074200  1
  N  N57  1  0.68376900  0.26728600  0.74074200  1
  N  N58  1  0.81623100  0.76728600  0.24074200  1
  N  N59  1  0.18376900  0.23271400  0.75925800  1
  N  N60  1  0.11580700  0.76751500  0.83080200  1
  N  N61  1  0.88419300  0.23248500  0.16919800  1
  N  N62  1  0.61580700  0.73248500  0.66919800  1
  N  N63  1  0.38419300  0.76751500  0.16919800  1
  N  N64  1  0.38419300  0.26751500  0.33080200  1
  N  N65  1  0.61580700  0.23248500  0.83080200  1
  N  N66  1  0.88419300  0.73248500  0.33080200  1
  N  N67  1  0.11580700  0.26751500  0.66919800  1
