# generated using pymatgen
data_Zn2Hg2H3(SO5)2
_symmetry_space_group_name_H-M   'P 1'
_cell_length_a   6.52623200
_cell_length_b   11.13048700
_cell_length_c   13.52118400
_cell_angle_alpha   90.00000000
_cell_angle_beta   90.00000000
_cell_angle_gamma   90.00000000
_symmetry_Int_Tables_number   1
_chemical_formula_structural   Zn2Hg2H3(SO5)2
_chemical_formula_sum   'Zn8 Hg8 H12 S8 O40'
_cell_volume   982.18070461
_cell_formula_units_Z   4
loop_
 _symmetry_equiv_pos_site_id
 _symmetry_equiv_pos_as_xyz
  1  'x, y, z'
loop_
 _atom_site_type_symbol
 _atom_site_label
 _atom_site_symmetry_multiplicity
 _atom_site_fract_x
 _atom_site_fract_y
 _atom_site_fract_z
 _atom_site_occupancy
  Zn  Zn0  1  0.49557400  0.15913200  0.13276700  1
  Zn  Zn1  1  0.50442600  0.84086800  0.86723300  1
  Zn  Zn2  1  0.50442600  0.84086800  0.63276700  1
  Zn  Zn3  1  0.50442600  0.65913200  0.36723300  1
  Zn  Zn4  1  0.49557400  0.15913200  0.36723300  1
  Zn  Zn5  1  0.49557400  0.34086800  0.63276700  1
  Zn  Zn6  1  0.49557400  0.34086800  0.86723300  1
  Zn  Zn7  1  0.50442600  0.65913200  0.13276700  1
  Hg  Hg8  1  0.71029600  0.41161600  0.25000000  1
  Hg  Hg9  1  0.28970400  0.58838400  0.75000000  1
  Hg  Hg10  1  0.28970400  0.91161600  0.25000000  1
  Hg  Hg11  1  0.71029600  0.08838400  0.75000000  1
  Hg  Hg12  1  0.00522300  0.16261100  0.25000000  1
  Hg  Hg13  1  0.99477700  0.83738900  0.75000000  1
  Hg  Hg14  1  0.99477700  0.66261100  0.25000000  1
  Hg  Hg15  1  0.00522300  0.33738900  0.75000000  1
  H  H16  1  0.24824300  0.80751600  0.05025300  1
  H  H17  1  0.75175700  0.19248400  0.94974700  1
  H  H18  1  0.75175700  0.19248400  0.55025300  1
  H  H19  1  0.75175700  0.30751600  0.44974700  1
  H  H20  1  0.24824300  0.80751600  0.44974700  1
  H  H21  1  0.24824300  0.69248400  0.55025300  1
  H  H22  1  0.24824300  0.69248400  0.94974700  1
  H  H23  1  0.75175700  0.30751600  0.05025300  1
  H  H24  1  0.74752900  0.25000000  0.00000000  1
  H  H25  1  0.25247100  0.75000000  0.00000000  1
  H  H26  1  0.25247100  0.75000000  0.50000000  1
  H  H27  1  0.74752900  0.25000000  0.50000000  1
  S  S28  1  0.25186200  0.40957900  0.07775900  1
  S  S29  1  0.74813800  0.59042100  0.92224100  1
  S  S30  1  0.74813800  0.59042100  0.57775900  1
  S  S31  1  0.74813800  0.90957900  0.42224100  1
  S  S32  1  0.25186200  0.40957900  0.42224100  1
  S  S33  1  0.25186200  0.09042100  0.57775900  1
  S  S34  1  0.25186200  0.09042100  0.92224100  1
  S  S35  1  0.74813800  0.90957900  0.07775900  1
  O  O36  1  0.70465300  0.22286500  0.25000000  1
  O  O37  1  0.29534700  0.77713500  0.75000000  1
  O  O38  1  0.29534700  0.72286500  0.25000000  1
  O  O39  1  0.70465300  0.27713500  0.75000000  1
  O  O40  1  0.28244300  0.09893900  0.03149400  1
  O  O41  1  0.71755700  0.90106100  0.96850600  1
  O  O42  1  0.71755700  0.90106100  0.53149400  1
  O  O43  1  0.71755700  0.59893900  0.46850600  1
  O  O44  1  0.28244300  0.09893900  0.46850600  1
  O  O45  1  0.28244300  0.40106100  0.53149400  1
  O  O46  1  0.28244300  0.40106100  0.96850600  1
  O  O47  1  0.71755700  0.59893900  0.03149400  1
  O  O48  1  0.28054000  0.53748000  0.11074400  1
  O  O49  1  0.71946000  0.46252000  0.88925600  1
  O  O50  1  0.71946000  0.46252000  0.61074400  1
  O  O51  1  0.71946000  0.03748000  0.38925600  1
  O  O52  1  0.28054000  0.53748000  0.38925600  1
  O  O53  1  0.28054000  0.96252000  0.61074400  1
  O  O54  1  0.28054000  0.96252000  0.88925600  1
  O  O55  1  0.71946000  0.03748000  0.11074400  1
  O  O56  1  0.04818700  0.36890600  0.10767100  1
  O  O57  1  0.95181300  0.63109400  0.89232900  1
  O  O58  1  0.95181300  0.63109400  0.60767100  1
  O  O59  1  0.95181300  0.86890600  0.39232900  1
  O  O60  1  0.04818700  0.36890600  0.39232900  1
  O  O61  1  0.04818700  0.13109400  0.60767100  1
  O  O62  1  0.04818700  0.13109400  0.89232900  1
  O  O63  1  0.95181300  0.86890600  0.10767100  1
  O  O64  1  0.41554400  0.33561000  0.12914700  1
  O  O65  1  0.58445600  0.66439000  0.87085300  1
  O  O66  1  0.58445600  0.66439000  0.62914700  1
  O  O67  1  0.58445600  0.83561000  0.37085300  1
  O  O68  1  0.41554400  0.33561000  0.37085300  1
  O  O69  1  0.41554400  0.16439000  0.62914700  1
  O  O70  1  0.41554400  0.16439000  0.87085300  1
  O  O71  1  0.58445600  0.83561000  0.12914700  1
  O  O72  1  0.30928500  0.10056100  0.25000000  1
  O  O73  1  0.69071500  0.89943900  0.75000000  1
  O  O74  1  0.69071500  0.60056100  0.25000000  1
  O  O75  1  0.30928500  0.39943900  0.75000000  1
