# generated using pymatgen
data_Zn3B7IO13
_symmetry_space_group_name_H-M   'P 1'
_cell_length_a   8.69426000
_cell_length_b   8.69605500
_cell_length_c   12.29967700
_cell_angle_alpha   90.00000000
_cell_angle_beta   90.00000000
_cell_angle_gamma   90.00000000
_symmetry_Int_Tables_number   1
_chemical_formula_structural   Zn3B7IO13
_chemical_formula_sum   'Zn12 B28 I4 O52'
_cell_volume   929.92646601
_cell_formula_units_Z   4
loop_
 _symmetry_equiv_pos_site_id
 _symmetry_equiv_pos_as_xyz
  1  'x, y, z'
loop_
 _atom_site_type_symbol
 _atom_site_label
 _atom_site_symmetry_multiplicity
 _atom_site_fract_x
 _atom_site_fract_y
 _atom_site_fract_z
 _atom_site_occupancy
  Zn  Zn0  1  0.26064700  0.75085000  0.11676400  1
  Zn  Zn1  1  0.73935300  0.24915000  0.61676400  1
  Zn  Zn2  1  0.76064700  0.24915000  0.11676400  1
  Zn  Zn3  1  0.23935300  0.75085000  0.61676400  1
  Zn  Zn4  1  0.51131000  0.02669200  0.34430300  1
  Zn  Zn5  1  0.48869000  0.97330800  0.84430300  1
  Zn  Zn6  1  0.01131000  0.97330800  0.34430300  1
  Zn  Zn7  1  0.98869000  0.02669200  0.84430300  1
  Zn  Zn8  1  0.01120900  0.52714400  0.34133800  1
  Zn  Zn9  1  0.98879100  0.47285600  0.84133800  1
  Zn  Zn10  1  0.51120900  0.47285600  0.34133800  1
  Zn  Zn11  1  0.48879100  0.52714400  0.84133800  1
  B  B12  1  0.09467200  0.24983700  0.02262400  1
  B  B13  1  0.90532800  0.75016300  0.52262400  1
  B  B14  1  0.59467200  0.75016300  0.02262400  1
  B  B15  1  0.40532800  0.24983700  0.52262400  1
  B  B16  1  0.24594600  0.40273700  0.17465900  1
  B  B17  1  0.75405400  0.59726300  0.67465900  1
  B  B18  1  0.74594600  0.59726300  0.17465900  1
  B  B19  1  0.25405400  0.40273700  0.67465900  1
  B  B20  1  0.04547400  0.25064900  0.49477200  1
  B  B21  1  0.95452600  0.74935100  0.99477200  1
  B  B22  1  0.54547400  0.74935100  0.49477200  1
  B  B23  1  0.45452600  0.25064900  0.99477200  1
  B  B24  1  0.24362100  0.25291700  0.34774900  1
  B  B25  1  0.75637900  0.74708300  0.84774900  1
  B  B26  1  0.74362100  0.74708300  0.34774900  1
  B  B27  1  0.25637900  0.25291700  0.84774900  1
  B  B28  1  0.50199900  0.00322200  0.09540700  1
  B  B29  1  0.49800100  0.99677800  0.59540700  1
  B  B30  1  0.00199900  0.99677800  0.09540700  1
  B  B31  1  0.99800100  0.00322200  0.59540700  1
  B  B32  1  0.24660600  0.09752000  0.17530300  1
  B  B33  1  0.75339400  0.90248000  0.67530300  1
  B  B34  1  0.74660600  0.90248000  0.17530300  1
  B  B35  1  0.25339400  0.09752000  0.67530300  1
  B  B36  1  0.00118500  0.50216200  0.09480200  1
  B  B37  1  0.99881500  0.49783800  0.59480200  1
  B  B38  1  0.50118500  0.49783800  0.09480200  1
  B  B39  1  0.49881500  0.50216200  0.59480200  1
  I  I40  1  0.73804300  0.25005300  0.33980700  1
  I  I41  1  0.26195700  0.74994700  0.83980700  1
  I  I42  1  0.23804300  0.74994700  0.33980700  1
  I  I43  1  0.76195700  0.25005300  0.83980700  1
  O  O44  1  0.16549000  0.52386700  0.11673800  1
  O  O45  1  0.83451000  0.47613300  0.61673800  1
  O  O46  1  0.66549000  0.47613300  0.11673800  1
  O  O47  1  0.33451000  0.52386700  0.61673800  1
  O  O48  1  0.04962900  0.09134900  0.00212700  1
  O  O49  1  0.95037100  0.90865100  0.50212700  1
  O  O50  1  0.54962900  0.90865100  0.00212700  1
  O  O51  1  0.45037100  0.09134900  0.50212700  1
  O  O52  1  0.35730400  0.32355800  0.42123200  1
  O  O53  1  0.64269600  0.67644200  0.92123200  1
  O  O54  1  0.85730400  0.67644200  0.42123200  1
  O  O55  1  0.14269600  0.32355800  0.92123200  1
  O  O56  1  0.23101200  0.24959400  0.10667100  1
  O  O57  1  0.76898800  0.75040600  0.60667100  1
  O  O58  1  0.73101200  0.75040600  0.10667100  1
  O  O59  1  0.26898800  0.24959400  0.60667100  1
  O  O60  1  0.17376000  0.37286100  0.28000500  1
  O  O61  1  0.82624000  0.62713900  0.78000500  1
  O  O62  1  0.67376000  0.62713900  0.28000500  1
  O  O63  1  0.32624000  0.37286100  0.78000500  1
  O  O64  1  0.83653000  0.01603400  0.11526500  1
  O  O65  1  0.16347000  0.98396600  0.61526500  1
  O  O66  1  0.33653000  0.98396600  0.11526500  1
  O  O67  1  0.66347000  0.01603400  0.61526500  1
  O  O68  1  0.11780700  0.17344200  0.41085700  1
  O  O69  1  0.88219300  0.82655800  0.91085700  1
  O  O70  1  0.61780700  0.82655800  0.41085700  1
  O  O71  1  0.38219300  0.17344200  0.91085700  1
  O  O72  1  0.31981100  0.13624600  0.27886400  1
  O  O73  1  0.68018900  0.86375400  0.77886400  1
  O  O74  1  0.81981100  0.86375400  0.27886400  1
  O  O75  1  0.18018900  0.13624600  0.77886400  1
  O  O76  1  0.03722200  0.40939800  0.49296400  1
  O  O77  1  0.96277800  0.59060200  0.99296400  1
  O  O78  1  0.53722200  0.59060200  0.49296400  1
  O  O79  1  0.46277800  0.40939800  0.99296400  1
  O  O80  1  0.46819800  0.66176900  0.07251500  1
  O  O81  1  0.53180200  0.33823100  0.57251500  1
  O  O82  1  0.96819800  0.33823100  0.07251500  1
  O  O83  1  0.03180200  0.66176900  0.57251500  1
  O  O84  1  0.40892900  0.44329700  0.18821100  1
  O  O85  1  0.59107100  0.55670300  0.68821100  1
  O  O86  1  0.90892900  0.55670300  0.18821100  1
  O  O87  1  0.09107100  0.44329700  0.68821100  1
  O  O88  1  0.08934500  0.04082300  0.19273700  1
  O  O89  1  0.91065500  0.95917700  0.69273700  1
  O  O90  1  0.58934500  0.95917700  0.19273700  1
  O  O91  1  0.41065500  0.04082300  0.69273700  1
  O  O92  1  0.54104600  0.16876500  0.06948600  1
  O  O93  1  0.45895400  0.83123500  0.56948600  1
  O  O94  1  0.04104600  0.83123500  0.06948600  1
  O  O95  1  0.95895400  0.16876500  0.56948600  1
