# generated using pymatgen
data_Zn10Cu(B4Rh9)2
_symmetry_space_group_name_H-M   'P 1'
_cell_length_a   17.88408300
_cell_length_b   17.88408300
_cell_length_c   2.87856500
_cell_angle_alpha   90.00000000
_cell_angle_beta   90.00000000
_cell_angle_gamma   90.00000000
_symmetry_Int_Tables_number   1
_chemical_formula_structural   Zn10Cu(B4Rh9)2
_chemical_formula_sum   'Zn20 Cu2 B16 Rh36'
_cell_volume   920.68145227
_cell_formula_units_Z   2
loop_
 _symmetry_equiv_pos_site_id
 _symmetry_equiv_pos_as_xyz
  1  'x, y, z'
loop_
 _atom_site_type_symbol
 _atom_site_label
 _atom_site_symmetry_multiplicity
 _atom_site_fract_x
 _atom_site_fract_y
 _atom_site_fract_z
 _atom_site_occupancy
  Zn  Zn0  1  0.55025900  0.05025900  0.00000000  1
  Zn  Zn1  1  0.44974100  0.94974100  0.00000000  1
  Zn  Zn2  1  0.05025900  0.44974100  0.00000000  1
  Zn  Zn3  1  0.94974100  0.55025900  0.00000000  1
  Zn  Zn4  1  0.03180600  0.18709600  0.00000000  1
  Zn  Zn5  1  0.96819400  0.81290400  0.00000000  1
  Zn  Zn6  1  0.18709600  0.96819400  0.00000000  1
  Zn  Zn7  1  0.53180600  0.31290400  0.00000000  1
  Zn  Zn8  1  0.81290400  0.03180600  0.00000000  1
  Zn  Zn9  1  0.46819400  0.68709600  0.00000000  1
  Zn  Zn10  1  0.68709600  0.53180600  0.00000000  1
  Zn  Zn11  1  0.31290400  0.46819400  0.00000000  1
  Zn  Zn12  1  0.20946000  0.70946000  0.00000000  1
  Zn  Zn13  1  0.79054000  0.29054000  0.00000000  1
  Zn  Zn14  1  0.70946000  0.79054000  0.00000000  1
  Zn  Zn15  1  0.29054000  0.20946000  0.00000000  1
  Zn  Zn16  1  0.66892100  0.16892100  0.00000000  1
  Zn  Zn17  1  0.33107900  0.83107900  0.00000000  1
  Zn  Zn18  1  0.16892100  0.33107900  0.00000000  1
  Zn  Zn19  1  0.83107900  0.66892100  0.00000000  1
  Cu  Cu20  1  0.00000000  0.00000000  0.00000000  1
  Cu  Cu21  1  0.50000000  0.50000000  0.00000000  1
  B  B22  1  0.33384600  0.03900300  0.00000000  1
  B  B23  1  0.66615400  0.96099700  0.00000000  1
  B  B24  1  0.03900300  0.66615400  0.00000000  1
  B  B25  1  0.83384600  0.46099700  0.00000000  1
  B  B26  1  0.96099700  0.33384600  0.00000000  1
  B  B27  1  0.16615400  0.53900300  0.00000000  1
  B  B28  1  0.53900300  0.83384600  0.00000000  1
  B  B29  1  0.46099700  0.16615400  0.00000000  1
  B  B30  1  0.16506700  0.12326600  0.00000000  1
  B  B31  1  0.83493300  0.87673400  0.00000000  1
  B  B32  1  0.12326600  0.83493300  0.00000000  1
  B  B33  1  0.66506700  0.37673400  0.00000000  1
  B  B34  1  0.87673400  0.16506700  0.00000000  1
  B  B35  1  0.33493300  0.62326600  0.00000000  1
  B  B36  1  0.62326600  0.66506700  0.00000000  1
  B  B37  1  0.37673400  0.33493300  0.00000000  1
  Rh  Rh38  1  0.25576600  0.08795300  0.50000000  1
  Rh  Rh39  1  0.74423400  0.91204700  0.50000000  1
  Rh  Rh40  1  0.08795300  0.74423400  0.50000000  1
  Rh  Rh41  1  0.75576600  0.41204700  0.50000000  1
  Rh  Rh42  1  0.91204700  0.25576600  0.50000000  1
  Rh  Rh43  1  0.24423400  0.58795300  0.50000000  1
  Rh  Rh44  1  0.58795300  0.75576600  0.50000000  1
  Rh  Rh45  1  0.41204700  0.24423400  0.50000000  1
  Rh  Rh46  1  0.04771900  0.32601900  0.50000000  1
  Rh  Rh47  1  0.95228100  0.67398100  0.50000000  1
  Rh  Rh48  1  0.32601900  0.95228100  0.50000000  1
  Rh  Rh49  1  0.54771900  0.17398100  0.50000000  1
  Rh  Rh50  1  0.67398100  0.04771900  0.50000000  1
  Rh  Rh51  1  0.45228100  0.82601900  0.50000000  1
  Rh  Rh52  1  0.82601900  0.54771900  0.50000000  1
  Rh  Rh53  1  0.17398100  0.45228100  0.50000000  1
  Rh  Rh54  1  0.16053000  0.21110200  0.50000000  1
  Rh  Rh55  1  0.83947000  0.78889800  0.50000000  1
  Rh  Rh56  1  0.21110200  0.83947000  0.50000000  1
  Rh  Rh57  1  0.66053000  0.28889800  0.50000000  1
  Rh  Rh58  1  0.78889800  0.16053000  0.50000000  1
  Rh  Rh59  1  0.33947000  0.71110200  0.50000000  1
  Rh  Rh60  1  0.71110200  0.66053000  0.50000000  1
  Rh  Rh61  1  0.28889800  0.33947000  0.50000000  1
  Rh  Rh62  1  0.09917900  0.06754200  0.50000000  1
  Rh  Rh63  1  0.90082100  0.93245800  0.50000000  1
  Rh  Rh64  1  0.06754200  0.90082100  0.50000000  1
  Rh  Rh65  1  0.59917900  0.43245800  0.50000000  1
  Rh  Rh66  1  0.93245800  0.09917900  0.50000000  1
  Rh  Rh67  1  0.40082100  0.56754200  0.50000000  1
  Rh  Rh68  1  0.56754200  0.59917900  0.50000000  1
  Rh  Rh69  1  0.43245800  0.40082100  0.50000000  1
  Rh  Rh70  1  0.08220300  0.58220300  0.50000000  1
  Rh  Rh71  1  0.91779700  0.41779700  0.50000000  1
  Rh  Rh72  1  0.58220300  0.91779700  0.50000000  1
  Rh  Rh73  1  0.41779700  0.08220300  0.50000000  1
