# generated using pymatgen
data_Zr4Ni
_symmetry_space_group_name_H-M   'P 1'
_cell_length_a   6.93639791
_cell_length_b   6.93639791
_cell_length_c   6.93639791
_cell_angle_alpha   60.00000000
_cell_angle_beta   60.00000000
_cell_angle_gamma   60.00000000
_symmetry_Int_Tables_number   1
_chemical_formula_structural   Zr4Ni
_chemical_formula_sum   'Zr8 Ni2'
_cell_volume   235.98641272
_cell_formula_units_Z   2
loop_
 _symmetry_equiv_pos_site_id
 _symmetry_equiv_pos_as_xyz
  1  'x, y, z'
loop_
 _atom_site_type_symbol
 _atom_site_label
 _atom_site_symmetry_multiplicity
 _atom_site_fract_x
 _atom_site_fract_y
 _atom_site_fract_z
 _atom_site_occupancy
  Zr  Zr0  1  0.61007600  0.61007600  0.61007600  1
  Zr  Zr1  1  0.16977100  0.61007600  0.61007600  1
  Zr  Zr2  1  0.61007600  0.16977100  0.61007600  1
  Zr  Zr3  1  0.58022900  0.13992400  0.13992400  1
  Zr  Zr4  1  0.13992400  0.13992400  0.13992400  1
  Zr  Zr5  1  0.61007600  0.61007600  0.16977100  1
  Zr  Zr6  1  0.13992400  0.58022900  0.13992400  1
  Zr  Zr7  1  0.13992400  0.13992400  0.58022900  1
  Ni  Ni8  1  0.00000000  0.00000000  0.00000000  1
  Ni  Ni9  1  0.75000000  0.75000000  0.75000000  1
