# generated using pymatgen
data_Zn3Au5
_symmetry_space_group_name_H-M   'P 1'
_cell_length_a   18.10370809
_cell_length_b   18.10370809
_cell_length_c   18.10370809
_cell_angle_alpha   162.06440957
_cell_angle_beta   143.80495041
_cell_angle_gamma   40.67536553
_symmetry_Int_Tables_number   1
_chemical_formula_structural   Zn3Au5
_chemical_formula_sum   'Zn24 Au40'
_cell_volume   1077.57509947
_cell_formula_units_Z   8
loop_
 _symmetry_equiv_pos_site_id
 _symmetry_equiv_pos_as_xyz
  1  'x, y, z'
loop_
 _atom_site_type_symbol
 _atom_site_label
 _atom_site_symmetry_multiplicity
 _atom_site_fract_x
 _atom_site_fract_y
 _atom_site_fract_z
 _atom_site_occupancy
  Zn  Zn0  1  0.32896800  0.40020900  0.35390600  1
  Zn  Zn1  1  0.67103200  0.59979100  0.64609400  1
  Zn  Zn2  1  0.04630300  0.97506200  0.64609400  1
  Zn  Zn3  1  0.45369700  0.09979100  0.92875900  1
  Zn  Zn4  1  0.95369700  0.02493800  0.35390600  1
  Zn  Zn5  1  0.54630300  0.90020900  0.07124100  1
  Zn  Zn6  1  0.17103200  0.52493800  0.07124100  1
  Zn  Zn7  1  0.82896800  0.47506200  0.92875900  1
  Zn  Zn8  1  0.42265100  0.35152900  0.64692000  1
  Zn  Zn9  1  0.57734900  0.64847100  0.35308000  1
  Zn  Zn10  1  0.70460900  0.77573100  0.35308000  1
  Zn  Zn11  1  0.79539100  0.14847100  0.07112200  1
  Zn  Zn12  1  0.29539100  0.22426900  0.64692000  1
  Zn  Zn13  1  0.20460900  0.85152900  0.92887800  1
  Zn  Zn14  1  0.07734900  0.72426900  0.92887800  1
  Zn  Zn15  1  0.92265100  0.27573100  0.07112200  1
  Zn  Zn16  1  0.62460700  0.12460700  0.50000000  1
  Zn  Zn17  1  0.37539300  0.87539300  0.50000000  1
  Zn  Zn18  1  0.87539300  0.37539300  0.50000000  1
  Zn  Zn19  1  0.12460700  0.62460700  0.50000000  1
  Zn  Zn20  1  0.00000000  0.50000000  0.50000000  1
  Zn  Zn21  1  0.50000000  0.00000000  0.50000000  1
  Zn  Zn22  1  0.25000000  0.75000000  0.50000000  1
  Zn  Zn23  1  0.75000000  0.25000000  0.50000000  1
  Au  Au24  1  0.38307700  0.12529600  0.25844100  1
  Au  Au25  1  0.61692300  0.87470400  0.74155900  1
  Au  Au26  1  0.86685500  0.12463600  0.74155900  1
  Au  Au27  1  0.63314500  0.37470400  0.25778100  1
  Au  Au28  1  0.13314500  0.87536400  0.25844100  1
  Au  Au29  1  0.36685500  0.62529600  0.74221900  1
  Au  Au30  1  0.11692300  0.37536400  0.74221900  1
  Au  Au31  1  0.88307700  0.62463600  0.25778100  1
  Au  Au32  1  0.16476900  0.35076400  0.39293500  1
  Au  Au33  1  0.83523100  0.64923600  0.60706500  1
  Au  Au34  1  0.95782900  0.77183400  0.60706500  1
  Au  Au35  1  0.54217100  0.14923600  0.81400500  1
  Au  Au36  1  0.04217100  0.22816600  0.39293500  1
  Au  Au37  1  0.45782900  0.85076400  0.18599500  1
  Au  Au38  1  0.33523100  0.72816600  0.18599500  1
  Au  Au39  1  0.66476900  0.27183400  0.81400500  1
  Au  Au40  1  0.41516800  0.59849600  0.38823800  1
  Au  Au41  1  0.58483200  0.40150400  0.61176200  1
  Au  Au42  1  0.21025800  0.02693000  0.61176200  1
  Au  Au43  1  0.28974200  0.90150400  0.81667200  1
  Au  Au44  1  0.78974200  0.97307000  0.38823800  1
  Au  Au45  1  0.71025800  0.09849600  0.18332800  1
  Au  Au46  1  0.08483200  0.47307000  0.18332800  1
  Au  Au47  1  0.91516800  0.52693000  0.81667200  1
  Au  Au48  1  0.25696800  0.03859000  0.29555800  1
  Au  Au49  1  0.74303200  0.96141000  0.70444200  1
  Au  Au50  1  0.75696800  0.46141000  0.21837800  1
  Au  Au51  1  0.24303200  0.53859000  0.78162200  1
  Au  Au52  1  0.12482900  0.12482900  0.00000000  1
  Au  Au53  1  0.87517100  0.87517100  0.00000000  1
  Au  Au54  1  0.37517100  0.37517100  0.00000000  1
  Au  Au55  1  0.62482900  0.62482900  0.00000000  1
  Au  Au56  1  0.50776800  0.25000000  0.25776800  1
  Au  Au57  1  0.49223200  0.75000000  0.74223200  1
  Au  Au58  1  0.99223200  0.25000000  0.74223200  1
  Au  Au59  1  0.00776800  0.75000000  0.25776800  1
  Au  Au60  1  0.00000000  0.00000000  0.00000000  1
  Au  Au61  1  0.50000000  0.50000000  0.00000000  1
  Au  Au62  1  0.25000000  0.25000000  0.00000000  1
  Au  Au63  1  0.75000000  0.75000000  0.00000000  1
