# generated using pymatgen
data_YbGa4Pd7
_symmetry_space_group_name_H-M   'P 1'
_cell_length_a   8.54916700
_cell_length_b   8.54916700
_cell_length_c   8.54916700
_cell_angle_alpha   90.00000000
_cell_angle_beta   90.00000000
_cell_angle_gamma   90.00000000
_symmetry_Int_Tables_number   1
_chemical_formula_structural   YbGa4Pd7
_chemical_formula_sum   'Yb3 Ga12 Pd21'
_cell_volume   624.84370965
_cell_formula_units_Z   3
loop_
 _symmetry_equiv_pos_site_id
 _symmetry_equiv_pos_as_xyz
  1  'x, y, z'
loop_
 _atom_site_type_symbol
 _atom_site_label
 _atom_site_symmetry_multiplicity
 _atom_site_fract_x
 _atom_site_fract_y
 _atom_site_fract_z
 _atom_site_occupancy
  Yb  Yb0  1  0.00000000  0.50000000  0.50000000  1
  Yb  Yb1  1  0.50000000  0.00000000  0.50000000  1
  Yb  Yb2  1  0.50000000  0.50000000  0.00000000  1
  Ga  Ga3  1  0.00000000  0.23834200  0.23834200  1
  Ga  Ga4  1  0.00000000  0.76165800  0.76165800  1
  Ga  Ga5  1  0.00000000  0.76165800  0.23834200  1
  Ga  Ga6  1  0.00000000  0.23834200  0.76165800  1
  Ga  Ga7  1  0.23834200  0.00000000  0.23834200  1
  Ga  Ga8  1  0.23834200  0.00000000  0.76165800  1
  Ga  Ga9  1  0.76165800  0.00000000  0.76165800  1
  Ga  Ga10  1  0.76165800  0.00000000  0.23834200  1
  Ga  Ga11  1  0.23834200  0.23834200  0.00000000  1
  Ga  Ga12  1  0.76165800  0.76165800  0.00000000  1
  Ga  Ga13  1  0.23834200  0.76165800  0.00000000  1
  Ga  Ga14  1  0.76165800  0.23834200  0.00000000  1
  Pd  Pd15  1  0.50000000  0.15653300  0.15653300  1
  Pd  Pd16  1  0.50000000  0.84346700  0.84346700  1
  Pd  Pd17  1  0.50000000  0.84346700  0.15653300  1
  Pd  Pd18  1  0.50000000  0.15653300  0.84346700  1
  Pd  Pd19  1  0.15653300  0.50000000  0.15653300  1
  Pd  Pd20  1  0.15653300  0.50000000  0.84346700  1
  Pd  Pd21  1  0.84346700  0.50000000  0.84346700  1
  Pd  Pd22  1  0.84346700  0.50000000  0.15653300  1
  Pd  Pd23  1  0.15653300  0.15653300  0.50000000  1
  Pd  Pd24  1  0.84346700  0.84346700  0.50000000  1
  Pd  Pd25  1  0.15653300  0.84346700  0.50000000  1
  Pd  Pd26  1  0.84346700  0.15653300  0.50000000  1
  Pd  Pd27  1  0.00000000  0.00000000  0.00000000  1
  Pd  Pd28  1  0.34141800  0.34141800  0.34141800  1
  Pd  Pd29  1  0.65858200  0.65858200  0.65858200  1
  Pd  Pd30  1  0.65858200  0.65858200  0.34141800  1
  Pd  Pd31  1  0.65858200  0.34141800  0.65858200  1
  Pd  Pd32  1  0.34141800  0.34141800  0.65858200  1
  Pd  Pd33  1  0.34141800  0.65858200  0.34141800  1
  Pd  Pd34  1  0.34141800  0.65858200  0.65858200  1
  Pd  Pd35  1  0.65858200  0.34141800  0.34141800  1
