# generated using pymatgen
data_YbCoGe
_symmetry_space_group_name_H-M   'P 1'
_cell_length_a   4.28840600
_cell_length_b   6.72787000
_cell_length_c   7.13922200
_cell_angle_alpha   90.00000000
_cell_angle_beta   90.00000000
_cell_angle_gamma   90.00000000
_symmetry_Int_Tables_number   1
_chemical_formula_structural   YbCoGe
_chemical_formula_sum   'Yb4 Co4 Ge4'
_cell_volume   205.97967713
_cell_formula_units_Z   4
loop_
 _symmetry_equiv_pos_site_id
 _symmetry_equiv_pos_as_xyz
  1  'x, y, z'
loop_
 _atom_site_type_symbol
 _atom_site_label
 _atom_site_symmetry_multiplicity
 _atom_site_fract_x
 _atom_site_fract_y
 _atom_site_fract_z
 _atom_site_occupancy
  Yb  Yb0  1  0.25000000  0.68397500  0.98297600  1
  Yb  Yb1  1  0.75000000  0.31602500  0.01702400  1
  Yb  Yb2  1  0.75000000  0.18397500  0.51702400  1
  Yb  Yb3  1  0.25000000  0.81602500  0.48297600  1
  Co  Co4  1  0.25000000  0.07144900  0.14184300  1
  Co  Co5  1  0.75000000  0.92855100  0.85815700  1
  Co  Co6  1  0.75000000  0.57144900  0.35815700  1
  Co  Co7  1  0.25000000  0.42855100  0.64184300  1
  Ge  Ge8  1  0.25000000  0.39427900  0.30652100  1
  Ge  Ge9  1  0.75000000  0.60572100  0.69347900  1
  Ge  Ge10  1  0.75000000  0.89427900  0.19347900  1
  Ge  Ge11  1  0.25000000  0.10572100  0.80652100  1
