# generated using pymatgen
data_YbTiClO3
_symmetry_space_group_name_H-M   'P 1'
_cell_length_a   5.25854186
_cell_length_b   5.25854186
_cell_length_c   10.23169109
_cell_angle_alpha   73.76652653
_cell_angle_beta   73.76652653
_cell_angle_gamma   43.35061558
_symmetry_Int_Tables_number   1
_chemical_formula_structural   YbTiClO3
_chemical_formula_sum   'Yb2 Ti2 Cl2 O6'
_cell_volume   185.22375145
_cell_formula_units_Z   2
loop_
 _symmetry_equiv_pos_site_id
 _symmetry_equiv_pos_as_xyz
  1  'x, y, z'
loop_
 _atom_site_type_symbol
 _atom_site_label
 _atom_site_symmetry_multiplicity
 _atom_site_fract_x
 _atom_site_fract_y
 _atom_site_fract_z
 _atom_site_occupancy
  Yb  Yb0  1  0.27834100  0.27834100  0.18850400  1
  Yb  Yb1  1  0.72165900  0.72165900  0.81149600  1
  Ti  Ti2  1  0.88707500  0.88707500  0.43079200  1
  Ti  Ti3  1  0.11292500  0.11292500  0.56920800  1
  Cl  Cl4  1  0.60959400  0.60959400  0.09995000  1
  Cl  Cl5  1  0.39040600  0.39040600  0.90005000  1
  O  O6  1  0.84939600  0.84939600  0.26409900  1
  O  O7  1  0.15060400  0.15060400  0.73590100  1
  O  O8  1  0.66025500  0.66025500  0.55278300  1
  O  O9  1  0.33974500  0.33974500  0.44721700  1
  O  O10  1  0.91591000  0.91591000  0.62148000  1
  O  O11  1  0.08409000  0.08409000  0.37852000  1
