# generated using pymatgen
data_Yb2MgTiO6
_symmetry_space_group_name_H-M   'P 1'
_cell_length_a   5.65157900
_cell_length_b   5.35430600
_cell_length_c   9.20794257
_cell_angle_alpha   55.87784193
_cell_angle_beta   90.00000000
_cell_angle_gamma   90.00000000
_symmetry_Int_Tables_number   1
_chemical_formula_structural   Yb2MgTiO6
_chemical_formula_sum   'Yb4 Mg2 Ti2 O12'
_cell_volume   230.66612100
_cell_formula_units_Z   2
loop_
 _symmetry_equiv_pos_site_id
 _symmetry_equiv_pos_as_xyz
  1  'x, y, z'
loop_
 _atom_site_type_symbol
 _atom_site_label
 _atom_site_symmetry_multiplicity
 _atom_site_fract_x
 _atom_site_fract_y
 _atom_site_fract_z
 _atom_site_occupancy
  Yb  Yb0  1  0.06494200  0.72333400  0.75515800  1
  Yb  Yb1  1  0.93505800  0.27666600  0.24484200  1
  Yb  Yb2  1  0.56494200  0.27666600  0.74484200  1
  Yb  Yb3  1  0.43505800  0.72333400  0.25515800  1
  Mg  Mg4  1  0.50000000  0.50000000  0.00000000  1
  Mg  Mg5  1  0.00000000  0.50000000  0.50000000  1
  Ti  Ti6  1  0.50000000  0.00000000  0.50000000  1
  Ti  Ti7  1  0.00000000  0.00000000  0.00000000  1
  O  O8  1  0.46682300  0.85661200  0.74504600  1
  O  O9  1  0.53317700  0.14338800  0.25495400  1
  O  O10  1  0.96682300  0.14338800  0.75495400  1
  O  O11  1  0.03317700  0.85661200  0.24504600  1
  O  O12  1  0.78325400  0.74985200  0.55653200  1
  O  O13  1  0.21674600  0.25014800  0.44346800  1
  O  O14  1  0.28325400  0.25014800  0.94346800  1
  O  O15  1  0.71674600  0.74985200  0.05653200  1
  O  O16  1  0.30155000  0.66030000  0.54717000  1
  O  O17  1  0.69845000  0.33970000  0.45283000  1
  O  O18  1  0.80155000  0.33970000  0.95283000  1
  O  O19  1  0.19845000  0.66030000  0.04717000  1
