# generated using pymatgen
data_Zn3FeP3O14
_symmetry_space_group_name_H-M   'P 1'
_cell_length_a   6.39690500
_cell_length_b   9.25314193
_cell_length_c   9.91404768
_cell_angle_alpha   71.03177095
_cell_angle_beta   79.08462236
_cell_angle_gamma   74.55079321
_symmetry_Int_Tables_number   1
_chemical_formula_structural   Zn3FeP3O14
_chemical_formula_sum   'Zn6 Fe2 P6 O28'
_cell_volume   531.49853588
_cell_formula_units_Z   2
loop_
 _symmetry_equiv_pos_site_id
 _symmetry_equiv_pos_as_xyz
  1  'x, y, z'
loop_
 _atom_site_type_symbol
 _atom_site_label
 _atom_site_symmetry_multiplicity
 _atom_site_fract_x
 _atom_site_fract_y
 _atom_site_fract_z
 _atom_site_occupancy
  Zn  Zn0  1  0.45831200  0.66230800  0.28591700  1
  Zn  Zn1  1  0.54168800  0.33769200  0.71408300  1
  Zn  Zn2  1  0.79082300  0.12488700  0.01682400  1
  Zn  Zn3  1  0.20917700  0.87511300  0.98317600  1
  Zn  Zn4  1  0.48633100  0.00491500  0.30074900  1
  Zn  Zn5  1  0.51366900  0.99508500  0.69925100  1
  Fe  Fe6  1  0.04176000  0.25537300  0.33609100  1
  Fe  Fe7  1  0.95824000  0.74462700  0.66390900  1
  P  P8  1  0.25282700  0.22368600  0.01931200  1
  P  P9  1  0.74717300  0.77631400  0.98068800  1
  P  P10  1  0.02703600  0.90416700  0.31142500  1
  P  P11  1  0.97296400  0.09583300  0.68857500  1
  P  P12  1  0.49701900  0.29760700  0.41485600  1
  P  P13  1  0.50298100  0.70239300  0.58514400  1
  O  O14  1  0.18828400  0.00938100  0.75589500  1
  O  O15  1  0.81171600  0.99061900  0.24410500  1
  O  O16  1  0.70729500  0.36459300  0.01263300  1
  O  O17  1  0.29270500  0.63540700  0.98736700  1
  O  O18  1  0.68272500  0.66441200  0.12618000  1
  O  O19  1  0.31727500  0.33558800  0.87382000  1
  O  O20  1  0.00951800  0.21856000  0.54496500  1
  O  O21  1  0.99048200  0.78144000  0.45503500  1
  O  O22  1  0.01292700  0.50552600  0.68228800  1
  O  O23  1  0.98707300  0.49447400  0.31771200  1
  O  O24  1  0.19346300  0.81944100  0.20813100  1
  O  O25  1  0.80653700  0.18055900  0.79186900  1
  O  O26  1  0.72802500  0.28682000  0.33462500  1
  O  O27  1  0.27197500  0.71318000  0.66537500  1
  O  O28  1  0.37854700  0.20359000  0.36079300  1
  O  O29  1  0.62145300  0.79641000  0.63920700  1
  O  O30  1  0.11299800  0.31783200  0.12201000  1
  O  O31  1  0.88700200  0.68216800  0.87798900  1
  O  O32  1  0.11885600  0.11411200  0.00291900  1
  O  O33  1  0.88114400  0.88588800  0.99708100  1
  O  O34  1  0.13367800  0.02759100  0.33430700  1
  O  O35  1  0.86632200  0.97240900  0.66569300  1
  O  O36  1  0.46729900  0.11714100  0.08604000  1
  O  O37  1  0.53270100  0.88285900  0.91396000  1
  O  O38  1  0.36912900  0.46857800  0.38800200  1
  O  O39  1  0.63087100  0.53142200  0.61199800  1
  O  O40  1  0.49891600  0.22231800  0.58181500  1
  O  O41  1  0.50108400  0.77768200  0.41818500  1
