# generated using pymatgen
data_ZrPd3F6
_symmetry_space_group_name_H-M   'P 1'
_cell_length_a   5.26291559
_cell_length_b   6.87439930
_cell_length_c   8.06022549
_cell_angle_alpha   77.17095569
_cell_angle_beta   108.54385633
_cell_angle_gamma   105.54838387
_symmetry_Int_Tables_number   1
_chemical_formula_structural   ZrPd3F6
_chemical_formula_sum   'Zr1 Pd3 F6'
_cell_volume   263.35172500
_cell_formula_units_Z   1
loop_
 _symmetry_equiv_pos_site_id
 _symmetry_equiv_pos_as_xyz
  1  'x, y, z'
loop_
 _atom_site_type_symbol
 _atom_site_label
 _atom_site_symmetry_multiplicity
 _atom_site_fract_x
 _atom_site_fract_y
 _atom_site_fract_z
 _atom_site_occupancy
  Zr  Zr0  1  0.00000000  0.00000000  0.00000000  1
  Pd  Pd1  1  0.00000000  0.00000000  0.50000000  1
  Pd  Pd2  1  0.50000000  0.50000000  0.00000000  1
  Pd  Pd3  1  0.00000000  0.50000000  0.00000000  1
  F  F4  1  0.83929900  0.24973000  0.85650500  1
  F  F5  1  0.16070100  0.75027000  0.14349500  1
  F  F6  1  0.99773500  0.92915700  0.76631000  1
  F  F7  1  0.00226500  0.07084300  0.23369000  1
  F  F8  1  0.61175900  0.82160000  0.98177900  1
  F  F9  1  0.38824100  0.17840000  0.01822100  1
