# generated using pymatgen
data_Yb3SbO7
_symmetry_space_group_name_H-M   'P 1'
_cell_length_a   6.30825680
_cell_length_b   6.30825680
_cell_length_c   7.84138100
_cell_angle_alpha   90.00000000
_cell_angle_beta   90.00000000
_cell_angle_gamma   107.81332974
_symmetry_Int_Tables_number   1
_chemical_formula_structural   Yb3SbO7
_chemical_formula_sum   'Yb6 Sb2 O14'
_cell_volume   297.08095070
_cell_formula_units_Z   2
loop_
 _symmetry_equiv_pos_site_id
 _symmetry_equiv_pos_as_xyz
  1  'x, y, z'
loop_
 _atom_site_type_symbol
 _atom_site_label
 _atom_site_symmetry_multiplicity
 _atom_site_fract_x
 _atom_site_fract_y
 _atom_site_fract_z
 _atom_site_occupancy
  Yb  Yb0  1  0.53705100  0.99150200  0.75219000  1
  Yb  Yb1  1  0.46294900  0.00849800  0.25219000  1
  Yb  Yb2  1  0.00849800  0.46294900  0.74781000  1
  Yb  Yb3  1  0.99150200  0.53705100  0.24781000  1
  Yb  Yb4  1  0.51032000  0.51032000  0.00000000  1
  Yb  Yb5  1  0.48968000  0.48968000  0.50000000  1
  Sb  Sb6  1  0.99627600  0.99627600  0.00000000  1
  Sb  Sb7  1  0.00372400  0.00372400  0.50000000  1
  O  O8  1  0.62010900  0.37989100  0.75000000  1
  O  O9  1  0.37989100  0.62010900  0.25000000  1
  O  O10  1  0.93373600  0.06626400  0.75000000  1
  O  O11  1  0.06626400  0.93373600  0.25000000  1
  O  O12  1  0.32718200  0.08499900  0.97310600  1
  O  O13  1  0.67281800  0.91500100  0.47310600  1
  O  O14  1  0.91500100  0.67281800  0.52689400  1
  O  O15  1  0.08499900  0.32718200  0.02689400  1
  O  O16  1  0.38364700  0.61635300  0.75000000  1
  O  O17  1  0.61635300  0.38364700  0.25000000  1
  O  O18  1  0.32767100  0.06761300  0.53266800  1
  O  O19  1  0.67232900  0.93238700  0.03266800  1
  O  O20  1  0.93238700  0.67232900  0.96733200  1
  O  O21  1  0.06761300  0.32767100  0.46733200  1
