# generated using pymatgen
data_ZnAs2C4(NF9)2
_symmetry_space_group_name_H-M   'P 1'
_cell_length_a   6.88383600
_cell_length_b   11.01354800
_cell_length_c   11.41889734
_cell_angle_alpha   74.68661622
_cell_angle_beta   90.00000000
_cell_angle_gamma   90.00000000
_symmetry_Int_Tables_number   1
_chemical_formula_structural   ZnAs2C4(NF9)2
_chemical_formula_sum   'Zn2 As4 C8 N4 F36'
_cell_volume   834.99188106
_cell_formula_units_Z   2
loop_
 _symmetry_equiv_pos_site_id
 _symmetry_equiv_pos_as_xyz
  1  'x, y, z'
loop_
 _atom_site_type_symbol
 _atom_site_label
 _atom_site_symmetry_multiplicity
 _atom_site_fract_x
 _atom_site_fract_y
 _atom_site_fract_z
 _atom_site_occupancy
  Zn  Zn0  1  0.00000000  0.00000000  0.00000000  1
  Zn  Zn1  1  0.50000000  0.50000000  0.00000000  1
  As  As2  1  0.75116900  0.70012100  0.18223400  1
  As  As3  1  0.24883100  0.29987900  0.81776600  1
  As  As4  1  0.25116900  0.79987900  0.81776600  1
  As  As5  1  0.74883100  0.20012100  0.18223400  1
  C  C6  1  0.20644400  0.92690500  0.25494900  1
  C  C7  1  0.79355600  0.07309500  0.74505100  1
  C  C8  1  0.70644400  0.57309500  0.74505100  1
  C  C9  1  0.29355600  0.42690500  0.25494900  1
  C  C10  1  0.76724700  0.62182700  0.61487100  1
  C  C11  1  0.23275300  0.37817300  0.38512900  1
  C  C12  1  0.26724700  0.87817300  0.38512900  1
  C  C13  1  0.73275300  0.12182700  0.61487100  1
  N  N14  1  0.14746400  0.95946900  0.15719800  1
  N  N15  1  0.85253600  0.04053100  0.84280200  1
  N  N16  1  0.64746400  0.54053100  0.84280200  1
  N  N17  1  0.35253600  0.45946900  0.15719800  1
  F  F18  1  0.70025100  0.55696400  0.28775700  1
  F  F19  1  0.29974900  0.44303600  0.71224300  1
  F  F20  1  0.20025100  0.94303600  0.71224300  1
  F  F21  1  0.79974900  0.05696400  0.28775700  1
  F  F22  1  0.50871300  0.74967900  0.18218600  1
  F  F23  1  0.49128700  0.25032100  0.81781400  1
  F  F24  1  0.00871300  0.75032100  0.81781400  1
  F  F25  1  0.99128700  0.24967900  0.18218600  1
  F  F26  1  0.79986100  0.84664800  0.06551900  1
  F  F27  1  0.20013900  0.15335200  0.93448100  1
  F  F28  1  0.29986100  0.65335200  0.93448100  1
  F  F29  1  0.70013900  0.34664800  0.06551900  1
  F  F30  1  0.68745500  0.63027600  0.05840400  1
  F  F31  1  0.31254500  0.36972400  0.94159600  1
  F  F32  1  0.18745500  0.86972400  0.94159600  1
  F  F33  1  0.81254500  0.13027600  0.05840400  1
  F  F34  1  0.44701900  0.91787200  0.40141400  1
  F  F35  1  0.55298100  0.08212800  0.59858600  1
  F  F36  1  0.94701900  0.58212800  0.59858600  1
  F  F37  1  0.05298100  0.41787200  0.40141400  1
  F  F38  1  0.81474700  0.77373500  0.29544200  1
  F  F39  1  0.18525300  0.22626500  0.70455800  1
  F  F40  1  0.31474700  0.72626500  0.70455800  1
  F  F41  1  0.68525300  0.27373500  0.29544200  1
  F  F42  1  0.99292400  0.65652700  0.16683700  1
  F  F43  1  0.00707600  0.34347300  0.83316300  1
  F  F44  1  0.49292400  0.84347300  0.83316300  1
  F  F45  1  0.50707600  0.15652700  0.16683700  1
  F  F46  1  0.76326500  0.74858000  0.58484700  1
  F  F47  1  0.23673500  0.25142000  0.41515300  1
  F  F48  1  0.26326500  0.75142000  0.41515300  1
  F  F49  1  0.73673500  0.24858000  0.58484700  1
  F  F50  1  0.64027700  0.57931000  0.54530300  1
  F  F51  1  0.35972300  0.42069000  0.45469700  1
  F  F52  1  0.14027700  0.92069000  0.45469700  1
  F  F53  1  0.85972300  0.07931000  0.54530300  1
