# generated using pymatgen
data_YbEuCuS3
_symmetry_space_group_name_H-M   'P 1'
_cell_length_a   6.59251505
_cell_length_b   6.59251505
_cell_length_c   10.27721900
_cell_angle_alpha   90.00000000
_cell_angle_beta   90.00000000
_cell_angle_gamma   145.79380340
_symmetry_Int_Tables_number   1
_chemical_formula_structural   YbEuCuS3
_chemical_formula_sum   'Yb2 Eu2 Cu2 S6'
_cell_volume   251.10058143
_cell_formula_units_Z   2
loop_
 _symmetry_equiv_pos_site_id
 _symmetry_equiv_pos_as_xyz
  1  'x, y, z'
loop_
 _atom_site_type_symbol
 _atom_site_label
 _atom_site_symmetry_multiplicity
 _atom_site_fract_x
 _atom_site_fract_y
 _atom_site_fract_z
 _atom_site_occupancy
  Yb  Yb0  1  0.00000000  0.00000000  0.00000000  1
  Yb  Yb1  1  0.00000000  0.00000000  0.50000000  1
  Eu  Eu2  1  0.25222300  0.74777700  0.25000000  1
  Eu  Eu3  1  0.74777700  0.25222300  0.75000000  1
  Cu  Cu4  1  0.52867500  0.47132500  0.25000000  1
  Cu  Cu5  1  0.47132500  0.52867500  0.75000000  1
  S  S6  1  0.64672700  0.35327300  0.07860500  1
  S  S7  1  0.35327300  0.64672700  0.92139500  1
  S  S8  1  0.35327300  0.64672700  0.57860500  1
  S  S9  1  0.64672700  0.35327300  0.42139500  1
  S  S10  1  0.92374300  0.07625700  0.25000000  1
  S  S11  1  0.07625700  0.92374300  0.75000000  1
