# generated using pymatgen
data_YTl(MoO4)2
_symmetry_space_group_name_H-M   'P 1'
_cell_length_a   6.13545900
_cell_length_b   15.53291600
_cell_length_c   9.16363100
_cell_angle_alpha   90.00000000
_cell_angle_beta   90.00000000
_cell_angle_gamma   90.00000000
_symmetry_Int_Tables_number   1
_chemical_formula_structural   YTl(MoO4)2
_chemical_formula_sum   'Y4 Tl4 Mo8 O32'
_cell_volume   873.30841450
_cell_formula_units_Z   4
loop_
 _symmetry_equiv_pos_site_id
 _symmetry_equiv_pos_as_xyz
  1  'x, y, z'
loop_
 _atom_site_type_symbol
 _atom_site_label
 _atom_site_symmetry_multiplicity
 _atom_site_fract_x
 _atom_site_fract_y
 _atom_site_fract_z
 _atom_site_occupancy
  Y  Y0  1  0.75000000  0.89419300  0.69542500  1
  Y  Y1  1  0.25000000  0.10580700  0.30457500  1
  Y  Y2  1  0.25000000  0.60580700  0.19542500  1
  Y  Y3  1  0.75000000  0.39419300  0.80457500  1
  Tl  Tl4  1  0.75000000  0.62575000  0.56060300  1
  Tl  Tl5  1  0.25000000  0.37425000  0.43939700  1
  Tl  Tl6  1  0.25000000  0.87425000  0.06060300  1
  Tl  Tl7  1  0.75000000  0.12575000  0.93939700  1
  Mo  Mo8  1  0.75000000  0.96032900  0.28100800  1
  Mo  Mo9  1  0.25000000  0.03967100  0.71899200  1
  Mo  Mo10  1  0.25000000  0.53967100  0.78100800  1
  Mo  Mo11  1  0.75000000  0.46032900  0.21899200  1
  Mo  Mo12  1  0.75000000  0.71575300  0.99442600  1
  Mo  Mo13  1  0.25000000  0.28424700  0.00557400  1
  Mo  Mo14  1  0.25000000  0.78424700  0.49442600  1
  Mo  Mo15  1  0.75000000  0.21575300  0.50557400  1
  O  O16  1  0.75000000  0.85361500  0.22025400  1
  O  O17  1  0.25000000  0.14638500  0.77974600  1
  O  O18  1  0.25000000  0.64638500  0.72025400  1
  O  O19  1  0.75000000  0.35361500  0.27974600  1
  O  O20  1  0.75000000  0.96290000  0.47656600  1
  O  O21  1  0.25000000  0.03710000  0.52343400  1
  O  O22  1  0.25000000  0.53710000  0.97656600  1
  O  O23  1  0.75000000  0.46290000  0.02343400  1
  O  O24  1  0.75000000  0.64132200  0.85101400  1
  O  O25  1  0.25000000  0.35867800  0.14898600  1
  O  O26  1  0.25000000  0.85867800  0.35101400  1
  O  O27  1  0.75000000  0.14132200  0.64898600  1
  O  O28  1  0.75000000  0.82119100  0.90844000  1
  O  O29  1  0.25000000  0.17880900  0.09156000  1
  O  O30  1  0.25000000  0.67880900  0.40844000  1
  O  O31  1  0.75000000  0.32119100  0.59156000  1
  O  O32  1  0.00439000  0.80335700  0.60032400  1
  O  O33  1  0.99561000  0.19664300  0.39967600  1
  O  O34  1  0.99561000  0.69664300  0.10032400  1
  O  O35  1  0.50439000  0.19664300  0.39967600  1
  O  O36  1  0.00439000  0.30335700  0.89967600  1
  O  O37  1  0.49561000  0.80335700  0.60032400  1
  O  O38  1  0.49561000  0.30335700  0.89967600  1
  O  O39  1  0.50439000  0.69664300  0.10032400  1
  O  O40  1  0.48958000  0.98387400  0.79135500  1
  O  O41  1  0.51042000  0.01612600  0.20864500  1
  O  O42  1  0.51042000  0.51612600  0.29135500  1
  O  O43  1  0.98958000  0.01612600  0.20864500  1
  O  O44  1  0.48958000  0.48387400  0.70864500  1
  O  O45  1  0.01042000  0.98387400  0.79135500  1
  O  O46  1  0.01042000  0.48387400  0.70864500  1
  O  O47  1  0.98958000  0.51612600  0.29135500  1
