data_image0
_chemical_formula_structural       MoSi2
_chemical_formula_sum              "Mo1 Si2"
_cell_length_a       3.21758
_cell_length_b       3.21758
_cell_length_c       4.54554
_cell_angle_alpha    110.728
_cell_angle_beta     110.728
_cell_angle_gamma    90

_space_group_name_H-M_alt    "P 1"
_space_group_IT_number       1

loop_
  _space_group_symop_operation_xyz
  'x, y, z'

loop_
  _atom_site_type_symbol
  _atom_site_label
  _atom_site_symmetry_multiplicity
  _atom_site_fract_x
  _atom_site_fract_y
  _atom_site_fract_z
  _atom_site_occupancy
  Mo  Mo1       1.0  0.00000  0.00000  0.00000  1.0000
  Si  Si1       1.0  0.66500  0.66500  0.33000  1.0000
  Si  Si2       1.0  0.33500  0.33500  0.67000  1.0000
