# generated using pymatgen
data_Yb3Cu11Si4
_symmetry_space_group_name_H-M   'P 1'
_cell_length_a   8.32374644
_cell_length_b   8.32374644
_cell_length_c   8.63700000
_cell_angle_alpha   90.00000000
_cell_angle_beta   90.00000000
_cell_angle_gamma   120.00000351
_symmetry_Int_Tables_number   1
_chemical_formula_structural   Yb3Cu11Si4
_chemical_formula_sum   'Yb6 Cu22 Si8'
_cell_volume   518.24034571
_cell_formula_units_Z   2
loop_
 _symmetry_equiv_pos_site_id
 _symmetry_equiv_pos_as_xyz
  1  'x, y, z'
loop_
 _atom_site_type_symbol
 _atom_site_label
 _atom_site_symmetry_multiplicity
 _atom_site_fract_x
 _atom_site_fract_y
 _atom_site_fract_z
 _atom_site_occupancy
  Yb  Yb0  1  0.80197900  0.19802000  0.75000000  1
  Yb  Yb1  1  0.19802000  0.80197900  0.25000000  1
  Yb  Yb2  1  0.39604100  0.19802000  0.75000000  1
  Yb  Yb3  1  0.60395900  0.80197900  0.25000000  1
  Yb  Yb4  1  0.80197900  0.60395900  0.75000000  1
  Yb  Yb5  1  0.19802000  0.39604100  0.25000000  1
  Cu  Cu6  1  0.85009300  0.14990700  0.40911800  1
  Cu  Cu7  1  0.14990700  0.85009300  0.59088200  1
  Cu  Cu8  1  0.29981300  0.14990700  0.40911800  1
  Cu  Cu9  1  0.14990700  0.85009300  0.90911800  1
  Cu  Cu10  1  0.70018700  0.85009300  0.59088200  1
  Cu  Cu11  1  0.85009300  0.14990700  0.09088200  1
  Cu  Cu12  1  0.85009300  0.70018700  0.40911800  1
  Cu  Cu13  1  0.70018700  0.85009300  0.90911800  1
  Cu  Cu14  1  0.14990700  0.29981300  0.59088200  1
  Cu  Cu15  1  0.29981300  0.14990700  0.09088200  1
  Cu  Cu16  1  0.14990700  0.29981300  0.90911800  1
  Cu  Cu17  1  0.85009300  0.70018700  0.09088200  1
  Cu  Cu18  1  0.43639600  0.56360400  0.75000000  1
  Cu  Cu19  1  0.56360400  0.43639600  0.25000000  1
  Cu  Cu20  1  0.12720800  0.56360400  0.75000000  1
  Cu  Cu21  1  0.87279200  0.43639600  0.25000000  1
  Cu  Cu22  1  0.43639600  0.87279200  0.75000000  1
  Cu  Cu23  1  0.56360400  0.12720800  0.25000000  1
  Cu  Cu24  1  0.66666700  0.33333300  0.00977000  1
  Cu  Cu25  1  0.33333300  0.66666700  0.99023000  1
  Cu  Cu26  1  0.33333300  0.66666700  0.50977000  1
  Cu  Cu27  1  0.66666700  0.33333300  0.49023000  1
  Si  Si28  1  0.50000000  0.50000000  0.00000000  1
  Si  Si29  1  0.00000000  0.50000000  0.00000000  1
  Si  Si30  1  0.50000000  0.50000000  0.50000000  1
  Si  Si31  1  0.50000000  0.00000000  0.00000000  1
  Si  Si32  1  0.00000000  0.50000000  0.50000000  1
  Si  Si33  1  0.50000000  0.00000000  0.50000000  1
  Si  Si34  1  0.00000000  0.00000000  0.75000000  1
  Si  Si35  1  0.00000000  0.00000000  0.25000000  1
