# generated using pymatgen
data_YMnCrO5
_symmetry_space_group_name_H-M   'P 1'
_cell_length_a   5.81692400
_cell_length_b   7.25047600
_cell_length_c   8.63666100
_cell_angle_alpha   90.00000000
_cell_angle_beta   90.00000000
_cell_angle_gamma   90.00000000
_symmetry_Int_Tables_number   1
_chemical_formula_structural   YMnCrO5
_chemical_formula_sum   'Y4 Mn4 Cr4 O20'
_cell_volume   364.25521839
_cell_formula_units_Z   4
loop_
 _symmetry_equiv_pos_site_id
 _symmetry_equiv_pos_as_xyz
  1  'x, y, z'
loop_
 _atom_site_type_symbol
 _atom_site_label
 _atom_site_symmetry_multiplicity
 _atom_site_fract_x
 _atom_site_fract_y
 _atom_site_fract_z
 _atom_site_occupancy
  Y  Y0  1  0.50000000  0.36152400  0.32686900  1
  Y  Y1  1  0.50000000  0.63847600  0.67313100  1
  Y  Y2  1  0.50000000  0.13847600  0.82686900  1
  Y  Y3  1  0.50000000  0.86152400  0.17313100  1
  Mn  Mn4  1  0.00000000  0.09362700  0.14955800  1
  Mn  Mn5  1  0.00000000  0.90637300  0.85044200  1
  Mn  Mn6  1  0.00000000  0.40637300  0.64955800  1
  Mn  Mn7  1  0.00000000  0.59362700  0.35044200  1
  Cr  Cr8  1  0.24845600  0.00000000  0.50000000  1
  Cr  Cr9  1  0.75154400  0.00000000  0.50000000  1
  Cr  Cr10  1  0.75154400  0.50000000  0.00000000  1
  Cr  Cr11  1  0.24845600  0.50000000  0.00000000  1
  O  O12  1  0.00000000  0.35286500  0.07789700  1
  O  O13  1  0.00000000  0.64713500  0.92210300  1
  O  O14  1  0.00000000  0.14713500  0.57789700  1
  O  O15  1  0.00000000  0.85286500  0.42210300  1
  O  O16  1  0.50000000  0.33202900  0.05524800  1
  O  O17  1  0.50000000  0.66797100  0.94475200  1
  O  O18  1  0.50000000  0.16797100  0.55524800  1
  O  O19  1  0.50000000  0.83202900  0.44475200  1
  O  O20  1  0.22393200  0.00000000  0.00000000  1
  O  O21  1  0.77606800  0.00000000  0.00000000  1
  O  O22  1  0.77606800  0.50000000  0.50000000  1
  O  O23  1  0.22393200  0.50000000  0.50000000  1
  O  O24  1  0.25933800  0.10823300  0.28892600  1
  O  O25  1  0.74066200  0.89176700  0.71107400  1
  O  O26  1  0.25933800  0.89176700  0.71107400  1
  O  O27  1  0.74066200  0.39176700  0.78892600  1
  O  O28  1  0.74066200  0.10823300  0.28892600  1
  O  O29  1  0.25933800  0.60823300  0.21107400  1
  O  O30  1  0.74066200  0.60823300  0.21107400  1
  O  O31  1  0.25933800  0.39176700  0.78892600  1
