# generated using pymatgen
data_TmSbO4
_symmetry_space_group_name_H-M   'P 1'
_cell_length_a   5.34606730
_cell_length_b   7.62809871
_cell_length_c   7.52495412
_cell_angle_alpha   81.15853241
_cell_angle_beta   90.92643714
_cell_angle_gamma   91.50661233
_symmetry_Int_Tables_number   1
_chemical_formula_structural   TmSbO4
_chemical_formula_sum   'Tm4 Sb4 O16'
_cell_volume   303.09601798
_cell_formula_units_Z   4
loop_
 _symmetry_equiv_pos_site_id
 _symmetry_equiv_pos_as_xyz
  1  'x, y, z'
loop_
 _atom_site_type_symbol
 _atom_site_label
 _atom_site_symmetry_multiplicity
 _atom_site_fract_x
 _atom_site_fract_y
 _atom_site_fract_z
 _atom_site_occupancy
  Tm  Tm0  1  0.25883300  0.14267700  0.62544900  1
  Tm  Tm1  1  0.74116700  0.85732300  0.37455100  1
  Tm  Tm2  1  0.21759700  0.15616900  0.11418200  1
  Tm  Tm3  1  0.78240300  0.84383100  0.88581800  1
  Sb  Sb4  1  0.23857700  0.66037300  0.19252400  1
  Sb  Sb5  1  0.76142300  0.33962700  0.80747600  1
  Sb  Sb6  1  0.73332400  0.33180400  0.30887200  1
  Sb  Sb7  1  0.26667600  0.66819600  0.69112800  1
  O  O8  1  0.08716700  0.43398300  0.68805000  1
  O  O9  1  0.91283300  0.56601700  0.31195000  1
  O  O10  1  0.60941300  0.31758200  0.56099700  1
  O  O11  1  0.39058700  0.68241800  0.43900300  1
  O  O12  1  0.88344900  0.33391400  0.06179800  1
  O  O13  1  0.11655100  0.66608600  0.93820200  1
  O  O14  1  0.40120100  0.42563500  0.19997200  1
  O  O15  1  0.59879900  0.57436500  0.80002800  1
  O  O16  1  0.04309000  0.88723700  0.17089900  1
  O  O17  1  0.95691000  0.11276300  0.82910100  1
  O  O18  1  0.53489400  0.10429400  0.30724000  1
  O  O19  1  0.46510600  0.89570600  0.69276000  1
  O  O20  1  0.46039500  0.19849800  0.88357600  1
  O  O21  1  0.53960500  0.80150200  0.11642400  1
  O  O22  1  0.01730500  0.17595500  0.38328100  1
  O  O23  1  0.98269500  0.82404500  0.61671900  1
