# generated using pymatgen
data_Tm2SnAu2
_symmetry_space_group_name_H-M   'P 1'
_cell_length_a   8.29856400
_cell_length_b   8.29856400
_cell_length_c   3.52040100
_cell_angle_alpha   90.00000000
_cell_angle_beta   90.00000000
_cell_angle_gamma   90.00000000
_symmetry_Int_Tables_number   1
_chemical_formula_structural   Tm2SnAu2
_chemical_formula_sum   'Tm4 Sn2 Au4'
_cell_volume   242.43651424
_cell_formula_units_Z   2
loop_
 _symmetry_equiv_pos_site_id
 _symmetry_equiv_pos_as_xyz
  1  'x, y, z'
loop_
 _atom_site_type_symbol
 _atom_site_label
 _atom_site_symmetry_multiplicity
 _atom_site_fract_x
 _atom_site_fract_y
 _atom_site_fract_z
 _atom_site_occupancy
  Tm  Tm0  1  0.83692400  0.33692400  0.50000000  1
  Tm  Tm1  1  0.16307600  0.66307600  0.50000000  1
  Tm  Tm2  1  0.33692400  0.16307600  0.50000000  1
  Tm  Tm3  1  0.66307600  0.83692400  0.50000000  1
  Sn  Sn4  1  0.00000000  0.00000000  0.50000000  1
  Sn  Sn5  1  0.50000000  0.50000000  0.50000000  1
  Au  Au6  1  0.62866300  0.12866300  0.00000000  1
  Au  Au7  1  0.37133700  0.87133700  0.00000000  1
  Au  Au8  1  0.12866300  0.37133700  0.00000000  1
  Au  Au9  1  0.87133700  0.62866300  0.00000000  1
