# generated using pymatgen
data_Zr3CuF6
_symmetry_space_group_name_H-M   'P 1'
_cell_length_a   5.91990173
_cell_length_b   5.46689964
_cell_length_c   14.99135978
_cell_angle_alpha   107.07052544
_cell_angle_beta   54.69426013
_cell_angle_gamma   122.73013370
_symmetry_Int_Tables_number   1
_chemical_formula_structural   Zr3CuF6
_chemical_formula_sum   'Zr3 Cu1 F6'
_cell_volume   332.94840295
_cell_formula_units_Z   1
loop_
 _symmetry_equiv_pos_site_id
 _symmetry_equiv_pos_as_xyz
  1  'x, y, z'
loop_
 _atom_site_type_symbol
 _atom_site_label
 _atom_site_symmetry_multiplicity
 _atom_site_fract_x
 _atom_site_fract_y
 _atom_site_fract_z
 _atom_site_occupancy
  Zr  Zr0  1  0.00000000  0.00000000  0.50000000  1
  Zr  Zr1  1  0.50000000  0.50000000  0.00000000  1
  Zr  Zr2  1  0.00000000  0.50000000  0.00000000  1
  Cu  Cu3  1  0.00000000  0.00000000  0.00000000  1
  F  F4  1  0.81792700  0.32600300  0.89329100  1
  F  F5  1  0.18207300  0.67399700  0.10670900  1
  F  F6  1  0.93745700  0.04266200  0.64698100  1
  F  F7  1  0.06254300  0.95733800  0.35301900  1
  F  F8  1  0.49300500  0.65192200  0.88459100  1
  F  F9  1  0.50699500  0.34807800  0.11540900  1
