# generated using pymatgen
data_ZnH7C4N3O7
_symmetry_space_group_name_H-M   'P 1'
_cell_length_a   6.75953700
_cell_length_b   10.83034700
_cell_length_c   13.90745529
_cell_angle_alpha   59.22168740
_cell_angle_beta   90.00000000
_cell_angle_gamma   90.00000000
_symmetry_Int_Tables_number   1
_chemical_formula_structural   ZnH7C4N3O7
_chemical_formula_sum   'Zn4 H28 C16 N12 O28'
_cell_volume   874.73767882
_cell_formula_units_Z   4
loop_
 _symmetry_equiv_pos_site_id
 _symmetry_equiv_pos_as_xyz
  1  'x, y, z'
loop_
 _atom_site_type_symbol
 _atom_site_label
 _atom_site_symmetry_multiplicity
 _atom_site_fract_x
 _atom_site_fract_y
 _atom_site_fract_z
 _atom_site_occupancy
  Zn  Zn0  1  0.80996500  0.78008200  0.04835800  1
  Zn  Zn1  1  0.19003500  0.21991800  0.95164200  1
  Zn  Zn2  1  0.30996500  0.21991800  0.45164200  1
  Zn  Zn3  1  0.69003500  0.78008200  0.54835800  1
  H  H4  1  0.15490700  0.94430500  0.10229500  1
  H  H5  1  0.84509300  0.05569500  0.89770500  1
  H  H6  1  0.65490700  0.05569500  0.39770500  1
  H  H7  1  0.34509300  0.94430500  0.60229500  1
  H  H8  1  0.38797300  0.88696400  0.39818800  1
  H  H9  1  0.61202700  0.11303600  0.60181200  1
  H  H10  1  0.88797300  0.11303600  0.10181200  1
  H  H11  1  0.11202700  0.88696400  0.89818800  1
  H  H12  1  0.46809500  0.72183600  0.18747600  1
  H  H13  1  0.53190500  0.27816400  0.81252400  1
  H  H14  1  0.96809500  0.27816400  0.31252400  1
  H  H15  1  0.03190500  0.72183600  0.68747600  1
  H  H16  1  0.44642200  0.85856600  0.06774300  1
  H  H17  1  0.55357800  0.14143400  0.93225700  1
  H  H18  1  0.94642200  0.14143400  0.43225700  1
  H  H19  1  0.05357800  0.85856600  0.56774300  1
  H  H20  1  0.83186600  0.27359700  0.00690100  1
  H  H21  1  0.16813400  0.72640300  0.99309900  1
  H  H22  1  0.33186600  0.72640300  0.49309900  1
  H  H23  1  0.66813400  0.27359700  0.50690100  1
  H  H24  1  0.81708800  0.98076900  0.36003100  1
  H  H25  1  0.18291200  0.01923100  0.63996900  1
  H  H26  1  0.31708800  0.01923100  0.13996900  1
  H  H27  1  0.68291200  0.98076900  0.86003100  1
  H  H28  1  0.85915000  0.55175400  0.29289800  1
  H  H29  1  0.14085000  0.44824600  0.70710200  1
  H  H30  1  0.35915000  0.44824600  0.20710200  1
  H  H31  1  0.64085000  0.55175400  0.79289800  1
  C  C32  1  0.83193800  0.47128100  0.13077100  1
  C  C33  1  0.16806200  0.52871900  0.86922900  1
  C  C34  1  0.33193800  0.52871900  0.36922900  1
  C  C35  1  0.66806200  0.47128100  0.63077100  1
  C  C36  1  0.76001000  0.53881400  0.01277500  1
  C  C37  1  0.23999000  0.46118600  0.98722500  1
  C  C38  1  0.26001000  0.46118600  0.48722500  1
  C  C39  1  0.73999000  0.53881400  0.51277500  1
  C  C40  1  0.88573500  0.84108600  0.24748800  1
  C  C41  1  0.11426500  0.15891400  0.75251200  1
  C  C42  1  0.38573500  0.15891400  0.25251200  1
  C  C43  1  0.61426500  0.84108600  0.74748800  1
  C  C44  1  0.83028700  0.70227900  0.35044000  1
  C  C45  1  0.16971300  0.29772100  0.64956000  1
  C  C46  1  0.33028700  0.29772100  0.14956000  1
  C  C47  1  0.66971300  0.70227900  0.85044000  1
  N  N48  1  0.77171600  0.46865800  0.45837800  1
  N  N49  1  0.22828400  0.53134200  0.54162200  1
  N  N50  1  0.27171600  0.53134200  0.04162200  1
  N  N51  1  0.72828400  0.46865800  0.95837800  1
  N  N52  1  0.77417300  0.68222400  0.44954700  1
  N  N53  1  0.22582700  0.31777600  0.55045300  1
  N  N54  1  0.27417300  0.31777600  0.05045300  1
  N  N55  1  0.72582700  0.68222400  0.94954700  1
  N  N56  1  0.83006500  0.57339400  0.35669800  1
  N  N57  1  0.16993500  0.42660600  0.64330200  1
  N  N58  1  0.33006500  0.42660600  0.14330200  1
  N  N59  1  0.66993500  0.57339400  0.85669800  1
  O  O60  1  0.86122500  0.33834000  0.18587700  1
  O  O61  1  0.13877500  0.66166000  0.81412300  1
  O  O62  1  0.36122500  0.66166000  0.31412300  1
  O  O63  1  0.63877500  0.33834000  0.68587700  1
  O  O64  1  0.86106000  0.56045100  0.16458300  1
  O  O65  1  0.13894000  0.43954900  0.83541700  1
  O  O66  1  0.36106000  0.43954900  0.33541700  1
  O  O67  1  0.63894000  0.56045100  0.66458300  1
  O  O68  1  0.77226400  0.99079700  0.42440100  1
  O  O69  1  0.22773600  0.00920300  0.57559900  1
  O  O70  1  0.27226400  0.00920300  0.07559900  1
  O  O71  1  0.72773600  0.99079700  0.92440100  1
  O  O72  1  0.93963200  0.83242000  0.16306800  1
  O  O73  1  0.06036800  0.16758000  0.83693200  1
  O  O74  1  0.43963200  0.16758000  0.33693200  1
  O  O75  1  0.56036800  0.83242000  0.66306800  1
  O  O76  1  0.39627900  0.81596400  0.47947600  1
  O  O77  1  0.60372100  0.18403600  0.52052400  1
  O  O78  1  0.89627900  0.18403600  0.02052400  1
  O  O79  1  0.10372100  0.81596400  0.97947600  1
  O  O80  1  0.51832300  0.76717500  0.10849400  1
  O  O81  1  0.48167700  0.23282500  0.89150600  1
  O  O82  1  0.01832300  0.23282500  0.39150600  1
  O  O83  1  0.98167700  0.76717500  0.60849400  1
  O  O84  1  0.88079200  0.95500000  0.25096600  1
  O  O85  1  0.11920800  0.04500000  0.74903400  1
  O  O86  1  0.38079200  0.04500000  0.24903400  1
  O  O87  1  0.61920800  0.95500000  0.75096600  1
