# generated using pymatgen
data_YWO5
_symmetry_space_group_name_H-M   'P 1'
_cell_length_a   5.30339316
_cell_length_b   6.59824560
_cell_length_c   12.79358100
_cell_angle_alpha   90.00000000
_cell_angle_beta   90.00000000
_cell_angle_gamma   108.90106413
_symmetry_Int_Tables_number   1
_chemical_formula_structural   YWO5
_chemical_formula_sum   'Y4 W4 O20'
_cell_volume   423.54736478
_cell_formula_units_Z   4
loop_
 _symmetry_equiv_pos_site_id
 _symmetry_equiv_pos_as_xyz
  1  'x, y, z'
loop_
 _atom_site_type_symbol
 _atom_site_label
 _atom_site_symmetry_multiplicity
 _atom_site_fract_x
 _atom_site_fract_y
 _atom_site_fract_z
 _atom_site_occupancy
  Y  Y0  1  0.14463100  0.78328700  0.44372800  1
  Y  Y1  1  0.85536900  0.21671300  0.55627200  1
  Y  Y2  1  0.35536900  0.71671300  0.94372800  1
  Y  Y3  1  0.64463100  0.28328700  0.05627200  1
  W  W4  1  0.95611200  0.84564200  0.13882000  1
  W  W5  1  0.04388800  0.15435800  0.86118000  1
  W  W6  1  0.54388800  0.65435800  0.63882000  1
  W  W7  1  0.45611200  0.34564200  0.36118000  1
  O  O8  1  0.04376500  0.56518700  0.08807600  1
  O  O9  1  0.95623500  0.43481300  0.91192400  1
  O  O10  1  0.45623500  0.93481300  0.58807600  1
  O  O11  1  0.54376500  0.06518700  0.41192400  1
  O  O12  1  0.85334200  0.84280300  0.57113400  1
  O  O13  1  0.14665800  0.15719700  0.42886600  1
  O  O14  1  0.64665800  0.65719700  0.07113400  1
  O  O15  1  0.35334200  0.34280300  0.92886600  1
  O  O16  1  0.27289700  0.97185000  0.06559700  1
  O  O17  1  0.72710300  0.02815000  0.93440300  1
  O  O18  1  0.22710300  0.52815000  0.56559700  1
  O  O19  1  0.77289700  0.47185000  0.43440300  1
  O  O20  1  0.99884700  0.79231300  0.27418800  1
  O  O21  1  0.00115300  0.20768700  0.72581200  1
  O  O22  1  0.50115300  0.70768700  0.77418800  1
  O  O23  1  0.49884700  0.29231300  0.22581200  1
  O  O24  1  0.15650200  0.92308200  0.85286000  1
  O  O25  1  0.84349800  0.07691800  0.14714000  1
  O  O26  1  0.34349800  0.57691800  0.35286000  1
  O  O27  1  0.65650200  0.42308200  0.64714000  1
