# generated using pymatgen
data_Zn4P2H3O10
_symmetry_space_group_name_H-M   'P 1'
_cell_length_a   4.90782900
_cell_length_b   9.76747620
_cell_length_c   12.04022959
_cell_angle_alpha   119.77848551
_cell_angle_beta   90.00000000
_cell_angle_gamma   90.00000000
_symmetry_Int_Tables_number   1
_chemical_formula_structural   Zn4P2H3O10
_chemical_formula_sum   'Zn8 P4 H6 O20'
_cell_volume   500.95909258
_cell_formula_units_Z   2
loop_
 _symmetry_equiv_pos_site_id
 _symmetry_equiv_pos_as_xyz
  1  'x, y, z'
loop_
 _atom_site_type_symbol
 _atom_site_label
 _atom_site_symmetry_multiplicity
 _atom_site_fract_x
 _atom_site_fract_y
 _atom_site_fract_z
 _atom_site_occupancy
  Zn  Zn0  1  0.48851100  0.00000000  0.75000000  1
  Zn  Zn1  1  0.51148900  0.00000000  0.25000000  1
  Zn  Zn2  1  0.83504400  0.72034900  0.50982700  1
  Zn  Zn3  1  0.16495600  0.27965100  0.49017300  1
  Zn  Zn4  1  0.83504400  0.27965100  0.99017300  1
  Zn  Zn5  1  0.16495600  0.72034900  0.00982700  1
  Zn  Zn6  1  0.50000000  0.00000000  0.00000000  1
  Zn  Zn7  1  0.50000000  0.00000000  0.50000000  1
  P  P8  1  0.97979800  0.75697700  0.77335900  1
  P  P9  1  0.02020200  0.24302300  0.22664100  1
  P  P10  1  0.97979800  0.24302300  0.72664100  1
  P  P11  1  0.02020200  0.75697700  0.27335900  1
  H  H12  1  0.70401300  0.33986400  0.38016600  1
  H  H13  1  0.29598700  0.66013600  0.61983400  1
  H  H14  1  0.70401300  0.66013600  0.11983400  1
  H  H15  1  0.29598700  0.33986400  0.88016600  1
  H  H16  1  0.02381800  0.50000000  0.75000000  1
  H  H17  1  0.97618200  0.50000000  0.25000000  1
  O  O18  1  0.03271300  0.63979700  0.82787900  1
  O  O19  1  0.96728700  0.36020300  0.17212100  1
  O  O20  1  0.03271300  0.36020300  0.67212100  1
  O  O21  1  0.96728700  0.63979700  0.32787900  1
  O  O22  1  0.09487300  0.65346400  0.62271200  1
  O  O23  1  0.90512700  0.34653600  0.37728800  1
  O  O24  1  0.09487300  0.34653600  0.87728800  1
  O  O25  1  0.90512700  0.65346400  0.12271200  1
  O  O26  1  0.67989800  0.77339200  0.75637000  1
  O  O27  1  0.32010200  0.22660800  0.24363000  1
  O  O28  1  0.67989800  0.22660800  0.74363000  1
  O  O29  1  0.32010200  0.77339200  0.25637000  1
  O  O30  1  0.85251400  0.90501700  0.34566700  1
  O  O31  1  0.14748600  0.09498300  0.65433300  1
  O  O32  1  0.85251400  0.09498300  0.15433300  1
  O  O33  1  0.14748600  0.90501700  0.84566700  1
  O  O34  1  0.54468200  0.86584700  0.56928300  1
  O  O35  1  0.45531800  0.13415300  0.43071700  1
  O  O36  1  0.54468200  0.13415300  0.93071700  1
  O  O37  1  0.45531800  0.86584700  0.06928300  1
