# generated using pymatgen
data_YC
_symmetry_space_group_name_H-M   'P 1'
_cell_length_a   8.16414703
_cell_length_b   8.48049700
_cell_length_c   13.97979835
_cell_angle_alpha   90.00000000
_cell_angle_beta   104.37280296
_cell_angle_gamma   90.00000000
_symmetry_Int_Tables_number   1
_chemical_formula_structural   YC
_chemical_formula_sum   'Y2 C2'
_cell_volume   937.61127719
_cell_formula_units_Z   2
loop_
 _symmetry_equiv_pos_site_id
 _symmetry_equiv_pos_as_xyz
  1  'x, y, z'
loop_
 _atom_site_type_symbol
 _atom_site_label
 _atom_site_symmetry_multiplicity
 _atom_site_fract_x
 _atom_site_fract_y
 _atom_site_fract_z
 _atom_site_occupancy
  Y  Y0  1  0.31889800  0.15219200  0.23321900  1
  Y  Y1  1  0.68110200  0.65219200  0.76678100  1
  C  C2  1  0.17115500  0.00780800  0.27599300  1
  C  C3  1  0.82884500  0.50780800  0.72400700  1
