# generated using pymatgen
data_Yb3CoO6
_symmetry_space_group_name_H-M   'P 1'
_cell_length_a   8.72090006
_cell_length_b   8.72090006
_cell_length_c   8.72090006
_cell_angle_alpha   109.47122063
_cell_angle_beta   109.47122063
_cell_angle_gamma   109.47122063
_symmetry_Int_Tables_number   1
_chemical_formula_structural   Yb3CoO6
_chemical_formula_sum   'Yb12 Co4 O24'
_cell_volume   510.57793052
_cell_formula_units_Z   4
loop_
 _symmetry_equiv_pos_site_id
 _symmetry_equiv_pos_as_xyz
  1  'x, y, z'
loop_
 _atom_site_type_symbol
 _atom_site_label
 _atom_site_symmetry_multiplicity
 _atom_site_fract_x
 _atom_site_fract_y
 _atom_site_fract_z
 _atom_site_occupancy
  Yb  Yb0  1  0.20744300  0.95744300  0.25000000  1
  Yb  Yb1  1  0.79255700  0.04255700  0.75000000  1
  Yb  Yb2  1  0.29255700  0.54255700  0.75000000  1
  Yb  Yb3  1  0.95744300  0.25000000  0.20744300  1
  Yb  Yb4  1  0.70744300  0.45744300  0.25000000  1
  Yb  Yb5  1  0.04255700  0.75000000  0.79255700  1
  Yb  Yb6  1  0.54255700  0.75000000  0.29255700  1
  Yb  Yb7  1  0.45744300  0.25000000  0.70744300  1
  Yb  Yb8  1  0.25000000  0.20744300  0.95744300  1
  Yb  Yb9  1  0.75000000  0.79255700  0.04255700  1
  Yb  Yb10  1  0.75000000  0.29255700  0.54255700  1
  Yb  Yb11  1  0.25000000  0.70744300  0.45744300  1
  Co  Co12  1  0.50000000  0.50000000  0.50000000  1
  Co  Co13  1  0.00000000  0.50000000  0.00000000  1
  Co  Co14  1  0.00000000  0.00000000  0.50000000  1
  Co  Co15  1  0.50000000  0.00000000  0.00000000  1
  O  O16  1  0.05332100  0.30816100  0.00564300  1
  O  O17  1  0.94667900  0.69183900  0.99435700  1
  O  O18  1  0.44667900  0.45232200  0.25483900  1
  O  O19  1  0.69748200  0.19183900  0.24516100  1
  O  O20  1  0.30816100  0.00564300  0.05332100  1
  O  O21  1  0.55332100  0.54767800  0.74516100  1
  O  O22  1  0.30251800  0.80816100  0.75483900  1
  O  O23  1  0.69183900  0.99435700  0.94667900  1
  O  O24  1  0.80251800  0.04767800  0.49435700  1
  O  O25  1  0.45232200  0.25483900  0.44667900  1
  O  O26  1  0.19748200  0.95232200  0.50564300  1
  O  O27  1  0.54767800  0.74516100  0.55332100  1
  O  O28  1  0.19183900  0.24516100  0.69748200  1
  O  O29  1  0.80816100  0.75483900  0.30251800  1
  O  O30  1  0.04767800  0.49435700  0.80251800  1
  O  O31  1  0.95232200  0.50564300  0.19748200  1
  O  O32  1  0.00564300  0.05332100  0.30816100  1
  O  O33  1  0.99435700  0.94667900  0.69183900  1
  O  O34  1  0.24516100  0.69748200  0.19183900  1
  O  O35  1  0.75483900  0.30251800  0.80816100  1
  O  O36  1  0.49435700  0.80251800  0.04767800  1
  O  O37  1  0.50564300  0.19748200  0.95232200  1
  O  O38  1  0.25483900  0.44667900  0.45232200  1
  O  O39  1  0.74516100  0.55332100  0.54767800  1
