# generated using pymatgen
data_YbV2O2
_symmetry_space_group_name_H-M   'P 1'
_cell_length_a   7.71707743
_cell_length_b   7.71707743
_cell_length_c   7.71707743
_cell_angle_alpha   113.58645570
_cell_angle_beta   113.58645570
_cell_angle_gamma   101.52147468
_symmetry_Int_Tables_number   1
_chemical_formula_structural   YbV2O2
_chemical_formula_sum   'Yb4 V8 O8'
_cell_volume   348.77539040
_cell_formula_units_Z   4
loop_
 _symmetry_equiv_pos_site_id
 _symmetry_equiv_pos_as_xyz
  1  'x, y, z'
loop_
 _atom_site_type_symbol
 _atom_site_label
 _atom_site_symmetry_multiplicity
 _atom_site_fract_x
 _atom_site_fract_y
 _atom_site_fract_z
 _atom_site_occupancy
  Yb  Yb0  1  0.87500000  0.12500000  0.25000000  1
  Yb  Yb1  1  0.87500000  0.62500000  0.75000000  1
  Yb  Yb2  1  0.37500000  0.12500000  0.25000000  1
  Yb  Yb3  1  0.87500000  0.12500000  0.75000000  1
  V  V4  1  0.50265800  0.18518100  0.68252300  1
  V  V5  1  0.50265800  0.82013400  0.31747700  1
  V  V6  1  0.57013400  0.75265800  0.81747700  1
  V  V7  1  0.24734200  0.42986600  0.18252300  1
  V  V8  1  0.24734200  0.06481900  0.81747700  1
  V  V9  1  0.93518100  0.75265800  0.18252300  1
  V  V10  1  0.17986600  0.49734200  0.68252300  1
  V  V11  1  0.81481900  0.49734200  0.31747700  1
  O  O12  1  0.66352900  0.50030100  0.83677200  1
  O  O13  1  0.66352900  0.82675700  0.16322800  1
  O  O14  1  0.57675700  0.91352900  0.66322800  1
  O  O15  1  0.08647100  0.42324300  0.33677200  1
  O  O16  1  0.08647100  0.74969900  0.66322800  1
  O  O17  1  0.25030100  0.91352900  0.33677200  1
  O  O18  1  0.17324300  0.33647100  0.83677200  1
  O  O19  1  0.49969900  0.33647100  0.16322800  1
