# generated using pymatgen
data_YClO2
_symmetry_space_group_name_H-M   'P 1'
_cell_length_a   3.59620800
_cell_length_b   6.27805100
_cell_length_c   11.89600100
_cell_angle_alpha   90.00000000
_cell_angle_beta   90.00000000
_cell_angle_gamma   90.00000000
_symmetry_Int_Tables_number   1
_chemical_formula_structural   YClO2
_chemical_formula_sum   'Y4 Cl4 O8'
_cell_volume   268.57812291
_cell_formula_units_Z   4
loop_
 _symmetry_equiv_pos_site_id
 _symmetry_equiv_pos_as_xyz
  1  'x, y, z'
loop_
 _atom_site_type_symbol
 _atom_site_label
 _atom_site_symmetry_multiplicity
 _atom_site_fract_x
 _atom_site_fract_y
 _atom_site_fract_z
 _atom_site_occupancy
  Y  Y0  1  0.25000000  0.75229700  0.08141600  1
  Y  Y1  1  0.75000000  0.24770300  0.91858400  1
  Y  Y2  1  0.75000000  0.25229700  0.41858400  1
  Y  Y3  1  0.25000000  0.74770300  0.58141600  1
  Cl  Cl4  1  0.25000000  0.09614700  0.26058700  1
  Cl  Cl5  1  0.75000000  0.90385300  0.73941300  1
  Cl  Cl6  1  0.75000000  0.59614700  0.23941300  1
  Cl  Cl7  1  0.25000000  0.40385300  0.76058700  1
  O  O8  1  0.25000000  0.40332900  0.02863300  1
  O  O9  1  0.75000000  0.59667100  0.97136700  1
  O  O10  1  0.75000000  0.90332900  0.47136700  1
  O  O11  1  0.25000000  0.09667100  0.52863300  1
  O  O12  1  0.25000000  0.50921900  0.43567300  1
  O  O13  1  0.75000000  0.49078100  0.56432700  1
  O  O14  1  0.75000000  0.00921900  0.06432700  1
  O  O15  1  0.25000000  0.99078100  0.93567300  1
