# generated using pymatgen
data_ZnFePO5
_symmetry_space_group_name_H-M   'P 1'
_cell_length_a   9.75293193
_cell_length_b   12.08134826
_cell_length_c   12.87985082
_cell_angle_alpha   90.00000000
_cell_angle_beta   90.00000000
_cell_angle_gamma   107.74883217
_symmetry_Int_Tables_number   1
_chemical_formula_structural   ZnFePO5
_chemical_formula_sum   'Zn16 Fe16 P16 O80'
_cell_volume   1445.37897852
_cell_formula_units_Z   16
loop_
 _symmetry_equiv_pos_site_id
 _symmetry_equiv_pos_as_xyz
  1  'x, y, z'
loop_
 _atom_site_type_symbol
 _atom_site_label
 _atom_site_symmetry_multiplicity
 _atom_site_fract_x
 _atom_site_fract_y
 _atom_site_fract_z
 _atom_site_occupancy
  Zn  Zn0  1  0.29570249  0.80629111  0.76008430  1
  Zn  Zn1  1  0.70429751  0.19370889  0.23991570  1
  Zn  Zn2  1  0.70429751  0.69370889  0.26008430  1
  Zn  Zn3  1  0.29570249  0.30629111  0.73991570  1
  Zn  Zn4  1  0.54514996  0.90533085  0.56961149  1
  Zn  Zn5  1  0.45485004  0.09466915  0.43038851  1
  Zn  Zn6  1  0.45485004  0.59466915  0.06961149  1
  Zn  Zn7  1  0.54514996  0.40533085  0.93038851  1
  Zn  Zn8  1  0.95996200  0.58793230  0.18045012  1
  Zn  Zn9  1  0.04003800  0.41206770  0.81954988  1
  Zn  Zn10  1  0.04003800  0.91206770  0.68045012  1
  Zn  Zn11  1  0.95996200  0.08793230  0.31954988  1
  Zn  Zn12  1  0.80042241  0.80321696  0.48871588  1
  Zn  Zn13  1  0.19957759  0.19678304  0.51128412  1
  Zn  Zn14  1  0.19957759  0.69678304  0.98871588  1
  Zn  Zn15  1  0.80042241  0.30321696  0.01128412  1
  Fe  Fe16  1  0.47808181  0.61336213  0.56954352  1
  Fe  Fe17  1  0.52191819  0.38663787  0.43045648  1
  Fe  Fe18  1  0.52191819  0.88663787  0.06954352  1
  Fe  Fe19  1  0.47808181  0.11336213  0.93045648  1
  Fe  Fe20  1  0.77854654  0.80038473  0.00724675  1
  Fe  Fe21  1  0.22145346  0.19961527  0.99275325  1
  Fe  Fe22  1  0.22145346  0.69961527  0.50724675  1
  Fe  Fe23  1  0.77854654  0.30038473  0.49275325  1
  Fe  Fe24  1  0.98034019  0.62096233  0.67836238  1
  Fe  Fe25  1  0.01965981  0.37903767  0.32163762  1
  Fe  Fe26  1  0.01965981  0.87903767  0.17836238  1
  Fe  Fe27  1  0.98034019  0.12096233  0.82163762  1
  Fe  Fe28  1  0.71653669  0.69791805  0.74027556  1
  Fe  Fe29  1  0.28346331  0.30208195  0.25972444  1
  Fe  Fe30  1  0.28346331  0.80208195  0.24027556  1
  Fe  Fe31  1  0.71653669  0.19791805  0.75972444  1
  P  P32  1  0.87905371  0.57747842  0.92646215  1
  P  P33  1  0.12094629  0.42252158  0.07353785  1
  P  P34  1  0.12094629  0.92252158  0.42646215  1
  P  P35  1  0.87905371  0.07747842  0.57353785  1
  P  P36  1  0.88492774  0.57313933  0.42253128  1
  P  P37  1  0.11507226  0.42686067  0.57746872  1
  P  P38  1  0.11507226  0.92686067  0.92253128  1
  P  P39  1  0.88492774  0.07313933  0.07746872  1
  P  P40  1  0.37964194  0.57463661  0.82647187  1
  P  P41  1  0.62035806  0.42536339  0.17352813  1
  P  P42  1  0.62035806  0.92536339  0.32647187  1
  P  P43  1  0.37964194  0.07463661  0.67352813  1
  P  P44  1  0.61866615  0.92166241  0.82196273  1
  P  P45  1  0.38133385  0.07833759  0.17803727  1
  P  P46  1  0.38133385  0.57833759  0.32196273  1
  P  P47  1  0.61866615  0.42166241  0.67803727  1
  O  O48  1  0.47081877  0.54631244  0.91455956  1
  O  O49  1  0.52918123  0.45368756  0.08544044  1
  O  O50  1  0.52918123  0.95368756  0.41455956  1
  O  O51  1  0.47081877  0.04631244  0.58544044  1
  O  O52  1  0.98909923  0.61942589  0.51573581  1
  O  O53  1  0.01090077  0.38057411  0.48426419  1
  O  O54  1  0.01090077  0.88057411  0.01573581  1
  O  O55  1  0.98909923  0.11942589  0.98426419  1
  O  O56  1  0.91608969  0.75411180  0.70785273  1
  O  O57  1  0.08391031  0.24588820  0.29214727  1
  O  O58  1  0.08391031  0.74588820  0.20785273  1
  O  O59  1  0.91608969  0.25411180  0.79214727  1
  O  O60  1  0.75883576  0.46583583  0.45785968  1
  O  O61  1  0.24116424  0.53416417  0.54214032  1
  O  O62  1  0.24116424  0.03416417  0.95785968  1
  O  O63  1  0.75883576  0.96583583  0.04214032  1
  O  O64  1  0.48337746  0.61559305  0.73121332  1
  O  O65  1  0.51662254  0.38440695  0.26878668  1
  O  O66  1  0.51662254  0.88440695  0.23121332  1
  O  O67  1  0.48337746  0.11559305  0.76878668  1
  O  O68  1  0.68135475  0.82610475  0.35931897  1
  O  O69  1  0.31864525  0.17389525  0.64068103  1
  O  O70  1  0.31864525  0.67389525  0.85931897  1
  O  O71  1  0.68135475  0.32610475  0.14068103  1
  O  O72  1  0.79944467  0.66971191  0.90808687  1
  O  O73  1  0.20055533  0.33028809  0.09191313  1
  O  O74  1  0.20055533  0.83028809  0.40808687  1
  O  O75  1  0.79944467  0.16971191  0.59191313  1
  O  O76  1  0.51096549  0.87930449  0.73112403  1
  O  O77  1  0.48903451  0.12069551  0.26887597  1
  O  O78  1  0.48903451  0.62069551  0.23112403  1
  O  O79  1  0.51096549  0.37930449  0.76887597  1
  O  O80  1  0.82599149  0.67201740  0.38685393  1
  O  O81  1  0.17400851  0.32798260  0.61314607  1
  O  O82  1  0.17400851  0.82798260  0.88685393  1
  O  O83  1  0.82599149  0.17201740  0.11314607  1
  O  O84  1  0.98375379  0.11554495  0.47959908  1
  O  O85  1  0.01624621  0.88445505  0.52040092  1
  O  O86  1  0.01624621  0.38445505  0.97959908  1
  O  O87  1  0.98375379  0.61554495  0.02040092  1
  O  O88  1  0.73802079  0.53588948  0.70793180  1
  O  O89  1  0.26197921  0.46411052  0.29206820  1
  O  O90  1  0.26197921  0.96411052  0.20793180  1
  O  O91  1  0.73802079  0.03588948  0.79206820  1
  O  O92  1  0.97643077  0.56766965  0.83220200  1
  O  O93  1  0.02356923  0.43233035  0.16779800  1
  O  O94  1  0.02356923  0.93233035  0.33220200  1
  O  O95  1  0.97643077  0.06766965  0.66779800  1
  O  O96  1  0.82681458  0.78213509  0.15205176  1
  O  O97  1  0.17318542  0.21786491  0.84794824  1
  O  O98  1  0.17318542  0.71786491  0.65205176  1
  O  O99  1  0.82681458  0.28213509  0.34794824  1
  O  O100  1  0.25612699  0.96452786  0.70430887  1
  O  O101  1  0.74387301  0.03547214  0.29569113  1
  O  O102  1  0.74387301  0.53547214  0.20430887  1
  O  O103  1  0.25612699  0.46452786  0.79569113  1
  O  O104  1  0.67221715  0.70947249  0.59296171  1
  O  O105  1  0.32778285  0.29052751  0.40703829  1
  O  O106  1  0.32778285  0.79052751  0.09296171  1
  O  O107  1  0.67221715  0.20947249  0.90703829  1
  O  O108  1  0.97559486  0.53779904  0.33658917  1
  O  O109  1  0.02440514  0.46220096  0.66341083  1
  O  O110  1  0.02440514  0.96220096  0.83658917  1
  O  O111  1  0.97559486  0.03779904  0.16341083  1
  O  O112  1  0.42048613  0.74847705  0.54135430  1
  O  O113  1  0.57951387  0.25152295  0.45864570  1
  O  O114  1  0.57951387  0.75152295  0.04135430  1
  O  O115  1  0.42048613  0.24847705  0.95864570  1
  O  O116  1  0.69437109  0.82785076  0.84407127  1
  O  O117  1  0.30562891  0.17214924  0.15592873  1
  O  O118  1  0.30562891  0.67214924  0.34407127  1
  O  O119  1  0.69437109  0.32785076  0.65592873  1
  O  O120  1  0.76527405  0.95783427  0.55429690  1
  O  O121  1  0.23472595  0.04216573  0.44570310  1
  O  O122  1  0.23472595  0.54216573  0.05429690  1
  O  O123  1  0.76527405  0.45783427  0.94570310  1
  O  O124  1  0.52808304  0.94434077  0.91625833  1
  O  O125  1  0.47191696  0.05565923  0.08374167  1
  O  O126  1  0.47191696  0.55565923  0.41625833  1
  O  O127  1  0.52808304  0.44434077  0.58374167  1
