# generated using pymatgen
data_V2Cu3H2O9
_symmetry_space_group_name_H-M   'P 1'
_cell_length_a   6.12154925
_cell_length_b   6.12154925
_cell_length_c   7.42420087
_cell_angle_alpha   82.53361370
_cell_angle_beta   82.53361370
_cell_angle_gamma   55.15937356
_symmetry_Int_Tables_number   1
_chemical_formula_structural   V2Cu3H2O9
_chemical_formula_sum   'V2 Cu3 H2 O9'
_cell_volume   225.87198459
_cell_formula_units_Z   1
loop_
 _symmetry_equiv_pos_site_id
 _symmetry_equiv_pos_as_xyz
  1  'x, y, z'
loop_
 _atom_site_type_symbol
 _atom_site_label
 _atom_site_symmetry_multiplicity
 _atom_site_fract_x
 _atom_site_fract_y
 _atom_site_fract_z
 _atom_site_occupancy
  V  V0  1  0.50408900  0.50408900  0.25700600  1
  V  V1  1  0.49591100  0.49591100  0.74299400  1
  Cu  Cu2  1  0.50000000  0.00000000  0.00000000  1
  Cu  Cu3  1  0.00000000  0.50000000  0.00000000  1
  Cu  Cu4  1  0.00000000  0.00000000  0.00000000  1
  H  H5  1  0.83794000  0.83794000  0.45874900  1
  H  H6  1  0.16206000  0.16206000  0.54125100  1
  O  O7  1  0.15106200  0.15106200  0.09802800  1
  O  O8  1  0.84893800  0.84893800  0.90197200  1
  O  O9  1  0.66621900  0.66621900  0.14114100  1
  O  O10  1  0.33378100  0.33378100  0.85885900  1
  O  O11  1  0.67050300  0.19031700  0.18829600  1
  O  O12  1  0.32949700  0.80968300  0.81170400  1
  O  O13  1  0.80968300  0.32949700  0.81170400  1
  O  O14  1  0.19031700  0.67050300  0.18829600  1
  O  O15  1  0.50000000  0.50000000  0.50000000  1
