# generated using pymatgen
data_TmCrTeO6
_symmetry_space_group_name_H-M   'P 1'
_cell_length_a   5.36267494
_cell_length_b   5.36267494
_cell_length_c   8.66263900
_cell_angle_alpha   90.00000000
_cell_angle_beta   90.00000000
_cell_angle_gamma   120.00001158
_symmetry_Int_Tables_number   1
_chemical_formula_structural   TmCrTeO6
_chemical_formula_sum   'Tm2 Cr2 Te2 O12'
_cell_volume   215.74649200
_cell_formula_units_Z   2
loop_
 _symmetry_equiv_pos_site_id
 _symmetry_equiv_pos_as_xyz
  1  'x, y, z'
loop_
 _atom_site_type_symbol
 _atom_site_label
 _atom_site_symmetry_multiplicity
 _atom_site_fract_x
 _atom_site_fract_y
 _atom_site_fract_z
 _atom_site_occupancy
  Tm  Tm0  1  0.33333300  0.66666700  0.75000000  1
  Tm  Tm1  1  0.66666700  0.33333300  0.25000000  1
  Cr  Cr2  1  0.00000000  0.00000000  0.00000000  1
  Cr  Cr3  1  0.00000000  0.00000000  0.50000000  1
  Te  Te4  1  0.66666700  0.33333300  0.75000000  1
  Te  Te5  1  0.33333300  0.66666700  0.25000000  1
  O  O6  1  0.96290300  0.31502800  0.87514200  1
  O  O7  1  0.03709700  0.68497200  0.12485800  1
  O  O8  1  0.35212500  0.03709700  0.87514200  1
  O  O9  1  0.35212500  0.31502800  0.62485800  1
  O  O10  1  0.64787500  0.96290300  0.12485800  1
  O  O11  1  0.64787500  0.68497200  0.37514200  1
  O  O12  1  0.68497200  0.64787500  0.87514200  1
  O  O13  1  0.68497200  0.03709700  0.62485800  1
  O  O14  1  0.31502800  0.35212500  0.12485800  1
  O  O15  1  0.31502800  0.96290300  0.37514200  1
  O  O16  1  0.96290300  0.64787500  0.62485800  1
  O  O17  1  0.03709700  0.35212500  0.37514200  1
