# generated using pymatgen
data_Tm4Al
_symmetry_space_group_name_H-M   'P 1'
_cell_length_a   7.78860725
_cell_length_b   7.78860725
_cell_length_c   7.78860725
_cell_angle_alpha   60.00000000
_cell_angle_beta   60.00000000
_cell_angle_gamma   60.00000000
_symmetry_Int_Tables_number   1
_chemical_formula_structural   Tm4Al
_chemical_formula_sum   'Tm8 Al2'
_cell_volume   334.09072217
_cell_formula_units_Z   2
loop_
 _symmetry_equiv_pos_site_id
 _symmetry_equiv_pos_as_xyz
  1  'x, y, z'
loop_
 _atom_site_type_symbol
 _atom_site_label
 _atom_site_symmetry_multiplicity
 _atom_site_fract_x
 _atom_site_fract_y
 _atom_site_fract_z
 _atom_site_occupancy
  Tm  Tm0  1  0.60586600  0.60586600  0.60586600  1
  Tm  Tm1  1  0.18240200  0.60586600  0.60586600  1
  Tm  Tm2  1  0.60586600  0.18240200  0.60586600  1
  Tm  Tm3  1  0.56759800  0.14413400  0.14413400  1
  Tm  Tm4  1  0.14413400  0.14413400  0.14413400  1
  Tm  Tm5  1  0.60586600  0.60586600  0.18240200  1
  Tm  Tm6  1  0.14413400  0.56759800  0.14413400  1
  Tm  Tm7  1  0.14413400  0.14413400  0.56759800  1
  Al  Al8  1  0.00000000  0.00000000  0.00000000  1
  Al  Al9  1  0.75000000  0.75000000  0.75000000  1
