# generated using pymatgen
data_U3TlF13
_symmetry_space_group_name_H-M   'P 1'
_cell_length_a   7.39772600
_cell_length_b   8.05725400
_cell_length_c   8.58130900
_cell_angle_alpha   90.00000000
_cell_angle_beta   90.00000000
_cell_angle_gamma   90.00000000
_symmetry_Int_Tables_number   1
_chemical_formula_structural   U3TlF13
_chemical_formula_sum   'U6 Tl2 F26'
_cell_volume   511.49198994
_cell_formula_units_Z   2
loop_
 _symmetry_equiv_pos_site_id
 _symmetry_equiv_pos_as_xyz
  1  'x, y, z'
loop_
 _atom_site_type_symbol
 _atom_site_label
 _atom_site_symmetry_multiplicity
 _atom_site_fract_x
 _atom_site_fract_y
 _atom_site_fract_z
 _atom_site_occupancy
  U  U0  1  0.10291400  0.25221200  0.62092500  1
  U  U1  1  0.89708600  0.74778800  0.12092500  1
  U  U2  1  0.89708600  0.25221200  0.12092500  1
  U  U3  1  0.10291400  0.74778800  0.62092500  1
  U  U4  1  0.39030900  0.00000000  0.95798400  1
  U  U5  1  0.60969100  0.00000000  0.45798400  1
  Tl  Tl6  1  0.60175800  0.50000000  0.76297000  1
  Tl  Tl7  1  0.39824200  0.50000000  0.26297000  1
  F  F8  1  0.38715200  0.19061500  0.50462600  1
  F  F9  1  0.61284800  0.80938500  0.00462600  1
  F  F10  1  0.61284800  0.19061500  0.00462600  1
  F  F11  1  0.38715200  0.80938500  0.50462600  1
  F  F12  1  0.09951100  0.00000000  0.50093900  1
  F  F13  1  0.90048900  0.00000000  0.00093900  1
  F  F14  1  0.04792200  0.30175000  0.36637200  1
  F  F15  1  0.95207800  0.69825000  0.86637200  1
  F  F16  1  0.95207800  0.30175000  0.86637200  1
  F  F17  1  0.04792200  0.69825000  0.36637200  1
  F  F18  1  0.27041400  0.50000000  0.59044300  1
  F  F19  1  0.72958600  0.50000000  0.09044300  1
  F  F20  1  0.06146400  0.50000000  0.11292800  1
  F  F21  1  0.93853600  0.50000000  0.61292800  1
  F  F22  1  0.19179100  0.17032600  0.09556300  1
  F  F23  1  0.80820900  0.82967400  0.59556300  1
  F  F24  1  0.80820900  0.17032600  0.59556300  1
  F  F25  1  0.19179100  0.82967400  0.09556300  1
  F  F26  1  0.13934000  0.00000000  0.78133200  1
  F  F27  1  0.86066000  0.00000000  0.28133200  1
  F  F28  1  0.53380900  0.00000000  0.72929300  1
  F  F29  1  0.46619100  0.00000000  0.22929300  1
  F  F30  1  0.31867900  0.25638600  0.81532000  1
  F  F31  1  0.68132100  0.74361400  0.31532000  1
  F  F32  1  0.68132100  0.25638600  0.31532000  1
  F  F33  1  0.31867900  0.74361400  0.81532000  1
