# generated using pymatgen
data_TlCr(SO4)2
_symmetry_space_group_name_H-M   'P 1'
_cell_length_a   4.94628571
_cell_length_b   4.94628571
_cell_length_c   8.71046100
_cell_angle_alpha   90.00000000
_cell_angle_beta   90.00000000
_cell_angle_gamma   119.99999617
_symmetry_Int_Tables_number   1
_chemical_formula_structural   TlCr(SO4)2
_chemical_formula_sum   'Tl1 Cr1 S2 O8'
_cell_volume   184.55685767
_cell_formula_units_Z   1
loop_
 _symmetry_equiv_pos_site_id
 _symmetry_equiv_pos_as_xyz
  1  'x, y, z'
loop_
 _atom_site_type_symbol
 _atom_site_label
 _atom_site_symmetry_multiplicity
 _atom_site_fract_x
 _atom_site_fract_y
 _atom_site_fract_z
 _atom_site_occupancy
  Tl  Tl0  1  0.00000000  0.00000000  0.50000000  1
  Cr  Cr1  1  0.00000000  0.00000000  0.00000000  1
  S  S2  1  0.66666700  0.33333300  0.79532400  1
  S  S3  1  0.33333300  0.66666700  0.20467600  1
  O  O4  1  0.90714700  0.25966300  0.85237200  1
  O  O5  1  0.35251700  0.09285300  0.85237200  1
  O  O6  1  0.64748300  0.74033700  0.14762800  1
  O  O7  1  0.74033700  0.64748300  0.85237200  1
  O  O8  1  0.25966300  0.90714700  0.14762800  1
  O  O9  1  0.09285300  0.35251700  0.14762800  1
  O  O10  1  0.66666700  0.33333300  0.62754500  1
  O  O11  1  0.33333300  0.66666700  0.37245500  1
