# generated using pymatgen
data_YC9(BrO4)3
_symmetry_space_group_name_H-M   'P 1'
_cell_length_a   9.52696700
_cell_length_b   9.91468658
_cell_length_c   11.24350039
_cell_angle_alpha   66.87650424
_cell_angle_beta   69.63163920
_cell_angle_gamma   78.88625440
_symmetry_Int_Tables_number   1
_chemical_formula_structural   YC9(BrO4)3
_chemical_formula_sum   'Y2 C18 Br6 O24'
_cell_volume   913.69596756
_cell_formula_units_Z   2
loop_
 _symmetry_equiv_pos_site_id
 _symmetry_equiv_pos_as_xyz
  1  'x, y, z'
loop_
 _atom_site_type_symbol
 _atom_site_label
 _atom_site_symmetry_multiplicity
 _atom_site_fract_x
 _atom_site_fract_y
 _atom_site_fract_z
 _atom_site_occupancy
  Y  Y0  1  0.27878900  0.26100600  0.24580200  1
  Y  Y1  1  0.72121100  0.73899400  0.75419800  1
  C  C2  1  0.41292300  0.00546000  0.13271900  1
  C  C3  1  0.58707700  0.99454000  0.86728100  1
  C  C4  1  0.48000100  0.14162200  0.01243800  1
  C  C5  1  0.51999900  0.85837800  0.98756200  1
  C  C6  1  0.13706800  0.41101800  0.46973600  1
  C  C7  1  0.86293200  0.58898200  0.53026400  1
  C  C8  1  0.43641600  0.86935900  0.11536900  1
  C  C9  1  0.56358400  0.13064100  0.88463100  1
  C  C10  1  0.06063300  0.35865000  0.07067200  1
  C  C11  1  0.93936700  0.64135000  0.92932800  1
  C  C12  1  0.94192100  0.36250700  0.02096400  1
  C  C13  1  0.05807900  0.63749300  0.97903600  1
  C  C14  1  0.00749800  0.42184600  0.41453500  1
  C  C15  1  0.99250200  0.57815400  0.58546500  1
  C  C16  1  0.12083800  0.48237500  0.56012600  1
  C  C17  1  0.87916200  0.51762500  0.43987400  1
  C  C18  1  0.12249100  0.50173500  0.04761600  1
  C  C19  1  0.87750900  0.49826500  0.95238400  1
  Br  Br20  1  0.87582200  0.18504800  0.04449800  1
  Br  Br21  1  0.12417800  0.81495200  0.95550200  1
  Br  Br22  1  0.27421200  0.45811400  0.63788400  1
  Br  Br23  1  0.72578800  0.54188600  0.36211600  1
  Br  Br24  1  0.36005600  0.70196700  0.26380800  1
  Br  Br25  1  0.63994400  0.29803300  0.73619200  1
  O  O26  1  0.37669700  0.08566200  0.64283300  1
  O  O27  1  0.62330300  0.91433800  0.35716700  1
  O  O28  1  0.93836100  0.92695700  0.35098200  1
  O  O29  1  0.06163900  0.07304300  0.64901800  1
  O  O30  1  0.12335100  0.24166600  0.13478000  1
  O  O31  1  0.87664900  0.75833400  0.86522000  1
  O  O32  1  0.25471900  0.33759000  0.42498000  1
  O  O33  1  0.74528100  0.66241000  0.57502000  1
  O  O34  1  0.45342900  0.25963700  0.03709700  1
  O  O35  1  0.54657100  0.74036300  0.96290300  1
  O  O36  1  0.54166600  0.32781200  0.23460100  1
  O  O37  1  0.45833400  0.67218800  0.76539900  1
  O  O38  1  0.52881600  0.19170000  0.30190200  1
  O  O39  1  0.47118400  0.80830000  0.69809800  1
  O  O40  1  0.75881900  0.07538500  0.43299800  1
  O  O41  1  0.24118100  0.92461500  0.56700200  1
  O  O42  1  0.22984000  0.48637800  0.09525500  1
  O  O43  1  0.77016000  0.51362200  0.90474500  1
  O  O44  1  0.33812900  0.02698200  0.24268600  1
  O  O45  1  0.66187100  0.97301800  0.75731400  1
  O  O46  1  0.02775100  0.34108900  0.34567300  1
  O  O47  1  0.97224900  0.65891100  0.65432700  1
  O  O48  1  0.13507000  0.02728800  0.54896100  1
  O  O49  1  0.86493000  0.97271200  0.45103900  1
