# generated using pymatgen
data_Yb4(GeO5)3
_symmetry_space_group_name_H-M   'P 1'
_cell_length_a   9.61142259
_cell_length_b   9.61142259
_cell_length_c   6.95395000
_cell_angle_alpha   90.00000000
_cell_angle_beta   90.00000000
_cell_angle_gamma   109.65240868
_symmetry_Int_Tables_number   1
_chemical_formula_structural   Yb4(GeO5)3
_chemical_formula_sum   'Yb8 Ge6 O30'
_cell_volume   604.98225915
_cell_formula_units_Z   2
loop_
 _symmetry_equiv_pos_site_id
 _symmetry_equiv_pos_as_xyz
  1  'x, y, z'
loop_
 _atom_site_type_symbol
 _atom_site_label
 _atom_site_symmetry_multiplicity
 _atom_site_fract_x
 _atom_site_fract_y
 _atom_site_fract_z
 _atom_site_occupancy
  Yb  Yb0  1  0.06866200  0.32793400  0.25000000  1
  Yb  Yb1  1  0.93133800  0.67206600  0.75000000  1
  Yb  Yb2  1  0.32793400  0.06866200  0.25000000  1
  Yb  Yb3  1  0.67206600  0.93133800  0.75000000  1
  Yb  Yb4  1  0.73511700  0.41714700  0.25000000  1
  Yb  Yb5  1  0.26488300  0.58285300  0.75000000  1
  Yb  Yb6  1  0.41714700  0.73511700  0.25000000  1
  Yb  Yb7  1  0.58285300  0.26488300  0.75000000  1
  Ge  Ge8  1  0.04939700  0.73599600  0.25000000  1
  Ge  Ge9  1  0.95060300  0.26400400  0.75000000  1
  Ge  Ge10  1  0.73599600  0.04939700  0.25000000  1
  Ge  Ge11  1  0.26400400  0.95060300  0.75000000  1
  Ge  Ge12  1  0.00000000  0.00000000  0.00000000  1
  Ge  Ge13  1  0.00000000  0.00000000  0.50000000  1
  O  O14  1  0.99075900  0.54150100  0.25000000  1
  O  O15  1  0.00924100  0.45849900  0.75000000  1
  O  O16  1  0.54150100  0.99075900  0.25000000  1
  O  O17  1  0.45849900  0.00924100  0.75000000  1
  O  O18  1  0.96418500  0.79183600  0.04797700  1
  O  O19  1  0.03581500  0.20816400  0.95202300  1
  O  O20  1  0.03581500  0.20816400  0.54797700  1
  O  O21  1  0.79183600  0.96418500  0.45202300  1
  O  O22  1  0.96418500  0.79183600  0.45202300  1
  O  O23  1  0.20816400  0.03581500  0.54797700  1
  O  O24  1  0.20816400  0.03581500  0.95202300  1
  O  O25  1  0.79183600  0.96418500  0.04797700  1
  O  O26  1  0.06671700  0.06671700  0.25000000  1
  O  O27  1  0.93328300  0.93328300  0.75000000  1
  O  O28  1  0.40611000  0.40611000  0.25000000  1
  O  O29  1  0.59389000  0.59389000  0.75000000  1
  O  O30  1  0.24003900  0.53109000  0.09439600  1
  O  O31  1  0.75996100  0.46891000  0.90560400  1
  O  O32  1  0.75996100  0.46891000  0.59439600  1
  O  O33  1  0.53109000  0.24003900  0.40560400  1
  O  O34  1  0.24003900  0.53109000  0.40560400  1
  O  O35  1  0.46891000  0.75996100  0.59439600  1
  O  O36  1  0.46891000  0.75996100  0.90560400  1
  O  O37  1  0.53109000  0.24003900  0.09439600  1
  O  O38  1  0.52121800  0.52121800  0.25000000  1
  O  O39  1  0.47878200  0.47878200  0.75000000  1
  O  O40  1  0.82222300  0.23906600  0.25000000  1
  O  O41  1  0.17777700  0.76093400  0.75000000  1
  O  O42  1  0.23906600  0.82222300  0.25000000  1
  O  O43  1  0.76093400  0.17777700  0.75000000  1
