# generated using pymatgen
data_TmAg(WO4)2
_symmetry_space_group_name_H-M   'P 1'
_cell_length_a   7.32965593
_cell_length_b   7.32965593
_cell_length_c   7.28485331
_cell_angle_alpha   65.97202242
_cell_angle_beta   65.97202242
_cell_angle_gamma   94.30640301
_symmetry_Int_Tables_number   1
_chemical_formula_structural   TmAg(WO4)2
_chemical_formula_sum   'Tm2 Ag2 W4 O16'
_cell_volume   312.57401003
_cell_formula_units_Z   2
loop_
 _symmetry_equiv_pos_site_id
 _symmetry_equiv_pos_as_xyz
  1  'x, y, z'
loop_
 _atom_site_type_symbol
 _atom_site_label
 _atom_site_symmetry_multiplicity
 _atom_site_fract_x
 _atom_site_fract_y
 _atom_site_fract_z
 _atom_site_occupancy
  Tm  Tm0  1  0.69842200  0.30157800  0.00000000  1
  Tm  Tm1  1  0.30157800  0.69842200  0.00000000  1
  Ag  Ag2  1  0.68147400  0.68147400  0.48176400  1
  Ag  Ag3  1  0.31852600  0.31852600  0.51823600  1
  W  W4  1  0.21133400  0.21133400  0.03177700  1
  W  W5  1  0.78866600  0.78866600  0.96822300  1
  W  W6  1  0.83428200  0.16571800  0.50000000  1
  W  W7  1  0.16571800  0.83428200  0.50000000  1
  O  O8  1  0.35574100  0.10207800  0.24399100  1
  O  O9  1  0.64425900  0.89792200  0.75600900  1
  O  O10  1  0.89792200  0.64425900  0.75600900  1
  O  O11  1  0.10207800  0.35574100  0.24399100  1
  O  O12  1  0.68545600  0.22161700  0.34742800  1
  O  O13  1  0.31454400  0.77838300  0.65257200  1
  O  O14  1  0.77838300  0.31454400  0.65257200  1
  O  O15  1  0.22161700  0.68545600  0.34742800  1
  O  O16  1  0.69891700  0.96318500  0.08502400  1
  O  O17  1  0.30108300  0.03681500  0.91497600  1
  O  O18  1  0.03681500  0.30108300  0.91497600  1
  O  O19  1  0.96318500  0.69891700  0.08502400  1
  O  O20  1  0.97754700  0.97754700  0.34147200  1
  O  O21  1  0.02245300  0.02245300  0.65852800  1
  O  O22  1  0.55391100  0.55391100  0.13614900  1
  O  O23  1  0.44608900  0.44608900  0.86385100  1
