# generated using pymatgen
data_V3ZnFe2O11
_symmetry_space_group_name_H-M   'P 1'
_cell_length_a   6.51636500
_cell_length_b   6.92577352
_cell_length_c   10.35358665
_cell_angle_alpha   96.91600619
_cell_angle_beta   103.37195027
_cell_angle_gamma   101.25651699
_symmetry_Int_Tables_number   1
_chemical_formula_structural   V3ZnFe2O11
_chemical_formula_sum   'V6 Zn2 Fe4 O22'
_cell_volume   439.09065988
_cell_formula_units_Z   2
loop_
 _symmetry_equiv_pos_site_id
 _symmetry_equiv_pos_as_xyz
  1  'x, y, z'
loop_
 _atom_site_type_symbol
 _atom_site_label
 _atom_site_symmetry_multiplicity
 _atom_site_fract_x
 _atom_site_fract_y
 _atom_site_fract_z
 _atom_site_occupancy
  V  V0  1  0.17489900  0.48972500  0.30097000  1
  V  V1  1  0.82510100  0.51027500  0.69903000  1
  V  V2  1  0.18865500  0.07337400  0.62512300  1
  V  V3  1  0.81134500  0.92662600  0.37487700  1
  V  V4  1  0.23922500  0.17341200  0.97056800  1
  V  V5  1  0.76077500  0.82658800  0.02943200  1
  Zn  Zn6  1  0.19864900  0.67251500  0.00942600  1
  Zn  Zn7  1  0.80135100  0.32748500  0.99057400  1
  Fe  Fe8  1  0.67435300  0.38031100  0.33969100  1
  Fe  Fe9  1  0.32564700  0.61968900  0.66030900  1
  Fe  Fe10  1  0.26073300  0.00607300  0.27264700  1
  Fe  Fe11  1  0.73926700  0.99392700  0.72735300  1
  O  O12  1  0.12480400  0.01370200  0.43400100  1
  O  O13  1  0.87519600  0.98629800  0.56599900  1
  O  O14  1  0.23885500  0.69833800  0.23228100  1
  O  O15  1  0.76114500  0.30166200  0.76771900  1
  O  O16  1  0.22060000  0.98208900  0.06683600  1
  O  O17  1  0.77940000  0.01791100  0.93316400  1
  O  O18  1  0.61847300  0.07391400  0.33930700  1
  O  O19  1  0.38152700  0.92608600  0.66069300  1
  O  O20  1  0.49652900  0.71884500  0.00390600  1
  O  O21  1  0.50347100  0.28115500  0.99609400  1
  O  O22  1  0.30647500  0.31947200  0.65187800  1
  O  O23  1  0.69352500  0.68052800  0.34812200  1
  O  O24  1  0.11580300  0.07201900  0.79616100  1
  O  O25  1  0.88419700  0.92798100  0.20383900  1
  O  O26  1  0.12339100  0.36853700  0.02380300  1
  O  O27  1  0.87660900  0.63146300  0.97619700  1
  O  O28  1  0.89121700  0.37895700  0.23802400  1
  O  O29  1  0.10878300  0.62104300  0.76197600  1
  O  O30  1  0.21085200  0.57085700  0.46990300  1
  O  O31  1  0.78914800  0.42914300  0.53009700  1
  O  O32  1  0.35772500  0.32725300  0.29031100  1
  O  O33  1  0.64227500  0.67274700  0.70968900  1
