# generated using pymatgen
data_TlPO6
_symmetry_space_group_name_H-M   'P 1'
_cell_length_a   8.80011400
_cell_length_b   10.35387400
_cell_length_c   10.56464400
_cell_angle_alpha   90.00000000
_cell_angle_beta   90.00000000
_cell_angle_gamma   90.00000000
_symmetry_Int_Tables_number   1
_chemical_formula_structural   TlPO6
_chemical_formula_sum   'Tl8 P8 O48'
_cell_volume   962.60040680
_cell_formula_units_Z   8
loop_
 _symmetry_equiv_pos_site_id
 _symmetry_equiv_pos_as_xyz
  1  'x, y, z'
loop_
 _atom_site_type_symbol
 _atom_site_label
 _atom_site_symmetry_multiplicity
 _atom_site_fract_x
 _atom_site_fract_y
 _atom_site_fract_z
 _atom_site_occupancy
  Tl  Tl0  1  0.35426500  0.17443100  0.12518000  1
  Tl  Tl1  1  0.64573500  0.82556900  0.87482000  1
  Tl  Tl2  1  0.14573500  0.82556900  0.62518000  1
  Tl  Tl3  1  0.64573500  0.67443100  0.37482000  1
  Tl  Tl4  1  0.85426500  0.17443100  0.37482000  1
  Tl  Tl5  1  0.35426500  0.32556900  0.62518000  1
  Tl  Tl6  1  0.85426500  0.32556900  0.87482000  1
  Tl  Tl7  1  0.14573500  0.67443100  0.12518000  1
  P  P8  1  0.03995500  0.36316100  0.15918300  1
  P  P9  1  0.96004500  0.63683900  0.84081700  1
  P  P10  1  0.46004500  0.63683900  0.65918300  1
  P  P11  1  0.96004500  0.86316100  0.34081700  1
  P  P12  1  0.53995500  0.36316100  0.34081700  1
  P  P13  1  0.03995500  0.13683900  0.65918300  1
  P  P14  1  0.53995500  0.13683900  0.84081700  1
  P  P15  1  0.46004500  0.86316100  0.15918300  1
  O  O16  1  0.50695800  0.00537800  0.16639600  1
  O  O17  1  0.49304200  0.99462200  0.83360400  1
  O  O18  1  0.99304200  0.99462200  0.66639600  1
  O  O19  1  0.49304200  0.50537800  0.33360400  1
  O  O20  1  0.00695800  0.00537800  0.33360400  1
  O  O21  1  0.50695800  0.49462200  0.66639600  1
  O  O22  1  0.00695800  0.49462200  0.83360400  1
  O  O23  1  0.99304200  0.50537800  0.16639600  1
  O  O24  1  0.20484400  0.35360500  0.10153000  1
  O  O25  1  0.79515600  0.64639500  0.89847000  1
  O  O26  1  0.29515600  0.64639500  0.60153000  1
  O  O27  1  0.79515600  0.85360500  0.39847000  1
  O  O28  1  0.70484400  0.35360500  0.39847000  1
  O  O29  1  0.20484400  0.14639500  0.60153000  1
  O  O30  1  0.70484400  0.14639500  0.89847000  1
  O  O31  1  0.29515600  0.85360500  0.10153000  1
  O  O32  1  0.42698900  0.28434700  0.42493200  1
  O  O33  1  0.57301100  0.71565300  0.57506800  1
  O  O34  1  0.07301100  0.71565300  0.92493200  1
  O  O35  1  0.57301100  0.78434700  0.07506800  1
  O  O36  1  0.92698900  0.28434700  0.07506800  1
  O  O37  1  0.42698900  0.21565300  0.92493200  1
  O  O38  1  0.92698900  0.21565300  0.57506800  1
  O  O39  1  0.07301100  0.78434700  0.42493200  1
  O  O40  1  0.17640700  0.02398300  0.04588500  1
  O  O41  1  0.82359300  0.97601700  0.95411500  1
  O  O42  1  0.32359300  0.97601700  0.54588500  1
  O  O43  1  0.82359300  0.52398300  0.45411500  1
  O  O44  1  0.67640700  0.02398300  0.45411500  1
  O  O45  1  0.17640700  0.47601700  0.54588500  1
  O  O46  1  0.67640700  0.47601700  0.95411500  1
  O  O47  1  0.32359300  0.52398300  0.04588500  1
  O  O48  1  0.24543500  0.15670000  0.32298700  1
  O  O49  1  0.75456500  0.84330000  0.67701300  1
  O  O50  1  0.25456500  0.84330000  0.82298700  1
  O  O51  1  0.75456500  0.65670000  0.17701300  1
  O  O52  1  0.74543500  0.15670000  0.17701300  1
  O  O53  1  0.24543500  0.34330000  0.82298700  1
  O  O54  1  0.74543500  0.34330000  0.67701300  1
  O  O55  1  0.25456500  0.65670000  0.32298700  1
  O  O56  1  0.04503000  0.29836000  0.29280200  1
  O  O57  1  0.95497000  0.70164000  0.70719800  1
  O  O58  1  0.45497000  0.70164000  0.79280200  1
  O  O59  1  0.95497000  0.79836000  0.20719800  1
  O  O60  1  0.54503000  0.29836000  0.20719800  1
  O  O61  1  0.04503000  0.20164000  0.79280200  1
  O  O62  1  0.54503000  0.20164000  0.70719800  1
  O  O63  1  0.45497000  0.79836000  0.29280200  1
