# generated using pymatgen
data_YbCr2O2
_symmetry_space_group_name_H-M   'P 1'
_cell_length_a   8.69514872
_cell_length_b   8.69514872
_cell_length_c   8.69514872
_cell_angle_alpha   137.38502673
_cell_angle_beta   137.38502673
_cell_angle_gamma   61.84617630
_symmetry_Int_Tables_number   1
_chemical_formula_structural   YbCr2O2
_chemical_formula_sum   'Yb4 Cr8 O8'
_cell_volume   297.85961349
_cell_formula_units_Z   4
loop_
 _symmetry_equiv_pos_site_id
 _symmetry_equiv_pos_as_xyz
  1  'x, y, z'
loop_
 _atom_site_type_symbol
 _atom_site_label
 _atom_site_symmetry_multiplicity
 _atom_site_fract_x
 _atom_site_fract_y
 _atom_site_fract_z
 _atom_site_occupancy
  Yb  Yb0  1  0.87500000  0.12500000  0.25000000  1
  Yb  Yb1  1  0.87500000  0.62500000  0.75000000  1
  Yb  Yb2  1  0.37500000  0.12500000  0.25000000  1
  Yb  Yb3  1  0.87500000  0.12500000  0.75000000  1
  Cr  Cr4  1  0.46449600  0.17860800  0.71411200  1
  Cr  Cr5  1  0.46449600  0.75038300  0.28588800  1
  Cr  Cr6  1  0.50038300  0.71449600  0.78588800  1
  Cr  Cr7  1  0.28550400  0.49961700  0.21411200  1
  Cr  Cr8  1  0.28550400  0.07139200  0.78588800  1
  Cr  Cr9  1  0.92860800  0.71449600  0.21411200  1
  Cr  Cr10  1  0.24961700  0.53550400  0.71411200  1
  Cr  Cr11  1  0.82139200  0.53550400  0.28588800  1
  O  O12  1  0.67183900  0.43369800  0.76185900  1
  O  O13  1  0.67183900  0.90998000  0.23814100  1
  O  O14  1  0.65998000  0.92183900  0.73814100  1
  O  O15  1  0.07816100  0.34002000  0.26185900  1
  O  O16  1  0.07816100  0.81630200  0.73814100  1
  O  O17  1  0.18369800  0.92183900  0.26185900  1
  O  O18  1  0.09002000  0.32816100  0.76185900  1
  O  O19  1  0.56630200  0.32816100  0.23814100  1
