# generated using pymatgen
data_TlCSN
_symmetry_space_group_name_H-M   'P 1'
_cell_length_a   6.80142300
_cell_length_b   6.89400100
_cell_length_c   7.85072200
_cell_angle_alpha   90.00000000
_cell_angle_beta   90.00000000
_cell_angle_gamma   90.00000000
_symmetry_Int_Tables_number   1
_chemical_formula_structural   TlCSN
_chemical_formula_sum   'Tl4 C4 S4 N4'
_cell_volume   368.11263703
_cell_formula_units_Z   4
loop_
 _symmetry_equiv_pos_site_id
 _symmetry_equiv_pos_as_xyz
  1  'x, y, z'
loop_
 _atom_site_type_symbol
 _atom_site_label
 _atom_site_symmetry_multiplicity
 _atom_site_fract_x
 _atom_site_fract_y
 _atom_site_fract_z
 _atom_site_occupancy
  Tl  Tl0  1  0.25000000  0.71018600  0.00000000  1
  Tl  Tl1  1  0.75000000  0.28981400  0.00000000  1
  Tl  Tl2  1  0.75000000  0.28981400  0.50000000  1
  Tl  Tl3  1  0.25000000  0.71018600  0.50000000  1
  C  C4  1  0.21443400  0.26730400  0.25000000  1
  C  C5  1  0.78556600  0.73269600  0.75000000  1
  C  C6  1  0.71443400  0.73269600  0.25000000  1
  C  C7  1  0.28556600  0.26730400  0.75000000  1
  S  S8  1  0.38974800  0.10572700  0.25000000  1
  S  S9  1  0.61025200  0.89427300  0.75000000  1
  S  S10  1  0.88974800  0.89427300  0.25000000  1
  S  S11  1  0.11025200  0.10572700  0.75000000  1
  N  N12  1  0.08600100  0.38545300  0.25000000  1
  N  N13  1  0.91399900  0.61454700  0.75000000  1
  N  N14  1  0.58600100  0.61454700  0.25000000  1
  N  N15  1  0.41399900  0.38545300  0.75000000  1
