# generated using pymatgen
data_TmTlS2O9
_symmetry_space_group_name_H-M   'P 1'
_cell_length_a   8.21949100
_cell_length_b   10.34439028
_cell_length_c   10.13320833
_cell_angle_alpha   120.27001403
_cell_angle_beta   90.00000000
_cell_angle_gamma   90.00000000
_symmetry_Int_Tables_number   1
_chemical_formula_structural   TmTlS2O9
_chemical_formula_sum   'Tm4 Tl4 S8 O36'
_cell_volume   744.11376316
_cell_formula_units_Z   4
loop_
 _symmetry_equiv_pos_site_id
 _symmetry_equiv_pos_as_xyz
  1  'x, y, z'
loop_
 _atom_site_type_symbol
 _atom_site_label
 _atom_site_symmetry_multiplicity
 _atom_site_fract_x
 _atom_site_fract_y
 _atom_site_fract_z
 _atom_site_occupancy
  Tm  Tm0  1  0.35177800  0.96016900  0.71216000  1
  Tm  Tm1  1  0.64822200  0.03983100  0.28784000  1
  Tm  Tm2  1  0.85177800  0.53983100  0.78784000  1
  Tm  Tm3  1  0.14822200  0.46016900  0.21216000  1
  Tl  Tl4  1  0.36864300  0.68625700  0.94130200  1
  Tl  Tl5  1  0.63135700  0.31374300  0.05869800  1
  Tl  Tl6  1  0.86864300  0.81374300  0.55869800  1
  Tl  Tl7  1  0.13135700  0.18625700  0.44130200  1
  S  S8  1  0.12298600  0.31619300  0.86936500  1
  S  S9  1  0.87701400  0.68380700  0.13063500  1
  S  S10  1  0.62298600  0.18380700  0.63063500  1
  S  S11  1  0.37701400  0.81619300  0.36936500  1
  S  S12  1  0.20085100  0.59593800  0.59812300  1
  S  S13  1  0.79914900  0.40406200  0.40187700  1
  S  S14  1  0.70085100  0.90406200  0.90187700  1
  S  S15  1  0.29914900  0.09593800  0.09812300  1
  O  O16  1  0.78506600  0.04954400  0.97596300  1
  O  O17  1  0.21493400  0.95045600  0.02403700  1
  O  O18  1  0.28506600  0.45045600  0.52403700  1
  O  O19  1  0.71493400  0.54954400  0.47596300  1
  O  O20  1  0.19395500  0.16658600  0.76358300  1
  O  O21  1  0.80604500  0.83341400  0.23641700  1
  O  O22  1  0.69395500  0.33341400  0.73641700  1
  O  O23  1  0.30604500  0.66658600  0.26358300  1
  O  O24  1  0.31838700  0.72324400  0.67270000  1
  O  O25  1  0.68161300  0.27675600  0.32730000  1
  O  O26  1  0.81838700  0.77675600  0.82730000  1
  O  O27  1  0.18161300  0.22324400  0.17270000  1
  O  O28  1  0.39193400  0.11114900  0.97787400  1
  O  O29  1  0.60806600  0.88885100  0.02212600  1
  O  O30  1  0.89193400  0.38885100  0.52212600  1
  O  O31  1  0.10806600  0.61114900  0.47787400  1
  O  O32  1  0.07918100  0.93930900  0.73263200  1
  O  O33  1  0.92081900  0.06069100  0.26736800  1
  O  O34  1  0.57918100  0.56069100  0.76736800  1
  O  O35  1  0.42081900  0.43930900  0.23263200  1
  O  O36  1  0.25401500  0.42292500  0.96710100  1
  O  O37  1  0.74598500  0.57707500  0.03289900  1
  O  O38  1  0.75401500  0.07707500  0.53289900  1
  O  O39  1  0.24598500  0.92292500  0.46710100  1
  O  O40  1  0.00602000  0.31234700  0.97941500  1
  O  O41  1  0.99398000  0.68765300  0.02058500  1
  O  O42  1  0.50602000  0.18765300  0.52058500  1
  O  O43  1  0.49398000  0.81234700  0.47941500  1
  O  O44  1  0.04250600  0.36773600  0.77206000  1
  O  O45  1  0.95749400  0.63226400  0.22794000  1
  O  O46  1  0.54250600  0.13226400  0.72794000  1
  O  O47  1  0.45749400  0.86773600  0.27206000  1
  O  O48  1  0.59074300  0.88814800  0.77794500  1
  O  O49  1  0.40925700  0.11185200  0.22205500  1
  O  O50  1  0.09074300  0.61185200  0.72205500  1
  O  O51  1  0.90925700  0.38814800  0.27794500  1
