# generated using pymatgen
data_YbCoC6N6O5
_symmetry_space_group_name_H-M   'P 1'
_cell_length_a   7.77479477
_cell_length_b   7.77479477
_cell_length_c   12.73027500
_cell_angle_alpha   90.00000000
_cell_angle_beta   90.00000000
_cell_angle_gamma   120.00000654
_symmetry_Int_Tables_number   1
_chemical_formula_structural   YbCoC6N6O5
_chemical_formula_sum   'Yb2 Co2 C12 N12 O10'
_cell_volume   666.41728967
_cell_formula_units_Z   2
loop_
 _symmetry_equiv_pos_site_id
 _symmetry_equiv_pos_as_xyz
  1  'x, y, z'
loop_
 _atom_site_type_symbol
 _atom_site_label
 _atom_site_symmetry_multiplicity
 _atom_site_fract_x
 _atom_site_fract_y
 _atom_site_fract_z
 _atom_site_occupancy
  Yb  Yb0  1  0.33333300  0.66666700  0.75000000  1
  Yb  Yb1  1  0.66666700  0.33333300  0.25000000  1
  Co  Co2  1  0.00000000  0.00000000  0.00000000  1
  Co  Co3  1  0.00000000  0.00000000  0.50000000  1
  C  C4  1  0.76694400  0.89769200  0.91813200  1
  C  C5  1  0.23305600  0.10230800  0.08186800  1
  C  C6  1  0.13074700  0.23305600  0.91813200  1
  C  C7  1  0.23305600  0.10230800  0.41813200  1
  C  C8  1  0.86925300  0.76694400  0.08186800  1
  C  C9  1  0.76694400  0.89769200  0.58186800  1
  C  C10  1  0.10230800  0.86925300  0.91813200  1
  C  C11  1  0.86925300  0.76694400  0.41813200  1
  C  C12  1  0.89769200  0.13074700  0.08186800  1
  C  C13  1  0.13074700  0.23305600  0.58186800  1
  C  C14  1  0.89769200  0.13074700  0.41813200  1
  C  C15  1  0.10230800  0.86925300  0.58186800  1
  N  N16  1  0.62103200  0.83235400  0.86879100  1
  N  N17  1  0.37896800  0.16764600  0.13120900  1
  N  N18  1  0.21132200  0.37896800  0.86879100  1
  N  N19  1  0.37896800  0.16764600  0.36879100  1
  N  N20  1  0.78867800  0.62103200  0.13120900  1
  N  N21  1  0.62103200  0.83235400  0.63120900  1
  N  N22  1  0.16764600  0.78867800  0.86879100  1
  N  N23  1  0.78867800  0.62103200  0.36879100  1
  N  N24  1  0.83235400  0.21132200  0.13120900  1
  N  N25  1  0.21132200  0.37896800  0.63120900  1
  N  N26  1  0.83235400  0.21132200  0.36879100  1
  N  N27  1  0.16764600  0.78867800  0.63120900  1
  O  O28  1  0.66666700  0.33333300  0.84480000  1
  O  O29  1  0.33333300  0.66666700  0.15520000  1
  O  O30  1  0.33333300  0.66666700  0.34480000  1
  O  O31  1  0.66666700  0.33333300  0.65520000  1
  O  O32  1  0.92131100  0.43663600  0.75000000  1
  O  O33  1  0.07868900  0.56336400  0.25000000  1
  O  O34  1  0.51532500  0.07868900  0.75000000  1
  O  O35  1  0.48467500  0.92131100  0.25000000  1
  O  O36  1  0.56336400  0.48467500  0.75000000  1
  O  O37  1  0.43663600  0.51532500  0.25000000  1
