# generated using pymatgen
data_V2NO5
_symmetry_space_group_name_H-M   'P 1'
_cell_length_a   6.11195907
_cell_length_b   6.11195907
_cell_length_c   11.65516338
_cell_angle_alpha   88.10304150
_cell_angle_beta   88.10304150
_cell_angle_gamma   34.89316059
_symmetry_Int_Tables_number   1
_chemical_formula_structural   V2NO5
_chemical_formula_sum   'V4 N2 O10'
_cell_volume   248.91443885
_cell_formula_units_Z   2
loop_
 _symmetry_equiv_pos_site_id
 _symmetry_equiv_pos_as_xyz
  1  'x, y, z'
loop_
 _atom_site_type_symbol
 _atom_site_label
 _atom_site_symmetry_multiplicity
 _atom_site_fract_x
 _atom_site_fract_y
 _atom_site_fract_z
 _atom_site_occupancy
  V  V0  1  0.77912400  0.77912400  0.33900600  1
  V  V1  1  0.22087600  0.22087600  0.66099400  1
  V  V2  1  0.93001300  0.93001300  0.65799900  1
  V  V3  1  0.06998700  0.06998700  0.34200100  1
  N  N4  1  0.54469800  0.54469800  0.98153100  1
  N  N5  1  0.45530200  0.45530200  0.01846900  1
  O  O6  1  0.39238100  0.39238100  0.62799100  1
  O  O7  1  0.60761900  0.60761900  0.37200900  1
  O  O8  1  0.20270800  0.20270800  0.79729200  1
  O  O9  1  0.79729200  0.79729200  0.20270800  1
  O  O10  1  0.92217800  0.92217800  0.39887500  1
  O  O11  1  0.07782200  0.07782200  0.60112500  1
  O  O12  1  0.75855200  0.75855200  0.62548700  1
  O  O13  1  0.24144800  0.24144800  0.37451300  1
  O  O14  1  0.93893600  0.93893600  0.79442400  1
  O  O15  1  0.06106400  0.06106400  0.20557600  1
