# generated using pymatgen
data_UCr(HO2)3
_symmetry_space_group_name_H-M   'P 1'
_cell_length_a   7.25361000
_cell_length_b   10.13753925
_cell_length_c   11.61996627
_cell_angle_alpha   93.12475010
_cell_angle_beta   90.00000000
_cell_angle_gamma   90.00000000
_symmetry_Int_Tables_number   1
_chemical_formula_structural   UCr(HO2)3
_chemical_formula_sum   'U4 Cr4 H12 O24'
_cell_volume   853.18936846
_cell_formula_units_Z   4
loop_
 _symmetry_equiv_pos_site_id
 _symmetry_equiv_pos_as_xyz
  1  'x, y, z'
loop_
 _atom_site_type_symbol
 _atom_site_label
 _atom_site_symmetry_multiplicity
 _atom_site_fract_x
 _atom_site_fract_y
 _atom_site_fract_z
 _atom_site_occupancy
  U  U0  1  0.49216000  0.93407400  0.68170100  1
  U  U1  1  0.99216000  0.06592600  0.31829900  1
  U  U2  1  0.96409900  0.34283100  0.85534500  1
  U  U3  1  0.46409900  0.65716900  0.14465500  1
  Cr  Cr4  1  0.99529200  0.89082400  0.59550600  1
  Cr  Cr5  1  0.49529200  0.10917600  0.40449400  1
  Cr  Cr6  1  0.46362300  0.44469800  0.86787700  1
  Cr  Cr7  1  0.96362300  0.55530200  0.13212300  1
  H  H8  1  0.68829200  0.77229400  0.81783900  1
  H  H9  1  0.18829200  0.22770600  0.18216100  1
  H  H10  1  0.66668000  0.71938200  0.33913900  1
  H  H11  1  0.16668000  0.28061800  0.66086100  1
  H  H12  1  0.76747500  0.29465900  0.65695000  1
  H  H13  1  0.26747500  0.70534100  0.34305000  1
  H  H14  1  0.28766900  0.78605000  0.82270300  1
  H  H15  1  0.78766900  0.21395000  0.17729700  1
  H  H16  1  0.98444600  0.88080200  0.93333600  1
  H  H17  1  0.48444600  0.11919800  0.06666400  1
  H  H18  1  0.77632700  0.50851900  0.50890300  1
  H  H19  1  0.27632700  0.49148100  0.49109700  1
  O  O20  1  0.46363900  0.57993700  0.96072000  1
  O  O21  1  0.96363900  0.42006300  0.03928000  1
  O  O22  1  0.96480000  0.50508500  0.79924400  1
  O  O23  1  0.46480000  0.49491500  0.20075600  1
  O  O24  1  0.27267200  0.35222000  0.88728100  1
  O  O25  1  0.77267200  0.64778000  0.11271900  1
  O  O26  1  0.99639200  0.91555400  0.45232900  1
  O  O27  1  0.49639200  0.08444600  0.54767100  1
  O  O28  1  0.99580900  0.94812800  0.19703300  1
  O  O29  1  0.49580900  0.05187200  0.80296700  1
  O  O30  1  0.65576700  0.35348800  0.88671100  1
  O  O31  1  0.15576700  0.64651200  0.11328900  1
  O  O32  1  0.96323900  0.17000700  0.88283400  1
  O  O33  1  0.46323900  0.82999300  0.11716600  1
  O  O34  1  0.80099800  0.95465600  0.65763300  1
  O  O35  1  0.30099700  0.04534400  0.34236700  1
  O  O36  1  0.18346000  0.96177000  0.66007100  1
  O  O37  1  0.68346000  0.03823000  0.33992900  1
  O  O38  1  0.00073300  0.73640400  0.61286800  1
  O  O39  1  0.50073300  0.26359600  0.38713200  1
  O  O40  1  0.48725000  0.79413400  0.57925900  1
  O  O41  1  0.98725000  0.20586600  0.42074100  1
  O  O42  1  0.46300900  0.49290100  0.73962800  1
  O  O43  1  0.96300900  0.50709900  0.26037200  1
