# generated using pymatgen
data_Th4Ru
_symmetry_space_group_name_H-M   'P 1'
_cell_length_a   7.75532656
_cell_length_b   7.75532656
_cell_length_c   7.75532656
_cell_angle_alpha   60.00000000
_cell_angle_beta   60.00000000
_cell_angle_gamma   60.00000000
_symmetry_Int_Tables_number   1
_chemical_formula_structural   Th4Ru
_chemical_formula_sum   'Th8 Ru2'
_cell_volume   329.82629111
_cell_formula_units_Z   2
loop_
 _symmetry_equiv_pos_site_id
 _symmetry_equiv_pos_as_xyz
  1  'x, y, z'
loop_
 _atom_site_type_symbol
 _atom_site_label
 _atom_site_symmetry_multiplicity
 _atom_site_fract_x
 _atom_site_fract_y
 _atom_site_fract_z
 _atom_site_occupancy
  Th  Th0  1  0.61143600  0.61143600  0.61143600  1
  Th  Th1  1  0.16569100  0.61143600  0.61143600  1
  Th  Th2  1  0.61143600  0.16569100  0.61143600  1
  Th  Th3  1  0.58430900  0.13856400  0.13856400  1
  Th  Th4  1  0.13856400  0.13856400  0.13856400  1
  Th  Th5  1  0.61143600  0.61143600  0.16569100  1
  Th  Th6  1  0.13856400  0.58430900  0.13856400  1
  Th  Th7  1  0.13856400  0.13856400  0.58430900  1
  Ru  Ru8  1  0.00000000  0.00000000  0.00000000  1
  Ru  Ru9  1  0.75000000  0.75000000  0.75000000  1
