# generated using pymatgen
data_TlCuAs2PbS5
_symmetry_space_group_name_H-M   'P 1'
_cell_length_a   8.02616000
_cell_length_b   8.18110175
_cell_length_c   9.12350819
_cell_angle_alpha   65.64074032
_cell_angle_beta   73.65406278
_cell_angle_gamma   64.13632796
_symmetry_Int_Tables_number   1
_chemical_formula_structural   TlCuAs2PbS5
_chemical_formula_sum   'Tl2 Cu2 As4 Pb2 S10'
_cell_volume   487.29949245
_cell_formula_units_Z   2
loop_
 _symmetry_equiv_pos_site_id
 _symmetry_equiv_pos_as_xyz
  1  'x, y, z'
loop_
 _atom_site_type_symbol
 _atom_site_label
 _atom_site_symmetry_multiplicity
 _atom_site_fract_x
 _atom_site_fract_y
 _atom_site_fract_z
 _atom_site_occupancy
  Tl  Tl0  1  0.80535600  0.15321400  0.62564900  1
  Tl  Tl1  1  0.19464400  0.84678600  0.37435100  1
  Cu  Cu2  1  0.38150400  0.25001200  0.40623600  1
  Cu  Cu3  1  0.61849600  0.74998800  0.59376400  1
  As  As4  1  0.59541000  0.04027600  0.14143800  1
  As  As5  1  0.40459000  0.95972400  0.85856200  1
  As  As6  1  0.95307900  0.62280800  0.31308500  1
  As  As7  1  0.04692100  0.37719200  0.68691500  1
  Pb  Pb8  1  0.74515300  0.45882200  0.09408600  1
  Pb  Pb9  1  0.25484700  0.54117800  0.90591400  1
  S  S10  1  0.86693600  0.81039100  0.05512500  1
  S  S11  1  0.13306400  0.18960900  0.94487500  1
  S  S12  1  0.68246600  0.08626900  0.33222700  1
  S  S13  1  0.31753400  0.91373100  0.66777300  1
  S  S14  1  0.37003400  0.70504100  0.08033500  1
  S  S15  1  0.62996600  0.29495900  0.91966500  1
  S  S16  1  0.67817000  0.58079100  0.42665100  1
  S  S17  1  0.32183000  0.41920900  0.57334900  1
  S  S18  1  0.85450300  0.65479900  0.74063500  1
  S  S19  1  0.14549700  0.34520100  0.25936500  1
