# generated using pymatgen
data_Tm2Mn17C3
_symmetry_space_group_name_H-M   'P 1'
_cell_length_a   8.46662359
_cell_length_b   8.46662359
_cell_length_c   8.24626600
_cell_angle_alpha   90.00000000
_cell_angle_beta   90.00000000
_cell_angle_gamma   119.99999683
_symmetry_Int_Tables_number   1
_chemical_formula_structural   Tm2Mn17C3
_chemical_formula_sum   'Tm4 Mn34 C6'
_cell_volume   511.92753595
_cell_formula_units_Z   2
loop_
 _symmetry_equiv_pos_site_id
 _symmetry_equiv_pos_as_xyz
  1  'x, y, z'
loop_
 _atom_site_type_symbol
 _atom_site_label
 _atom_site_symmetry_multiplicity
 _atom_site_fract_x
 _atom_site_fract_y
 _atom_site_fract_z
 _atom_site_occupancy
  Tm  Tm0  1  0.33333300  0.66666700  0.25000000  1
  Tm  Tm1  1  0.66666700  0.33333300  0.75000000  1
  Tm  Tm2  1  0.00000000  0.00000000  0.25000000  1
  Tm  Tm3  1  0.00000000  0.00000000  0.75000000  1
  Mn  Mn4  1  0.38858800  0.05927600  0.25000000  1
  Mn  Mn5  1  0.61141200  0.94072400  0.75000000  1
  Mn  Mn6  1  0.94072400  0.32931100  0.25000000  1
  Mn  Mn7  1  0.05927600  0.38858800  0.75000000  1
  Mn  Mn8  1  0.05927600  0.67068900  0.75000000  1
  Mn  Mn9  1  0.94072400  0.61141200  0.25000000  1
  Mn  Mn10  1  0.67068900  0.61141200  0.25000000  1
  Mn  Mn11  1  0.32931100  0.94072400  0.75000000  1
  Mn  Mn12  1  0.32931100  0.38858800  0.75000000  1
  Mn  Mn13  1  0.67068900  0.05927600  0.25000000  1
  Mn  Mn14  1  0.61141200  0.67068900  0.75000000  1
  Mn  Mn15  1  0.38858800  0.32931100  0.25000000  1
  Mn  Mn16  1  0.33333300  0.66666700  0.60630600  1
  Mn  Mn17  1  0.66666700  0.33333300  0.39369400  1
  Mn  Mn18  1  0.66666700  0.33333300  0.10630600  1
  Mn  Mn19  1  0.33333300  0.66666700  0.89369400  1
  Mn  Mn20  1  0.17028800  0.34057600  0.02498300  1
  Mn  Mn21  1  0.82971200  0.65942400  0.97501700  1
  Mn  Mn22  1  0.65942400  0.82971200  0.02498300  1
  Mn  Mn23  1  0.82971200  0.65942400  0.52498300  1
  Mn  Mn24  1  0.34057600  0.17028800  0.97501700  1
  Mn  Mn25  1  0.17028800  0.34057600  0.47501700  1
  Mn  Mn26  1  0.17028800  0.82971200  0.02498300  1
  Mn  Mn27  1  0.34057600  0.17028800  0.52498300  1
  Mn  Mn28  1  0.82971200  0.17028800  0.97501700  1
  Mn  Mn29  1  0.65942400  0.82971200  0.47501700  1
  Mn  Mn30  1  0.82971200  0.17028800  0.52498300  1
  Mn  Mn31  1  0.17028800  0.82971200  0.47501700  1
  Mn  Mn32  1  0.50000000  0.00000000  0.00000000  1
  Mn  Mn33  1  0.00000000  0.50000000  0.00000000  1
  Mn  Mn34  1  0.50000000  0.00000000  0.50000000  1
  Mn  Mn35  1  0.50000000  0.50000000  0.00000000  1
  Mn  Mn36  1  0.00000000  0.50000000  0.50000000  1
  Mn  Mn37  1  0.50000000  0.50000000  0.50000000  1
  C  C38  1  0.16450900  0.32901900  0.25000000  1
  C  C39  1  0.83549100  0.67098100  0.75000000  1
  C  C40  1  0.67098100  0.83549100  0.25000000  1
  C  C41  1  0.32901900  0.16450900  0.75000000  1
  C  C42  1  0.16450900  0.83549100  0.25000000  1
  C  C43  1  0.83549100  0.16450900  0.75000000  1
