# generated using pymatgen
data_UTeSe
_symmetry_space_group_name_H-M   'P 1'
_cell_length_a   3.64514100
_cell_length_b   7.23248900
_cell_length_c   13.05322600
_cell_angle_alpha   90.00000000
_cell_angle_beta   90.00000000
_cell_angle_gamma   90.00000000
_symmetry_Int_Tables_number   1
_chemical_formula_structural   UTeSe
_chemical_formula_sum   'U4 Te4 Se4'
_cell_volume   344.12796899
_cell_formula_units_Z   4
loop_
 _symmetry_equiv_pos_site_id
 _symmetry_equiv_pos_as_xyz
  1  'x, y, z'
loop_
 _atom_site_type_symbol
 _atom_site_label
 _atom_site_symmetry_multiplicity
 _atom_site_fract_x
 _atom_site_fract_y
 _atom_site_fract_z
 _atom_site_occupancy
  U  U0  1  0.25000000  0.59189600  0.25218300  1
  U  U1  1  0.75000000  0.40810400  0.74781700  1
  U  U2  1  0.75000000  0.90810400  0.75218300  1
  U  U3  1  0.25000000  0.09189600  0.24781700  1
  Te  Te4  1  0.25000000  0.65922000  0.60492800  1
  Te  Te5  1  0.75000000  0.34078000  0.39507200  1
  Te  Te6  1  0.75000000  0.84078000  0.10492800  1
  Te  Te7  1  0.25000000  0.15922000  0.89507200  1
  Se  Se8  1  0.25000000  0.65507600  0.86156800  1
  Se  Se9  1  0.75000000  0.34492400  0.13843200  1
  Se  Se10  1  0.75000000  0.84492400  0.36156800  1
  Se  Se11  1  0.25000000  0.15507600  0.63843200  1
