# generated using pymatgen
data_Mg2SiO4
_symmetry_space_group_name_H-M   'P 1'
_cell_length_a   5.10910900
_cell_length_b   5.78480216
_cell_length_c   10.03285215
_cell_angle_alpha   92.06631394
_cell_angle_beta   99.18524033
_cell_angle_gamma   107.73330259
_symmetry_Int_Tables_number   1
_chemical_formula_structural   Mg2SiO4
_chemical_formula_sum   'Mg8 Si4 O16'
_cell_volume   277.67899849
_cell_formula_units_Z   4
loop_
 _symmetry_equiv_pos_site_id
 _symmetry_equiv_pos_as_xyz
  1  'x, y, z'
loop_
 _atom_site_type_symbol
 _atom_site_label
 _atom_site_symmetry_multiplicity
 _atom_site_fract_x
 _atom_site_fract_y
 _atom_site_fract_z
 _atom_site_occupancy
  Mg  Mg0  1  0.52175500  0.17390000  0.40843000  1
  Mg  Mg1  1  0.47824500  0.82610000  0.59157000  1
  Mg  Mg2  1  0.49925700  0.11511800  0.85588800  1
  Mg  Mg3  1  0.00000000  0.00000000  0.00000000  1
  Mg  Mg4  1  0.95528200  0.70029900  0.72237000  1
  Mg  Mg5  1  0.50074300  0.88488200  0.14411200  1
  Mg  Mg6  1  0.04471800  0.29970100  0.27763000  1
  Mg  Mg7  1  0.00000000  0.50000000  0.00000000  1
  Si  Si8  1  0.50847100  0.39573100  0.12876600  1
  Si  Si9  1  0.49152900  0.60426900  0.87123400  1
  Si  Si10  1  0.88355200  0.75303400  0.39380300  1
  Si  Si11  1  0.11644800  0.24696600  0.60619700  1
  O  O12  1  0.22995300  0.03805500  0.68448700  1
  O  O13  1  0.70521800  0.87609100  0.82113800  1
  O  O14  1  0.74825300  0.47667700  0.29131700  1
  O  O15  1  0.24026400  0.31715000  0.46783200  1
  O  O16  1  0.77004700  0.96194500  0.31551300  1
  O  O17  1  0.29478200  0.12390900  0.17886200  1
  O  O18  1  0.25174700  0.52332300  0.70868300  1
  O  O19  1  0.71265900  0.45124100  0.82751700  1
  O  O20  1  0.70972100  0.67112400  0.04999500  1
  O  O21  1  0.75973600  0.68285000  0.53216800  1
  O  O22  1  0.29027900  0.32887600  0.95000500  1
  O  O23  1  0.73365900  0.21306500  0.07040900  1
  O  O24  1  0.22312900  0.83117000  0.41890700  1
  O  O25  1  0.26634100  0.78693500  0.92959100  1
  O  O26  1  0.28734100  0.54875900  0.17248300  1
  O  O27  1  0.77687100  0.16883000  0.58109300  1
