# generated using pymatgen
data_VPbO2
_symmetry_space_group_name_H-M   'P 1'
_cell_length_a   7.57584563
_cell_length_b   7.57584563
_cell_length_c   7.57584563
_cell_angle_alpha   128.62674406
_cell_angle_beta   128.62674406
_cell_angle_gamma   75.61190424
_symmetry_Int_Tables_number   1
_chemical_formula_structural   VPbO2
_chemical_formula_sum   'V4 Pb4 O8'
_cell_volume   258.17025203
_cell_formula_units_Z   4
loop_
 _symmetry_equiv_pos_site_id
 _symmetry_equiv_pos_as_xyz
  1  'x, y, z'
loop_
 _atom_site_type_symbol
 _atom_site_label
 _atom_site_symmetry_multiplicity
 _atom_site_fract_x
 _atom_site_fract_y
 _atom_site_fract_z
 _atom_site_occupancy
  V  V0  1  0.37500000  0.12500000  0.25000000  1
  V  V1  1  0.87500000  0.12500000  0.75000000  1
  V  V2  1  0.87500000  0.12500000  0.25000000  1
  V  V3  1  0.87500000  0.62500000  0.75000000  1
  Pb  Pb4  1  0.87500000  0.62500000  0.25000000  1
  Pb  Pb5  1  0.37500000  0.62500000  0.75000000  1
  Pb  Pb6  1  0.37500000  0.62500000  0.25000000  1
  Pb  Pb7  1  0.37500000  0.12500000  0.75000000  1
  O  O8  1  0.16285600  0.35360200  0.20803300  1
  O  O9  1  0.14557000  0.95482300  0.79196700  1
  O  O10  1  0.10360200  0.39557000  0.69074700  1
  O  O11  1  0.58714400  0.89639800  0.29196700  1
  O  O12  1  0.70482300  0.41285600  0.30925300  1
  O  O13  1  0.60443000  0.29517700  0.70803300  1
  O  O14  1  0.64639800  0.85443000  0.80925300  1
  O  O15  1  0.04517700  0.83714400  0.19074700  1
