# generated using pymatgen
data_YbI3O10
_symmetry_space_group_name_H-M   'P 1'
_cell_length_a   10.35280300
_cell_length_b   6.84970700
_cell_length_c   13.18746678
_cell_angle_alpha   76.41901842
_cell_angle_beta   90.00000000
_cell_angle_gamma   90.00000000
_symmetry_Int_Tables_number   1
_chemical_formula_structural   YbI3O10
_chemical_formula_sum   'Yb4 I12 O40'
_cell_volume   909.02329470
_cell_formula_units_Z   4
loop_
 _symmetry_equiv_pos_site_id
 _symmetry_equiv_pos_as_xyz
  1  'x, y, z'
loop_
 _atom_site_type_symbol
 _atom_site_label
 _atom_site_symmetry_multiplicity
 _atom_site_fract_x
 _atom_site_fract_y
 _atom_site_fract_z
 _atom_site_occupancy
  Yb  Yb0  1  0.80035000  0.83013400  0.14093600  1
  Yb  Yb1  1  0.19965000  0.16986600  0.85906400  1
  Yb  Yb2  1  0.30035000  0.16986600  0.35906400  1
  Yb  Yb3  1  0.69965000  0.83013400  0.64093600  1
  I  I4  1  0.59260800  0.64117000  0.39039200  1
  I  I5  1  0.40739200  0.35883000  0.60960800  1
  I  I6  1  0.09260800  0.35883000  0.10960800  1
  I  I7  1  0.90739200  0.64117000  0.89039200  1
  I  I8  1  0.16996800  0.81367600  0.14359900  1
  I  I9  1  0.83003200  0.18632400  0.85640100  1
  I  I10  1  0.66996800  0.18632400  0.35640100  1
  I  I11  1  0.33003200  0.81367600  0.64359900  1
  I  I12  1  0.00753600  0.82931700  0.43049200  1
  I  I13  1  0.99246400  0.17068300  0.56950800  1
  I  I14  1  0.50753600  0.17068300  0.06950800  1
  I  I15  1  0.49246400  0.82931700  0.93049200  1
  O  O16  1  0.61261500  0.60463300  0.20731200  1
  O  O17  1  0.38738500  0.39536700  0.79268800  1
  O  O18  1  0.11261500  0.39536700  0.29268800  1
  O  O19  1  0.88738500  0.60463300  0.70731200  1
  O  O20  1  0.90141200  0.46983100  0.25430800  1
  O  O21  1  0.09858800  0.53016900  0.74569200  1
  O  O22  1  0.40141200  0.53016900  0.24569200  1
  O  O23  1  0.59858800  0.46983100  0.75430800  1
  O  O24  1  0.25011900  0.85806600  0.31063000  1
  O  O25  1  0.74988100  0.14193400  0.68937000  1
  O  O26  1  0.75011900  0.14193400  0.18937000  1
  O  O27  1  0.24988100  0.85806600  0.81063000  1
  O  O28  1  0.61958800  0.97387200  0.02169900  1
  O  O29  1  0.38041200  0.02612800  0.97830100  1
  O  O30  1  0.11958800  0.02612800  0.47830100  1
  O  O31  1  0.88041200  0.97387200  0.52169900  1
  O  O32  1  0.01324300  0.85979500  0.19652800  1
  O  O33  1  0.98675700  0.14020500  0.80347200  1
  O  O34  1  0.51324300  0.14020500  0.30347200  1
  O  O35  1  0.48675700  0.85979500  0.69652800  1
  O  O36  1  0.74176200  0.79238100  0.34100100  1
  O  O37  1  0.25823800  0.20761900  0.65899900  1
  O  O38  1  0.24176200  0.20761900  0.15899900  1
  O  O39  1  0.75823800  0.79238100  0.84100100  1
  O  O40  1  0.68244100  0.27737400  0.11093300  1
  O  O41  1  0.31755900  0.72262600  0.88906700  1
  O  O42  1  0.18244100  0.72262600  0.38906700  1
  O  O43  1  0.81755900  0.27737400  0.61093300  1
  O  O44  1  0.88642800  0.62845800  0.03291500  1
  O  O45  1  0.11357200  0.37154200  0.96708500  1
  O  O46  1  0.38642800  0.37154200  0.46708500  1
  O  O47  1  0.61357200  0.62845800  0.53291500  1
  O  O48  1  0.49278200  0.54912800  0.17242800  1
  O  O49  1  0.50721800  0.45087200  0.82757200  1
  O  O50  1  0.99278200  0.45087200  0.32757200  1
  O  O51  1  0.00721800  0.54912800  0.67242800  1
  O  O52  1  0.86793100  0.07508400  0.99237100  1
  O  O53  1  0.13206900  0.92491600  0.00762900  1
  O  O54  1  0.36793100  0.92491600  0.50762900  1
  O  O55  1  0.63206900  0.07508400  0.49237100  1
