# generated using pymatgen
data_UP4
_symmetry_space_group_name_H-M   'P 1'
_cell_length_a   6.68510100
_cell_length_b   6.68510100
_cell_length_c   26.21130300
_cell_angle_alpha   90.00000000
_cell_angle_beta   90.00000000
_cell_angle_gamma   90.00000000
_symmetry_Int_Tables_number   1
_chemical_formula_structural   UP4
_chemical_formula_sum   'U1 P4'
_cell_volume   1171.39821253
_cell_formula_units_Z   1
loop_
 _symmetry_equiv_pos_site_id
 _symmetry_equiv_pos_as_xyz
  1  'x, y, z'
loop_
 _atom_site_type_symbol
 _atom_site_label
 _atom_site_symmetry_multiplicity
 _atom_site_fract_x
 _atom_site_fract_y
 _atom_site_fract_z
 _atom_site_occupancy
  U  U0  1  0.50000000  0.50000000  0.00000000  1
  P  P1  1  0.50000000  0.50000000  0.64570400  1
  P  P2  1  0.50000000  0.50000000  0.35429600  1
  P  P3  1  0.50000000  0.50000000  0.28165900  1
  P  P4  1  0.50000000  0.50000000  0.71834100  1
