# generated using pymatgen
data_TcF6
_symmetry_space_group_name_H-M   'P 1'
_cell_length_a   4.96247200
_cell_length_b   8.55660000
_cell_length_c   9.36446300
_cell_angle_alpha   90.00000000
_cell_angle_beta   90.00000000
_cell_angle_gamma   90.00000000
_symmetry_Int_Tables_number   1
_chemical_formula_structural   TcF6
_chemical_formula_sum   'Tc4 F24'
_cell_volume   397.63277829
_cell_formula_units_Z   4
loop_
 _symmetry_equiv_pos_site_id
 _symmetry_equiv_pos_as_xyz
  1  'x, y, z'
loop_
 _atom_site_type_symbol
 _atom_site_label
 _atom_site_symmetry_multiplicity
 _atom_site_fract_x
 _atom_site_fract_y
 _atom_site_fract_z
 _atom_site_occupancy
  Tc  Tc0  1  0.91966600  0.75000000  0.62939300  1
  Tc  Tc1  1  0.08033400  0.25000000  0.37060700  1
  Tc  Tc2  1  0.41966600  0.25000000  0.87060700  1
  Tc  Tc3  1  0.58033400  0.75000000  0.12939300  1
  F  F4  1  0.22344200  0.75000000  0.51410900  1
  F  F5  1  0.77655800  0.25000000  0.48589100  1
  F  F6  1  0.72344200  0.25000000  0.98589100  1
  F  F7  1  0.27655800  0.75000000  0.01410900  1
  F  F8  1  0.61612700  0.75000000  0.74507200  1
  F  F9  1  0.38387300  0.25000000  0.25492800  1
  F  F10  1  0.11612700  0.25000000  0.75492800  1
  F  F11  1  0.88387300  0.75000000  0.24507200  1
  F  F12  1  0.76441600  0.59732100  0.51596400  1
  F  F13  1  0.23558400  0.40267900  0.48403600  1
  F  F14  1  0.26441600  0.40267900  0.98403600  1
  F  F15  1  0.23558400  0.09732100  0.48403600  1
  F  F16  1  0.73558400  0.59732100  0.01596400  1
  F  F17  1  0.76441600  0.90267900  0.51596400  1
  F  F18  1  0.73558400  0.90267900  0.01596400  1
  F  F19  1  0.26441600  0.09732100  0.98403600  1
  F  F20  1  0.07305300  0.59685400  0.74260800  1
  F  F21  1  0.92694700  0.40314600  0.25739200  1
  F  F22  1  0.57305300  0.40314600  0.75739200  1
  F  F23  1  0.92694700  0.09685400  0.25739200  1
  F  F24  1  0.42694700  0.59685400  0.24260800  1
  F  F25  1  0.07305300  0.90314600  0.74260800  1
  F  F26  1  0.42694700  0.90314600  0.24260800  1
  F  F27  1  0.57305300  0.09685400  0.75739200  1
