# generated using pymatgen
data_TiAs2O9
_symmetry_space_group_name_H-M   'P 1'
_cell_length_a   5.25222000
_cell_length_b   8.91245237
_cell_length_c   15.63596774
_cell_angle_alpha   102.29511370
_cell_angle_beta   90.00000000
_cell_angle_gamma   90.00000000
_symmetry_Int_Tables_number   1
_chemical_formula_structural   TiAs2O9
_chemical_formula_sum   'Ti4 As8 O36'
_cell_volume   715.13460333
_cell_formula_units_Z   4
loop_
 _symmetry_equiv_pos_site_id
 _symmetry_equiv_pos_as_xyz
  1  'x, y, z'
loop_
 _atom_site_type_symbol
 _atom_site_label
 _atom_site_symmetry_multiplicity
 _atom_site_fract_x
 _atom_site_fract_y
 _atom_site_fract_z
 _atom_site_occupancy
  Ti  Ti0  1  0.23627900  0.75961900  0.52338800  1
  Ti  Ti1  1  0.76372100  0.24038100  0.47661200  1
  Ti  Ti2  1  0.73627900  0.74038100  0.97661200  1
  Ti  Ti3  1  0.26372100  0.25961900  0.02338800  1
  As  As4  1  0.27042700  0.14698700  0.60133800  1
  As  As5  1  0.72957300  0.85301300  0.39866200  1
  As  As6  1  0.77042700  0.35301300  0.89866200  1
  As  As7  1  0.22957300  0.64698700  0.10133800  1
  As  As8  1  0.23480300  0.88933100  0.88432200  1
  As  As9  1  0.76519700  0.11066900  0.11567800  1
  As  As10  1  0.73480300  0.61066900  0.61567800  1
  As  As11  1  0.26519700  0.38933100  0.38432200  1
  O  O12  1  0.56856800  0.24935100  0.94971000  1
  O  O13  1  0.43143200  0.75064900  0.05029000  1
  O  O14  1  0.06856800  0.25064900  0.55029000  1
  O  O15  1  0.93143200  0.74935100  0.44971000  1
  O  O16  1  0.19343900  0.91364600  0.77820800  1
  O  O17  1  0.80656100  0.08635400  0.22179200  1
  O  O18  1  0.69343900  0.58635400  0.72179200  1
  O  O19  1  0.30656100  0.41364600  0.27820800  1
  O  O20  1  0.07542500  0.35787800  0.93866500  1
  O  O21  1  0.92457500  0.64212200  0.06133500  1
  O  O22  1  0.57542500  0.14212200  0.56133500  1
  O  O23  1  0.42457500  0.85787800  0.43866500  1
  O  O24  1  0.15568400  0.96365500  0.59131300  1
  O  O25  1  0.84431600  0.03634500  0.40868700  1
  O  O26  1  0.65568400  0.53634500  0.90868700  1
  O  O27  1  0.34431600  0.46365500  0.09131300  1
  O  O28  1  0.28602800  0.23471700  0.71312500  1
  O  O29  1  0.71397200  0.76528300  0.28687500  1
  O  O30  1  0.78602800  0.26528300  0.78687500  1
  O  O31  1  0.21397200  0.73471700  0.21312500  1
  O  O32  1  0.35755000  0.48058400  0.74572100  1
  O  O33  1  0.64245000  0.51941600  0.25427900  1
  O  O34  1  0.85755000  0.01941600  0.75427900  1
  O  O35  1  0.14245000  0.98058400  0.24572100  1
  O  O36  1  0.53889300  0.75253900  0.59389000  1
  O  O37  1  0.46110700  0.24746100  0.40611000  1
  O  O38  1  0.03889300  0.74746100  0.90611000  1
  O  O39  1  0.96110700  0.25253900  0.09389000  1
  O  O40  1  0.16006500  0.06226800  0.95165900  1
  O  O41  1  0.83993500  0.93773200  0.04834100  1
  O  O42  1  0.66006500  0.43773200  0.54834100  1
  O  O43  1  0.33993500  0.56226800  0.45165900  1
  O  O44  1  0.04705000  0.65974400  0.60385500  1
  O  O45  1  0.95295000  0.34025600  0.39614500  1
  O  O46  1  0.54705000  0.84025600  0.89614500  1
  O  O47  1  0.45295000  0.15974400  0.10385500  1
