# generated using pymatgen
data_TbTa5Ag2O15
_symmetry_space_group_name_H-M   'P 1'
_cell_length_a   12.61404000
_cell_length_b   12.61404000
_cell_length_c   3.92003500
_cell_angle_alpha   90.00000000
_cell_angle_beta   90.00000000
_cell_angle_gamma   90.00000000
_symmetry_Int_Tables_number   1
_chemical_formula_structural   TbTa5Ag2O15
_chemical_formula_sum   'Tb2 Ta10 Ag4 O30'
_cell_volume   623.73246907
_cell_formula_units_Z   2
loop_
 _symmetry_equiv_pos_site_id
 _symmetry_equiv_pos_as_xyz
  1  'x, y, z'
loop_
 _atom_site_type_symbol
 _atom_site_label
 _atom_site_symmetry_multiplicity
 _atom_site_fract_x
 _atom_site_fract_y
 _atom_site_fract_z
 _atom_site_occupancy
  Tb  Tb0  1  0.00000000  0.00000000  0.50000000  1
  Tb  Tb1  1  0.50000000  0.50000000  0.50000000  1
  Ta  Ta2  1  0.50000000  0.00000000  0.00000000  1
  Ta  Ta3  1  0.00000000  0.50000000  0.00000000  1
  Ta  Ta4  1  0.21108900  0.07855100  0.00000000  1
  Ta  Ta5  1  0.78891100  0.92144900  0.00000000  1
  Ta  Ta6  1  0.07855100  0.78891100  0.00000000  1
  Ta  Ta7  1  0.71108900  0.42144900  0.00000000  1
  Ta  Ta8  1  0.92144900  0.21108900  0.00000000  1
  Ta  Ta9  1  0.28891100  0.57855100  0.00000000  1
  Ta  Ta10  1  0.57855100  0.71108900  0.00000000  1
  Ta  Ta11  1  0.42144900  0.28891100  0.00000000  1
  Ag  Ag12  1  0.67164200  0.17164200  0.50000000  1
  Ag  Ag13  1  0.32835800  0.82835800  0.50000000  1
  Ag  Ag14  1  0.17164200  0.32835800  0.50000000  1
  Ag  Ag15  1  0.82835800  0.67164200  0.50000000  1
  O  O16  1  0.18898300  0.07983200  0.50000000  1
  O  O17  1  0.81101700  0.92016800  0.50000000  1
  O  O18  1  0.07983200  0.81101700  0.50000000  1
  O  O19  1  0.68898300  0.42016800  0.50000000  1
  O  O20  1  0.92016800  0.18898300  0.50000000  1
  O  O21  1  0.31101700  0.57983200  0.50000000  1
  O  O22  1  0.57983200  0.68898300  0.50000000  1
  O  O23  1  0.42016800  0.31101700  0.50000000  1
  O  O24  1  0.22413000  0.72413000  0.00000000  1
  O  O25  1  0.77587000  0.27587000  0.00000000  1
  O  O26  1  0.72413000  0.77587000  0.00000000  1
  O  O27  1  0.27587000  0.22413000  0.00000000  1
  O  O28  1  0.50000000  0.00000000  0.50000000  1
  O  O29  1  0.00000000  0.50000000  0.50000000  1
  O  O30  1  0.05704600  0.13026900  0.00000000  1
  O  O31  1  0.94295400  0.86973100  0.00000000  1
  O  O32  1  0.13026900  0.94295400  0.00000000  1
  O  O33  1  0.55704600  0.36973100  0.00000000  1
  O  O34  1  0.86973100  0.05704600  0.00000000  1
  O  O35  1  0.44295400  0.63026900  0.00000000  1
  O  O36  1  0.63026900  0.55704600  0.00000000  1
  O  O37  1  0.36973100  0.44295400  0.00000000  1
  O  O38  1  0.34118800  0.99951800  0.00000000  1
  O  O39  1  0.65881200  0.00048200  0.00000000  1
  O  O40  1  0.99951800  0.65881200  0.00000000  1
  O  O41  1  0.84118800  0.50048200  0.00000000  1
  O  O42  1  0.00048200  0.34118800  0.00000000  1
  O  O43  1  0.15881200  0.49951800  0.00000000  1
  O  O44  1  0.49951800  0.84118800  0.00000000  1
  O  O45  1  0.50048200  0.15881200  0.00000000  1
