# generated using pymatgen
data_Ti4Ag2O9
_symmetry_space_group_name_H-M   'P 1'
_cell_length_a   3.74603100
_cell_length_b   8.99013286
_cell_length_c   12.20123295
_cell_angle_alpha   107.73940855
_cell_angle_beta   90.00000000
_cell_angle_gamma   102.02516610
_symmetry_Int_Tables_number   1
_chemical_formula_structural   Ti4Ag2O9
_chemical_formula_sum   'Ti8 Ag4 O18'
_cell_volume   381.88929380
_cell_formula_units_Z   2
loop_
 _symmetry_equiv_pos_site_id
 _symmetry_equiv_pos_as_xyz
  1  'x, y, z'
loop_
 _atom_site_type_symbol
 _atom_site_label
 _atom_site_symmetry_multiplicity
 _atom_site_fract_x
 _atom_site_fract_y
 _atom_site_fract_z
 _atom_site_occupancy
  Ti  Ti0  1  0.75483500  0.50967000  0.33535800  1
  Ti  Ti1  1  0.24516500  0.49033000  0.66464200  1
  Ti  Ti2  1  0.19897000  0.39794000  0.89370300  1
  Ti  Ti3  1  0.80103000  0.60206000  0.10629700  1
  Ti  Ti4  1  0.84806400  0.69612700  0.87826400  1
  Ti  Ti5  1  0.15193600  0.30387300  0.12173600  1
  Ti  Ti6  1  0.88668500  0.77337000  0.63622200  1
  Ti  Ti7  1  0.11331500  0.22663000  0.36377800  1
  Ag  Ag8  1  0.56133400  0.12266800  0.63025300  1
  Ag  Ag9  1  0.43866600  0.87733200  0.36974700  1
  Ag  Ag10  1  0.52250500  0.04501100  0.86159600  1
  Ag  Ag11  1  0.47749500  0.95498900  0.13840400  1
  O  O12  1  0.77291500  0.54583100  0.70439700  1
  O  O13  1  0.22708500  0.45416900  0.29560300  1
  O  O14  1  0.84205700  0.68411300  0.26222500  1
  O  O15  1  0.15794300  0.31588700  0.73777500  1
  O  O16  1  0.11177200  0.22354300  0.95408200  1
  O  O17  1  0.88822800  0.77645700  0.04591800  1
  O  O18  1  0.31463100  0.62926200  0.86355800  1
  O  O19  1  0.68536900  0.37073800  0.13644200  1
  O  O20  1  0.98178900  0.96357800  0.62015100  1
  O  O21  1  0.01821100  0.03642200  0.37984900  1
  O  O22  1  0.81956700  0.63913400  0.47660400  1
  O  O23  1  0.18043300  0.36086600  0.52339600  1
  O  O24  1  0.73003200  0.46006300  0.92164100  1
  O  O25  1  0.26996800  0.53993700  0.07835900  1
  O  O26  1  0.64320900  0.28641700  0.35229100  1
  O  O27  1  0.35679100  0.71358300  0.64770900  1
  O  O28  1  0.93212200  0.86424300  0.82468700  1
  O  O29  1  0.06787800  0.13575700  0.17531300  1
