# generated using pymatgen
data_TbAl3(BO3)4
_symmetry_space_group_name_H-M   'P 1'
_cell_length_a   5.93218560
_cell_length_b   5.93218560
_cell_length_c   5.93218528
_cell_angle_alpha   104.21392452
_cell_angle_beta   104.21392452
_cell_angle_gamma   104.21392408
_symmetry_Int_Tables_number   1
_chemical_formula_structural   TbAl3(BO3)4
_chemical_formula_sum   'Tb1 Al3 B4 O12'
_cell_volume   185.49196522
_cell_formula_units_Z   1
loop_
 _symmetry_equiv_pos_site_id
 _symmetry_equiv_pos_as_xyz
  1  'x, y, z'
loop_
 _atom_site_type_symbol
 _atom_site_label
 _atom_site_symmetry_multiplicity
 _atom_site_fract_x
 _atom_site_fract_y
 _atom_site_fract_z
 _atom_site_occupancy
  Tb  Tb0  1  0.50000000  0.50000000  0.50000000  1
  Al  Al1  1  0.05560100  0.94439900  0.50000000  1
  Al  Al2  1  0.94439900  0.50000000  0.05560100  1
  Al  Al3  1  0.50000000  0.05560100  0.94439900  1
  B  B4  1  0.44286100  0.55713900  0.00000000  1
  B  B5  1  0.55713900  0.00000000  0.44286100  1
  B  B6  1  0.00000000  0.44286100  0.55713900  1
  B  B7  1  0.00000000  0.00000000  0.00000000  1
  O  O8  1  0.27855700  0.52841100  0.12759400  1
  O  O9  1  0.52841100  0.12759400  0.27855700  1
  O  O10  1  0.72144300  0.87240600  0.47158900  1
  O  O11  1  0.12759400  0.27855700  0.52841100  1
  O  O12  1  0.47158900  0.72144300  0.87240600  1
  O  O13  1  0.87240600  0.47158900  0.72144300  1
  O  O14  1  0.85121800  0.14878200  0.00000000  1
  O  O15  1  0.14878200  0.00000000  0.85121800  1
  O  O16  1  0.00000000  0.85121800  0.14878200  1
  O  O17  1  0.59132900  0.40867100  0.00000000  1
  O  O18  1  0.40867100  0.00000000  0.59132900  1
  O  O19  1  0.00000000  0.59132900  0.40867100  1
