# generated using pymatgen
data_TbCrTeO6
_symmetry_space_group_name_H-M   'P 1'
_cell_length_a   5.43760966
_cell_length_b   5.43760966
_cell_length_c   8.57601900
_cell_angle_alpha   90.00000000
_cell_angle_beta   90.00000000
_cell_angle_gamma   119.99999583
_symmetry_Int_Tables_number   1
_chemical_formula_structural   TbCrTeO6
_chemical_formula_sum   'Tb2 Cr2 Te2 O12'
_cell_volume   219.60005316
_cell_formula_units_Z   2
loop_
 _symmetry_equiv_pos_site_id
 _symmetry_equiv_pos_as_xyz
  1  'x, y, z'
loop_
 _atom_site_type_symbol
 _atom_site_label
 _atom_site_symmetry_multiplicity
 _atom_site_fract_x
 _atom_site_fract_y
 _atom_site_fract_z
 _atom_site_occupancy
  Tb  Tb0  1  0.33333300  0.66666700  0.75000000  1
  Tb  Tb1  1  0.66666700  0.33333300  0.25000000  1
  Cr  Cr2  1  0.00000000  0.00000000  0.00000000  1
  Cr  Cr3  1  0.00000000  0.00000000  0.50000000  1
  Te  Te4  1  0.66666700  0.33333300  0.75000000  1
  Te  Te5  1  0.33333300  0.66666700  0.25000000  1
  O  O6  1  0.95501300  0.30908300  0.87729000  1
  O  O7  1  0.04498700  0.69091700  0.12271000  1
  O  O8  1  0.35407000  0.04498700  0.87729000  1
  O  O9  1  0.35407000  0.30908300  0.62271000  1
  O  O10  1  0.64593000  0.95501300  0.12271000  1
  O  O11  1  0.64593000  0.69091700  0.37729000  1
  O  O12  1  0.69091700  0.64593000  0.87729000  1
  O  O13  1  0.69091700  0.04498700  0.62271000  1
  O  O14  1  0.30908300  0.35407000  0.12271000  1
  O  O15  1  0.30908300  0.95501300  0.37729000  1
  O  O16  1  0.95501300  0.64593000  0.62271000  1
  O  O17  1  0.04498700  0.35407000  0.37729000  1
