# generated using pymatgen
data_Th2CuP2O
_symmetry_space_group_name_H-M   'P 1'
_cell_length_a   3.40800600
_cell_length_b   3.40800600
_cell_length_c   14.15391200
_cell_angle_alpha   90.00000000
_cell_angle_beta   90.00000000
_cell_angle_gamma   90.00000000
_symmetry_Int_Tables_number   1
_chemical_formula_structural   Th2CuP2O
_chemical_formula_sum   'Th2 Cu1 P2 O1'
_cell_volume   164.39068022
_cell_formula_units_Z   1
loop_
 _symmetry_equiv_pos_site_id
 _symmetry_equiv_pos_as_xyz
  1  'x, y, z'
loop_
 _atom_site_type_symbol
 _atom_site_label
 _atom_site_symmetry_multiplicity
 _atom_site_fract_x
 _atom_site_fract_y
 _atom_site_fract_z
 _atom_site_occupancy
  Th  Th0  1  0.50000000  0.50000000  0.65051100  1
  Th  Th1  1  0.50000000  0.50000000  0.34948900  1
  Cu  Cu2  1  0.50000000  0.50000000  0.00000000  1
  P  P3  1  0.50000000  0.50000000  0.15198400  1
  P  P4  1  0.50000000  0.50000000  0.84801600  1
  O  O5  1  0.50000000  0.50000000  0.50000000  1
