# generated using pymatgen
data_Te3Pd5
_symmetry_space_group_name_H-M   'P 1'
_cell_length_a   8.44927125
_cell_length_b   8.44927125
_cell_length_c   8.44927125
_cell_angle_alpha   60.00000000
_cell_angle_beta   60.00000000
_cell_angle_gamma   60.00000000
_symmetry_Int_Tables_number   1
_chemical_formula_structural   Te3Pd5
_chemical_formula_sum   'Te6 Pd10'
_cell_volume   426.52330010
_cell_formula_units_Z   2
loop_
 _symmetry_equiv_pos_site_id
 _symmetry_equiv_pos_as_xyz
  1  'x, y, z'
loop_
 _atom_site_type_symbol
 _atom_site_label
 _atom_site_symmetry_multiplicity
 _atom_site_fract_x
 _atom_site_fract_y
 _atom_site_fract_z
 _atom_site_occupancy
  Te  Te0  1  0.12500000  0.12500000  0.12500000  1
  Te  Te1  1  0.12500000  0.12500000  0.62500000  1
  Te  Te2  1  0.12500000  0.62500000  0.12500000  1
  Te  Te3  1  0.62500000  0.12500000  0.12500000  1
  Te  Te4  1  0.50000000  0.50000000  0.50000000  1
  Te  Te5  1  0.75000000  0.75000000  0.75000000  1
  Pd  Pd6  1  0.87361300  0.37546200  0.37546200  1
  Pd  Pd7  1  0.37546200  0.87361300  0.37546200  1
  Pd  Pd8  1  0.37546200  0.37546200  0.87361300  1
  Pd  Pd9  1  0.37638700  0.87453800  0.87453800  1
  Pd  Pd10  1  0.37546200  0.37546200  0.37546200  1
  Pd  Pd11  1  0.87453800  0.37638700  0.87453800  1
  Pd  Pd12  1  0.87453800  0.87453800  0.87453800  1
  Pd  Pd13  1  0.87453800  0.87453800  0.37638700  1
  Pd  Pd14  1  0.00000000  0.00000000  0.00000000  1
  Pd  Pd15  1  0.25000000  0.25000000  0.25000000  1
