# generated using pymatgen
data_TeH6S(NO5)2
_symmetry_space_group_name_H-M   'P 1'
_cell_length_a   6.75470000
_cell_length_b   11.72468500
_cell_length_c   14.22593651
_cell_angle_alpha   73.44498724
_cell_angle_beta   90.00000000
_cell_angle_gamma   90.00000000
_symmetry_Int_Tables_number   1
_chemical_formula_structural   TeH6S(NO5)2
_chemical_formula_sum   'Te4 H24 S4 N8 O40'
_cell_volume   1079.94426801
_cell_formula_units_Z   4
loop_
 _symmetry_equiv_pos_site_id
 _symmetry_equiv_pos_as_xyz
  1  'x, y, z'
loop_
 _atom_site_type_symbol
 _atom_site_label
 _atom_site_symmetry_multiplicity
 _atom_site_fract_x
 _atom_site_fract_y
 _atom_site_fract_z
 _atom_site_occupancy
  Te  Te0  1  0.00000000  0.50000000  0.50000000  1
  Te  Te1  1  0.50000000  0.00000000  0.50000000  1
  Te  Te2  1  0.00000000  0.00000000  0.00000000  1
  Te  Te3  1  0.50000000  0.50000000  0.00000000  1
  H  H4  1  0.00716400  0.66324100  0.58237300  1
  H  H5  1  0.99283600  0.33675900  0.41762700  1
  H  H6  1  0.50716400  0.83675900  0.41762700  1
  H  H7  1  0.49283600  0.16324100  0.58237300  1
  H  H8  1  0.76300800  0.90871700  0.13622300  1
  H  H9  1  0.23699200  0.09128300  0.86377700  1
  H  H10  1  0.26300800  0.59128300  0.86377700  1
  H  H11  1  0.73699200  0.40871700  0.13622300  1
  H  H12  1  0.31570100  0.90995800  0.07004600  1
  H  H13  1  0.68429900  0.09004200  0.92995400  1
  H  H14  1  0.81570100  0.59004200  0.92995400  1
  H  H15  1  0.18429900  0.40995800  0.07004600  1
  H  H16  1  0.79289900  0.62877200  0.36826200  1
  H  H17  1  0.20710100  0.37122800  0.63173800  1
  H  H18  1  0.29289900  0.87122800  0.63173800  1
  H  H19  1  0.70710100  0.12877200  0.36826200  1
  H  H20  1  0.44114900  0.64042900  0.10019400  1
  H  H21  1  0.55885100  0.35957100  0.89980600  1
  H  H22  1  0.94114900  0.85957100  0.89980600  1
  H  H23  1  0.05885100  0.14042900  0.10019400  1
  H  H24  1  0.74897200  0.86568400  0.60361500  1
  H  H25  1  0.25102800  0.13431600  0.39638500  1
  H  H26  1  0.24897200  0.63431600  0.39638500  1
  H  H27  1  0.75102800  0.36568400  0.60361500  1
  S  S28  1  0.49293900  0.76581800  0.24872600  1
  S  S29  1  0.50706100  0.23418200  0.75127400  1
  S  S30  1  0.99293900  0.73418200  0.75127400  1
  S  S31  1  0.00706100  0.26581800  0.24872600  1
  N  N32  1  0.97239500  0.65818800  0.14627500  1
  N  N33  1  0.02760500  0.34181200  0.85372500  1
  N  N34  1  0.47239500  0.84181200  0.85372500  1
  N  N35  1  0.52760500  0.15818800  0.14627500  1
  N  N36  1  0.49875100  0.40576500  0.35161800  1
  N  N37  1  0.50124900  0.59423500  0.64838200  1
  N  N38  1  0.99875100  0.09423500  0.64838200  1
  N  N39  1  0.00124900  0.90576500  0.35161800  1
  O  O40  1  0.41709000  0.85710200  0.46642900  1
  O  O41  1  0.58291000  0.14289800  0.53357100  1
  O  O42  1  0.91709000  0.64289800  0.53357100  1
  O  O43  1  0.08291000  0.35710200  0.46642900  1
  O  O44  1  0.73191200  0.60032100  0.98401500  1
  O  O45  1  0.26808800  0.39967900  0.01598500  1
  O  O46  1  0.23191200  0.89967900  0.01598500  1
  O  O47  1  0.76808800  0.10032100  0.98401500  1
  O  O48  1  0.78139600  0.75827300  0.72074800  1
  O  O49  1  0.21860400  0.24172700  0.27925200  1
  O  O50  1  0.28139600  0.74172700  0.27925200  1
  O  O51  1  0.71860400  0.25827300  0.72074800  1
  O  O52  1  0.89544600  0.56760300  0.36931300  1
  O  O53  1  0.10455400  0.43239700  0.63068700  1
  O  O54  1  0.39544600  0.93239700  0.63068700  1
  O  O55  1  0.60455400  0.06760300  0.36931300  1
  O  O56  1  0.61818800  0.76429300  0.33401400  1
  O  O57  1  0.38181200  0.23570700  0.66598600  1
  O  O58  1  0.11818800  0.73570700  0.66598600  1
  O  O59  1  0.88181200  0.26429300  0.33401400  1
  O  O60  1  0.91111700  0.90897100  0.13165900  1
  O  O61  1  0.08888300  0.09102900  0.86834100  1
  O  O62  1  0.41111700  0.59102900  0.86834100  1
  O  O63  1  0.58888300  0.40897100  0.13165900  1
  O  O64  1  0.76109000  0.93213100  0.54123300  1
  O  O65  1  0.23891000  0.06786900  0.45876700  1
  O  O66  1  0.26109000  0.56786900  0.45876700  1
  O  O67  1  0.73891000  0.43213100  0.54123300  1
  O  O68  1  0.51026100  0.87907600  0.17013900  1
  O  O69  1  0.48973900  0.12092400  0.82986100  1
  O  O70  1  0.01026100  0.62092400  0.82986100  1
  O  O71  1  0.98973900  0.37907600  0.17013900  1
  O  O72  1  0.54897900  0.66466100  0.20895200  1
  O  O73  1  0.45102100  0.33533900  0.79104800  1
  O  O74  1  0.04897900  0.83533900  0.79104800  1
  O  O75  1  0.95102100  0.16466100  0.20895200  1
  O  O76  1  0.35527700  0.60661300  0.05771500  1
  O  O77  1  0.64472300  0.39338700  0.94228500  1
  O  O78  1  0.85527700  0.89338700  0.94228500  1
  O  O79  1  0.14472300  0.10661300  0.05771500  1
