# generated using pymatgen
data_TbWO5
_symmetry_space_group_name_H-M   'P 1'
_cell_length_a   12.89400000
_cell_length_b   5.29865400
_cell_length_c   7.03060919
_cell_angle_alpha   63.16300558
_cell_angle_beta   90.00000000
_cell_angle_gamma   90.00000000
_symmetry_Int_Tables_number   1
_chemical_formula_structural   TbWO5
_chemical_formula_sum   'Tb4 W4 O20'
_cell_volume   428.60221065
_cell_formula_units_Z   4
loop_
 _symmetry_equiv_pos_site_id
 _symmetry_equiv_pos_as_xyz
  1  'x, y, z'
loop_
 _atom_site_type_symbol
 _atom_site_label
 _atom_site_symmetry_multiplicity
 _atom_site_fract_x
 _atom_site_fract_y
 _atom_site_fract_z
 _atom_site_occupancy
  Tb  Tb0  1  0.55633600  0.63805500  0.21666800  1
  Tb  Tb1  1  0.44366400  0.36194500  0.78333200  1
  Tb  Tb2  1  0.05633600  0.36194500  0.28333200  1
  Tb  Tb3  1  0.94366400  0.63805500  0.71666800  1
  W  W4  1  0.86095400  0.88378100  0.15559500  1
  W  W5  1  0.13904600  0.11621900  0.84440500  1
  W  W6  1  0.36095400  0.11621900  0.34440500  1
  W  W7  1  0.63904600  0.88378100  0.65559500  1
  O  O8  1  0.91095400  0.52633500  0.43195800  1
  O  O9  1  0.08904600  0.47366500  0.56804200  1
  O  O10  1  0.41095400  0.47366500  0.06804200  1
  O  O11  1  0.58904600  0.52633500  0.93195800  1
  O  O12  1  0.42963100  0.99254600  0.15750700  1
  O  O13  1  0.57036900  0.00745400  0.84249300  1
  O  O14  1  0.92963100  0.00745400  0.34249300  1
  O  O15  1  0.07036900  0.99254600  0.65750700  1
  O  O16  1  0.93198000  0.69036400  0.03018800  1
  O  O17  1  0.06802000  0.30963600  0.96981200  1
  O  O18  1  0.43198000  0.30963600  0.46981200  1
  O  O19  1  0.56802000  0.69036400  0.53018800  1
  O  O20  1  0.72582200  0.79260700  0.20539400  1
  O  O21  1  0.27417800  0.20739300  0.79460600  1
  O  O22  1  0.22582200  0.20739300  0.29460600  1
  O  O23  1  0.77417800  0.79260700  0.70539400  1
  O  O24  1  0.14295700  0.77190000  0.07428100  1
  O  O25  1  0.85704300  0.22810000  0.92571900  1
  O  O26  1  0.64295700  0.22810000  0.42571900  1
  O  O27  1  0.35704300  0.77190000  0.57428100  1
