# generated using pymatgen
data_Te4Xe(OF5)4
_symmetry_space_group_name_H-M   'P 1'
_cell_length_a   5.71099800
_cell_length_b   8.84720065
_cell_length_c   10.55591560
_cell_angle_alpha   109.77399924
_cell_angle_beta   97.92283498
_cell_angle_gamma   91.23994234
_symmetry_Int_Tables_number   1
_chemical_formula_structural   Te4Xe(OF5)4
_chemical_formula_sum   'Te4 Xe1 O4 F20'
_cell_volume   495.77616286
_cell_formula_units_Z   1
loop_
 _symmetry_equiv_pos_site_id
 _symmetry_equiv_pos_as_xyz
  1  'x, y, z'
loop_
 _atom_site_type_symbol
 _atom_site_label
 _atom_site_symmetry_multiplicity
 _atom_site_fract_x
 _atom_site_fract_y
 _atom_site_fract_z
 _atom_site_occupancy
  Te  Te0  1  0.26256600  0.09957400  0.74109700  1
  Te  Te1  1  0.73743400  0.90042600  0.25890300  1
  Te  Te2  1  0.22702700  0.39262100  0.25182700  1
  Te  Te3  1  0.77297300  0.60737900  0.74817300  1
  Xe  Xe4  1  0.00000000  0.00000000  0.00000000  1
  O  O5  1  0.76441700  0.03334200  0.14897600  1
  O  O6  1  0.23558300  0.96665800  0.85102400  1
  O  O7  1  0.26285300  0.16981800  0.14990100  1
  O  O8  1  0.73714700  0.83018200  0.85009900  1
  F  F9  1  0.13164600  0.27081200  0.86431500  1
  F  F10  1  0.86835400  0.72918800  0.13568500  1
  F  F11  1  0.08431000  0.33543300  0.37996800  1
  F  F12  1  0.91569000  0.66456700  0.62003200  1
  F  F13  1  0.30130200  0.22890200  0.63715700  1
  F  F14  1  0.69869800  0.77109800  0.36284300  1
  F  F15  1  0.92795100  0.38561500  0.14882000  1
  F  F16  1  0.07204900  0.61438500  0.85118000  1
  F  F17  1  0.60921100  0.06893000  0.38425200  1
  F  F18  1  0.39078900  0.93107000  0.61574800  1
  F  F19  1  0.37144000  0.46451400  0.13187400  1
  F  F20  1  0.62856000  0.53548600  0.86812600  1
  F  F21  1  0.52668800  0.40147200  0.35277700  1
  F  F22  1  0.47331200  0.59852800  0.64722300  1
  F  F23  1  0.04235400  0.96933900  0.35712500  1
  F  F24  1  0.95764600  0.03066100  0.64287500  1
  F  F25  1  0.43150800  0.82371200  0.16292600  1
  F  F26  1  0.56849200  0.17628800  0.83707400  1
  F  F27  1  0.19437700  0.60722200  0.35292100  1
  F  F28  1  0.80562300  0.39277800  0.64707900  1
