# generated using pymatgen
data_SrLa2Mn3O9
_symmetry_space_group_name_H-M   'P 1'
_cell_length_a   5.53825257
_cell_length_b   5.54590180
_cell_length_c   6.78781306
_cell_angle_alpha   90.04105545
_cell_angle_beta   90.06662693
_cell_angle_gamma   120.01075484
_symmetry_Int_Tables_number   1
_chemical_formula_structural   SrLa2Mn3O9
_chemical_formula_sum   'Sr1 La2 Mn3 O9'
_cell_volume   180.53340779
_cell_formula_units_Z   1
loop_
 _symmetry_equiv_pos_site_id
 _symmetry_equiv_pos_as_xyz
  1  'x, y, z'
loop_
 _atom_site_type_symbol
 _atom_site_label
 _atom_site_symmetry_multiplicity
 _atom_site_fract_x
 _atom_site_fract_y
 _atom_site_fract_z
 _atom_site_occupancy
  Sr  Sr0  1  0.99999900  0.99999800  0.99999800  1
  La  La1  1  0.66668900  0.33335100  0.33288800  1
  La  La2  1  0.33331000  0.66664700  0.66711400  1
  Mn  Mn3  1  0.66660800  0.33328700  0.83510700  1
  Mn  Mn4  1  0.33339000  0.66671500  0.16489300  1
  Mn  Mn5  1  0.00000200  0.00000000  0.50000700  1
  O  O6  1  0.83035900  0.66074700  0.65909200  1
  O  O7  1  0.16966100  0.33929100  0.34088500  1
  O  O8  1  0.83047500  0.16947800  0.65889200  1
  O  O9  1  0.16951800  0.83054800  0.34112300  1
  O  O10  1  0.33867200  0.16932700  0.65863400  1
  O  O11  1  0.66137000  0.83069800  0.34138400  1
  O  O12  1  0.50001000  0.49997600  0.99998200  1
  O  O13  1  0.99996000  0.49997500  0.99997700  1
  O  O14  1  0.49997700  0.99996000  0.00002300  1
