# generated using pymatgen
data_YMn2AsO4
_symmetry_space_group_name_H-M   'P 1'
_cell_length_a   6.51962900
_cell_length_b   7.01986900
_cell_length_c   12.97226700
_cell_angle_alpha   90.00000000
_cell_angle_beta   90.00000000
_cell_angle_gamma   90.00000000
_symmetry_Int_Tables_number   1
_chemical_formula_structural   YMn2AsO4
_chemical_formula_sum   'Y4 Mn8 As4 O16'
_cell_volume   593.70098502
_cell_formula_units_Z   4
loop_
 _symmetry_equiv_pos_site_id
 _symmetry_equiv_pos_as_xyz
  1  'x, y, z'
loop_
 _atom_site_type_symbol
 _atom_site_label
 _atom_site_symmetry_multiplicity
 _atom_site_fract_x
 _atom_site_fract_y
 _atom_site_fract_z
 _atom_site_occupancy
  Y  Y0  1  0.00000000  0.75000000  0.25000000  1
  Y  Y1  1  0.00000000  0.25000000  0.75000000  1
  Y  Y2  1  0.00000000  0.25000000  0.25000000  1
  Y  Y3  1  0.00000000  0.75000000  0.75000000  1
  Mn  Mn4  1  0.20452700  0.32521200  0.04796400  1
  Mn  Mn5  1  0.20452700  0.67478800  0.95203600  1
  Mn  Mn6  1  0.79547300  0.67478800  0.04796400  1
  Mn  Mn7  1  0.79547300  0.17478800  0.45203600  1
  Mn  Mn8  1  0.79547300  0.32521200  0.95203600  1
  Mn  Mn9  1  0.79547300  0.82521200  0.54796400  1
  Mn  Mn10  1  0.20452700  0.82521200  0.45203600  1
  Mn  Mn11  1  0.20452700  0.17478800  0.54796400  1
  As  As12  1  0.50000000  0.25000000  0.25000000  1
  As  As13  1  0.50000000  0.75000000  0.75000000  1
  As  As14  1  0.50000000  0.75000000  0.25000000  1
  As  As15  1  0.50000000  0.25000000  0.75000000  1
  O  O16  1  0.14009600  0.63886900  0.10104600  1
  O  O17  1  0.14009600  0.36113100  0.89895400  1
  O  O18  1  0.85990400  0.36113100  0.10104600  1
  O  O19  1  0.85990400  0.86113100  0.39895400  1
  O  O20  1  0.85990400  0.63886900  0.89895400  1
  O  O21  1  0.85990400  0.13886900  0.60104600  1
  O  O22  1  0.14009600  0.13886900  0.39895400  1
  O  O23  1  0.14009600  0.86113100  0.60104600  1
  O  O24  1  0.25667800  0.14101500  0.15993300  1
  O  O25  1  0.25667800  0.85898500  0.84006700  1
  O  O26  1  0.74332200  0.85898500  0.15993300  1
  O  O27  1  0.74332200  0.35898500  0.34006700  1
  O  O28  1  0.74332200  0.14101500  0.84006700  1
  O  O29  1  0.74332200  0.64101500  0.65993300  1
  O  O30  1  0.25667800  0.64101500  0.34006700  1
  O  O31  1  0.25667800  0.35898500  0.65993300  1
