# generated using pymatgen
data_Sr2YbCu2(BiO4)2
_symmetry_space_group_name_H-M   'P 1'
_cell_length_a   15.86634864
_cell_length_b   15.86634864
_cell_length_c   5.23770100
_cell_angle_alpha   90.00000000
_cell_angle_beta   90.00000000
_cell_angle_gamma   160.18916433
_symmetry_Int_Tables_number   1
_chemical_formula_structural   Sr2YbCu2(BiO4)2
_chemical_formula_sum   'Sr4 Yb2 Cu4 Bi4 O16'
_cell_volume   446.87552641
_cell_formula_units_Z   2
loop_
 _symmetry_equiv_pos_site_id
 _symmetry_equiv_pos_as_xyz
  1  'x, y, z'
loop_
 _atom_site_type_symbol
 _atom_site_label
 _atom_site_symmetry_multiplicity
 _atom_site_fract_x
 _atom_site_fract_y
 _atom_site_fract_z
 _atom_site_occupancy
  Sr  Sr0  1  0.60698300  0.89320900  0.00000000  1
  Sr  Sr1  1  0.39301700  0.10679100  0.00000000  1
  Sr  Sr2  1  0.10679100  0.39301700  0.50000000  1
  Sr  Sr3  1  0.89320900  0.60698300  0.50000000  1
  Yb  Yb4  1  0.50000000  0.00000000  0.00000000  1
  Yb  Yb5  1  0.00000000  0.50000000  0.50000000  1
  Cu  Cu6  1  0.04580800  0.45444800  0.00000000  1
  Cu  Cu7  1  0.95419200  0.54555200  0.00000000  1
  Cu  Cu8  1  0.54555200  0.95419200  0.50000000  1
  Cu  Cu9  1  0.45444800  0.04580800  0.50000000  1
  Bi  Bi10  1  0.17782100  0.27743500  0.00000000  1
  Bi  Bi11  1  0.82217900  0.72256500  0.00000000  1
  Bi  Bi12  1  0.72256500  0.82217900  0.50000000  1
  Bi  Bi13  1  0.27743500  0.17782100  0.50000000  1
  O  O14  1  0.14199700  0.37323200  0.00000000  1
  O  O15  1  0.85800300  0.62676800  0.00000000  1
  O  O16  1  0.62676800  0.85800300  0.50000000  1
  O  O17  1  0.37323200  0.14199700  0.50000000  1
  O  O18  1  0.70052900  0.29947100  0.25000000  1
  O  O19  1  0.29947100  0.70052900  0.75000000  1
  O  O20  1  0.29947100  0.70052900  0.25000000  1
  O  O21  1  0.70052900  0.29947100  0.75000000  1
  O  O22  1  0.78268000  0.88280300  0.00000000  1
  O  O23  1  0.21732000  0.11719700  0.00000000  1
  O  O24  1  0.11719700  0.21732000  0.50000000  1
  O  O25  1  0.88280300  0.78268000  0.50000000  1
  O  O26  1  0.79964400  0.20035600  0.25000000  1
  O  O27  1  0.20035600  0.79964400  0.75000000  1
  O  O28  1  0.20035600  0.79964400  0.25000000  1
  O  O29  1  0.79964400  0.20035600  0.75000000  1
