# generated using pymatgen
data_SrZnF2
_symmetry_space_group_name_H-M   'P 1'
_cell_length_a   7.88888900
_cell_length_b   7.88888900
_cell_length_c   7.93381408
_cell_angle_alpha   119.81286687
_cell_angle_beta   119.81286687
_cell_angle_gamma   90.00000000
_symmetry_Int_Tables_number   1
_chemical_formula_structural   SrZnF2
_chemical_formula_sum   'Sr4 Zn4 F8'
_cell_volume   351.10509978
_cell_formula_units_Z   4
loop_
 _symmetry_equiv_pos_site_id
 _symmetry_equiv_pos_as_xyz
  1  'x, y, z'
loop_
 _atom_site_type_symbol
 _atom_site_label
 _atom_site_symmetry_multiplicity
 _atom_site_fract_x
 _atom_site_fract_y
 _atom_site_fract_z
 _atom_site_occupancy
  Sr  Sr0  1  0.62500000  0.87500000  0.25000000  1
  Sr  Sr1  1  0.62500000  0.37500000  0.25000000  1
  Sr  Sr2  1  0.62500000  0.37500000  0.75000000  1
  Sr  Sr3  1  0.12500000  0.37500000  0.75000000  1
  Zn  Zn4  1  0.12500000  0.37500000  0.25000000  1
  Zn  Zn5  1  0.12500000  0.87500000  0.25000000  1
  Zn  Zn6  1  0.12500000  0.87500000  0.75000000  1
  Zn  Zn7  1  0.62500000  0.87500000  0.75000000  1
  F  F8  1  0.47269300  0.15904600  0.31819100  1
  F  F9  1  0.84549800  0.15914500  0.31819100  1
  F  F10  1  0.40914500  0.22269300  0.81819100  1
  F  F11  1  0.77730700  0.59095400  0.18180900  1
  F  F12  1  0.40904600  0.59549800  0.81819100  1
  F  F13  1  0.40450200  0.59085500  0.18180900  1
  F  F14  1  0.84085500  0.52730700  0.68180900  1
  F  F15  1  0.84095400  0.15450200  0.68180900  1
