# generated using pymatgen
data_MgSiO3
_symmetry_space_group_name_H-M   'P 1'
_cell_length_a   8.96474800
_cell_length_b   5.27939700
_cell_length_c   18.68860856
_cell_angle_alpha   84.76841032
_cell_angle_beta   90.00000000
_cell_angle_gamma   90.00000000
_symmetry_Int_Tables_number   1
_chemical_formula_structural   MgSiO3
_chemical_formula_sum   'Mg16 Si16 O48'
_cell_volume   880.81853705
_cell_formula_units_Z   16
loop_
 _symmetry_equiv_pos_site_id
 _symmetry_equiv_pos_as_xyz
  1  'x, y, z'
loop_
 _atom_site_type_symbol
 _atom_site_label
 _atom_site_symmetry_multiplicity
 _atom_site_fract_x
 _atom_site_fract_y
 _atom_site_fract_z
 _atom_site_occupancy
  Mg  Mg0  1  0.09815400  0.56689600  0.81288800  1
  Mg  Mg1  1  0.90184600  0.06689600  0.81288800  1
  Mg  Mg2  1  0.74025300  0.56195900  0.81621800  1
  Mg  Mg3  1  0.25974700  0.06195900  0.81621800  1
  Mg  Mg4  1  0.40037100  0.18684600  0.56358400  1
  Mg  Mg5  1  0.59962900  0.68684600  0.56358400  1
  Mg  Mg6  1  0.75544700  0.18538000  0.56408800  1
  Mg  Mg7  1  0.24455300  0.68538000  0.56408800  1
  Mg  Mg8  1  0.09961200  0.81946200  0.31238000  1
  Mg  Mg9  1  0.90038800  0.31946200  0.31238000  1
  Mg  Mg10  1  0.74105700  0.81776300  0.31084500  1
  Mg  Mg11  1  0.25894300  0.31776300  0.31084500  1
  Mg  Mg12  1  0.40158100  0.75865400  0.06057500  1
  Mg  Mg13  1  0.59841900  0.25865400  0.06057500  1
  Mg  Mg14  1  0.23828100  0.26501000  0.05843900  1
  Mg  Mg15  1  0.76171900  0.76501000  0.05843900  1
  Si  Si16  1  0.91368200  0.35484200  0.96316500  1
  Si  Si17  1  0.08631800  0.85484200  0.96316500  1
  Si  Si18  1  0.41341000  0.46981600  0.91107300  1
  Si  Si19  1  0.58659000  0.96981600  0.91107300  1
  Si  Si20  1  0.41071000  0.80466300  0.71120400  1
  Si  Si21  1  0.58929000  0.30466300  0.71120400  1
  Si  Si22  1  0.09082300  0.27877000  0.66686500  1
  Si  Si23  1  0.90917700  0.77877000  0.66686500  1
  Si  Si24  1  0.58881000  0.07309600  0.41608800  1
  Si  Si25  1  0.41119000  0.57309600  0.41608800  1
  Si  Si26  1  0.08969800  0.10685800  0.46077800  1
  Si  Si27  1  0.91030200  0.60685800  0.46077800  1
  Si  Si28  1  0.08996100  0.52826700  0.16385800  1
  Si  Si29  1  0.91003900  0.02826700  0.16385800  1
  Si  Si30  1  0.40992400  0.05239000  0.20647400  1
  Si  Si31  1  0.59007600  0.55239000  0.20647400  1
  O  O32  1  0.91055300  0.38000000  0.87510100  1
  O  O33  1  0.08944700  0.88000000  0.87510100  1
  O  O34  1  0.76895200  0.45131400  0.00378500  1
  O  O35  1  0.23104800  0.95131400  0.00378500  1
  O  O36  1  0.05400700  0.54302100  0.98855400  1
  O  O37  1  0.94599300  0.04302100  0.98855400  1
  O  O38  1  0.40991500  0.44447900  0.99911800  1
  O  O39  1  0.59008500  0.94447900  0.99911800  1
  O  O40  1  0.55356600  0.28138800  0.88576300  1
  O  O41  1  0.44643400  0.78138800  0.88576300  1
  O  O42  1  0.73145300  0.87498400  0.87025700  1
  O  O43  1  0.26854700  0.37498400  0.87025700  1
  O  O44  1  0.41139000  0.83425100  0.62340400  1
  O  O45  1  0.58861000  0.33425100  0.62340400  1
  O  O46  1  0.25261200  0.77035100  0.75099600  1
  O  O47  1  0.74738800  0.27035100  0.75099600  1
  O  O48  1  0.46757800  0.08045900  0.74091800  1
  O  O49  1  0.53242200  0.58045900  0.74091800  1
  O  O50  1  0.09209600  0.25192700  0.75488100  1
  O  O51  1  0.90790400  0.75192700  0.75488100  1
  O  O52  1  0.24587400  0.35435100  0.62613000  1
  O  O53  1  0.75412600  0.85435100  0.62613000  1
  O  O54  1  0.97426300  0.51263000  0.63804200  1
  O  O55  1  0.02573700  0.01263000  0.63804200  1
  O  O56  1  0.40912600  0.54159800  0.50391400  1
  O  O57  1  0.59087400  0.04159800  0.50391400  1
  O  O58  1  0.74142200  0.11807200  0.37198500  1
  O  O59  1  0.25857800  0.61807200  0.37198500  1
  O  O60  1  0.46277500  0.29180700  0.38881200  1
  O  O61  1  0.53722500  0.79180700  0.38881200  1
  O  O62  1  0.09295700  0.13112800  0.37266600  1
  O  O63  1  0.90704300  0.63112800  0.37266600  1
  O  O64  1  0.75863200  0.51759800  0.50280600  1
  O  O65  1  0.24136800  0.01759800  0.50280600  1
  O  O66  1  0.03626000  0.38443500  0.48806100  1
  O  O67  1  0.96374000  0.88443500  0.48806100  1
  O  O68  1  0.08969700  0.50823500  0.25157500  1
  O  O69  1  0.91030300  0.00823500  0.25157500  1
  O  O70  1  0.75206400  0.05825300  0.12339600  1
  O  O71  1  0.24793600  0.55825300  0.12339600  1
  O  O72  1  0.03011400  0.25503800  0.13369800  1
  O  O73  1  0.96988600  0.75503800  0.13369800  1
  O  O74  1  0.40772700  0.07280500  0.11880000  1
  O  O75  1  0.59227300  0.57280500  0.11880000  1
  O  O76  1  0.25492600  0.01856700  0.24966500  1
  O  O77  1  0.74507400  0.51856700  0.24966500  1
  O  O78  1  0.46913200  0.32664200  0.23515200  1
  O  O79  1  0.53086800  0.82664200  0.23515200  1
