# generated using pymatgen
data_Sr4Mn3BO10
_symmetry_space_group_name_H-M   'P 1'
_cell_length_a   7.64723600
_cell_length_b   9.70859612
_cell_length_c   7.72225800
_cell_angle_alpha   66.56746534
_cell_angle_beta   90.00022370
_cell_angle_gamma   66.80497874
_symmetry_Int_Tables_number   1
_chemical_formula_structural   Sr4Mn3BO10
_chemical_formula_sum   'Sr8 Mn6 B2 O20'
_cell_volume   475.11475672
_cell_formula_units_Z   2
loop_
 _symmetry_equiv_pos_site_id
 _symmetry_equiv_pos_as_xyz
  1  'x, y, z'
loop_
 _atom_site_type_symbol
 _atom_site_label
 _atom_site_symmetry_multiplicity
 _atom_site_fract_x
 _atom_site_fract_y
 _atom_site_fract_z
 _atom_site_occupancy
  Sr  Sr0  1  0.22004800  0.05991300  0.22528600  1
  Sr  Sr1  1  0.72004500  0.05991400  0.22528800  1
  Sr  Sr2  1  0.22005300  0.05992300  0.71479000  1
  Sr  Sr3  1  0.72005400  0.05992200  0.71478900  1
  Sr  Sr4  1  0.97818100  0.54367400  0.96010000  1
  Sr  Sr5  1  0.47818800  0.54367800  0.96010000  1
  Sr  Sr6  1  0.97816400  0.54367700  0.49623600  1
  Sr  Sr7  1  0.47817500  0.54367800  0.49623500  1
  Mn  Mn8  1  0.35170000  0.29672800  0.85165800  1
  Mn  Mn9  1  0.85070200  0.29848600  0.35073700  1
  Mn  Mn10  1  0.10060700  0.79874600  0.60062100  1
  Mn  Mn11  1  0.85165600  0.29666700  0.85172200  1
  Mn  Mn12  1  0.35082900  0.29844100  0.35075700  1
  Mn  Mn13  1  0.60063300  0.79875000  0.60061900  1
  B  B14  1  0.08735500  0.82523400  0.08738400  1
  B  B15  1  0.58735500  0.82523600  0.08738100  1
  O  O16  1  0.21935400  0.56137600  0.71934800  1
  O  O17  1  0.71935700  0.56136600  0.71935300  1
  O  O18  1  0.84812500  0.80372900  0.59812100  1
  O  O19  1  0.34812700  0.80372900  0.59812100  1
  O  O20  1  0.10956800  0.28089900  0.85952600  1
  O  O21  1  0.60956700  0.28089700  0.85952700  1
  O  O22  1  0.07523200  0.34953000  0.32523000  1
  O  O23  1  0.57523400  0.34952800  0.32523100  1
  O  O24  1  0.48003200  0.03987800  0.48003100  1
  O  O25  1  0.98002300  0.03989500  0.48002100  1
  O  O26  1  0.49974200  0.00053200  0.99972700  1
  O  O27  1  0.99974100  0.00053300  0.99972700  1
  O  O28  1  0.35111500  0.29784700  0.10354100  1
  O  O29  1  0.85111500  0.29784600  0.10353800  1
  O  O30  1  0.35106800  0.29785500  0.59860800  1
  O  O31  1  0.85106800  0.29785400  0.59860600  1
  O  O32  1  0.12865200  0.74259900  0.97007500  1
  O  O33  1  0.62865400  0.74259700  0.97007500  1
  O  O34  1  0.12864100  0.74262400  0.28734900  1
  O  O35  1  0.62864300  0.74261800  0.28734800  1
