# generated using pymatgen
data_SrLaCuSe3
_symmetry_space_group_name_H-M   'P 1'
_cell_length_a   4.18878800
_cell_length_b   8.61806100
_cell_length_c   16.93551800
_cell_angle_alpha   90.00000000
_cell_angle_beta   90.00000000
_cell_angle_gamma   90.00000000
_symmetry_Int_Tables_number   1
_chemical_formula_structural   SrLaCuSe3
_chemical_formula_sum   'Sr4 La4 Cu4 Se12'
_cell_volume   611.35916792
_cell_formula_units_Z   4
loop_
 _symmetry_equiv_pos_site_id
 _symmetry_equiv_pos_as_xyz
  1  'x, y, z'
loop_
 _atom_site_type_symbol
 _atom_site_label
 _atom_site_symmetry_multiplicity
 _atom_site_fract_x
 _atom_site_fract_y
 _atom_site_fract_z
 _atom_site_occupancy
  Sr  Sr0  1  0.75000000  0.73849900  0.96515300  1
  Sr  Sr1  1  0.25000000  0.26150100  0.03484700  1
  Sr  Sr2  1  0.25000000  0.76150100  0.46515300  1
  Sr  Sr3  1  0.75000000  0.23849900  0.53484700  1
  La  La4  1  0.75000000  0.90649400  0.21340200  1
  La  La5  1  0.25000000  0.09350600  0.78659800  1
  La  La6  1  0.25000000  0.59350600  0.71340200  1
  La  La7  1  0.75000000  0.40649400  0.28659800  1
  Cu  Cu8  1  0.75000000  0.87751600  0.63471300  1
  Cu  Cu9  1  0.25000000  0.12248400  0.36528700  1
  Cu  Cu10  1  0.25000000  0.62248400  0.13471300  1
  Cu  Cu11  1  0.75000000  0.37751600  0.86528700  1
  Se  Se12  1  0.75000000  0.82055700  0.77927000  1
  Se  Se13  1  0.25000000  0.17944300  0.22073000  1
  Se  Se14  1  0.25000000  0.67944300  0.27927000  1
  Se  Se15  1  0.75000000  0.32055700  0.72073000  1
  Se  Se16  1  0.75000000  0.98631900  0.39296600  1
  Se  Se17  1  0.25000000  0.01368100  0.60703400  1
  Se  Se18  1  0.25000000  0.51368100  0.89296600  1
  Se  Se19  1  0.75000000  0.48631900  0.10703400  1
  Se  Se20  1  0.75000000  0.61429900  0.57859700  1
  Se  Se21  1  0.25000000  0.38570100  0.42140300  1
  Se  Se22  1  0.25000000  0.88570100  0.07859700  1
  Se  Se23  1  0.75000000  0.11429900  0.92140300  1
