# generated using pymatgen
data_SrLaAlCuO5
_symmetry_space_group_name_H-M   'P 1'
_cell_length_a   5.47864500
_cell_length_b   8.07208700
_cell_length_c   11.07007500
_cell_angle_alpha   90.00000000
_cell_angle_beta   90.00000000
_cell_angle_gamma   90.00000000
_symmetry_Int_Tables_number   1
_chemical_formula_structural   SrLaAlCuO5
_chemical_formula_sum   'Sr4 La4 Al4 Cu4 O20'
_cell_volume   489.56409365
_cell_formula_units_Z   4
loop_
 _symmetry_equiv_pos_site_id
 _symmetry_equiv_pos_as_xyz
  1  'x, y, z'
loop_
 _atom_site_type_symbol
 _atom_site_label
 _atom_site_symmetry_multiplicity
 _atom_site_fract_x
 _atom_site_fract_y
 _atom_site_fract_z
 _atom_site_occupancy
  Sr  Sr0  1  0.25000000  0.25843200  0.40012800  1
  Sr  Sr1  1  0.75000000  0.74156800  0.59987200  1
  Sr  Sr2  1  0.25000000  0.74156800  0.90012800  1
  Sr  Sr3  1  0.75000000  0.25843200  0.09987200  1
  La  La4  1  0.25000000  0.81016200  0.36815200  1
  La  La5  1  0.75000000  0.18983800  0.63184800  1
  La  La6  1  0.25000000  0.18983800  0.86815200  1
  La  La7  1  0.75000000  0.81016200  0.13184800  1
  Al  Al8  1  0.25000000  0.49757100  0.15729600  1
  Al  Al9  1  0.75000000  0.50242900  0.84270400  1
  Al  Al10  1  0.25000000  0.50242900  0.65729600  1
  Al  Al11  1  0.75000000  0.49757100  0.34270400  1
  Cu  Cu12  1  0.25000000  0.02353600  0.12674800  1
  Cu  Cu13  1  0.75000000  0.97646400  0.87325200  1
  Cu  Cu14  1  0.25000000  0.97646400  0.62674800  1
  Cu  Cu15  1  0.75000000  0.02353600  0.37325200  1
  O  O16  1  0.25000000  0.28347200  0.64221300  1
  O  O17  1  0.75000000  0.71652800  0.35778700  1
  O  O18  1  0.25000000  0.71652800  0.14221300  1
  O  O19  1  0.75000000  0.28347200  0.85778700  1
  O  O20  1  0.00000000  0.03200200  0.25000000  1
  O  O21  1  0.00000000  0.96799800  0.75000000  1
  O  O22  1  0.50000000  0.96799800  0.75000000  1
  O  O23  1  0.50000000  0.03200200  0.25000000  1
  O  O24  1  0.00000000  0.44019900  0.25000000  1
  O  O25  1  0.00000000  0.55980100  0.75000000  1
  O  O26  1  0.50000000  0.55980100  0.75000000  1
  O  O27  1  0.50000000  0.44019900  0.25000000  1
  O  O28  1  0.00000000  0.00000000  0.00000000  1
  O  O29  1  0.50000000  0.00000000  0.00000000  1
  O  O30  1  0.50000000  0.00000000  0.50000000  1
  O  O31  1  0.00000000  0.00000000  0.50000000  1
  O  O32  1  0.25000000  0.37464300  0.02666000  1
  O  O33  1  0.75000000  0.62535700  0.97334000  1
  O  O34  1  0.25000000  0.62535700  0.52666000  1
  O  O35  1  0.75000000  0.37464300  0.47334000  1
