# generated using pymatgen
data_Sr5Co3F19
_symmetry_space_group_name_H-M   'P 1'
_cell_length_a   10.89864176
_cell_length_b   10.89864176
_cell_length_c   10.89864176
_cell_angle_alpha   96.66621605
_cell_angle_beta   96.66621605
_cell_angle_gamma   140.15940431
_symmetry_Int_Tables_number   1
_chemical_formula_structural   Sr5Co3F19
_chemical_formula_sum   'Sr10 Co6 F38'
_cell_volume   779.73284171
_cell_formula_units_Z   2
loop_
 _symmetry_equiv_pos_site_id
 _symmetry_equiv_pos_as_xyz
  1  'x, y, z'
loop_
 _atom_site_type_symbol
 _atom_site_label
 _atom_site_symmetry_multiplicity
 _atom_site_fract_x
 _atom_site_fract_y
 _atom_site_fract_z
 _atom_site_occupancy
  Sr  Sr0  1  0.22108300  0.04939700  0.27048000  1
  Sr  Sr1  1  0.77891700  0.95060300  0.72952000  1
  Sr  Sr2  1  0.95060300  0.22108300  0.17168600  1
  Sr  Sr3  1  0.04939700  0.77891700  0.82831400  1
  Sr  Sr4  1  0.42460100  0.25143700  0.67603900  1
  Sr  Sr5  1  0.57539900  0.74856300  0.32396100  1
  Sr  Sr6  1  0.74856300  0.42460100  0.17316400  1
  Sr  Sr7  1  0.25143700  0.57539900  0.82683600  1
  Sr  Sr8  1  0.25000000  0.75000000  0.50000000  1
  Sr  Sr9  1  0.75000000  0.25000000  0.50000000  1
  Co  Co10  1  0.17660000  0.33968100  0.51628100  1
  Co  Co11  1  0.82340000  0.66031900  0.48371900  1
  Co  Co12  1  0.66031900  0.17660000  0.83691900  1
  Co  Co13  1  0.33968100  0.82340000  0.16308100  1
  Co  Co14  1  0.25297700  0.25297700  0.00000000  1
  Co  Co15  1  0.74702300  0.74702300  0.00000000  1
  F  F16  1  0.56950800  0.42429200  0.34352500  1
  F  F17  1  0.43049200  0.57570800  0.65647500  1
  F  F18  1  0.08076600  0.22598300  0.65647500  1
  F  F19  1  0.22598300  0.56950800  0.14521600  1
  F  F20  1  0.91923400  0.77401700  0.34352500  1
  F  F21  1  0.77401700  0.43049200  0.85478400  1
  F  F22  1  0.42429200  0.08076600  0.85478400  1
  F  F23  1  0.57570800  0.91923400  0.14521600  1
  F  F24  1  0.28826400  0.36073400  0.17306500  1
  F  F25  1  0.71173600  0.63926600  0.82693500  1
  F  F26  1  0.18767000  0.11519900  0.82693500  1
  F  F27  1  0.11519900  0.28826400  0.92753000  1
  F  F28  1  0.81233000  0.88480100  0.17306500  1
  F  F29  1  0.88480100  0.71173600  0.07247000  1
  F  F30  1  0.36073400  0.18767000  0.07247000  1
  F  F31  1  0.63926600  0.81233000  0.92753000  1
  F  F32  1  0.38288000  0.07880100  0.46168200  1
  F  F33  1  0.61712000  0.92119900  0.53831800  1
  F  F34  1  0.92119900  0.38288000  0.30407900  1
  F  F35  1  0.07880100  0.61712000  0.69592100  1
  F  F36  1  0.00000000  0.00000000  0.00000000  1
  F  F37  1  0.10842600  0.45323100  0.56165700  1
  F  F38  1  0.89157400  0.54676900  0.43834300  1
  F  F39  1  0.54676900  0.10842600  0.65519500  1
  F  F40  1  0.45323100  0.89157400  0.34480500  1
  F  F41  1  0.26499100  0.47974100  0.38488400  1
  F  F42  1  0.73500900  0.52025900  0.61511600  1
  F  F43  1  0.09485700  0.88010700  0.61511600  1
  F  F44  1  0.88010700  0.26499100  0.78525000  1
  F  F45  1  0.90514300  0.11989300  0.38488400  1
  F  F46  1  0.11989300  0.73500900  0.21475000  1
  F  F47  1  0.47974100  0.09485700  0.21475000  1
  F  F48  1  0.52025900  0.90514300  0.78525000  1
  F  F49  1  0.24416200  0.22983500  0.47399700  1
  F  F50  1  0.75583800  0.77016500  0.52600300  1
  F  F51  1  0.77016500  0.24416200  0.01432700  1
  F  F52  1  0.22983500  0.75583800  0.98567300  1
  F  F53  1  0.50000000  0.50000000  0.00000000  1
