# generated using pymatgen
data_Ta10Si2MoSe8
_symmetry_space_group_name_H-M   'P 1'
_cell_length_a   3.49283200
_cell_length_b   11.93704600
_cell_length_c   19.49657000
_cell_angle_alpha   90.00000000
_cell_angle_beta   90.00000000
_cell_angle_gamma   90.00000000
_symmetry_Int_Tables_number   1
_chemical_formula_structural   Ta10Si2MoSe8
_chemical_formula_sum   'Ta20 Si4 Mo2 Se16'
_cell_volume   812.89186621
_cell_formula_units_Z   2
loop_
 _symmetry_equiv_pos_site_id
 _symmetry_equiv_pos_as_xyz
  1  'x, y, z'
loop_
 _atom_site_type_symbol
 _atom_site_label
 _atom_site_symmetry_multiplicity
 _atom_site_fract_x
 _atom_site_fract_y
 _atom_site_fract_z
 _atom_site_occupancy
  Ta  Ta0  1  0.00000000  0.33874700  0.21295400  1
  Ta  Ta1  1  0.00000000  0.66125300  0.78704600  1
  Ta  Ta2  1  0.50000000  0.16125300  0.71295400  1
  Ta  Ta3  1  0.50000000  0.83874700  0.28704600  1
  Ta  Ta4  1  0.00000000  0.56346200  0.11278800  1
  Ta  Ta5  1  0.00000000  0.43653800  0.88721200  1
  Ta  Ta6  1  0.50000000  0.93653800  0.61278800  1
  Ta  Ta7  1  0.50000000  0.06346200  0.38721200  1
  Ta  Ta8  1  0.00000000  0.32139300  0.64456300  1
  Ta  Ta9  1  0.00000000  0.67860700  0.35543700  1
  Ta  Ta10  1  0.50000000  0.17860700  0.14456300  1
  Ta  Ta11  1  0.50000000  0.82139300  0.85543700  1
  Ta  Ta12  1  0.00000000  0.32279700  0.04682100  1
  Ta  Ta13  1  0.00000000  0.67720300  0.95317900  1
  Ta  Ta14  1  0.50000000  0.17720300  0.54682100  1
  Ta  Ta15  1  0.50000000  0.82279700  0.45317900  1
  Ta  Ta16  1  0.00000000  0.04820400  0.25860600  1
  Ta  Ta17  1  0.00000000  0.95179600  0.74139400  1
  Ta  Ta18  1  0.50000000  0.45179600  0.75860600  1
  Ta  Ta19  1  0.50000000  0.54820400  0.24139400  1
  Si  Si20  1  0.00000000  0.09204300  0.62756500  1
  Si  Si21  1  0.00000000  0.90795700  0.37243500  1
  Si  Si22  1  0.50000000  0.40795700  0.12756500  1
  Si  Si23  1  0.50000000  0.59204300  0.87243500  1
  Mo  Mo24  1  0.00000000  0.00000000  0.50000000  1
  Mo  Mo25  1  0.50000000  0.50000000  0.00000000  1
  Se  Se26  1  0.00000000  0.71600100  0.21240600  1
  Se  Se27  1  0.00000000  0.28399900  0.78759400  1
  Se  Se28  1  0.50000000  0.78399900  0.71240600  1
  Se  Se29  1  0.50000000  0.21600100  0.28759400  1
  Se  Se30  1  0.00000000  0.21057100  0.44391900  1
  Se  Se31  1  0.00000000  0.78942900  0.55608100  1
  Se  Se32  1  0.50000000  0.28942900  0.94391900  1
  Se  Se33  1  0.50000000  0.71057100  0.05608100  1
  Se  Se34  1  0.00000000  0.45969700  0.32706700  1
  Se  Se35  1  0.00000000  0.54030300  0.67293300  1
  Se  Se36  1  0.50000000  0.04030300  0.82706700  1
  Se  Se37  1  0.50000000  0.95969700  0.17293300  1
  Se  Se38  1  0.00000000  0.10947900  0.05338000  1
  Se  Se39  1  0.00000000  0.89052100  0.94662000  1
  Se  Se40  1  0.50000000  0.39052100  0.55338000  1
  Se  Se41  1  0.50000000  0.60947900  0.44662000  1
