# generated using pymatgen
data_Sr3Lu2O12
_symmetry_space_group_name_H-M   'P 1'
_cell_length_a   12.57655948
_cell_length_b   12.57655948
_cell_length_c   12.57655948
_cell_angle_alpha   109.47122063
_cell_angle_beta   109.47122063
_cell_angle_gamma   109.47122063
_symmetry_Int_Tables_number   1
_chemical_formula_structural   Sr3Lu2O12
_chemical_formula_sum   'Sr12 Lu8 O48'
_cell_volume   1531.31189612
_cell_formula_units_Z   4
loop_
 _symmetry_equiv_pos_site_id
 _symmetry_equiv_pos_as_xyz
  1  'x, y, z'
loop_
 _atom_site_type_symbol
 _atom_site_label
 _atom_site_symmetry_multiplicity
 _atom_site_fract_x
 _atom_site_fract_y
 _atom_site_fract_z
 _atom_site_occupancy
  Sr  Sr0  1  0.25000000  0.37500000  0.12500000  1
  Sr  Sr1  1  0.75000000  0.62500000  0.87500000  1
  Sr  Sr2  1  0.75000000  0.12500000  0.37500000  1
  Sr  Sr3  1  0.12500000  0.25000000  0.37500000  1
  Sr  Sr4  1  0.37500000  0.75000000  0.12500000  1
  Sr  Sr5  1  0.25000000  0.87500000  0.62500000  1
  Sr  Sr6  1  0.87500000  0.75000000  0.62500000  1
  Sr  Sr7  1  0.62500000  0.25000000  0.87500000  1
  Sr  Sr8  1  0.37500000  0.12500000  0.25000000  1
  Sr  Sr9  1  0.62500000  0.87500000  0.75000000  1
  Sr  Sr10  1  0.12500000  0.37500000  0.75000000  1
  Sr  Sr11  1  0.87500000  0.62500000  0.25000000  1
  Lu  Lu12  1  0.00000000  0.00000000  0.00000000  1
  Lu  Lu13  1  0.50000000  0.00000000  0.50000000  1
  Lu  Lu14  1  0.00000000  0.50000000  0.50000000  1
  Lu  Lu15  1  0.50000000  0.00000000  0.00000000  1
  Lu  Lu16  1  0.50000000  0.50000000  0.00000000  1
  Lu  Lu17  1  0.50000000  0.50000000  0.50000000  1
  Lu  Lu18  1  0.00000000  0.00000000  0.50000000  1
  Lu  Lu19  1  0.00000000  0.50000000  0.00000000  1
  O  O20  1  0.43599900  0.36926800  0.29984500  1
  O  O21  1  0.56400100  0.63073200  0.70015500  1
  O  O22  1  0.56942300  0.13615300  0.20015500  1
  O  O23  1  0.93057700  0.13073200  0.56673000  1
  O  O24  1  0.29984500  0.43599900  0.36926800  1
  O  O25  1  0.36384700  0.93057700  0.29984500  1
  O  O26  1  0.43057700  0.86384700  0.79984500  1
  O  O27  1  0.06942300  0.86926800  0.43327000  1
  O  O28  1  0.70015500  0.56400100  0.63073200  1
  O  O29  1  0.63615300  0.06942300  0.70015500  1
  O  O30  1  0.06400100  0.36384700  0.93327000  1
  O  O31  1  0.20015500  0.56942300  0.13615300  1
  O  O32  1  0.13073200  0.06400100  0.20015500  1
  O  O33  1  0.93599900  0.63615300  0.06673000  1
  O  O34  1  0.79984500  0.43057700  0.86384700  1
  O  O35  1  0.86926800  0.93599900  0.79984500  1
  O  O36  1  0.56673000  0.93057700  0.13073200  1
  O  O37  1  0.13615300  0.43599900  0.56673000  1
  O  O38  1  0.43327000  0.06942300  0.86926800  1
  O  O39  1  0.86384700  0.56400100  0.43327000  1
  O  O40  1  0.93327000  0.06400100  0.36384700  1
  O  O41  1  0.36926800  0.56942300  0.93327000  1
  O  O42  1  0.06673000  0.93599900  0.63615300  1
  O  O43  1  0.63073200  0.43057700  0.06673000  1
  O  O44  1  0.36926800  0.29984500  0.43599900  1
  O  O45  1  0.56942300  0.93327000  0.36926800  1
  O  O46  1  0.63073200  0.70015500  0.56400100  1
  O  O47  1  0.43057700  0.06673000  0.63073200  1
  O  O48  1  0.13073200  0.56673000  0.93057700  1
  O  O49  1  0.06400100  0.20015500  0.13073200  1
  O  O50  1  0.86926800  0.43327000  0.06942300  1
  O  O51  1  0.93599900  0.79984500  0.86926800  1
  O  O52  1  0.36384700  0.93327000  0.06400100  1
  O  O53  1  0.93057700  0.29984500  0.36384700  1
  O  O54  1  0.63615300  0.06673000  0.93599900  1
  O  O55  1  0.06942300  0.70015500  0.63615300  1
  O  O56  1  0.13615300  0.20015500  0.56942300  1
  O  O57  1  0.43599900  0.56673000  0.13615300  1
  O  O58  1  0.86384700  0.79984500  0.43057700  1
  O  O59  1  0.56400100  0.43327000  0.86384700  1
  O  O60  1  0.29984500  0.36384700  0.93057700  1
  O  O61  1  0.70015500  0.63615300  0.06942300  1
  O  O62  1  0.20015500  0.13073200  0.06400100  1
  O  O63  1  0.79984500  0.86926800  0.93599900  1
  O  O64  1  0.93327000  0.36926800  0.56942300  1
  O  O65  1  0.06673000  0.63073200  0.43057700  1
  O  O66  1  0.56673000  0.13615300  0.43599900  1
  O  O67  1  0.43327000  0.86384700  0.56400100  1
