# generated using pymatgen
data_Sr2La3Ti2O10
_symmetry_space_group_name_H-M   'P 1'
_cell_length_a   5.60028754
_cell_length_b   6.88365272
_cell_length_c   12.38238147
_cell_angle_alpha   94.31937024
_cell_angle_beta   90.04739288
_cell_angle_gamma   89.98038841
_symmetry_Int_Tables_number   1
_chemical_formula_structural   Sr2La3Ti2O10
_chemical_formula_sum   'Sr4 La6 Ti4 O20'
_cell_volume   475.99021244
_cell_formula_units_Z   2
loop_
 _symmetry_equiv_pos_site_id
 _symmetry_equiv_pos_as_xyz
  1  'x, y, z'
loop_
 _atom_site_type_symbol
 _atom_site_label
 _atom_site_symmetry_multiplicity
 _atom_site_fract_x
 _atom_site_fract_y
 _atom_site_fract_z
 _atom_site_occupancy
  Sr  Sr0  1  0.74997200  0.68523300  0.54609900  1
  Sr  Sr1  1  0.25005800  0.31478900  0.45416100  1
  Sr  Sr2  1  0.74995700  0.18522500  0.65235200  1
  Sr  Sr3  1  0.25003600  0.81487700  0.34783800  1
  La  La4  1  0.74991300  0.41223700  0.94180700  1
  La  La5  1  0.25003400  0.58761100  0.05804000  1
  La  La6  1  0.75011600  0.44253300  0.25558400  1
  La  La7  1  0.24992400  0.55755000  0.74436400  1
  La  La8  1  0.74982300  0.96701200  0.10216500  1
  La  La9  1  0.25001900  0.03268100  0.89708200  1
  Ti  Ti10  1  0.74997300  0.04892100  0.39271500  1
  Ti  Ti11  1  0.25004600  0.95110800  0.60729400  1
  Ti  Ti12  1  0.75006300  0.80979300  0.81678900  1
  Ti  Ti13  1  0.24991600  0.19044300  0.18307300  1
  O  O14  1  0.74990100  0.34434600  0.45060900  1
  O  O15  1  0.25012700  0.65551700  0.54929700  1
  O  O16  1  0.74996900  0.52442700  0.74113300  1
  O  O17  1  0.25001700  0.47511600  0.25888100  1
  O  O18  1  0.74994300  0.76183000  0.34665800  1
  O  O19  1  0.25006600  0.23843500  0.65331100  1
  O  O20  1  0.75026000  0.63767000  0.10921000  1
  O  O21  1  0.24979900  0.36224500  0.89080200  1
  O  O22  1  0.75024000  0.07736600  0.89167400  1
  O  O23  1  0.24983700  0.92298500  0.10863500  1
  O  O24  1  0.00579500  0.88893000  0.71762800  1
  O  O25  1  0.99432200  0.11109000  0.28233500  1
  O  O26  1  0.50549100  0.11107500  0.28229900  1
  O  O27  1  0.49440500  0.88898500  0.71766900  1
  O  O28  1  0.99977200  0.72739800  0.91671400  1
  O  O29  1  0.00023300  0.27253300  0.08350100  1
  O  O30  1  0.49989500  0.27258600  0.08343700  1
  O  O31  1  0.50006700  0.72744100  0.91679700  1
  O  O32  1  0.99997800  0.00001100  0.50002500  1
  O  O33  1  0.50003500  0.00000100  0.50002300  1
