# generated using pymatgen
data_Sr2InBr5
_symmetry_space_group_name_H-M   'P 1'
_cell_length_a   8.49566100
_cell_length_b   9.43775200
_cell_length_c   13.51527092
_cell_angle_alpha   89.94200587
_cell_angle_beta   90.00000000
_cell_angle_gamma   90.00000000
_symmetry_Int_Tables_number   1
_chemical_formula_structural   Sr2InBr5
_chemical_formula_sum   'Sr8 In4 Br20'
_cell_volume   1083.65307815
_cell_formula_units_Z   4
loop_
 _symmetry_equiv_pos_site_id
 _symmetry_equiv_pos_as_xyz
  1  'x, y, z'
loop_
 _atom_site_type_symbol
 _atom_site_label
 _atom_site_symmetry_multiplicity
 _atom_site_fract_x
 _atom_site_fract_y
 _atom_site_fract_z
 _atom_site_occupancy
  Sr  Sr0  1  0.02432200  0.49902700  0.82168000  1
  Sr  Sr1  1  0.97567800  0.50097300  0.17832000  1
  Sr  Sr2  1  0.52432200  0.50097300  0.67832000  1
  Sr  Sr3  1  0.47567800  0.49902700  0.32168000  1
  Sr  Sr4  1  0.07351200  0.74768100  0.50566100  1
  Sr  Sr5  1  0.92648800  0.25231900  0.49433900  1
  Sr  Sr6  1  0.57351200  0.25231900  0.99433900  1
  Sr  Sr7  1  0.42648800  0.74768100  0.00566100  1
  In  In8  1  0.01032300  0.98970000  0.82145300  1
  In  In9  1  0.98967700  0.01030000  0.17854700  1
  In  In10  1  0.51032300  0.01030000  0.67854700  1
  In  In11  1  0.48967700  0.98970000  0.32145300  1
  Br  Br12  1  0.16262100  0.03705800  0.59242800  1
  Br  Br13  1  0.83737900  0.96294200  0.40757200  1
  Br  Br14  1  0.66262100  0.96294200  0.90757200  1
  Br  Br15  1  0.33737900  0.03705800  0.09242800  1
  Br  Br16  1  0.84078100  0.71961700  0.68518600  1
  Br  Br17  1  0.15921900  0.28038300  0.31481400  1
  Br  Br18  1  0.34078100  0.28038300  0.81481400  1
  Br  Br19  1  0.65921900  0.71961700  0.18518600  1
  Br  Br20  1  0.30648900  0.72607600  0.78380900  1
  Br  Br21  1  0.69351100  0.27392400  0.21619100  1
  Br  Br22  1  0.80648900  0.27392400  0.71619100  1
  Br  Br23  1  0.19351100  0.72607600  0.28380900  1
  Br  Br24  1  0.45455600  0.71758400  0.50229500  1
  Br  Br25  1  0.54544400  0.28241600  0.49770500  1
  Br  Br26  1  0.95455600  0.28241600  0.99770500  1
  Br  Br27  1  0.04544400  0.71758400  0.00229500  1
  Br  Br28  1  0.65977000  0.54100500  0.89933000  1
  Br  Br29  1  0.34023000  0.45899500  0.10067000  1
  Br  Br30  1  0.15977000  0.45899500  0.60067000  1
  Br  Br31  1  0.84023000  0.54100500  0.39933000  1
