# generated using pymatgen
data_Sr(MgIn)2
_symmetry_space_group_name_H-M   'P 1'
_cell_length_a   7.30621218
_cell_length_b   7.30621218
_cell_length_c   7.30621218
_cell_angle_alpha   142.52035444
_cell_angle_beta   142.52035444
_cell_angle_gamma   54.04574763
_symmetry_Int_Tables_number   1
_chemical_formula_structural   Sr(MgIn)2
_chemical_formula_sum   'Sr1 Mg2 In2'
_cell_volume   143.44092833
_cell_formula_units_Z   1
loop_
 _symmetry_equiv_pos_site_id
 _symmetry_equiv_pos_as_xyz
  1  'x, y, z'
loop_
 _atom_site_type_symbol
 _atom_site_label
 _atom_site_symmetry_multiplicity
 _atom_site_fract_x
 _atom_site_fract_y
 _atom_site_fract_z
 _atom_site_occupancy
  Sr  Sr0  1  0.00000000  0.00000000  0.00000000  1
  Mg  Mg1  1  0.75000000  0.25000000  0.50000000  1
  Mg  Mg2  1  0.25000000  0.75000000  0.50000000  1
  In  In3  1  0.38970800  0.38970800  0.00000000  1
  In  In4  1  0.61029200  0.61029200  0.00000000  1
