# generated using pymatgen
data_SmAl3(BO3)4
_symmetry_space_group_name_H-M   'P 1'
_cell_length_a   5.95222237
_cell_length_b   5.95222237
_cell_length_c   5.95222244
_cell_angle_alpha   104.15025795
_cell_angle_beta   104.15025795
_cell_angle_gamma   104.15024723
_symmetry_Int_Tables_number   1
_chemical_formula_structural   SmAl3(BO3)4
_chemical_formula_sum   'Sm1 Al3 B4 O12'
_cell_volume   187.61174819
_cell_formula_units_Z   1
loop_
 _symmetry_equiv_pos_site_id
 _symmetry_equiv_pos_as_xyz
  1  'x, y, z'
loop_
 _atom_site_type_symbol
 _atom_site_label
 _atom_site_symmetry_multiplicity
 _atom_site_fract_x
 _atom_site_fract_y
 _atom_site_fract_z
 _atom_site_occupancy
  Sm  Sm0  1  0.50000000  0.50000000  0.50000000  1
  Al  Al1  1  0.05568100  0.94431900  0.50000000  1
  Al  Al2  1  0.94431900  0.50000000  0.05568100  1
  Al  Al3  1  0.50000000  0.05568100  0.94431900  1
  B  B4  1  0.44253100  0.55746900  0.00000000  1
  B  B5  1  0.55746900  0.00000000  0.44253100  1
  B  B6  1  0.00000000  0.44253100  0.55746900  1
  B  B7  1  0.00000000  0.00000000  0.00000000  1
  O  O8  1  0.27596300  0.52683600  0.12357000  1
  O  O9  1  0.52683600  0.12357000  0.27596300  1
  O  O10  1  0.72403700  0.87643000  0.47316400  1
  O  O11  1  0.12357000  0.27596300  0.52683600  1
  O  O12  1  0.47316400  0.72403700  0.87643000  1
  O  O13  1  0.87643000  0.47316400  0.72403700  1
  O  O14  1  0.85134300  0.14865700  0.00000000  1
  O  O15  1  0.14865700  0.00000000  0.85134300  1
  O  O16  1  0.00000000  0.85134300  0.14865700  1
  O  O17  1  0.59100500  0.40899500  0.00000000  1
  O  O18  1  0.40899500  0.00000000  0.59100500  1
  O  O19  1  0.00000000  0.59100500  0.40899500  1
