# generated using pymatgen
data_Sr2CrSbO6
_symmetry_space_group_name_H-M   'P 1'
_cell_length_a   5.61466000
_cell_length_b   5.61490400
_cell_length_c   16.18078500
_cell_angle_alpha   89.99943454
_cell_angle_beta   89.99928874
_cell_angle_gamma   89.99956121
_symmetry_Int_Tables_number   1
_chemical_formula_structural   Sr2CrSbO6
_chemical_formula_sum   'Sr8 Cr4 Sb4 O24'
_cell_volume   510.11181782
_cell_formula_units_Z   4
loop_
 _symmetry_equiv_pos_site_id
 _symmetry_equiv_pos_as_xyz
  1  'x, y, z'
loop_
 _atom_site_type_symbol
 _atom_site_label
 _atom_site_symmetry_multiplicity
 _atom_site_fract_x
 _atom_site_fract_y
 _atom_site_fract_z
 _atom_site_occupancy
  Sr  Sr0  1  0.99992700  0.49998800  0.12499300  1
  Sr  Sr1  1  0.50003000  0.00006800  0.37503700  1
  Sr  Sr2  1  0.00001900  0.49999300  0.62501000  1
  Sr  Sr3  1  0.50003200  0.99998100  0.87496600  1
  Sr  Sr4  1  0.49998900  0.00002900  0.12499300  1
  Sr  Sr5  1  0.99999200  0.50001400  0.37503700  1
  Sr  Sr6  1  0.50007400  0.00002500  0.62500900  1
  Sr  Sr7  1  0.99995700  0.49997300  0.87496500  1
  Cr  Cr8  1  0.00020900  0.99982700  0.50003100  1
  Cr  Cr9  1  0.49970200  0.49990200  0.74998300  1
  Cr  Cr10  1  0.00008600  0.99982900  0.99993300  1
  Cr  Cr11  1  0.49964200  0.50005800  0.25003900  1
  Sb  Sb12  1  0.50002200  0.49995500  0.99997900  1
  Sb  Sb13  1  0.99994100  0.00004500  0.25000400  1
  Sb  Sb14  1  0.50013400  0.49997700  0.50002100  1
  Sb  Sb15  1  0.99996500  0.00000700  0.74999600  1
  O  O16  1  0.00000000  0.99999800  0.12589400  1
  O  O17  1  0.49994400  0.50006900  0.37592500  1
  O  O18  1  0.00012500  0.00003700  0.62590800  1
  O  O19  1  0.49999600  0.50001000  0.87589100  1
  O  O20  1  0.49997600  0.50004800  0.12408800  1
  O  O21  1  0.00008800  0.00005200  0.37411200  1
  O  O22  1  0.49997300  0.50001300  0.62411300  1
  O  O23  1  0.00002500  0.99996600  0.87408300  1
  O  O24  1  0.20821500  0.29550100  0.99995800  1
  O  O25  1  0.70809100  0.79563800  0.25002700  1
  O  O26  1  0.20844700  0.29541000  0.50001000  1
  O  O27  1  0.70833300  0.79536700  0.74999600  1
  O  O28  1  0.79180700  0.70438400  0.99995300  1
  O  O29  1  0.29172500  0.20450900  0.25001200  1
  O  O30  1  0.79177200  0.70463000  0.50002000  1
  O  O31  1  0.29161900  0.20460200  0.75001800  1
  O  O32  1  0.70449700  0.20817600  0.99995900  1
  O  O33  1  0.20434300  0.70823600  0.25001600  1
  O  O34  1  0.70476600  0.20834800  0.50001100  1
  O  O35  1  0.20457800  0.70836600  0.75001000  1
  O  O36  1  0.29560400  0.79177800  0.99995300  1
  O  O37  1  0.79547200  0.29186900  0.25002300  1
  O  O38  1  0.29554600  0.79167000  0.50001700  1
  O  O39  1  0.79533600  0.29165500  0.75000400  1
