# generated using pymatgen
data_Sr3Ta5O15
_symmetry_space_group_name_H-M   'P 1'
_cell_length_a   12.59709000
_cell_length_b   12.59709000
_cell_length_c   3.97861200
_cell_angle_alpha   90.00000000
_cell_angle_beta   90.00000000
_cell_angle_gamma   90.00000000
_symmetry_Int_Tables_number   1
_chemical_formula_structural   Sr3Ta5O15
_chemical_formula_sum   'Sr6 Ta10 O30'
_cell_volume   631.35271524
_cell_formula_units_Z   2
loop_
 _symmetry_equiv_pos_site_id
 _symmetry_equiv_pos_as_xyz
  1  'x, y, z'
loop_
 _atom_site_type_symbol
 _atom_site_label
 _atom_site_symmetry_multiplicity
 _atom_site_fract_x
 _atom_site_fract_y
 _atom_site_fract_z
 _atom_site_occupancy
  Sr  Sr0  1  0.16347200  0.66347200  0.50000000  1
  Sr  Sr1  1  0.83652800  0.33652800  0.50000000  1
  Sr  Sr2  1  0.66347200  0.83652800  0.50000000  1
  Sr  Sr3  1  0.33652800  0.16347200  0.50000000  1
  Sr  Sr4  1  0.00000000  0.00000000  0.50000000  1
  Sr  Sr5  1  0.50000000  0.50000000  0.50000000  1
  Ta  Ta6  1  0.07997700  0.21021500  0.00000000  1
  Ta  Ta7  1  0.92002300  0.78978500  0.00000000  1
  Ta  Ta8  1  0.21021500  0.92002300  0.00000000  1
  Ta  Ta9  1  0.57997700  0.28978500  0.00000000  1
  Ta  Ta10  1  0.78978500  0.07997700  0.00000000  1
  Ta  Ta11  1  0.42002300  0.71021500  0.00000000  1
  Ta  Ta12  1  0.71021500  0.57997700  0.00000000  1
  Ta  Ta13  1  0.28978500  0.42002300  0.00000000  1
  Ta  Ta14  1  0.50000000  0.00000000  0.00000000  1
  Ta  Ta15  1  0.00000000  0.50000000  0.00000000  1
  O  O16  1  0.72925900  0.22925900  0.00000000  1
  O  O17  1  0.27074100  0.77074100  0.00000000  1
  O  O18  1  0.22925900  0.27074100  0.00000000  1
  O  O19  1  0.77074100  0.72925900  0.00000000  1
  O  O20  1  0.34155400  0.00852500  0.00000000  1
  O  O21  1  0.65844600  0.99147500  0.00000000  1
  O  O22  1  0.00852500  0.65844600  0.00000000  1
  O  O23  1  0.84155400  0.49147500  0.00000000  1
  O  O24  1  0.99147500  0.34155400  0.00000000  1
  O  O25  1  0.15844600  0.50852500  0.00000000  1
  O  O26  1  0.50852500  0.84155400  0.00000000  1
  O  O27  1  0.49147500  0.15844600  0.00000000  1
  O  O28  1  0.08097900  0.20691500  0.50000000  1
  O  O29  1  0.91902100  0.79308500  0.50000000  1
  O  O30  1  0.20691500  0.91902100  0.50000000  1
  O  O31  1  0.58097900  0.29308500  0.50000000  1
  O  O32  1  0.79308500  0.08097900  0.50000000  1
  O  O33  1  0.41902100  0.70691500  0.50000000  1
  O  O34  1  0.70691500  0.58097900  0.50000000  1
  O  O35  1  0.29308500  0.41902100  0.50000000  1
  O  O36  1  0.13639300  0.06319700  0.00000000  1
  O  O37  1  0.86360700  0.93680300  0.00000000  1
  O  O38  1  0.06319700  0.86360700  0.00000000  1
  O  O39  1  0.63639300  0.43680300  0.00000000  1
  O  O40  1  0.93680300  0.13639300  0.00000000  1
  O  O41  1  0.36360700  0.56319700  0.00000000  1
  O  O42  1  0.56319700  0.63639300  0.00000000  1
  O  O43  1  0.43680300  0.36360700  0.00000000  1
  O  O44  1  0.50000000  0.00000000  0.50000000  1
  O  O45  1  0.00000000  0.50000000  0.50000000  1
