# generated using pymatgen
data_SrAlHOF4
_symmetry_space_group_name_H-M   'P 1'
_cell_length_a   10.54906000
_cell_length_b   5.58689300
_cell_length_c   8.68233603
_cell_angle_alpha   71.93335747
_cell_angle_beta   90.00000000
_cell_angle_gamma   90.00000000
_symmetry_Int_Tables_number   1
_chemical_formula_structural   SrAlHOF4
_chemical_formula_sum   'Sr4 Al4 H4 O4 F16'
_cell_volume   486.47729611
_cell_formula_units_Z   4
loop_
 _symmetry_equiv_pos_site_id
 _symmetry_equiv_pos_as_xyz
  1  'x, y, z'
loop_
 _atom_site_type_symbol
 _atom_site_label
 _atom_site_symmetry_multiplicity
 _atom_site_fract_x
 _atom_site_fract_y
 _atom_site_fract_z
 _atom_site_occupancy
  Sr  Sr0  1  0.18511500  0.86339300  0.56639500  1
  Sr  Sr1  1  0.81488500  0.13660700  0.43360500  1
  Sr  Sr2  1  0.68511500  0.13660700  0.93360500  1
  Sr  Sr3  1  0.31488500  0.86339300  0.06639500  1
  Al  Al4  1  0.97267400  0.82316700  0.18425700  1
  Al  Al5  1  0.02732600  0.17683300  0.81574300  1
  Al  Al6  1  0.47267400  0.17683300  0.31574300  1
  Al  Al7  1  0.52732600  0.82316700  0.68425700  1
  H  H8  1  0.29894400  0.40556700  0.92923800  1
  H  H9  1  0.70105600  0.59443300  0.07076200  1
  H  H10  1  0.79894400  0.59443300  0.57076200  1
  H  H11  1  0.20105600  0.40556700  0.42923800  1
  O  O12  1  0.94708400  0.87801700  0.95885000  1
  O  O13  1  0.05291600  0.12198300  0.04115000  1
  O  O14  1  0.44708400  0.12198300  0.54115000  1
  O  O15  1  0.55291600  0.87801700  0.45885000  1
  F  F16  1  0.10807500  0.46548100  0.72960000  1
  F  F17  1  0.89192500  0.53451900  0.27040000  1
  F  F18  1  0.60807500  0.53451900  0.77040000  1
  F  F19  1  0.39192500  0.46548100  0.22960000  1
  F  F20  1  0.49274500  0.89442600  0.87138600  1
  F  F21  1  0.50725500  0.10557400  0.12861400  1
  F  F22  1  0.99274500  0.10557400  0.62861400  1
  F  F23  1  0.00725500  0.89442600  0.37138600  1
  F  F24  1  0.37753500  0.66403300  0.69178400  1
  F  F25  1  0.62246500  0.33596700  0.30821600  1
  F  F26  1  0.87753500  0.33596700  0.80821600  1
  F  F27  1  0.12246500  0.66403300  0.19178400  1
  F  F28  1  0.17959500  0.99835400  0.81665500  1
  F  F29  1  0.82040500  0.00164600  0.18334500  1
  F  F30  1  0.67959500  0.00164600  0.68334500  1
  F  F31  1  0.32040500  0.99835400  0.31665500  1
