# generated using pymatgen
data_Ti3Pb5F19
_symmetry_space_group_name_H-M   'P 1'
_cell_length_a   11.15794962
_cell_length_b   11.15794962
_cell_length_c   11.15794962
_cell_angle_alpha   97.11517529
_cell_angle_beta   97.11517529
_cell_angle_gamma   138.78751845
_symmetry_Int_Tables_number   1
_chemical_formula_structural   Ti3Pb5F19
_chemical_formula_sum   'Ti6 Pb10 F38'
_cell_volume   856.69777207
_cell_formula_units_Z   2
loop_
 _symmetry_equiv_pos_site_id
 _symmetry_equiv_pos_as_xyz
  1  'x, y, z'
loop_
 _atom_site_type_symbol
 _atom_site_label
 _atom_site_symmetry_multiplicity
 _atom_site_fract_x
 _atom_site_fract_y
 _atom_site_fract_z
 _atom_site_occupancy
  Ti  Ti0  1  0.61063200  0.78336500  0.50000000  1
  Ti  Ti1  1  0.28336500  0.11063200  0.50000000  1
  Ti  Ti2  1  0.78336500  0.28336500  0.17273200  1
  Ti  Ti3  1  0.11063200  0.61063200  0.82726800  1
  Ti  Ti4  1  0.74907200  0.74907200  0.00000000  1
  Ti  Ti5  1  0.24907200  0.24907200  0.00000000  1
  Pb  Pb6  1  0.12835600  0.83276800  0.16623700  1
  Pb  Pb7  1  0.66653100  0.96211800  0.83376300  1
  Pb  Pb8  1  0.83276800  0.66653100  0.70441300  1
  Pb  Pb9  1  0.62835600  0.46211800  0.29558700  1
  Pb  Pb10  1  0.96211800  0.12835600  0.29558700  1
  Pb  Pb11  1  0.16653100  0.33276800  0.70441300  1
  Pb  Pb12  1  0.33276800  0.62835600  0.16623700  1
  Pb  Pb13  1  0.46211800  0.16653100  0.83376300  1
  Pb  Pb14  1  0.28419900  0.78419900  0.50000000  1
  Pb  Pb15  1  0.78419900  0.28419900  0.50000000  1
  F  F16  1  0.60449500  0.95713200  0.50000000  1
  F  F17  1  0.45713200  0.10449500  0.50000000  1
  F  F18  1  0.95713200  0.45713200  0.35263700  1
  F  F19  1  0.10449500  0.60449500  0.64736300  1
  F  F20  1  0.84331200  0.47146700  0.75438500  1
  F  F21  1  0.71708100  0.08892600  0.24561500  1
  F  F22  1  0.47146700  0.71708100  0.62815500  1
  F  F23  1  0.34331200  0.58892600  0.37184500  1
  F  F24  1  0.08892600  0.84331200  0.37184500  1
  F  F25  1  0.21708100  0.97146700  0.62815500  1
  F  F26  1  0.97146700  0.34331200  0.75438500  1
  F  F27  1  0.58892600  0.21708100  0.24561500  1
  F  F28  1  0.14083900  0.14626700  0.50000000  1
  F  F29  1  0.64626700  0.64083900  0.50000000  1
  F  F30  1  0.14626700  0.64626700  0.00542800  1
  F  F31  1  0.64083900  0.14083900  0.99457200  1
  F  F32  1  0.01576400  0.28985900  0.50000000  1
  F  F33  1  0.78985900  0.51576400  0.50000000  1
  F  F34  1  0.28985900  0.78985900  0.27409500  1
  F  F35  1  0.51576400  0.01576400  0.72590500  1
  F  F36  1  0.99926500  0.99926500  0.00000000  1
  F  F37  1  0.49926500  0.49926500  0.00000000  1
  F  F38  1  0.81389700  0.63695200  0.93585300  1
  F  F39  1  0.70109900  0.87804500  0.06414700  1
  F  F40  1  0.63695200  0.70109900  0.82305400  1
  F  F41  1  0.31389700  0.37804500  0.17694600  1
  F  F42  1  0.87804500  0.81389700  0.17694600  1
  F  F43  1  0.20109900  0.13695200  0.82305400  1
  F  F44  1  0.13695200  0.31389700  0.93585300  1
  F  F45  1  0.37804500  0.20109900  0.06414700  1
  F  F46  1  0.84553500  0.49951800  0.14512400  1
  F  F47  1  0.35439400  0.70041100  0.85487600  1
  F  F48  1  0.49951800  0.35439400  0.65398300  1
  F  F49  1  0.34553500  0.20041100  0.34601700  1
  F  F50  1  0.70041100  0.84553500  0.34601700  1
  F  F51  1  0.85439400  0.99951800  0.65398300  1
  F  F52  1  0.99951800  0.34553500  0.14512400  1
  F  F53  1  0.20041100  0.85439400  0.85487600  1
