# generated using pymatgen
data_Sr4Mn3BO10
_symmetry_space_group_name_H-M   'P 1'
_cell_length_a   7.63412500
_cell_length_b   9.71384107
_cell_length_c   7.72810300
_cell_angle_alpha   66.55871312
_cell_angle_beta   90.00051466
_cell_angle_gamma   66.86180737
_symmetry_Int_Tables_number   1
_chemical_formula_structural   Sr4Mn3BO10
_chemical_formula_sum   'Sr8 Mn6 B2 O20'
_cell_volume   475.12455415
_cell_formula_units_Z   2
loop_
 _symmetry_equiv_pos_site_id
 _symmetry_equiv_pos_as_xyz
  1  'x, y, z'
loop_
 _atom_site_type_symbol
 _atom_site_label
 _atom_site_symmetry_multiplicity
 _atom_site_fract_x
 _atom_site_fract_y
 _atom_site_fract_z
 _atom_site_occupancy
  Sr  Sr0  1  0.87805200  0.74392800  0.85631100  1
  Sr  Sr1  1  0.37800700  0.74393000  0.85629900  1
  Sr  Sr2  1  0.12194900  0.25603300  0.60025300  1
  Sr  Sr3  1  0.62198600  0.25604200  0.60025000  1
  Sr  Sr4  1  0.11842400  0.26316800  0.11595800  1
  Sr  Sr5  1  0.61840400  0.26318200  0.11595900  1
  Sr  Sr6  1  0.88158300  0.73685500  0.37911900  1
  Sr  Sr7  1  0.38159400  0.73685900  0.37911100  1
  Mn  Mn8  1  0.49998900  0.00000500  0.48863000  1
  Mn  Mn9  1  0.25042000  0.49917300  0.24043700  1
  Mn  Mn10  1  0.74957900  0.50083600  0.73960500  1
  Mn  Mn11  1  0.99997900  0.00001300  0.48853800  1
  Mn  Mn12  1  0.75040600  0.49919900  0.24042300  1
  Mn  Mn13  1  0.24958400  0.50082800  0.73959700  1
  B  B14  1  0.50000600  0.99999300  0.95866200  1
  B  B15  1  0.00000700  0.99999200  0.95865300  1
  O  O16  1  0.50000800  0.99999100  0.77523200  1
  O  O17  1  0.00001300  0.99998900  0.77522100  1
  O  O18  1  0.24998400  0.00000800  0.44797200  1
  O  O19  1  0.74998000  0.00000900  0.44796500  1
  O  O20  1  0.07625800  0.84744800  0.11910400  1
  O  O21  1  0.57626600  0.84744400  0.11910700  1
  O  O22  1  0.42374600  0.15253800  0.96656400  1
  O  O23  1  0.92375500  0.15253700  0.96656200  1
  O  O24  1  0.38033400  0.23929600  0.36225800  1
  O  O25  1  0.88032000  0.23931100  0.36222500  1
  O  O26  1  0.11965500  0.76071200  0.60152100  1
  O  O27  1  0.61966100  0.76071400  0.60155200  1
  O  O28  1  0.98526700  0.52948900  0.22453700  1
  O  O29  1  0.48526900  0.52948100  0.22453600  1
  O  O30  1  0.01475200  0.47049300  0.75401400  1
  O  O31  1  0.51475000  0.47049500  0.75400900  1
  O  O32  1  0.24236300  0.51526600  0.98316700  1
  O  O33  1  0.74235200  0.51528900  0.98316000  1
  O  O34  1  0.25765300  0.48472100  0.49844500  1
  O  O35  1  0.75764500  0.48473300  0.49844500  1
