# generated using pymatgen
data_Sr2TlCl5
_symmetry_space_group_name_H-M   'P 1'
_cell_length_a   8.00188200
_cell_length_b   9.02516300
_cell_length_c   12.91674992
_cell_angle_alpha   89.84721403
_cell_angle_beta   90.00000000
_cell_angle_gamma   90.00000000
_symmetry_Int_Tables_number   1
_chemical_formula_structural   Sr2TlCl5
_chemical_formula_sum   'Sr8 Tl4 Cl20'
_cell_volume   932.82226701
_cell_formula_units_Z   4
loop_
 _symmetry_equiv_pos_site_id
 _symmetry_equiv_pos_as_xyz
  1  'x, y, z'
loop_
 _atom_site_type_symbol
 _atom_site_label
 _atom_site_symmetry_multiplicity
 _atom_site_fract_x
 _atom_site_fract_y
 _atom_site_fract_z
 _atom_site_occupancy
  Sr  Sr0  1  0.47633200  0.00210300  0.82256000  1
  Sr  Sr1  1  0.52366800  0.99789700  0.17744000  1
  Sr  Sr2  1  0.97633200  0.99789700  0.67744000  1
  Sr  Sr3  1  0.02366800  0.00210300  0.32256000  1
  Sr  Sr4  1  0.43276800  0.75341600  0.50539000  1
  Sr  Sr5  1  0.56723200  0.24658400  0.49461000  1
  Sr  Sr6  1  0.93276800  0.24658400  0.99461000  1
  Sr  Sr7  1  0.06723200  0.75341600  0.00539000  1
  Tl  Tl8  1  0.48204400  0.50436400  0.82589000  1
  Tl  Tl9  1  0.51795600  0.49563600  0.17411000  1
  Tl  Tl10  1  0.98204400  0.49563600  0.67411000  1
  Tl  Tl11  1  0.01795600  0.50436400  0.32589000  1
  Cl  Cl12  1  0.34057600  0.46776400  0.59022500  1
  Cl  Cl13  1  0.65942400  0.53223600  0.40977500  1
  Cl  Cl14  1  0.84057600  0.53223600  0.90977500  1
  Cl  Cl15  1  0.15942400  0.46776400  0.09022500  1
  Cl  Cl16  1  0.66311500  0.78761400  0.68402300  1
  Cl  Cl17  1  0.33688500  0.21238600  0.31597700  1
  Cl  Cl18  1  0.16311500  0.21238600  0.81597700  1
  Cl  Cl19  1  0.83688500  0.78761400  0.18402300  1
  Cl  Cl20  1  0.19387600  0.77753400  0.78594100  1
  Cl  Cl21  1  0.80612400  0.22246600  0.21405900  1
  Cl  Cl22  1  0.69387600  0.22246600  0.71405900  1
  Cl  Cl23  1  0.30612400  0.77753400  0.28594100  1
  Cl  Cl24  1  0.05125800  0.78786200  0.50292100  1
  Cl  Cl25  1  0.94874200  0.21213800  0.49707900  1
  Cl  Cl26  1  0.55125800  0.21213800  0.99707900  1
  Cl  Cl27  1  0.44874200  0.78786200  0.00292100  1
  Cl  Cl28  1  0.84084600  0.96053500  0.89849500  1
  Cl  Cl29  1  0.15915400  0.03946500  0.10150500  1
  Cl  Cl30  1  0.34084600  0.03946500  0.60150500  1
  Cl  Cl31  1  0.65915400  0.96053500  0.39849500  1
