# generated using pymatgen
data_Sm6Nb4Al43
_symmetry_space_group_name_H-M   'P 1'
_cell_length_a   11.17866176
_cell_length_b   11.17866176
_cell_length_c   17.93125000
_cell_angle_alpha   90.00000000
_cell_angle_beta   90.00000000
_cell_angle_gamma   119.99999860
_symmetry_Int_Tables_number   1
_chemical_formula_structural   Sm6Nb4Al43
_chemical_formula_sum   'Sm12 Nb8 Al86'
_cell_volume   1940.53211694
_cell_formula_units_Z   2
loop_
 _symmetry_equiv_pos_site_id
 _symmetry_equiv_pos_as_xyz
  1  'x, y, z'
loop_
 _atom_site_type_symbol
 _atom_site_label
 _atom_site_symmetry_multiplicity
 _atom_site_fract_x
 _atom_site_fract_y
 _atom_site_fract_z
 _atom_site_occupancy
  Sm  Sm0  1  0.52871800  0.00000000  0.59575200  1
  Sm  Sm1  1  0.47128200  0.00000000  0.40424800  1
  Sm  Sm2  1  0.00000000  0.52871800  0.59575200  1
  Sm  Sm3  1  0.47128200  0.00000000  0.09575200  1
  Sm  Sm4  1  0.00000000  0.52871800  0.90424800  1
  Sm  Sm5  1  0.00000000  0.47128200  0.40424800  1
  Sm  Sm6  1  0.52871800  0.00000000  0.90424800  1
  Sm  Sm7  1  0.00000000  0.47128200  0.09575200  1
  Sm  Sm8  1  0.47128200  0.47128200  0.59575200  1
  Sm  Sm9  1  0.52871800  0.52871800  0.40424800  1
  Sm  Sm10  1  0.52871800  0.52871800  0.09575200  1
  Sm  Sm11  1  0.47128200  0.47128200  0.90424800  1
  Nb  Nb12  1  0.00000000  0.00000000  0.50000000  1
  Nb  Nb13  1  0.00000000  0.00000000  0.00000000  1
  Nb  Nb14  1  0.72739900  0.00000000  0.75000000  1
  Nb  Nb15  1  0.27260100  0.00000000  0.25000000  1
  Nb  Nb16  1  0.00000000  0.72739900  0.75000000  1
  Nb  Nb17  1  0.00000000  0.27260100  0.25000000  1
  Nb  Nb18  1  0.27260100  0.27260100  0.75000000  1
  Nb  Nb19  1  0.72739900  0.72739900  0.25000000  1
  Al  Al20  1  0.14956500  0.59542700  0.75000000  1
  Al  Al21  1  0.85043500  0.40457300  0.25000000  1
  Al  Al22  1  0.40457300  0.55413800  0.75000000  1
  Al  Al23  1  0.59542700  0.14956500  0.75000000  1
  Al  Al24  1  0.59542700  0.44586200  0.25000000  1
  Al  Al25  1  0.40457300  0.85043500  0.25000000  1
  Al  Al26  1  0.44586200  0.85043500  0.75000000  1
  Al  Al27  1  0.55413800  0.40457300  0.75000000  1
  Al  Al28  1  0.55413800  0.14956500  0.25000000  1
  Al  Al29  1  0.44586200  0.59542700  0.25000000  1
  Al  Al30  1  0.85043500  0.44586200  0.75000000  1
  Al  Al31  1  0.14956500  0.55413800  0.25000000  1
  Al  Al32  1  0.15839200  0.00000000  0.11554700  1
  Al  Al33  1  0.84160800  0.00000000  0.88445300  1
  Al  Al34  1  0.00000000  0.15839200  0.11554700  1
  Al  Al35  1  0.84160800  0.00000000  0.61554700  1
  Al  Al36  1  0.00000000  0.15839200  0.38445300  1
  Al  Al37  1  0.00000000  0.84160800  0.88445300  1
  Al  Al38  1  0.15839200  0.00000000  0.38445300  1
  Al  Al39  1  0.00000000  0.84160800  0.61554700  1
  Al  Al40  1  0.84160800  0.84160800  0.11554700  1
  Al  Al41  1  0.15839200  0.15839200  0.88445300  1
  Al  Al42  1  0.15839200  0.15839200  0.61554700  1
  Al  Al43  1  0.84160800  0.84160800  0.38445300  1
  Al  Al44  1  0.24732200  0.49464500  0.50000000  1
  Al  Al45  1  0.75267800  0.50535500  0.50000000  1
  Al  Al46  1  0.50535500  0.75267800  0.50000000  1
  Al  Al47  1  0.75267800  0.50535500  0.00000000  1
  Al  Al48  1  0.49464500  0.24732200  0.00000000  1
  Al  Al49  1  0.49464500  0.24732200  0.50000000  1
  Al  Al50  1  0.24732200  0.49464500  0.00000000  1
  Al  Al51  1  0.50535500  0.75267800  0.00000000  1
  Al  Al52  1  0.24732200  0.75267800  0.50000000  1
  Al  Al53  1  0.75267800  0.24732200  0.50000000  1
  Al  Al54  1  0.75267800  0.24732200  0.00000000  1
  Al  Al55  1  0.24732200  0.75267800  0.00000000  1
  Al  Al56  1  0.14640800  0.00000000  0.75000000  1
  Al  Al57  1  0.85359200  0.00000000  0.25000000  1
  Al  Al58  1  0.00000000  0.14640800  0.75000000  1
  Al  Al59  1  0.00000000  0.85359200  0.25000000  1
  Al  Al60  1  0.85359200  0.85359200  0.75000000  1
  Al  Al61  1  0.14640800  0.14640800  0.25000000  1
  Al  Al62  1  0.33333300  0.66666700  0.62691100  1
  Al  Al63  1  0.66666700  0.33333300  0.37308900  1
  Al  Al64  1  0.66666700  0.33333300  0.12691100  1
  Al  Al65  1  0.66666700  0.33333300  0.87308900  1
  Al  Al66  1  0.33333300  0.66666700  0.87308900  1
  Al  Al67  1  0.33333300  0.66666700  0.12691100  1
  Al  Al68  1  0.33333300  0.66666700  0.37308900  1
  Al  Al69  1  0.66666700  0.33333300  0.62691100  1
  Al  Al70  1  0.25489900  0.00000000  0.53014400  1
  Al  Al71  1  0.74510100  0.00000000  0.46985600  1
  Al  Al72  1  0.00000000  0.25489900  0.53014400  1
  Al  Al73  1  0.74510100  0.00000000  0.03014400  1
  Al  Al74  1  0.00000000  0.25489900  0.96985600  1
  Al  Al75  1  0.00000000  0.74510100  0.46985600  1
  Al  Al76  1  0.25489900  0.00000000  0.96985600  1
  Al  Al77  1  0.00000000  0.74510100  0.03014400  1
  Al  Al78  1  0.74510100  0.74510100  0.53014400  1
  Al  Al79  1  0.25489900  0.25489900  0.46985600  1
  Al  Al80  1  0.25489900  0.25489900  0.03014400  1
  Al  Al81  1  0.74510100  0.74510100  0.96985600  1
  Al  Al82  1  0.15694600  0.39382700  0.66470400  1
  Al  Al83  1  0.84305400  0.60617300  0.33529600  1
  Al  Al84  1  0.60617300  0.76311800  0.66470400  1
  Al  Al85  1  0.84305400  0.60617300  0.16470400  1
  Al  Al86  1  0.39382700  0.15694600  0.83529600  1
  Al  Al87  1  0.39382700  0.23688200  0.33529600  1
  Al  Al88  1  0.15694600  0.39382700  0.83529600  1
  Al  Al89  1  0.60617300  0.84305400  0.16470400  1
  Al  Al90  1  0.23688200  0.84305400  0.66470400  1
  Al  Al91  1  0.39382700  0.23688200  0.16470400  1
  Al  Al92  1  0.76311800  0.60617300  0.83529600  1
  Al  Al93  1  0.76311800  0.15694600  0.33529600  1
  Al  Al94  1  0.60617300  0.76311800  0.83529600  1
  Al  Al95  1  0.23688200  0.39382700  0.16470400  1
  Al  Al96  1  0.60617300  0.84305400  0.33529600  1
  Al  Al97  1  0.39382700  0.15694600  0.66470400  1
  Al  Al98  1  0.76311800  0.15694600  0.16470400  1
  Al  Al99  1  0.23688200  0.39382700  0.33529600  1
  Al  Al100  1  0.23688200  0.84305400  0.83529600  1
  Al  Al101  1  0.76311800  0.60617300  0.66470400  1
  Al  Al102  1  0.84305400  0.23688200  0.83529600  1
  Al  Al103  1  0.15694600  0.76311800  0.16470400  1
  Al  Al104  1  0.15694600  0.76311800  0.33529600  1
  Al  Al105  1  0.84305400  0.23688200  0.66470400  1
