# generated using pymatgen
data_Sr2TlI5
_symmetry_space_group_name_H-M   'P 1'
_cell_length_a   9.13950400
_cell_length_b   10.05264900
_cell_length_c   14.36877346
_cell_angle_alpha   89.96022049
_cell_angle_beta   90.00000000
_cell_angle_gamma   90.00000000
_symmetry_Int_Tables_number   1
_chemical_formula_structural   Sr2TlI5
_chemical_formula_sum   'Sr8 Tl4 I20'
_cell_volume   1320.14835621
_cell_formula_units_Z   4
loop_
 _symmetry_equiv_pos_site_id
 _symmetry_equiv_pos_as_xyz
  1  'x, y, z'
loop_
 _atom_site_type_symbol
 _atom_site_label
 _atom_site_symmetry_multiplicity
 _atom_site_fract_x
 _atom_site_fract_y
 _atom_site_fract_z
 _atom_site_occupancy
  Sr  Sr0  1  0.02263000  0.00211300  0.31910300  1
  Sr  Sr1  1  0.97737000  0.99788700  0.68089700  1
  Sr  Sr2  1  0.52263000  0.99788700  0.18089700  1
  Sr  Sr3  1  0.47737000  0.00211300  0.81910300  1
  Sr  Sr4  1  0.07991700  0.24890600  0.00744600  1
  Sr  Sr5  1  0.92008300  0.75109400  0.99255400  1
  Sr  Sr6  1  0.57991700  0.75109400  0.49255400  1
  Sr  Sr7  1  0.42008300  0.24890600  0.50744600  1
  Tl  Tl8  1  0.01331500  0.48853500  0.31987000  1
  Tl  Tl9  1  0.98668500  0.51146500  0.68013000  1
  Tl  Tl10  1  0.51331500  0.51146500  0.18013000  1
  Tl  Tl11  1  0.48668500  0.48853500  0.81987000  1
  I  I12  1  0.16500000  0.53976400  0.09020500  1
  I  I13  1  0.83500000  0.46023600  0.90979500  1
  I  I14  1  0.66500000  0.46023600  0.40979500  1
  I  I15  1  0.33500000  0.53976400  0.59020500  1
  I  I16  1  0.83720900  0.22336500  0.18450400  1
  I  I17  1  0.16279100  0.77663500  0.81549600  1
  I  I18  1  0.33720900  0.77663500  0.31549600  1
  I  I19  1  0.66279100  0.22336500  0.68450400  1
  I  I20  1  0.30587500  0.23142900  0.28180500  1
  I  I21  1  0.69412500  0.76857100  0.71819500  1
  I  I22  1  0.80587500  0.76857100  0.21819500  1
  I  I23  1  0.19412500  0.23142900  0.78180500  1
  I  I24  1  0.45877500  0.22066800  0.00251000  1
  I  I25  1  0.54122500  0.77933200  0.99749000  1
  I  I26  1  0.95877500  0.77933200  0.49749000  1
  I  I27  1  0.04122500  0.22066800  0.50251000  1
  I  I28  1  0.66286400  0.04503600  0.40459800  1
  I  I29  1  0.33713600  0.95496400  0.59540200  1
  I  I30  1  0.16286400  0.95496400  0.09540200  1
  I  I31  1  0.83713600  0.04503600  0.90459800  1
