# generated using pymatgen
data_Sm2Ta2O9
_symmetry_space_group_name_H-M   'P 1'
_cell_length_a   3.87927700
_cell_length_b   6.68437400
_cell_length_c   15.48455906
_cell_angle_alpha   67.32693403
_cell_angle_beta   90.00000000
_cell_angle_gamma   90.00000000
_symmetry_Int_Tables_number   1
_chemical_formula_structural   Sm2Ta2O9
_chemical_formula_sum   'Sm4 Ta4 O18'
_cell_volume   370.49301622
_cell_formula_units_Z   2
loop_
 _symmetry_equiv_pos_site_id
 _symmetry_equiv_pos_as_xyz
  1  'x, y, z'
loop_
 _atom_site_type_symbol
 _atom_site_label
 _atom_site_symmetry_multiplicity
 _atom_site_fract_x
 _atom_site_fract_y
 _atom_site_fract_z
 _atom_site_occupancy
  Sm  Sm0  1  0.99560700  0.68688600  0.30392400  1
  Sm  Sm1  1  0.00439300  0.31311400  0.69607600  1
  Sm  Sm2  1  0.49560700  0.31311400  0.19607600  1
  Sm  Sm3  1  0.50439300  0.68688600  0.80392400  1
  Ta  Ta4  1  0.99655900  0.69267100  0.03958000  1
  Ta  Ta5  1  0.00344100  0.30732900  0.96042000  1
  Ta  Ta6  1  0.49655900  0.30732900  0.46042000  1
  Ta  Ta7  1  0.50344100  0.69267100  0.53958000  1
  O  O8  1  0.99915400  0.33857200  0.08251800  1
  O  O9  1  0.00084600  0.66142800  0.91748200  1
  O  O10  1  0.49915400  0.66142800  0.41748200  1
  O  O11  1  0.50084600  0.33857200  0.58251800  1
  O  O12  1  0.49053200  0.94126800  0.21837700  1
  O  O13  1  0.50946800  0.05873200  0.78162300  1
  O  O14  1  0.99053200  0.05873200  0.28162300  1
  O  O15  1  0.00946800  0.94126800  0.71837700  1
  O  O16  1  0.00000000  0.00000000  0.00000000  1
  O  O17  1  0.50000000  0.00000000  0.50000000  1
  O  O18  1  0.49774900  0.65231000  0.04966300  1
  O  O19  1  0.50225100  0.34769000  0.95033700  1
  O  O20  1  0.99774900  0.34769000  0.45033700  1
  O  O21  1  0.00225100  0.65231000  0.54966300  1
  O  O22  1  0.99746300  0.57772600  0.17784200  1
  O  O23  1  0.00253700  0.42227400  0.82215800  1
  O  O24  1  0.49746300  0.42227400  0.32215800  1
  O  O25  1  0.50253700  0.57772600  0.67784200  1
