# generated using pymatgen
data_Sr2LuTaO6
_symmetry_space_group_name_H-M   'P 1'
_cell_length_a   5.86271800
_cell_length_b   5.89095600
_cell_length_c   8.29842800
_cell_angle_alpha   90.00000000
_cell_angle_beta   90.00000000
_cell_angle_gamma   90.00000000
_symmetry_Int_Tables_number   1
_chemical_formula_structural   Sr2LuTaO6
_chemical_formula_sum   'Sr4 Lu2 Ta2 O12'
_cell_volume   286.60292218
_cell_formula_units_Z   2
loop_
 _symmetry_equiv_pos_site_id
 _symmetry_equiv_pos_as_xyz
  1  'x, y, z'
loop_
 _atom_site_type_symbol
 _atom_site_label
 _atom_site_symmetry_multiplicity
 _atom_site_fract_x
 _atom_site_fract_y
 _atom_site_fract_z
 _atom_site_occupancy
  Sr  Sr0  1  0.00202300  0.48370700  0.25192200  1
  Sr  Sr1  1  0.00202300  0.51629300  0.74807800  1
  Sr  Sr2  1  0.50202300  0.98370700  0.24807800  1
  Sr  Sr3  1  0.50202300  0.01629300  0.75192200  1
  Lu  Lu4  1  0.00295300  0.00000000  0.00000000  1
  Lu  Lu5  1  0.50295300  0.50000000  0.50000000  1
  Ta  Ta6  1  0.00327000  0.00000000  0.50000000  1
  Ta  Ta7  1  0.50327000  0.50000000  0.00000000  1
  O  O8  1  0.48636900  0.51044600  0.23990700  1
  O  O9  1  0.48636900  0.48955400  0.76009300  1
  O  O10  1  0.98636900  0.01044600  0.26009300  1
  O  O11  1  0.98636900  0.98955400  0.73990700  1
  O  O12  1  0.25139700  0.23166900  0.49733900  1
  O  O13  1  0.25139700  0.76833100  0.50266100  1
  O  O14  1  0.75139700  0.73166900  0.00266100  1
  O  O15  1  0.75139700  0.26833100  0.99733900  1
  O  O16  1  0.27319900  0.25039200  0.00698200  1
  O  O17  1  0.27319900  0.74960800  0.99301800  1
  O  O18  1  0.77319900  0.75039200  0.49301800  1
  O  O19  1  0.77319900  0.24960800  0.50698200  1
