# generated using pymatgen
data_ScTl(SO4)2
_symmetry_space_group_name_H-M   'P 1'
_cell_length_a   5.05375147
_cell_length_b   5.05375147
_cell_length_c   8.74315000
_cell_angle_alpha   90.00000000
_cell_angle_beta   90.00000000
_cell_angle_gamma   119.99999301
_symmetry_Int_Tables_number   1
_chemical_formula_structural   ScTl(SO4)2
_chemical_formula_sum   'Sc1 Tl1 S2 O8'
_cell_volume   193.38658856
_cell_formula_units_Z   1
loop_
 _symmetry_equiv_pos_site_id
 _symmetry_equiv_pos_as_xyz
  1  'x, y, z'
loop_
 _atom_site_type_symbol
 _atom_site_label
 _atom_site_symmetry_multiplicity
 _atom_site_fract_x
 _atom_site_fract_y
 _atom_site_fract_z
 _atom_site_occupancy
  Sc  Sc0  1  0.00000000  0.00000000  0.00000000  1
  Tl  Tl1  1  0.00000000  0.00000000  0.50000000  1
  S  S2  1  0.33333300  0.66666700  0.21046700  1
  S  S3  1  0.66666700  0.33333300  0.78953300  1
  O  O4  1  0.09439500  0.36238400  0.15094800  1
  O  O5  1  0.63761600  0.73201100  0.15094800  1
  O  O6  1  0.36238400  0.09439500  0.84905200  1
  O  O7  1  0.26798900  0.90560500  0.15094800  1
  O  O8  1  0.73201100  0.63761600  0.84905200  1
  O  O9  1  0.90560500  0.26798900  0.84905200  1
  O  O10  1  0.33333300  0.66666700  0.37767100  1
  O  O11  1  0.66666700  0.33333300  0.62232900  1
