# generated using pymatgen
data_RhF6
_symmetry_space_group_name_H-M   'P 1'
_cell_length_a   5.00481600
_cell_length_b   8.63716200
_cell_length_c   9.45202600
_cell_angle_alpha   90.00000000
_cell_angle_beta   90.00000000
_cell_angle_gamma   90.00000000
_symmetry_Int_Tables_number   1
_chemical_formula_structural   RhF6
_chemical_formula_sum   'Rh4 F24'
_cell_volume   408.58657083
_cell_formula_units_Z   4
loop_
 _symmetry_equiv_pos_site_id
 _symmetry_equiv_pos_as_xyz
  1  'x, y, z'
loop_
 _atom_site_type_symbol
 _atom_site_label
 _atom_site_symmetry_multiplicity
 _atom_site_fract_x
 _atom_site_fract_y
 _atom_site_fract_z
 _atom_site_occupancy
  Rh  Rh0  1  0.91928200  0.75000000  0.62910000  1
  Rh  Rh1  1  0.08071800  0.25000000  0.37090000  1
  Rh  Rh2  1  0.41928200  0.25000000  0.87090000  1
  Rh  Rh3  1  0.58071800  0.75000000  0.12910000  1
  F  F4  1  0.22285900  0.75000000  0.51322100  1
  F  F5  1  0.77714100  0.25000000  0.48677900  1
  F  F6  1  0.72285900  0.25000000  0.98677900  1
  F  F7  1  0.27714100  0.75000000  0.01322100  1
  F  F8  1  0.61479300  0.75000000  0.74548900  1
  F  F9  1  0.38520700  0.25000000  0.25451100  1
  F  F10  1  0.11479300  0.25000000  0.75451100  1
  F  F11  1  0.88520700  0.75000000  0.24548900  1
  F  F12  1  0.76242600  0.59676900  0.51577800  1
  F  F13  1  0.23757400  0.40323100  0.48422200  1
  F  F14  1  0.26242600  0.40323100  0.98422200  1
  F  F15  1  0.23757400  0.09676900  0.48422200  1
  F  F16  1  0.73757400  0.59676900  0.01577800  1
  F  F17  1  0.76242600  0.90323100  0.51577800  1
  F  F18  1  0.73757400  0.90323100  0.01577800  1
  F  F19  1  0.26242600  0.09676900  0.98422200  1
  F  F20  1  0.07367400  0.59671500  0.74333800  1
  F  F21  1  0.92632600  0.40328500  0.25666200  1
  F  F22  1  0.57367400  0.40328500  0.75666200  1
  F  F23  1  0.92632600  0.09671500  0.25666200  1
  F  F24  1  0.42632600  0.59671500  0.24333800  1
  F  F25  1  0.07367400  0.90328500  0.74333800  1
  F  F26  1  0.42632600  0.90328500  0.24333800  1
  F  F27  1  0.57367400  0.09671500  0.75666200  1
