# generated using pymatgen
data_Re4As5S4
_symmetry_space_group_name_H-M   'P 1'
_cell_length_a   7.09083145
_cell_length_b   7.09083145
_cell_length_c   7.09083145
_cell_angle_alpha   60.00000000
_cell_angle_beta   60.00000000
_cell_angle_gamma   60.00000000
_symmetry_Int_Tables_number   1
_chemical_formula_structural   Re4As5S4
_chemical_formula_sum   'Re4 As5 S4'
_cell_volume   252.10211448
_cell_formula_units_Z   1
loop_
 _symmetry_equiv_pos_site_id
 _symmetry_equiv_pos_as_xyz
  1  'x, y, z'
loop_
 _atom_site_type_symbol
 _atom_site_label
 _atom_site_symmetry_multiplicity
 _atom_site_fract_x
 _atom_site_fract_y
 _atom_site_fract_z
 _atom_site_occupancy
  Re  Re0  1  0.40110500  0.40110500  0.40110500  1
  Re  Re1  1  0.40110500  0.40110500  0.79668600  1
  Re  Re2  1  0.40110500  0.79668600  0.40110500  1
  Re  Re3  1  0.79668600  0.40110500  0.40110500  1
  As  As4  1  0.00000000  0.00000000  0.00000000  1
  As  As5  1  0.14465700  0.14465700  0.14465700  1
  As  As6  1  0.14465700  0.14465700  0.56603000  1
  As  As7  1  0.14465700  0.56603000  0.14465700  1
  As  As8  1  0.56603000  0.14465700  0.14465700  1
  S  S9  1  0.63087200  0.63087200  0.63087200  1
  S  S10  1  0.63087200  0.63087200  0.10738300  1
  S  S11  1  0.63087200  0.10738300  0.63087200  1
  S  S12  1  0.10738300  0.63087200  0.63087200  1
