# generated using pymatgen
data_Sm2TlI5
_symmetry_space_group_name_H-M   'P 1'
_cell_length_a   8.49299900
_cell_length_b   9.68849500
_cell_length_c   14.22429756
_cell_angle_alpha   88.79751502
_cell_angle_beta   90.00000000
_cell_angle_gamma   90.00000000
_symmetry_Int_Tables_number   1
_chemical_formula_structural   Sm2TlI5
_chemical_formula_sum   'Sm8 Tl4 I20'
_cell_volume   1170.17972139
_cell_formula_units_Z   4
loop_
 _symmetry_equiv_pos_site_id
 _symmetry_equiv_pos_as_xyz
  1  'x, y, z'
loop_
 _atom_site_type_symbol
 _atom_site_label
 _atom_site_symmetry_multiplicity
 _atom_site_fract_x
 _atom_site_fract_y
 _atom_site_fract_z
 _atom_site_occupancy
  Sm  Sm0  1  0.05030200  0.01081000  0.32884300  1
  Sm  Sm1  1  0.94969800  0.98919000  0.67115700  1
  Sm  Sm2  1  0.55030200  0.98919000  0.17115700  1
  Sm  Sm3  1  0.44969800  0.01081000  0.82884300  1
  Sm  Sm4  1  0.08774900  0.24242000  0.99234300  1
  Sm  Sm5  1  0.91225100  0.75758000  0.00765700  1
  Sm  Sm6  1  0.58774900  0.75758000  0.50765700  1
  Sm  Sm7  1  0.41225100  0.24242000  0.49234300  1
  Tl  Tl8  1  0.06307000  0.48952100  0.33203500  1
  Tl  Tl9  1  0.93693000  0.51047900  0.66796500  1
  Tl  Tl10  1  0.56307000  0.51047900  0.16796500  1
  Tl  Tl11  1  0.43693000  0.48952100  0.83203500  1
  I  I12  1  0.15825200  0.52968900  0.09129200  1
  I  I13  1  0.84174800  0.47031100  0.90870800  1
  I  I14  1  0.65825200  0.47031100  0.40870800  1
  I  I15  1  0.34174800  0.52968900  0.59129200  1
  I  I16  1  0.84259300  0.21590900  0.17633800  1
  I  I17  1  0.15740700  0.78409100  0.82366200  1
  I  I18  1  0.34259300  0.78409100  0.32366200  1
  I  I19  1  0.65740700  0.21590900  0.67633800  1
  I  I20  1  0.32371000  0.22633200  0.27585100  1
  I  I21  1  0.67629000  0.77366800  0.72414900  1
  I  I22  1  0.82371000  0.77366800  0.22414900  1
  I  I23  1  0.17629000  0.22633200  0.77585100  1
  I  I24  1  0.46507600  0.21759600  0.00205900  1
  I  I25  1  0.53492400  0.78240400  0.99794100  1
  I  I26  1  0.96507600  0.78240400  0.49794100  1
  I  I27  1  0.03492400  0.21759600  0.50205900  1
  I  I28  1  0.66442400  0.03950900  0.39441600  1
  I  I29  1  0.33557600  0.96049100  0.60558400  1
  I  I30  1  0.16442400  0.96049100  0.10558400  1
  I  I31  1  0.83557600  0.03950900  0.89441600  1
