# generated using pymatgen
data_SrPr12Al12Si18(N2O)18
_symmetry_space_group_name_H-M   'P 1'
_cell_length_a   11.69134295
_cell_length_b   11.69134295
_cell_length_c   11.69134295
_cell_angle_alpha   109.47122063
_cell_angle_beta   109.47122063
_cell_angle_gamma   109.47122063
_symmetry_Int_Tables_number   1
_chemical_formula_structural   SrPr12Al12Si18(N2O)18
_chemical_formula_sum   'Sr1 Pr12 Al12 Si18 N36 O18'
_cell_volume   1230.18750000
_cell_formula_units_Z   1
loop_
 _symmetry_equiv_pos_site_id
 _symmetry_equiv_pos_as_xyz
  1  'x, y, z'
loop_
 _atom_site_type_symbol
 _atom_site_label
 _atom_site_symmetry_multiplicity
 _atom_site_fract_x
 _atom_site_fract_y
 _atom_site_fract_z
 _atom_site_occupancy
  Sr  Sr0  1  0.00000000  0.00000000  0.00000000  1
  Pr  Pr1  1  0.25329100  0.57709800  0.57709800  1
  Pr  Pr2  1  0.74670900  0.32380700  0.32380700  1
  Pr  Pr3  1  0.00000000  0.42290200  0.67619300  1
  Pr  Pr4  1  0.57709800  0.57709800  0.25329100  1
  Pr  Pr5  1  0.00000000  0.67619300  0.42290200  1
  Pr  Pr6  1  0.32380700  0.32380700  0.74670900  1
  Pr  Pr7  1  0.42290200  0.67619300  0.00000000  1
  Pr  Pr8  1  0.67619300  0.42290200  0.00000000  1
  Pr  Pr9  1  0.57709800  0.25329100  0.57709800  1
  Pr  Pr10  1  0.67619300  0.00000000  0.42290200  1
  Pr  Pr11  1  0.42290200  0.00000000  0.67619300  1
  Pr  Pr12  1  0.32380700  0.74670900  0.32380700  1
  Al  Al13  1  0.36539500  0.18868700  0.18868700  1
  Al  Al14  1  0.63460500  0.82329100  0.82329100  1
  Al  Al15  1  0.00000000  0.81131300  0.17670900  1
  Al  Al16  1  0.18868700  0.18868700  0.36539500  1
  Al  Al17  1  0.00000000  0.17670900  0.81131300  1
  Al  Al18  1  0.82329100  0.82329100  0.63460500  1
  Al  Al19  1  0.81131300  0.17670900  0.00000000  1
  Al  Al20  1  0.17670900  0.81131300  0.00000000  1
  Al  Al21  1  0.18868700  0.36539500  0.18868700  1
  Al  Al22  1  0.17670900  0.00000000  0.81131300  1
  Al  Al23  1  0.81131300  0.00000000  0.17670900  1
  Al  Al24  1  0.82329100  0.63460500  0.82329100  1
  Si  Si25  1  0.68341600  0.52262900  0.52262900  1
  Si  Si26  1  0.31658400  0.83921400  0.83921400  1
  Si  Si27  1  0.00000000  0.47737100  0.16078600  1
  Si  Si28  1  0.52262900  0.52262900  0.68341600  1
  Si  Si29  1  0.00000000  0.16078600  0.47737100  1
  Si  Si30  1  0.83921400  0.83921400  0.31658400  1
  Si  Si31  1  0.47737100  0.16078600  0.00000000  1
  Si  Si32  1  0.16078600  0.47737100  0.00000000  1
  Si  Si33  1  0.52262900  0.68341600  0.52262900  1
  Si  Si34  1  0.16078600  0.00000000  0.47737100  1
  Si  Si35  1  0.47737100  0.00000000  0.16078600  1
  Si  Si36  1  0.83921400  0.31658400  0.83921400  1
  Si  Si37  1  0.69808300  0.69808300  0.00000000  1
  Si  Si38  1  0.30191700  0.30191700  0.00000000  1
  Si  Si39  1  0.69808300  0.00000000  0.69808300  1
  Si  Si40  1  0.30191700  0.00000000  0.30191700  1
  Si  Si41  1  0.00000000  0.69808300  0.69808300  1
  Si  Si42  1  0.00000000  0.30191700  0.30191700  1
  N  N43  1  0.85402900  0.54337600  0.54337600  1
  N  N44  1  0.14597100  0.68934600  0.68934600  1
  N  N45  1  0.00000000  0.45662400  0.31065400  1
  N  N46  1  0.54337600  0.54337600  0.85402900  1
  N  N47  1  0.00000000  0.31065400  0.45662400  1
  N  N48  1  0.68934600  0.68934600  0.14597100  1
  N  N49  1  0.45662400  0.31065400  0.00000000  1
  N  N50  1  0.31065400  0.45662400  0.00000000  1
  N  N51  1  0.54337600  0.85402900  0.54337600  1
  N  N52  1  0.31065400  0.00000000  0.45662400  1
  N  N53  1  0.45662400  0.00000000  0.31065400  1
  N  N54  1  0.68934600  0.14597100  0.68934600  1
  N  N55  1  0.50032400  0.65152600  0.65152600  1
  N  N56  1  0.49967600  0.15120200  0.15120200  1
  N  N57  1  0.00000000  0.34847400  0.84879800  1
  N  N58  1  0.65152600  0.65152600  0.50032400  1
  N  N59  1  0.00000000  0.84879800  0.34847400  1
  N  N60  1  0.15120200  0.15120200  0.49967600  1
  N  N61  1  0.34847400  0.84879800  0.00000000  1
  N  N62  1  0.84879800  0.34847400  0.00000000  1
  N  N63  1  0.65152600  0.50032400  0.65152600  1
  N  N64  1  0.84879800  0.00000000  0.34847400  1
  N  N65  1  0.34847400  0.00000000  0.84879800  1
  N  N66  1  0.15120200  0.49967600  0.15120200  1
  N  N67  1  0.88798900  0.74451500  0.74451500  1
  N  N68  1  0.11201100  0.85652700  0.85652700  1
  N  N69  1  0.00000000  0.25548500  0.14347300  1
  N  N70  1  0.74451500  0.74451500  0.88798900  1
  N  N71  1  0.00000000  0.14347300  0.25548500  1
  N  N72  1  0.85652700  0.85652700  0.11201100  1
  N  N73  1  0.25548500  0.14347300  0.00000000  1
  N  N74  1  0.14347300  0.25548500  0.00000000  1
  N  N75  1  0.74451500  0.88798900  0.74451500  1
  N  N76  1  0.14347300  0.00000000  0.25548500  1
  N  N77  1  0.25548500  0.00000000  0.14347300  1
  N  N78  1  0.85652700  0.11201100  0.85652700  1
  O  O79  1  0.56227000  0.37112000  0.37112000  1
  O  O80  1  0.43773000  0.80885000  0.80885000  1
  O  O81  1  0.00000000  0.62888000  0.19115000  1
  O  O82  1  0.37112000  0.37112000  0.56227000  1
  O  O83  1  0.00000000  0.19115000  0.62888000  1
  O  O84  1  0.80885000  0.80885000  0.43773000  1
  O  O85  1  0.62888000  0.19115000  0.00000000  1
  O  O86  1  0.19115000  0.62888000  0.00000000  1
  O  O87  1  0.37112000  0.56227000  0.37112000  1
  O  O88  1  0.19115000  0.00000000  0.62888000  1
  O  O89  1  0.62888000  0.00000000  0.19115000  1
  O  O90  1  0.80885000  0.43773000  0.80885000  1
  O  O91  1  0.25000000  0.75000000  0.50000000  1
  O  O92  1  0.75000000  0.25000000  0.50000000  1
  O  O93  1  0.75000000  0.50000000  0.25000000  1
  O  O94  1  0.25000000  0.50000000  0.75000000  1
  O  O95  1  0.50000000  0.25000000  0.75000000  1
  O  O96  1  0.50000000  0.75000000  0.25000000  1
