# generated using pymatgen
data_SmGe3Rh5
_symmetry_space_group_name_H-M   'P 1'
_cell_length_a   16.03690737
_cell_length_b   16.03690737
_cell_length_c   3.96874600
_cell_angle_alpha   90.00000000
_cell_angle_beta   90.00000000
_cell_angle_gamma   119.99999741
_symmetry_Int_Tables_number   1
_chemical_formula_structural   SmGe3Rh5
_chemical_formula_sum   'Sm6 Ge18 Rh30'
_cell_volume   883.94488979
_cell_formula_units_Z   6
loop_
 _symmetry_equiv_pos_site_id
 _symmetry_equiv_pos_as_xyz
  1  'x, y, z'
loop_
 _atom_site_type_symbol
 _atom_site_label
 _atom_site_symmetry_multiplicity
 _atom_site_fract_x
 _atom_site_fract_y
 _atom_site_fract_z
 _atom_site_occupancy
  Sm  Sm0  1  0.29420700  0.39487800  0.75000000  1
  Sm  Sm1  1  0.70579300  0.60512200  0.25000000  1
  Sm  Sm2  1  0.60512200  0.89932800  0.75000000  1
  Sm  Sm3  1  0.39487800  0.10067200  0.25000000  1
  Sm  Sm4  1  0.10067200  0.70579300  0.75000000  1
  Sm  Sm5  1  0.89932800  0.29420700  0.25000000  1
  Ge  Ge6  1  0.55589700  0.23796600  0.75000000  1
  Ge  Ge7  1  0.44410300  0.76203400  0.25000000  1
  Ge  Ge8  1  0.76203400  0.31793100  0.75000000  1
  Ge  Ge9  1  0.23796600  0.68206900  0.25000000  1
  Ge  Ge10  1  0.68206900  0.44410300  0.75000000  1
  Ge  Ge11  1  0.31793100  0.55589700  0.25000000  1
  Ge  Ge12  1  0.24950500  0.11818800  0.75000000  1
  Ge  Ge13  1  0.75049500  0.88181200  0.25000000  1
  Ge  Ge14  1  0.88181200  0.13131700  0.75000000  1
  Ge  Ge15  1  0.11818800  0.86868300  0.25000000  1
  Ge  Ge16  1  0.86868300  0.75049500  0.75000000  1
  Ge  Ge17  1  0.13131700  0.24950500  0.25000000  1
  Ge  Ge18  1  0.05938000  0.42991300  0.75000000  1
  Ge  Ge19  1  0.94062000  0.57008700  0.25000000  1
  Ge  Ge20  1  0.57008700  0.62946600  0.75000000  1
  Ge  Ge21  1  0.42991300  0.37053400  0.25000000  1
  Ge  Ge22  1  0.37053400  0.94062000  0.75000000  1
  Ge  Ge23  1  0.62946600  0.05938000  0.25000000  1
  Rh  Rh24  1  0.41270900  0.26206300  0.75000000  1
  Rh  Rh25  1  0.58729100  0.73793700  0.25000000  1
  Rh  Rh26  1  0.73793700  0.15064600  0.75000000  1
  Rh  Rh27  1  0.26206300  0.84935400  0.25000000  1
  Rh  Rh28  1  0.84935400  0.58729100  0.75000000  1
  Rh  Rh29  1  0.15064600  0.41270900  0.25000000  1
  Rh  Rh30  1  0.53835600  0.07530200  0.75000000  1
  Rh  Rh31  1  0.46164400  0.92469800  0.25000000  1
  Rh  Rh32  1  0.92469800  0.46305400  0.75000000  1
  Rh  Rh33  1  0.07530200  0.53694600  0.25000000  1
  Rh  Rh34  1  0.53694600  0.46164400  0.75000000  1
  Rh  Rh35  1  0.46305400  0.53835600  0.25000000  1
  Rh  Rh36  1  0.10522800  0.13222900  0.75000000  1
  Rh  Rh37  1  0.89477200  0.86777100  0.25000000  1
  Rh  Rh38  1  0.86777100  0.97299900  0.75000000  1
  Rh  Rh39  1  0.13222900  0.02700100  0.25000000  1
  Rh  Rh40  1  0.02700100  0.89477200  0.75000000  1
  Rh  Rh41  1  0.97299900  0.10522800  0.25000000  1
  Rh  Rh42  1  0.22333000  0.57007800  0.75000000  1
  Rh  Rh43  1  0.77667000  0.42992200  0.25000000  1
  Rh  Rh44  1  0.42992200  0.65325100  0.75000000  1
  Rh  Rh45  1  0.57007800  0.34674900  0.25000000  1
  Rh  Rh46  1  0.34674900  0.77667000  0.75000000  1
  Rh  Rh47  1  0.65325100  0.22333000  0.25000000  1
  Rh  Rh48  1  0.04542000  0.26793200  0.75000000  1
  Rh  Rh49  1  0.95458000  0.73206800  0.25000000  1
  Rh  Rh50  1  0.73206800  0.77748800  0.75000000  1
  Rh  Rh51  1  0.26793200  0.22251200  0.25000000  1
  Rh  Rh52  1  0.22251200  0.95458000  0.75000000  1
  Rh  Rh53  1  0.77748800  0.04542000  0.25000000  1
