# generated using pymatgen
data_Sc5Ru3
_symmetry_space_group_name_H-M   'P 1'
_cell_length_a   5.86145900
_cell_length_b   7.77230289
_cell_length_c   7.77230289
_cell_angle_alpha   120.00000753
_cell_angle_beta   90.00000000
_cell_angle_gamma   90.00000000
_symmetry_Int_Tables_number   1
_chemical_formula_structural   Sc5Ru3
_chemical_formula_sum   'Sc10 Ru6'
_cell_volume   306.64491231
_cell_formula_units_Z   2
loop_
 _symmetry_equiv_pos_site_id
 _symmetry_equiv_pos_as_xyz
  1  'x, y, z'
loop_
 _atom_site_type_symbol
 _atom_site_label
 _atom_site_symmetry_multiplicity
 _atom_site_fract_x
 _atom_site_fract_y
 _atom_site_fract_z
 _atom_site_occupancy
  Sc  Sc0  1  0.00000000  0.66666700  0.33333300  1
  Sc  Sc1  1  0.00000000  0.33333300  0.66666700  1
  Sc  Sc2  1  0.50000000  0.33333300  0.66666700  1
  Sc  Sc3  1  0.50000000  0.66666700  0.33333300  1
  Sc  Sc4  1  0.75000000  0.74298200  0.74298200  1
  Sc  Sc5  1  0.25000000  0.25701800  0.25701800  1
  Sc  Sc6  1  0.75000000  0.00000000  0.25701800  1
  Sc  Sc7  1  0.25000000  0.00000000  0.74298200  1
  Sc  Sc8  1  0.75000000  0.25701800  0.00000000  1
  Sc  Sc9  1  0.25000000  0.74298200  0.00000000  1
  Ru  Ru10  1  0.75000000  0.40221500  0.40221500  1
  Ru  Ru11  1  0.25000000  0.59778500  0.59778500  1
  Ru  Ru12  1  0.75000000  0.00000000  0.59778500  1
  Ru  Ru13  1  0.25000000  0.00000000  0.40221500  1
  Ru  Ru14  1  0.75000000  0.59778500  0.00000000  1
  Ru  Ru15  1  0.25000000  0.40221500  0.00000000  1
