# generated using pymatgen
data_Si9Ni25
_symmetry_space_group_name_H-M   'P 1'
_cell_length_a   6.68146935
_cell_length_b   6.68146935
_cell_length_c   9.62654000
_cell_angle_alpha   90.00000000
_cell_angle_beta   90.00000000
_cell_angle_gamma   119.99999353
_symmetry_Int_Tables_number   1
_chemical_formula_structural   Si9Ni25
_chemical_formula_sum   'Si9 Ni25'
_cell_volume   372.17298036
_cell_formula_units_Z   1
loop_
 _symmetry_equiv_pos_site_id
 _symmetry_equiv_pos_as_xyz
  1  'x, y, z'
loop_
 _atom_site_type_symbol
 _atom_site_label
 _atom_site_symmetry_multiplicity
 _atom_site_fract_x
 _atom_site_fract_y
 _atom_site_fract_z
 _atom_site_occupancy
  Si  Si0  1  0.99040100  0.32850400  0.67673000  1
  Si  Si1  1  0.00959900  0.67149600  0.32327000  1
  Si  Si2  1  0.33810200  0.00959900  0.67673000  1
  Si  Si3  1  0.66189800  0.99040100  0.32327000  1
  Si  Si4  1  0.67149600  0.66189800  0.67673000  1
  Si  Si5  1  0.32850400  0.33810200  0.32327000  1
  Si  Si6  1  0.66666700  0.33333300  0.97840100  1
  Si  Si7  1  0.33333300  0.66666700  0.02159900  1
  Si  Si8  1  0.00000000  0.00000000  0.00000000  1
  Ni  Ni9  1  0.65857600  0.70919700  0.92360100  1
  Ni  Ni10  1  0.34142400  0.29080300  0.07639900  1
  Ni  Ni11  1  0.05062100  0.34142400  0.92360100  1
  Ni  Ni12  1  0.94937900  0.65857600  0.07639900  1
  Ni  Ni13  1  0.29080300  0.94937900  0.92360100  1
  Ni  Ni14  1  0.70919700  0.05062100  0.07639900  1
  Ni  Ni15  1  0.66666700  0.33333300  0.60749000  1
  Ni  Ni16  1  0.33333300  0.66666700  0.39251000  1
  Ni  Ni17  1  0.00000000  0.00000000  0.75587500  1
  Ni  Ni18  1  0.00000000  0.00000000  0.24412500  1
  Ni  Ni19  1  0.00000000  0.00000000  0.50000000  1
  Ni  Ni20  1  0.66666700  0.33333300  0.23920700  1
  Ni  Ni21  1  0.33333300  0.66666700  0.76079300  1
  Ni  Ni22  1  0.67134200  0.07756800  0.81295700  1
  Ni  Ni23  1  0.32865800  0.92243200  0.18704300  1
  Ni  Ni24  1  0.40622600  0.32865800  0.81295700  1
  Ni  Ni25  1  0.59377400  0.67134200  0.18704300  1
  Ni  Ni26  1  0.92243200  0.59377400  0.81295700  1
  Ni  Ni27  1  0.07756800  0.40622600  0.18704300  1
  Ni  Ni28  1  0.62186700  0.93539900  0.56757300  1
  Ni  Ni29  1  0.37813300  0.06460100  0.43242700  1
  Ni  Ni30  1  0.31353200  0.37813300  0.56757300  1
  Ni  Ni31  1  0.68646800  0.62186700  0.43242700  1
  Ni  Ni32  1  0.06460100  0.68646800  0.56757300  1
  Ni  Ni33  1  0.93539900  0.31353200  0.43242700  1
