# generated using pymatgen
data_SmCoC6N6O5
_symmetry_space_group_name_H-M   'P 1'
_cell_length_a   7.68205767
_cell_length_b   7.68205717
_cell_length_c   12.89095600
_cell_angle_alpha   90.00000000
_cell_angle_beta   90.00000000
_cell_angle_gamma   120.00000361
_symmetry_Int_Tables_number   1
_chemical_formula_structural   SmCoC6N6O5
_chemical_formula_sum   'Sm2 Co2 C12 N12 O10'
_cell_volume   658.82616688
_cell_formula_units_Z   2
loop_
 _symmetry_equiv_pos_site_id
 _symmetry_equiv_pos_as_xyz
  1  'x, y, z'
loop_
 _atom_site_type_symbol
 _atom_site_label
 _atom_site_symmetry_multiplicity
 _atom_site_fract_x
 _atom_site_fract_y
 _atom_site_fract_z
 _atom_site_occupancy
  Sm  Sm0  1  0.33333300  0.66666700  0.75000000  1
  Sm  Sm1  1  0.66666700  0.33333300  0.25000000  1
  Co  Co2  1  0.00000000  0.00000000  0.00000000  1
  Co  Co3  1  0.00000000  0.00000000  0.50000000  1
  C  C4  1  0.76876200  0.89712700  0.91844300  1
  C  C5  1  0.23123800  0.10287300  0.08155700  1
  C  C6  1  0.12836500  0.23123800  0.91844300  1
  C  C7  1  0.23123800  0.10287300  0.41844300  1
  C  C8  1  0.87163500  0.76876200  0.08155700  1
  C  C9  1  0.76876200  0.89712700  0.58155700  1
  C  C10  1  0.10287300  0.87163500  0.91844300  1
  C  C11  1  0.87163500  0.76876200  0.41844300  1
  C  C12  1  0.89712700  0.12836500  0.08155700  1
  C  C13  1  0.12836500  0.23123800  0.58155700  1
  C  C14  1  0.89712700  0.12836500  0.41844300  1
  C  C15  1  0.10287300  0.87163500  0.58155700  1
  N  N16  1  0.62162900  0.82992200  0.86889700  1
  N  N17  1  0.37837100  0.17007800  0.13110300  1
  N  N18  1  0.20829300  0.37837100  0.86889700  1
  N  N19  1  0.37837100  0.17007800  0.36889700  1
  N  N20  1  0.79170700  0.62162900  0.13110300  1
  N  N21  1  0.62162900  0.82992200  0.63110300  1
  N  N22  1  0.17007800  0.79170700  0.86889700  1
  N  N23  1  0.79170700  0.62162900  0.36889700  1
  N  N24  1  0.82992200  0.20829300  0.13110300  1
  N  N25  1  0.20829300  0.37837100  0.63110300  1
  N  N26  1  0.82992200  0.20829300  0.36889700  1
  N  N27  1  0.17007800  0.79170700  0.63110300  1
  O  O28  1  0.66666700  0.33333300  0.83966000  1
  O  O29  1  0.33333300  0.66666700  0.16034000  1
  O  O30  1  0.33333300  0.66666700  0.33966000  1
  O  O31  1  0.66666700  0.33333300  0.66034000  1
  O  O32  1  0.93059800  0.44088100  0.75000000  1
  O  O33  1  0.06940200  0.55911900  0.25000000  1
  O  O34  1  0.51028300  0.06940200  0.75000000  1
  O  O35  1  0.48971700  0.93059800  0.25000000  1
  O  O36  1  0.55911900  0.48971700  0.75000000  1
  O  O37  1  0.44088100  0.51028300  0.25000000  1
