# generated using pymatgen
data_SrCrF5
_symmetry_space_group_name_H-M   'P 1'
_cell_length_a   11.06637396
_cell_length_b   11.06637396
_cell_length_c   11.06637396
_cell_angle_alpha   96.61677835
_cell_angle_beta   96.61677835
_cell_angle_gamma   140.31295051
_symmetry_Int_Tables_number   1
_chemical_formula_structural   SrCrF5
_chemical_formula_sum   'Sr8 Cr8 F40'
_cell_volume   814.06008873
_cell_formula_units_Z   8
loop_
 _symmetry_equiv_pos_site_id
 _symmetry_equiv_pos_as_xyz
  1  'x, y, z'
loop_
 _atom_site_type_symbol
 _atom_site_label
 _atom_site_symmetry_multiplicity
 _atom_site_fract_x
 _atom_site_fract_y
 _atom_site_fract_z
 _atom_site_occupancy
  Sr  Sr0  1  0.02739800  0.75351500  0.82306700  1
  Sr  Sr1  1  0.93044800  0.20433100  0.17693300  1
  Sr  Sr2  1  0.75351500  0.93044800  0.72611700  1
  Sr  Sr3  1  0.20433100  0.02739800  0.27388300  1
  Sr  Sr4  1  0.23154400  0.54706400  0.82506300  1
  Sr  Sr5  1  0.72200100  0.40648200  0.17493700  1
  Sr  Sr6  1  0.54706400  0.72200100  0.31552000  1
  Sr  Sr7  1  0.40648200  0.23154400  0.68448000  1
  Cr  Cr8  1  0.71727100  0.71727100  0.00000000  1
  Cr  Cr9  1  0.31472400  0.79514000  0.15083300  1
  Cr  Cr10  1  0.64430700  0.16389100  0.84916700  1
  Cr  Cr11  1  0.79514000  0.64430700  0.48041600  1
  Cr  Cr12  1  0.16389100  0.31472400  0.51958400  1
  Cr  Cr13  1  0.21832500  0.21832500  0.00000000  1
  Cr  Cr14  1  0.97248800  0.47248800  0.50000000  1
  Cr  Cr15  1  0.47248800  0.97248800  0.50000000  1
  F  F16  1  0.08975100  0.70156700  0.18880600  1
  F  F17  1  0.51276000  0.90094500  0.81119400  1
  F  F18  1  0.70156700  0.51276000  0.61181600  1
  F  F19  1  0.90094500  0.08975100  0.38818400  1
  F  F20  1  0.72244400  0.22244400  0.50000000  1
  F  F21  1  0.22244400  0.72244400  0.50000000  1
  F  F22  1  0.46806600  0.46806600  0.00000000  1
  F  F23  1  0.20491900  0.54477100  0.13383200  1
  F  F24  1  0.41093800  0.07108600  0.86616800  1
  F  F25  1  0.54477100  0.41093800  0.33985200  1
  F  F26  1  0.07108600  0.20491900  0.66014800  1
  F  F27  1  0.21176500  0.72531300  0.96699900  1
  F  F28  1  0.75831400  0.24476600  0.03300100  1
  F  F29  1  0.72531300  0.75831400  0.51354800  1
  F  F30  1  0.24476600  0.21176500  0.48645200  1
  F  F31  1  0.76410100  0.41729700  0.86220000  1
  F  F32  1  0.55509700  0.90190100  0.13780000  1
  F  F33  1  0.41729700  0.55509700  0.65319600  1
  F  F34  1  0.90190100  0.76410100  0.34680400  1
  F  F35  1  0.96825900  0.96825900  0.00000000  1
  F  F36  1  0.04171900  0.58774900  0.68075500  1
  F  F37  1  0.90699400  0.36096400  0.31924500  1
  F  F38  1  0.58774900  0.90699400  0.54603000  1
  F  F39  1  0.36096400  0.04171900  0.45397000  1
  F  F40  1  0.08341400  0.25091300  0.91969900  1
  F  F41  1  0.33121400  0.16371500  0.08030100  1
  F  F42  1  0.25091300  0.33121400  0.16750000  1
  F  F43  1  0.16371500  0.08341400  0.83250000  1
  F  F44  1  0.42442900  0.84871500  0.33081600  1
  F  F45  1  0.51789900  0.09361300  0.66918400  1
  F  F46  1  0.84871500  0.51789900  0.42428700  1
  F  F47  1  0.09361300  0.42442900  0.57571300  1
  F  F48  1  0.85212300  0.68687800  0.08443700  1
  F  F49  1  0.60244000  0.76768500  0.91556300  1
  F  F50  1  0.68687800  0.60244000  0.83475500  1
  F  F51  1  0.76768500  0.85212300  0.16524500  1
  F  F52  1  0.86019400  0.24738200  0.80216900  1
  F  F53  1  0.44521300  0.05802500  0.19783100  1
  F  F54  1  0.24738200  0.44521300  0.38718800  1
  F  F55  1  0.05802500  0.86019400  0.61281200  1
