# generated using pymatgen
data_Sr2HI2
_symmetry_space_group_name_H-M   'P 1'
_cell_length_a   8.36675500
_cell_length_b   8.36675500
_cell_length_c   30.18505200
_cell_angle_alpha   90.00000000
_cell_angle_beta   90.00000000
_cell_angle_gamma   90.00000000
_symmetry_Int_Tables_number   1
_chemical_formula_structural   Sr2HI2
_chemical_formula_sum   'Sr2 H1 I2'
_cell_volume   2113.03179604
_cell_formula_units_Z   1
loop_
 _symmetry_equiv_pos_site_id
 _symmetry_equiv_pos_as_xyz
  1  'x, y, z'
loop_
 _atom_site_type_symbol
 _atom_site_label
 _atom_site_symmetry_multiplicity
 _atom_site_fract_x
 _atom_site_fract_y
 _atom_site_fract_z
 _atom_site_occupancy
  Sr  Sr0  1  0.50000000  0.50000000  0.20142800  1
  Sr  Sr1  1  0.50000000  0.50000000  0.79857200  1
  H  H2  1  0.50000000  0.50000000  0.00000000  1
  I  I3  1  0.50000000  0.50000000  0.70146700  1
  I  I4  1  0.50000000  0.50000000  0.29853300  1
