# generated using pymatgen
data_SnC2(NF)6
_symmetry_space_group_name_H-M   'P 1'
_cell_length_a   6.39939209
_cell_length_b   6.90674300
_cell_length_c   6.82966307
_cell_angle_alpha   120.37405202
_cell_angle_beta   110.70454308
_cell_angle_gamma   90.00000000
_symmetry_Int_Tables_number   1
_chemical_formula_structural   SnC2(NF)6
_chemical_formula_sum   'Sn1 C2 N6 F6'
_cell_volume   237.55911879
_cell_formula_units_Z   1
loop_
 _symmetry_equiv_pos_site_id
 _symmetry_equiv_pos_as_xyz
  1  'x, y, z'
loop_
 _atom_site_type_symbol
 _atom_site_label
 _atom_site_symmetry_multiplicity
 _atom_site_fract_x
 _atom_site_fract_y
 _atom_site_fract_z
 _atom_site_occupancy
  Sn  Sn0  1  0.71915100  0.37196900  0.74393900  1
  C  C1  1  0.45473700  0.65049200  0.30098300  1
  C  C2  1  0.99039000  0.09941700  0.19883300  1
  N  N3  1  0.44715700  0.42316200  0.18539800  1
  N  N4  1  0.44715700  0.76223700  0.18539800  1
  N  N5  1  0.98798800  0.98469700  0.96939400  1
  N  N6  1  0.99194700  0.32566800  0.31229000  1
  N  N7  1  0.99194700  0.98662100  0.31229000  1
  N  N8  1  0.46834400  0.76768000  0.53535900  1
  F  F9  1  0.91452900  0.55568600  0.11137200  1
  F  F10  1  0.51934700  0.18883300  0.37766500  1
  F  F11  1  0.51816900  0.60123400  0.78531000  1
  F  F12  1  0.51816900  0.18407600  0.78531000  1
  F  F13  1  0.92123400  0.55632400  0.70023000  1
  F  F14  1  0.92123400  0.14390500  0.70023000  1
