# generated using pymatgen
data_Sb10Pb10(S8Cl)3
_symmetry_space_group_name_H-M   'P 1'
_cell_length_a   3.96070900
_cell_length_b   15.44575800
_cell_length_c   19.71948206
_cell_angle_alpha   84.79546477
_cell_angle_beta   90.00000000
_cell_angle_gamma   90.00000000
_symmetry_Int_Tables_number   1
_chemical_formula_structural   Sb10Pb10(S8Cl)3
_chemical_formula_sum   'Sb10 Pb10 S24 Cl3'
_cell_volume   1201.38848240
_cell_formula_units_Z   1
loop_
 _symmetry_equiv_pos_site_id
 _symmetry_equiv_pos_as_xyz
  1  'x, y, z'
loop_
 _atom_site_type_symbol
 _atom_site_label
 _atom_site_symmetry_multiplicity
 _atom_site_fract_x
 _atom_site_fract_y
 _atom_site_fract_z
 _atom_site_occupancy
  Sb  Sb0  1  0.00000000  0.47027100  0.18662300  1
  Sb  Sb1  1  0.00000000  0.52972900  0.81337700  1
  Sb  Sb2  1  0.00000000  0.92726200  0.58512700  1
  Sb  Sb3  1  0.00000000  0.07273800  0.41487300  1
  Sb  Sb4  1  0.00000000  0.37285700  0.01446900  1
  Sb  Sb5  1  0.00000000  0.62714300  0.98553100  1
  Sb  Sb6  1  0.00000000  0.96748800  0.21536300  1
  Sb  Sb7  1  0.00000000  0.03251200  0.78463700  1
  Sb  Sb8  1  0.00000000  0.82746400  0.38306500  1
  Sb  Sb9  1  0.00000000  0.17253600  0.61693500  1
  Pb  Pb10  1  0.50000000  0.71683300  0.14542300  1
  Pb  Pb11  1  0.50000000  0.28316700  0.85457700  1
  Pb  Pb12  1  0.50000000  0.79395900  0.74787700  1
  Pb  Pb13  1  0.50000000  0.20604100  0.25212300  1
  Pb  Pb14  1  0.50000000  0.69327600  0.55057500  1
  Pb  Pb15  1  0.50000000  0.30672400  0.44942500  1
  Pb  Pb16  1  0.50000000  0.12676000  0.05306000  1
  Pb  Pb17  1  0.50000000  0.87324000  0.94694000  1
  Pb  Pb18  1  0.50000000  0.58671900  0.34740000  1
  Pb  Pb19  1  0.50000000  0.41328100  0.65260000  1
  S  S20  1  0.00000000  0.76502600  0.04043500  1
  S  S21  1  0.00000000  0.23497400  0.95956500  1
  S  S22  1  0.00000000  0.87903000  0.83354900  1
  S  S23  1  0.00000000  0.12097000  0.16645100  1
  S  S24  1  0.00000000  0.77730000  0.64054400  1
  S  S25  1  0.00000000  0.22270000  0.35945600  1
  S  S26  1  0.50000000  0.56170400  0.08175000  1
  S  S27  1  0.50000000  0.43829600  0.91825000  1
  S  S28  1  0.00000000  0.68128900  0.44115300  1
  S  S29  1  0.00000000  0.31871100  0.55884700  1
  S  S30  1  0.50000000  0.41674100  0.26535900  1
  S  S31  1  0.50000000  0.58325900  0.73464100  1
  S  S32  1  0.00000000  0.61267900  0.23558900  1
  S  S33  1  0.00000000  0.38732100  0.76441100  1
  S  S34  1  0.50000000  0.30864000  0.09486500  1
  S  S35  1  0.50000000  0.69136000  0.90513500  1
  S  S36  1  0.50000000  0.93328400  0.13824200  1
  S  S37  1  0.50000000  0.06671600  0.86175800  1
  S  S38  1  0.50000000  0.87560900  0.49711500  1
  S  S39  1  0.50000000  0.12439100  0.50288500  1
  S  S40  1  0.50000000  0.78675800  0.30584900  1
  S  S41  1  0.50000000  0.21324200  0.69415100  1
  S  S42  1  0.50000000  0.96596000  0.67642700  1
  S  S43  1  0.50000000  0.03404000  0.32357300  1
  Cl  Cl44  1  0.00000000  0.45991200  0.41256000  1
  Cl  Cl45  1  0.00000000  0.54008800  0.58744000  1
  Cl  Cl46  1  0.00000000  0.00000000  0.00000000  1
