# generated using pymatgen
data_RbV3CdCu4O13
_symmetry_space_group_name_H-M   'P 1'
_cell_length_a   6.28361000
_cell_length_b   8.50440772
_cell_length_c   11.01764984
_cell_angle_alpha   98.02067887
_cell_angle_beta   90.00000000
_cell_angle_gamma   90.00000000
_symmetry_Int_Tables_number   1
_chemical_formula_structural   RbV3CdCu4O13
_chemical_formula_sum   'Rb2 V6 Cd2 Cu8 O26'
_cell_volume   583.00593881
_cell_formula_units_Z   2
loop_
 _symmetry_equiv_pos_site_id
 _symmetry_equiv_pos_as_xyz
  1  'x, y, z'
loop_
 _atom_site_type_symbol
 _atom_site_label
 _atom_site_symmetry_multiplicity
 _atom_site_fract_x
 _atom_site_fract_y
 _atom_site_fract_z
 _atom_site_occupancy
  Rb  Rb0  1  0.75000000  0.51190300  0.89326300  1
  Rb  Rb1  1  0.25000000  0.48809700  0.10673700  1
  V  V2  1  0.75000000  0.13004100  0.00209300  1
  V  V3  1  0.25000000  0.86995900  0.99790700  1
  V  V4  1  0.75000000  0.46564800  0.29663300  1
  V  V5  1  0.25000000  0.53435200  0.70336700  1
  V  V6  1  0.75000000  0.17977200  0.61772100  1
  V  V7  1  0.25000000  0.82022800  0.38227900  1
  Cd  Cd8  1  0.75000000  0.80495100  0.14187100  1
  Cd  Cd9  1  0.25000000  0.19504900  0.85812900  1
  Cu  Cu10  1  0.99393100  0.89040200  0.72602400  1
  Cu  Cu11  1  0.00606900  0.10959800  0.27397600  1
  Cu  Cu12  1  0.49393100  0.10959800  0.27397600  1
  Cu  Cu13  1  0.50606900  0.89040200  0.72602400  1
  Cu  Cu14  1  0.75000000  0.60434200  0.60532900  1
  Cu  Cu15  1  0.25000000  0.39565800  0.39467100  1
  Cu  Cu16  1  0.75000000  0.85572600  0.43941500  1
  Cu  Cu17  1  0.25000000  0.14427400  0.56058500  1
  O  O18  1  0.96823500  0.24508600  0.98231800  1
  O  O19  1  0.03176500  0.75491400  0.01768200  1
  O  O20  1  0.46823500  0.75491400  0.01768200  1
  O  O21  1  0.53176500  0.24508600  0.98231800  1
  O  O22  1  0.75000000  0.38013000  0.61522200  1
  O  O23  1  0.25000000  0.61987000  0.38477800  1
  O  O24  1  0.47906600  0.65595000  0.70777400  1
  O  O25  1  0.52093400  0.34405000  0.29222600  1
  O  O26  1  0.97906600  0.34405000  0.29222600  1
  O  O27  1  0.02093400  0.65595000  0.70777400  1
  O  O28  1  0.75000000  0.55074700  0.16561100  1
  O  O29  1  0.25000000  0.44925300  0.83438900  1
  O  O30  1  0.75000000  0.08344000  0.46646100  1
  O  O31  1  0.25000000  0.91656000  0.53353900  1
  O  O32  1  0.01153100  0.87732100  0.30842600  1
  O  O33  1  0.98846900  0.12267900  0.69157400  1
  O  O34  1  0.51153100  0.12267900  0.69157400  1
  O  O35  1  0.48846900  0.87732100  0.30842600  1
  O  O36  1  0.75000000  0.62279700  0.42230700  1
  O  O37  1  0.25000000  0.37720300  0.57769300  1
  O  O38  1  0.75000000  0.84144700  0.61737500  1
  O  O39  1  0.25000000  0.15855300  0.38262500  1
  O  O40  1  0.75000000  0.07334700  0.16577100  1
  O  O41  1  0.25000000  0.92665300  0.83422900  1
  O  O42  1  0.75000000  0.96894200  0.89004800  1
  O  O43  1  0.25000000  0.03105800  0.10995200  1
