# generated using pymatgen
data_ScB(PO5)2
_symmetry_space_group_name_H-M   'P 1'
_cell_length_a   9.61721431
_cell_length_b   9.61721431
_cell_length_c   15.87539000
_cell_angle_alpha   90.00000000
_cell_angle_beta   90.00000000
_cell_angle_gamma   120.00000216
_symmetry_Int_Tables_number   1
_chemical_formula_structural   ScB(PO5)2
_chemical_formula_sum   'Sc6 B6 P12 O60'
_cell_volume   1271.60906036
_cell_formula_units_Z   6
loop_
 _symmetry_equiv_pos_site_id
 _symmetry_equiv_pos_as_xyz
  1  'x, y, z'
loop_
 _atom_site_type_symbol
 _atom_site_label
 _atom_site_symmetry_multiplicity
 _atom_site_fract_x
 _atom_site_fract_y
 _atom_site_fract_z
 _atom_site_occupancy
  Sc  Sc0  1  0.45052000  0.90104000  0.25000000  1
  Sc  Sc1  1  0.09896000  0.54948000  0.58333300  1
  Sc  Sc2  1  0.54948000  0.09896000  0.75000000  1
  Sc  Sc3  1  0.90104000  0.45052000  0.08333300  1
  Sc  Sc4  1  0.45052000  0.54948000  0.91666700  1
  Sc  Sc5  1  0.54948000  0.45052000  0.41666700  1
  B  B6  1  0.14892200  0.29784400  0.25000000  1
  B  B7  1  0.70215600  0.85107800  0.58333300  1
  B  B8  1  0.85107800  0.70215600  0.75000000  1
  B  B9  1  0.29784400  0.14892200  0.08333300  1
  B  B10  1  0.14892200  0.85107800  0.91666700  1
  B  B11  1  0.85107800  0.14892200  0.41666700  1
  P  P12  1  0.21209800  0.37987900  0.08197200  1
  P  P13  1  0.62012100  0.83221900  0.41530500  1
  P  P14  1  0.78790200  0.62012100  0.58197200  1
  P  P15  1  0.37987900  0.21209800  0.25136100  1
  P  P16  1  0.16778100  0.78790200  0.74863900  1
  P  P17  1  0.37987900  0.16778100  0.91530500  1
  P  P18  1  0.83221900  0.62012100  0.91802800  1
  P  P19  1  0.62012100  0.78790200  0.75136100  1
  P  P20  1  0.83221900  0.21209800  0.24863900  1
  P  P21  1  0.16778100  0.37987900  0.41802800  1
  P  P22  1  0.78790200  0.16778100  0.58469500  1
  P  P23  1  0.21209800  0.83221900  0.08469500  1
  O  O24  1  0.40975300  0.17544200  0.01271300  1
  O  O25  1  0.82455800  0.23431200  0.34604600  1
  O  O26  1  0.59024700  0.82455800  0.51271300  1
  O  O27  1  0.17544200  0.40975300  0.32062000  1
  O  O28  1  0.76568800  0.59024700  0.67938000  1
  O  O29  1  0.17544200  0.76568800  0.84604600  1
  O  O30  1  0.23431200  0.82455800  0.98728700  1
  O  O31  1  0.82455800  0.59024700  0.82062000  1
  O  O32  1  0.23431200  0.40975300  0.17938000  1
  O  O33  1  0.76568800  0.17544200  0.48728700  1
  O  O34  1  0.59024700  0.76568800  0.65395400  1
  O  O35  1  0.40975300  0.23431200  0.15395400  1
  O  O36  1  0.18852700  0.21018700  0.06307300  1
  O  O37  1  0.78981300  0.97834000  0.39640600  1
  O  O38  1  0.81147300  0.78981300  0.56307300  1
  O  O39  1  0.21018700  0.18852700  0.27026000  1
  O  O40  1  0.02166000  0.81147300  0.72974000  1
  O  O41  1  0.21018700  0.02166000  0.89640600  1
  O  O42  1  0.97834000  0.78981300  0.93692700  1
  O  O43  1  0.78981300  0.81147300  0.77026000  1
  O  O44  1  0.97834000  0.18852700  0.22974000  1
  O  O45  1  0.02166000  0.21018700  0.43692700  1
  O  O46  1  0.81147300  0.02166000  0.60359400  1
  O  O47  1  0.18852700  0.97834000  0.10359400  1
  O  O48  1  0.06139100  0.38110300  0.05175900  1
  O  O49  1  0.61889700  0.68028900  0.38509200  1
  O  O50  1  0.93860900  0.61889700  0.55175900  1
  O  O51  1  0.38110300  0.06139100  0.28157500  1
  O  O52  1  0.31971100  0.93860900  0.71842500  1
  O  O53  1  0.38110300  0.31971100  0.88509200  1
  O  O54  1  0.68028900  0.61889700  0.94824100  1
  O  O55  1  0.61889700  0.93860900  0.78157500  1
  O  O56  1  0.68028900  0.06139100  0.21842500  1
  O  O57  1  0.31971100  0.38110300  0.44824100  1
  O  O58  1  0.93860900  0.31971100  0.61490800  1
  O  O59  1  0.06139100  0.68028900  0.11490800  1
  O  O60  1  0.49159400  0.19470000  0.45037300  1
  O  O61  1  0.80530000  0.29689400  0.78370700  1
  O  O62  1  0.50840600  0.80530000  0.95037300  1
  O  O63  1  0.19470000  0.49159400  0.88296000  1
  O  O64  1  0.70310600  0.50840600  0.11704000  1
  O  O65  1  0.19470000  0.70310600  0.28370700  1
  O  O66  1  0.29689400  0.80530000  0.54962700  1
  O  O67  1  0.80530000  0.50840600  0.38296000  1
  O  O68  1  0.29689400  0.49159400  0.61704000  1
  O  O69  1  0.70310600  0.19470000  0.04962700  1
  O  O70  1  0.50840600  0.70310600  0.21629300  1
  O  O71  1  0.49159400  0.29689400  0.71629300  1
  O  O72  1  0.36271500  0.51006000  0.03811100  1
  O  O73  1  0.48994000  0.85265500  0.37144400  1
  O  O74  1  0.63728500  0.48994000  0.53811100  1
  O  O75  1  0.51006000  0.36271500  0.29522300  1
  O  O76  1  0.14734500  0.63728500  0.70477700  1
  O  O77  1  0.51006000  0.14734500  0.87144400  1
  O  O78  1  0.85265500  0.48994000  0.96188900  1
  O  O79  1  0.48994000  0.63728500  0.79522300  1
  O  O80  1  0.85265500  0.36271500  0.20477700  1
  O  O81  1  0.14734500  0.51006000  0.46188900  1
  O  O82  1  0.63728500  0.14734500  0.62855600  1
  O  O83  1  0.36271500  0.85265500  0.12855600  1
