# generated using pymatgen
data_RbSeO4
_symmetry_space_group_name_H-M   'P 1'
_cell_length_a   4.44299900
_cell_length_b   7.77553070
_cell_length_c   10.87631342
_cell_angle_alpha   110.86035972
_cell_angle_beta   101.49130661
_cell_angle_gamma   89.84706921
_symmetry_Int_Tables_number   1
_chemical_formula_structural   RbSeO4
_chemical_formula_sum   'Rb3 Se3 O12'
_cell_volume   343.11545678
_cell_formula_units_Z   3
loop_
 _symmetry_equiv_pos_site_id
 _symmetry_equiv_pos_as_xyz
  1  'x, y, z'
loop_
 _atom_site_type_symbol
 _atom_site_label
 _atom_site_symmetry_multiplicity
 _atom_site_fract_x
 _atom_site_fract_y
 _atom_site_fract_z
 _atom_site_occupancy
  Rb  Rb0  1  0.91192300  0.19520800  0.45700300  1
  Rb  Rb1  1  0.48652900  0.78646000  0.78906900  1
  Rb  Rb2  1  0.32520000  0.45704900  0.13107700  1
  Se  Se3  1  0.61642700  0.28630200  0.79079200  1
  Se  Se4  1  0.19571200  0.95470800  0.12993100  1
  Se  Se5  1  0.90530400  0.69714900  0.45979900  1
  O  O6  1  0.45478000  0.79739500  0.07334300  1
  O  O7  1  0.94739900  0.51368500  0.32992600  1
  O  O8  1  0.95922800  0.85421200  0.19647800  1
  O  O9  1  0.80486100  0.45742800  0.92485800  1
  O  O10  1  0.85345500  0.11974200  0.72328800  1
  O  O11  1  0.36921100  0.14439900  0.25256800  1
  O  O12  1  0.44278400  0.35674300  0.66965700  1
  O  O13  1  0.59814400  0.80454700  0.40334400  1
  O  O14  1  0.21702300  0.85680800  0.51743500  1
  O  O15  1  0.00622200  0.99578800  0.99745900  1
  O  O16  1  0.35756400  0.18428200  0.84641300  1
  O  O17  1  0.85933400  0.64228600  0.58874100  1
