# generated using pymatgen
data_Te3(OF6)2
_symmetry_space_group_name_H-M   'P 1'
_cell_length_a   14.80211028
_cell_length_b   14.80211028
_cell_length_c   14.80211028
_cell_angle_alpha   133.31404544
_cell_angle_beta   133.31404544
_cell_angle_gamma   68.16138725
_symmetry_Int_Tables_number   1
_chemical_formula_structural   Te3(OF6)2
_chemical_formula_sum   'Te12 O8 F48'
_cell_volume   1686.92621337
_cell_formula_units_Z   4
loop_
 _symmetry_equiv_pos_site_id
 _symmetry_equiv_pos_as_xyz
  1  'x, y, z'
loop_
 _atom_site_type_symbol
 _atom_site_label
 _atom_site_symmetry_multiplicity
 _atom_site_fract_x
 _atom_site_fract_y
 _atom_site_fract_z
 _atom_site_occupancy
  Te  Te0  1  0.13913100  0.36343900  0.26958100  1
  Te  Te1  1  0.09385800  0.86955000  0.73041900  1
  Te  Te2  1  0.11343900  0.34385800  0.72430800  1
  Te  Te3  1  0.61086900  0.88656100  0.23041900  1
  Te  Te4  1  0.61955000  0.38913100  0.27569200  1
  Te  Te5  1  0.65614200  0.38045000  0.76958100  1
  Te  Te6  1  0.63656100  0.90614200  0.77569200  1
  Te  Te7  1  0.13045000  0.86086900  0.22430800  1
  Te  Te8  1  0.37500000  0.12500000  0.25000000  1
  Te  Te9  1  0.87500000  0.12500000  0.75000000  1
  Te  Te10  1  0.87500000  0.12500000  0.25000000  1
  Te  Te11  1  0.87500000  0.62500000  0.75000000  1
  O  O12  1  0.27834300  0.26632500  0.27652800  1
  O  O13  1  0.98979700  0.00181500  0.72347200  1
  O  O14  1  0.01632500  0.23979700  0.48798200  1
  O  O15  1  0.47165700  0.98367500  0.22347200  1
  O  O16  1  0.75181500  0.52834300  0.51201800  1
  O  O17  1  0.76020300  0.24818500  0.77652800  1
  O  O18  1  0.73367500  0.01020300  0.01201800  1
  O  O19  1  0.99818500  0.72165700  0.98798200  1
  F  F20  1  0.26426900  0.50653400  0.46658400  1
  F  F21  1  0.03995100  0.79768500  0.53341600  1
  F  F22  1  0.25653400  0.28995100  0.74226600  1
  F  F23  1  0.48573100  0.74346600  0.03341600  1
  F  F24  1  0.54768500  0.51426900  0.25773400  1
  F  F25  1  0.71004900  0.45231500  0.96658400  1
  F  F26  1  0.49346600  0.96004900  0.75773400  1
  F  F27  1  0.20231500  0.73573100  0.24226600  1
  F  F28  1  0.44941300  0.72811100  0.33243500  1
  F  F29  1  0.39567700  0.11697800  0.66756500  1
  F  F30  1  0.47811100  0.64567700  0.77869900  1
  F  F31  1  0.30058700  0.52188900  0.16756500  1
  F  F32  1  0.86697800  0.69941300  0.22130100  1
  F  F33  1  0.35432300  0.13302200  0.83243500  1
  F  F34  1  0.27188900  0.60432300  0.72130100  1
  F  F35  1  0.88302200  0.55058700  0.27869900  1
  F  F36  1  0.26070200  0.04519900  0.21387300  1
  F  F37  1  0.83132600  0.04682900  0.78612700  1
  F  F38  1  0.79519900  0.08132600  0.28449700  1
  F  F39  1  0.48929800  0.20480100  0.28612700  1
  F  F40  1  0.79682900  0.51070200  0.71550300  1
  F  F41  1  0.91867400  0.20317100  0.71387300  1
  F  F42  1  0.95480100  0.16867400  0.21550300  1
  F  F43  1  0.95317100  0.73929800  0.78449700  1
  F  F44  1  0.67600300  0.79073400  0.30448400  1
  F  F45  1  0.48625100  0.37151900  0.69551600  1
  F  F46  1  0.54073400  0.73625100  0.61473100  1
  F  F47  1  0.07399700  0.45926600  0.19551600  1
  F  F48  1  0.12151900  0.92600300  0.38526900  1
  F  F49  1  0.26374900  0.87848100  0.80448400  1
  F  F50  1  0.20926600  0.51374900  0.88526900  1
  F  F51  1  0.62848100  0.32399700  0.11473100  1
  F  F52  1  0.32676800  0.56198800  0.33225000  1
  F  F53  1  0.22973900  0.99451900  0.66775000  1
  F  F54  1  0.31198800  0.47973900  0.73522000  1
  F  F55  1  0.42323200  0.68801200  0.16775000  1
  F  F56  1  0.74451900  0.57676800  0.26478000  1
  F  F57  1  0.52026100  0.25548100  0.83225000  1
  F  F58  1  0.43801200  0.77026100  0.76478000  1
  F  F59  1  0.00548100  0.67323200  0.23522000  1
  F  F60  1  0.11854600  0.36960800  0.38871800  1
  F  F61  1  0.98089000  0.72982800  0.61128200  1
  F  F62  1  0.11960800  0.23089000  0.75106200  1
  F  F63  1  0.63145400  0.88039200  0.11128200  1
  F  F64  1  0.47982800  0.36854600  0.24893800  1
  F  F65  1  0.76911000  0.52017200  0.88871800  1
  F  F66  1  0.63039200  0.01911000  0.74893800  1
  F  F67  1  0.27017200  0.88145400  0.25106200  1
