# generated using pymatgen
data_Rb3CrO8
_symmetry_space_group_name_H-M   'P 1'
_cell_length_a   6.41849631
_cell_length_b   6.41849631
_cell_length_c   6.41849631
_cell_angle_alpha   112.64494988
_cell_angle_beta   112.64494988
_cell_angle_gamma   103.29477751
_symmetry_Int_Tables_number   1
_chemical_formula_structural   Rb3CrO8
_chemical_formula_sum   'Rb3 Cr1 O8'
_cell_volume   201.80531189
_cell_formula_units_Z   1
loop_
 _symmetry_equiv_pos_site_id
 _symmetry_equiv_pos_as_xyz
  1  'x, y, z'
loop_
 _atom_site_type_symbol
 _atom_site_label
 _atom_site_symmetry_multiplicity
 _atom_site_fract_x
 _atom_site_fract_y
 _atom_site_fract_z
 _atom_site_occupancy
  Rb  Rb0  1  0.75000000  0.25000000  0.50000000  1
  Rb  Rb1  1  0.25000000  0.75000000  0.50000000  1
  Rb  Rb2  1  0.50000000  0.50000000  0.00000000  1
  Cr  Cr3  1  0.00000000  0.00000000  0.00000000  1
  O  O4  1  0.21467000  0.21467000  0.39764300  1
  O  O5  1  0.81702700  0.81702700  0.60235700  1
  O  O6  1  0.78533000  0.18297300  0.00000000  1
  O  O7  1  0.18297300  0.78533000  0.00000000  1
  O  O8  1  0.30539400  0.30539400  0.26002400  1
  O  O9  1  0.04537000  0.04537000  0.73997600  1
  O  O10  1  0.69460600  0.95463000  0.00000000  1
  O  O11  1  0.95463000  0.69460600  0.00000000  1
