# generated using pymatgen
data_RbCu2H3(SeO5)2
_symmetry_space_group_name_H-M   'P 1'
_cell_length_a   5.74614799
_cell_length_b   5.74614799
_cell_length_c   8.17394367
_cell_angle_alpha   68.06529029
_cell_angle_beta   68.06529029
_cell_angle_gamma   71.07109928
_symmetry_Int_Tables_number   1
_chemical_formula_structural   RbCu2H3(SeO5)2
_chemical_formula_sum   'Rb1 Cu2 H3 Se2 O10'
_cell_volume   226.80652631
_cell_formula_units_Z   1
loop_
 _symmetry_equiv_pos_site_id
 _symmetry_equiv_pos_as_xyz
  1  'x, y, z'
loop_
 _atom_site_type_symbol
 _atom_site_label
 _atom_site_symmetry_multiplicity
 _atom_site_fract_x
 _atom_site_fract_y
 _atom_site_fract_z
 _atom_site_occupancy
  Rb  Rb0  1  0.00000000  0.00000000  0.00000000  1
  Cu  Cu1  1  0.50000000  0.00000000  0.50000000  1
  Cu  Cu2  1  0.00000000  0.50000000  0.50000000  1
  H  H3  1  0.80557700  0.80557700  0.70151900  1
  H  H4  1  0.19442300  0.19442300  0.29848100  1
  H  H5  1  0.00000000  0.00000000  0.50000000  1
  Se  Se6  1  0.57098200  0.57098200  0.22415600  1
  Se  Se7  1  0.42901800  0.42901800  0.77584400  1
  O  O8  1  0.68730000  0.68730000  0.33065000  1
  O  O9  1  0.31270000  0.31270000  0.66935000  1
  O  O10  1  0.85090000  0.85090000  0.56633900  1
  O  O11  1  0.14910000  0.14910000  0.43366100  1
  O  O12  1  0.31987200  0.31987200  0.00139400  1
  O  O13  1  0.68012800  0.68012800  0.99860600  1
  O  O14  1  0.66472400  0.24509400  0.28529700  1
  O  O15  1  0.33527600  0.75490600  0.71470300  1
  O  O16  1  0.75490600  0.33527600  0.71470300  1
  O  O17  1  0.24509400  0.66472400  0.28529700  1
