# generated using pymatgen
data_Se2NO6
_symmetry_space_group_name_H-M   'P 1'
_cell_length_a   6.09001700
_cell_length_b   5.96990300
_cell_length_c   19.12073200
_cell_angle_alpha   90.00000000
_cell_angle_beta   90.00000000
_cell_angle_gamma   90.00000000
_symmetry_Int_Tables_number   1
_chemical_formula_structural   Se2NO6
_chemical_formula_sum   'Se8 N4 O24'
_cell_volume   695.16883489
_cell_formula_units_Z   4
loop_
 _symmetry_equiv_pos_site_id
 _symmetry_equiv_pos_as_xyz
  1  'x, y, z'
loop_
 _atom_site_type_symbol
 _atom_site_label
 _atom_site_symmetry_multiplicity
 _atom_site_fract_x
 _atom_site_fract_y
 _atom_site_fract_z
 _atom_site_occupancy
  Se  Se0  1  0.04344400  0.51763800  0.16763700  1
  Se  Se1  1  0.45655600  0.48236200  0.66763700  1
  Se  Se2  1  0.95655600  0.01763800  0.33236300  1
  Se  Se3  1  0.54344400  0.98236200  0.83236300  1
  Se  Se4  1  0.02510600  0.09981200  0.04078300  1
  Se  Se5  1  0.47489400  0.90018800  0.54078300  1
  Se  Se6  1  0.97489400  0.59981200  0.45921700  1
  Se  Se7  1  0.52510600  0.40018800  0.95921700  1
  N  N8  1  0.54773700  0.04094600  0.16750800  1
  N  N9  1  0.95226300  0.95905400  0.66750800  1
  N  N10  1  0.45226300  0.54094600  0.33249200  1
  N  N11  1  0.04773700  0.45905400  0.83249200  1
  O  O12  1  0.38947600  0.40082000  0.04969000  1
  O  O13  1  0.11052400  0.59918000  0.54969000  1
  O  O14  1  0.61052400  0.90082000  0.45031000  1
  O  O15  1  0.88947600  0.09918000  0.95031000  1
  O  O16  1  0.22785400  0.69719600  0.19271200  1
  O  O17  1  0.27214600  0.30280400  0.69271200  1
  O  O18  1  0.77214600  0.19719600  0.30728800  1
  O  O19  1  0.72785400  0.80280400  0.80728800  1
  O  O20  1  0.34066700  0.57611300  0.54288800  1
  O  O21  1  0.15933300  0.42388700  0.04288800  1
  O  O22  1  0.65933300  0.07611300  0.95711200  1
  O  O23  1  0.84066700  0.92388700  0.45711200  1
  O  O24  1  0.24455500  0.02176100  0.52147800  1
  O  O25  1  0.25544500  0.97823900  0.02147800  1
  O  O26  1  0.75544500  0.52176100  0.97852200  1
  O  O27  1  0.74455500  0.47823900  0.47852200  1
  O  O28  1  0.19592700  0.10361800  0.35890100  1
  O  O29  1  0.30407300  0.89638200  0.85890100  1
  O  O30  1  0.80407300  0.60361800  0.14109900  1
  O  O31  1  0.69592700  0.39638200  0.64109900  1
  O  O32  1  0.08362500  0.24968200  0.18262400  1
  O  O33  1  0.41637500  0.75031800  0.68262400  1
  O  O34  1  0.91637500  0.74968200  0.31737600  1
  O  O35  1  0.58362500  0.25031800  0.81737600  1
