# generated using pymatgen
data_SbTe8Cl6O6F31
_symmetry_space_group_name_H-M   'P 1'
_cell_length_a   9.36618000
_cell_length_b   10.66431578
_cell_length_c   10.81484452
_cell_angle_alpha   83.50542030
_cell_angle_beta   86.18252569
_cell_angle_gamma   75.65719533
_symmetry_Int_Tables_number   1
_chemical_formula_structural   SbTe8Cl6O6F31
_chemical_formula_sum   'Sb1 Te8 Cl6 O6 F31'
_cell_volume   1039.00836383
_cell_formula_units_Z   1
loop_
 _symmetry_equiv_pos_site_id
 _symmetry_equiv_pos_as_xyz
  1  'x, y, z'
loop_
 _atom_site_type_symbol
 _atom_site_label
 _atom_site_symmetry_multiplicity
 _atom_site_fract_x
 _atom_site_fract_y
 _atom_site_fract_z
 _atom_site_occupancy
  Sb  Sb0  1  0.00000000  0.00000000  0.50000000  1
  Te  Te1  1  0.27541100  0.72289000  0.39306100  1
  Te  Te2  1  0.72458900  0.27711000  0.60693900  1
  Te  Te3  1  0.23885500  0.19889200  0.34300500  1
  Te  Te4  1  0.76114500  0.80110800  0.65699500  1
  Te  Te5  1  0.66152100  0.51433600  0.13831600  1
  Te  Te6  1  0.33847900  0.48566400  0.86168400  1
  Te  Te7  1  0.83060800  0.02592400  0.20037900  1
  Te  Te8  1  0.16939200  0.97407600  0.79962100  1
  Cl  Cl9  1  0.15894100  0.45072100  0.73685700  1
  Cl  Cl10  1  0.84105900  0.54927900  0.26314300  1
  Cl  Cl11  1  0.16540400  0.57767600  0.00852000  1
  Cl  Cl12  1  0.83459600  0.42232400  0.99148000  1
  Cl  Cl13  1  0.60321500  0.72961100  0.05743100  1
  Cl  Cl14  1  0.39678500  0.27038900  0.94256900  1
  O  O15  1  0.80565900  0.12665200  0.52641500  1
  O  O16  1  0.19434100  0.87334800  0.47358500  1
  O  O17  1  0.06623600  0.14208300  0.39383000  1
  O  O18  1  0.93376400  0.85791700  0.60617000  1
  O  O19  1  0.08325000  0.04970100  0.64731800  1
  O  O20  1  0.91675000  0.95029900  0.35268200  1
  F  F21  1  0.76356400  0.19657900  0.24839300  1
  F  F22  1  0.23643600  0.80342100  0.75160700  1
  F  F23  1  0.54508600  0.22812100  0.62949500  1
  F  F24  1  0.45491400  0.77187900  0.37050500  1
  F  F25  1  0.65680500  0.37179800  0.45596500  1
  F  F26  1  0.34319500  0.62820200  0.54403500  1
  F  F27  1  0.18169400  0.33740500  0.44256900  1
  F  F28  1  0.81830600  0.66259500  0.55743100  1
  F  F29  1  0.40144800  0.26701700  0.28613000  1
  F  F30  1  0.59855200  0.73298300  0.71387000  1
  F  F31  1  0.35542000  0.09830700  0.46925400  1
  F  F32  1  0.64458000  0.90169300  0.53074600  1
  F  F33  1  0.22139400  0.80217400  0.23376900  1
  F  F34  1  0.77860600  0.19782600  0.76623100  1
  F  F35  1  0.00241600  0.07004800  0.13061400  1
  F  F36  1  0.99758400  0.92995200  0.86938600  1
  F  F37  1  0.10908000  0.13821100  0.85874300  1
  F  F38  1  0.89092000  0.86178900  0.14125700  1
  F  F39  1  0.10614400  0.65751200  0.41132100  1
  F  F40  1  0.89385600  0.34248800  0.58867900  1
  F  F41  1  0.74221300  0.09025800  0.04755300  1
  F  F42  1  0.25778700  0.90974200  0.95244700  1
  F  F43  1  0.37011000  0.57289500  0.31317500  1
  F  F44  1  0.62989000  0.42710500  0.68682500  1
  F  F45  1  0.50000000  0.50000000  0.00000000  1
  F  F46  1  0.34912500  0.01098700  0.74246000  1
  F  F47  1  0.65087500  0.98901300  0.25754000  1
  F  F48  1  0.13226100  0.30377100  0.21214700  1
  F  F49  1  0.86773900  0.69622900  0.78785300  1
  F  F50  1  0.30832100  0.06854400  0.23558000  1
  F  F51  1  0.69167900  0.93145600  0.76442000  1
