# generated using pymatgen
data_RbB2SbO6
_symmetry_space_group_name_H-M   'P 1'
_cell_length_a   3.89225500
_cell_length_b   7.47695600
_cell_length_c   9.76536400
_cell_angle_alpha   90.00000000
_cell_angle_beta   90.00000000
_cell_angle_gamma   90.00000000
_symmetry_Int_Tables_number   1
_chemical_formula_structural   RbB2SbO6
_chemical_formula_sum   'Rb2 B4 Sb2 O12'
_cell_volume   284.19376541
_cell_formula_units_Z   2
loop_
 _symmetry_equiv_pos_site_id
 _symmetry_equiv_pos_as_xyz
  1  'x, y, z'
loop_
 _atom_site_type_symbol
 _atom_site_label
 _atom_site_symmetry_multiplicity
 _atom_site_fract_x
 _atom_site_fract_y
 _atom_site_fract_z
 _atom_site_occupancy
  Rb  Rb0  1  0.55557200  0.00000000  0.61227000  1
  Rb  Rb1  1  0.44442800  0.50000000  0.11227000  1
  B  B2  1  0.99084600  0.66872200  0.79009200  1
  B  B3  1  0.00915400  0.83127800  0.29009200  1
  B  B4  1  0.00915400  0.16872200  0.29009200  1
  B  B5  1  0.99084600  0.33127800  0.79009200  1
  Sb  Sb6  1  0.93397100  0.00000000  0.00909400  1
  Sb  Sb7  1  0.06602900  0.50000000  0.50909400  1
  O  O8  1  0.93273100  0.80709100  0.15317000  1
  O  O9  1  0.06726900  0.69290900  0.65317000  1
  O  O10  1  0.06726900  0.30709100  0.65317000  1
  O  O11  1  0.93273100  0.19290900  0.15317000  1
  O  O12  1  0.02639500  0.00000000  0.35340400  1
  O  O13  1  0.97360500  0.50000000  0.85340400  1
  O  O14  1  0.43335500  0.00000000  0.00604800  1
  O  O15  1  0.56664500  0.50000000  0.50604800  1
  O  O16  1  0.91597900  0.81770200  0.86263900  1
  O  O17  1  0.08402100  0.68229800  0.36263900  1
  O  O18  1  0.08402100  0.31770200  0.36263900  1
  O  O19  1  0.91597900  0.18229800  0.86263900  1
