# generated using pymatgen
data_Yb6MoO12
_symmetry_space_group_name_H-M   'P 1'
_cell_length_a   9.66074992
_cell_length_b   8.53275158
_cell_length_c   8.71282389
_cell_angle_alpha   140.41493303
_cell_angle_beta   102.60040099
_cell_angle_gamma   62.69735660
_symmetry_Int_Tables_number   1
_chemical_formula_structural   Yb6MoO12
_chemical_formula_sum   'Yb6 Mo1 O12'
_cell_volume   394.89192617
_cell_formula_units_Z   1
loop_
 _symmetry_equiv_pos_site_id
 _symmetry_equiv_pos_as_xyz
  1  'x, y, z'
loop_
 _atom_site_type_symbol
 _atom_site_label
 _atom_site_symmetry_multiplicity
 _atom_site_fract_x
 _atom_site_fract_y
 _atom_site_fract_z
 _atom_site_occupancy
  Yb  Yb0  1  0.06405500  0.88048500  0.26369000  1
  Yb  Yb1  1  0.93594500  0.11951500  0.73631000  1
  Yb  Yb2  1  0.69802800  0.88018000  0.13566500  1
  Yb  Yb3  1  0.30197200  0.11982000  0.86433500  1
  Yb  Yb4  1  0.82823200  0.61144500  0.64252900  1
  Yb  Yb5  1  0.17176800  0.38855500  0.35747100  1
  Mo  Mo6  1  0.00000000  0.00000000  0.00000000  1
  O  O7  1  0.96836700  0.78087200  0.66575200  1
  O  O8  1  0.03163300  0.21912800  0.33424800  1
  O  O9  1  0.16495600  0.67244700  0.88575800  1
  O  O10  1  0.83504400  0.32755300  0.11424200  1
  O  O11  1  0.85074200  0.93925500  0.04684500  1
  O  O12  1  0.14925800  0.06074500  0.95315500  1
  O  O13  1  0.55065000  0.90882500  0.88706000  1
  O  O14  1  0.44935000  0.09117500  0.11294000  1
  O  O15  1  0.84366800  0.44539400  0.76822900  1
  O  O16  1  0.15633200  0.55460600  0.23177100  1
  O  O17  1  0.82065800  0.02444900  0.43969600  1
  O  O18  1  0.17934200  0.97555100  0.56030400  1
