# generated using pymatgen
data_Pr2SiS5
_symmetry_space_group_name_H-M   'P 1'
_cell_length_a   12.60518000
_cell_length_b   7.60979400
_cell_length_c   7.87270495
_cell_angle_alpha   78.73087373
_cell_angle_beta   90.00000000
_cell_angle_gamma   90.00000000
_symmetry_Int_Tables_number   1
_chemical_formula_structural   Pr2SiS5
_chemical_formula_sum   'Pr8 Si4 S20'
_cell_volume   740.61244358
_cell_formula_units_Z   4
loop_
 _symmetry_equiv_pos_site_id
 _symmetry_equiv_pos_as_xyz
  1  'x, y, z'
loop_
 _atom_site_type_symbol
 _atom_site_label
 _atom_site_symmetry_multiplicity
 _atom_site_fract_x
 _atom_site_fract_y
 _atom_site_fract_z
 _atom_site_occupancy
  Pr  Pr0  1  0.83587200  0.84034700  0.63202500  1
  Pr  Pr1  1  0.16412800  0.15965300  0.36797500  1
  Pr  Pr2  1  0.33587200  0.15965300  0.86797500  1
  Pr  Pr3  1  0.66412800  0.84034700  0.13202500  1
  Pr  Pr4  1  0.40571300  0.75962800  0.54197800  1
  Pr  Pr5  1  0.59428700  0.24037200  0.45802200  1
  Pr  Pr6  1  0.90571300  0.24037200  0.95802200  1
  Pr  Pr7  1  0.09428700  0.75962800  0.04197800  1
  Si  Si8  1  0.11632300  0.66663300  0.59393600  1
  Si  Si9  1  0.88367700  0.33336700  0.40606400  1
  Si  Si10  1  0.61632300  0.33336700  0.90606400  1
  Si  Si11  1  0.38367700  0.66663300  0.09393600  1
  S  S12  1  0.47078400  0.82520500  0.88605800  1
  S  S13  1  0.52921600  0.17479500  0.11394200  1
  S  S14  1  0.97078400  0.17479500  0.61394200  1
  S  S15  1  0.02921600  0.82520500  0.38605800  1
  S  S16  1  0.20392300  0.86888500  0.69334400  1
  S  S17  1  0.79607700  0.13111500  0.30665600  1
  S  S18  1  0.70392300  0.13111500  0.80665600  1
  S  S19  1  0.29607700  0.86888500  0.19334400  1
  S  S20  1  0.22775900  0.47268600  0.54821100  1
  S  S21  1  0.77224100  0.52731400  0.45178900  1
  S  S22  1  0.72775900  0.52731400  0.95178900  1
  S  S23  1  0.27224100  0.47268600  0.04821100  1
  S  S24  1  0.87834800  0.86363300  0.99716400  1
  S  S25  1  0.12165200  0.13636700  0.00283600  1
  S  S26  1  0.37834800  0.13636700  0.50283600  1
  S  S27  1  0.62165200  0.86363300  0.49716400  1
  S  S28  1  0.49673400  0.42094700  0.72001500  1
  S  S29  1  0.50326600  0.57905300  0.27998500  1
  S  S30  1  0.99673400  0.57905300  0.77998500  1
  S  S31  1  0.00326600  0.42094700  0.22001500  1
