# generated using pymatgen
data_PrWO5
_symmetry_space_group_name_H-M   'P 1'
_cell_length_a   13.26608700
_cell_length_b   5.39910600
_cell_length_c   7.28813685
_cell_angle_alpha   64.18930130
_cell_angle_beta   90.00000000
_cell_angle_gamma   90.00000000
_symmetry_Int_Tables_number   1
_chemical_formula_structural   PrWO5
_chemical_formula_sum   'Pr4 W4 O20'
_cell_volume   469.93555782
_cell_formula_units_Z   4
loop_
 _symmetry_equiv_pos_site_id
 _symmetry_equiv_pos_as_xyz
  1  'x, y, z'
loop_
 _atom_site_type_symbol
 _atom_site_label
 _atom_site_symmetry_multiplicity
 _atom_site_fract_x
 _atom_site_fract_y
 _atom_site_fract_z
 _atom_site_occupancy
  Pr  Pr0  1  0.55795300  0.62957200  0.21757700  1
  Pr  Pr1  1  0.44204700  0.37042800  0.78242300  1
  Pr  Pr2  1  0.05795300  0.37042800  0.28242300  1
  Pr  Pr3  1  0.94204700  0.62957200  0.71757700  1
  W  W4  1  0.85994800  0.88089100  0.15495500  1
  W  W5  1  0.14005200  0.11910900  0.84504500  1
  W  W6  1  0.35994800  0.11910900  0.34504500  1
  W  W7  1  0.64005200  0.88089100  0.65495500  1
  O  O8  1  0.90634100  0.54614400  0.41828400  1
  O  O9  1  0.09365900  0.45385600  0.58171600  1
  O  O10  1  0.40634100  0.45385600  0.08171600  1
  O  O11  1  0.59365900  0.54614400  0.91828400  1
  O  O12  1  0.43182100  0.00331700  0.16269800  1
  O  O13  1  0.56817900  0.99668300  0.83730200  1
  O  O14  1  0.93182100  0.99668300  0.33730200  1
  O  O15  1  0.06817900  0.00331700  0.66269800  1
  O  O16  1  0.92952600  0.69806700  0.02885700  1
  O  O17  1  0.07047400  0.30193300  0.97114300  1
  O  O18  1  0.42952600  0.30193300  0.47114300  1
  O  O19  1  0.57047400  0.69806700  0.52885700  1
  O  O20  1  0.72834200  0.79469200  0.19820100  1
  O  O21  1  0.27165800  0.20530800  0.80179900  1
  O  O22  1  0.22834200  0.20530800  0.30179900  1
  O  O23  1  0.77165800  0.79469200  0.69820100  1
  O  O24  1  0.14351400  0.77840400  0.05840900  1
  O  O25  1  0.85648600  0.22159600  0.94159100  1
  O  O26  1  0.64351400  0.22159600  0.44159100  1
  O  O27  1  0.35648600  0.77840400  0.55840900  1
