# generated using pymatgen
data_U4Co2S2O27
_symmetry_space_group_name_H-M   'P 1'
_cell_length_a   8.37907410
_cell_length_b   8.37907410
_cell_length_c   17.84177343
_cell_angle_alpha   97.57599876
_cell_angle_beta   97.57599876
_cell_angle_gamma   116.96051126
_symmetry_Int_Tables_number   1
_chemical_formula_structural   U4Co2S2O27
_chemical_formula_sum   'U8 Co4 S4 O54'
_cell_volume   1080.42471586
_cell_formula_units_Z   2
loop_
 _symmetry_equiv_pos_site_id
 _symmetry_equiv_pos_as_xyz
  1  'x, y, z'
loop_
 _atom_site_type_symbol
 _atom_site_label
 _atom_site_symmetry_multiplicity
 _atom_site_fract_x
 _atom_site_fract_y
 _atom_site_fract_z
 _atom_site_occupancy
  U  U0  1  0.43640800  0.90187400  0.83414500  1
  U  U1  1  0.56359200  0.09812600  0.16585500  1
  U  U2  1  0.09812600  0.56359200  0.16585500  1
  U  U3  1  0.90187400  0.43640800  0.83414500  1
  U  U4  1  0.06381500  0.61299400  0.66485700  1
  U  U5  1  0.93618500  0.38700600  0.33514300  1
  U  U6  1  0.38700600  0.93618500  0.33514300  1
  U  U7  1  0.61299400  0.06381500  0.66485700  1
  Co  Co8  1  0.19453700  0.19453700  0.88860300  1
  Co  Co9  1  0.80546300  0.80546300  0.11139700  1
  Co  Co10  1  0.69543200  0.69543200  0.36300300  1
  Co  Co11  1  0.30456800  0.30456800  0.63699700  1
  S  S12  1  0.24616200  0.75383800  0.00000000  1
  S  S13  1  0.75383800  0.24616200  0.00000000  1
  S  S14  1  0.74670500  0.25329500  0.50000000  1
  S  S15  1  0.25329500  0.74670500  0.50000000  1
  O  O16  1  0.16492800  0.46558500  0.63407700  1
  O  O17  1  0.83507200  0.53441500  0.36592300  1
  O  O18  1  0.53441500  0.83507200  0.36592300  1
  O  O19  1  0.46558500  0.16492800  0.63407700  1
  O  O20  1  0.95490900  0.75222000  0.68276600  1
  O  O21  1  0.04509100  0.24778000  0.31723400  1
  O  O22  1  0.24778000  0.04509100  0.31723400  1
  O  O23  1  0.75222000  0.95490900  0.68276600  1
  O  O24  1  0.48898400  0.48898400  0.32039800  1
  O  O25  1  0.51101600  0.51101600  0.67960200  1
  O  O26  1  0.10030700  0.10030700  0.59772600  1
  O  O27  1  0.89969300  0.89969300  0.40227400  1
  O  O28  1  0.71086500  0.71086500  0.46348000  1
  O  O29  1  0.28913500  0.28913500  0.53652000  1
  O  O30  1  0.18144900  0.18144900  0.98108600  1
  O  O31  1  0.81855100  0.81855100  0.01891400  1
  O  O32  1  0.33678200  0.05770900  0.86009800  1
  O  O33  1  0.66321800  0.94229100  0.13990200  1
  O  O34  1  0.94229100  0.66321800  0.13990200  1
  O  O35  1  0.05770900  0.33678200  0.86009800  1
  O  O36  1  0.53914800  0.75643500  0.81769700  1
  O  O37  1  0.46085200  0.24356500  0.18230300  1
  O  O38  1  0.24356500  0.46085200  0.18230300  1
  O  O39  1  0.75643500  0.53914800  0.81769700  1
  O  O40  1  0.12608000  0.74239100  0.55159300  1
  O  O41  1  0.87392000  0.25760900  0.44840700  1
  O  O42  1  0.25760900  0.87392000  0.44840700  1
  O  O43  1  0.74239100  0.12608000  0.55159300  1
  O  O44  1  0.80999100  0.43738000  0.54926500  1
  O  O45  1  0.19000900  0.56262000  0.45073500  1
  O  O46  1  0.56262000  0.19000900  0.45073500  1
  O  O47  1  0.43738000  0.80999100  0.54926500  1
  O  O48  1  0.35634400  0.85622000  0.70703600  1
  O  O49  1  0.64365600  0.14378000  0.29296400  1
  O  O50  1  0.14378000  0.64365600  0.29296400  1
  O  O51  1  0.85622000  0.35634400  0.70703600  1
  O  O52  1  0.99715400  0.99715400  0.84294000  1
  O  O53  1  0.00284600  0.00284600  0.15706000  1
  O  O54  1  0.14613200  0.65688700  0.79240200  1
  O  O55  1  0.85386800  0.34311300  0.20759800  1
  O  O56  1  0.34311300  0.85386800  0.20759800  1
  O  O57  1  0.65688700  0.14613200  0.79240200  1
  O  O58  1  0.31973700  0.31973700  0.73737800  1
  O  O59  1  0.68026300  0.68026300  0.26262200  1
  O  O60  1  0.69332800  0.06496300  0.94838300  1
  O  O61  1  0.30667200  0.93503700  0.05161700  1
  O  O62  1  0.93503700  0.30667200  0.05161700  1
  O  O63  1  0.06496300  0.69332800  0.94838300  1
  O  O64  1  0.37859000  0.76641600  0.95008400  1
  O  O65  1  0.62141000  0.23358400  0.04991600  1
  O  O66  1  0.23358400  0.62141000  0.04991600  1
  O  O67  1  0.76641600  0.37859000  0.95008400  1
  O  O68  1  0.39865500  0.39865500  0.92114400  1
  O  O69  1  0.60134400  0.60134400  0.07885600  1
