# generated using pymatgen
data_SrCrGe2
_symmetry_space_group_name_H-M   'P 1'
_cell_length_a   8.56502700
_cell_length_b   10.63875800
_cell_length_c   11.41642700
_cell_angle_alpha   90.00000000
_cell_angle_beta   90.00000000
_cell_angle_gamma   90.00000000
_symmetry_Int_Tables_number   1
_chemical_formula_structural   SrCrGe2
_chemical_formula_sum   'Sr12 Cr12 Ge24'
_cell_volume   1040.27909325
_cell_formula_units_Z   12
loop_
 _symmetry_equiv_pos_site_id
 _symmetry_equiv_pos_as_xyz
  1  'x, y, z'
loop_
 _atom_site_type_symbol
 _atom_site_label
 _atom_site_symmetry_multiplicity
 _atom_site_fract_x
 _atom_site_fract_y
 _atom_site_fract_z
 _atom_site_occupancy
  Sr  Sr0  1  0.00000000  0.32545800  0.31852100  1
  Sr  Sr1  1  0.00000000  0.67454200  0.68147900  1
  Sr  Sr2  1  0.00000000  0.17454200  0.81852100  1
  Sr  Sr3  1  0.00000000  0.82545800  0.18147900  1
  Sr  Sr4  1  0.26143300  0.32800900  0.04580500  1
  Sr  Sr5  1  0.73856700  0.67199100  0.95419500  1
  Sr  Sr6  1  0.26143300  0.67199100  0.95419500  1
  Sr  Sr7  1  0.73856700  0.17199100  0.54580500  1
  Sr  Sr8  1  0.73856700  0.32800900  0.04580500  1
  Sr  Sr9  1  0.26143300  0.82800900  0.45419500  1
  Sr  Sr10  1  0.73856700  0.82800900  0.45419500  1
  Sr  Sr11  1  0.26143300  0.17199100  0.54580500  1
  Cr  Cr12  1  0.24525300  0.00000000  0.00000000  1
  Cr  Cr13  1  0.75474700  0.00000000  0.00000000  1
  Cr  Cr14  1  0.75474700  0.50000000  0.50000000  1
  Cr  Cr15  1  0.24525300  0.50000000  0.50000000  1
  Cr  Cr16  1  0.23822400  0.08050800  0.24512900  1
  Cr  Cr17  1  0.76177600  0.91949200  0.75487100  1
  Cr  Cr18  1  0.23822400  0.91949200  0.75487100  1
  Cr  Cr19  1  0.76177600  0.41949200  0.74512900  1
  Cr  Cr20  1  0.76177600  0.08050800  0.24512900  1
  Cr  Cr21  1  0.23822400  0.58050800  0.25487100  1
  Cr  Cr22  1  0.76177600  0.58050800  0.25487100  1
  Cr  Cr23  1  0.23822400  0.41949200  0.74512900  1
  Ge  Ge24  1  0.50000000  0.03892100  0.33881800  1
  Ge  Ge25  1  0.50000000  0.96107900  0.66118200  1
  Ge  Ge26  1  0.50000000  0.46107900  0.83881800  1
  Ge  Ge27  1  0.50000000  0.53892100  0.16118200  1
  Ge  Ge28  1  0.00000000  0.11404700  0.10162100  1
  Ge  Ge29  1  0.00000000  0.88595300  0.89837900  1
  Ge  Ge30  1  0.00000000  0.38595300  0.60162100  1
  Ge  Ge31  1  0.00000000  0.61404700  0.39837900  1
  Ge  Ge32  1  0.50000000  0.08737700  0.10416600  1
  Ge  Ge33  1  0.50000000  0.91262300  0.89583400  1
  Ge  Ge34  1  0.50000000  0.41262300  0.60416600  1
  Ge  Ge35  1  0.50000000  0.58737700  0.39583400  1
  Ge  Ge36  1  0.00000000  0.03426900  0.38174600  1
  Ge  Ge37  1  0.00000000  0.96573100  0.61825400  1
  Ge  Ge38  1  0.00000000  0.46573100  0.88174600  1
  Ge  Ge39  1  0.00000000  0.53426900  0.11825400  1
  Ge  Ge40  1  0.34948200  0.35019800  0.32329600  1
  Ge  Ge41  1  0.65051800  0.64980200  0.67670400  1
  Ge  Ge42  1  0.34948200  0.64980200  0.67670400  1
  Ge  Ge43  1  0.65051800  0.14980200  0.82329600  1
  Ge  Ge44  1  0.65051800  0.35019800  0.32329600  1
  Ge  Ge45  1  0.34948200  0.85019800  0.17670400  1
  Ge  Ge46  1  0.65051800  0.85019800  0.17670400  1
  Ge  Ge47  1  0.34948200  0.14980200  0.82329600  1
