data_image0
_chemical_formula_structural       BNi6Si2
_chemical_formula_sum              "B1 Ni6 Si2"
_cell_length_a       6.11557
_cell_length_b       6.11557
_cell_length_c       2.88098
_cell_angle_alpha    90
_cell_angle_beta     90
_cell_angle_gamma    119.999

_space_group_name_H-M_alt    "P 1"
_space_group_IT_number       1

loop_
  _space_group_symop_operation_xyz
  'x, y, z'

loop_
  _atom_site_type_symbol
  _atom_site_label
  _atom_site_symmetry_multiplicity
  _atom_site_fract_x
  _atom_site_fract_y
  _atom_site_fract_z
  _atom_site_occupancy
  B   B1        1.0  0.00000  0.00000  0.50000  1.0000
  Ni  Ni1       1.0  0.24400  0.00002  0.00000  1.0000
  Ni  Ni2       1.0  0.00002  0.24400  0.00000  1.0000
  Ni  Ni3       1.0  0.75600  0.75600  0.00000  1.0000
  Ni  Ni4       1.0  0.61000  0.00003  0.50000  1.0000
  Ni  Ni5       1.0  0.39000  0.39000  0.50000  1.0000
  Ni  Ni6       1.0  0.00003  0.61000  0.50000  1.0000
  Si  Si1       1.0  0.66700  0.33300  0.00000  1.0000
  Si  Si2       1.0  0.33300  0.66700  0.00000  1.0000
