# generated using pymatgen
data_Rb3(SeO4)2
_symmetry_space_group_name_H-M   'P 1'
_cell_length_a   6.19207100
_cell_length_b   8.55942520
_cell_length_c   10.61253061
_cell_angle_alpha   101.56078411
_cell_angle_beta   90.00000000
_cell_angle_gamma   111.20528829
_symmetry_Int_Tables_number   1
_chemical_formula_structural   Rb3(SeO4)2
_chemical_formula_sum   'Rb6 Se4 O16'
_cell_volume   512.12662144
_cell_formula_units_Z   2
loop_
 _symmetry_equiv_pos_site_id
 _symmetry_equiv_pos_as_xyz
  1  'x, y, z'
loop_
 _atom_site_type_symbol
 _atom_site_label
 _atom_site_symmetry_multiplicity
 _atom_site_fract_x
 _atom_site_fract_y
 _atom_site_fract_z
 _atom_site_occupancy
  Rb  Rb0  1  0.75250800  0.00000000  0.75000000  1
  Rb  Rb1  1  0.24749200  0.00000000  0.25000000  1
  Rb  Rb2  1  0.41794800  0.38713600  0.65173000  1
  Rb  Rb3  1  0.58205200  0.61286400  0.34827000  1
  Rb  Rb4  1  0.03081100  0.61286400  0.84827000  1
  Rb  Rb5  1  0.96918900  0.38713600  0.15173000  1
  Se  Se6  1  0.40099300  0.22902600  0.96370600  1
  Se  Se7  1  0.59900700  0.77097400  0.03629400  1
  Se  Se8  1  0.17196700  0.77097400  0.53629400  1
  Se  Se9  1  0.82803300  0.22902600  0.46370600  1
  O  O10  1  0.57002600  0.68955500  0.87835900  1
  O  O11  1  0.42997400  0.31044500  0.12164100  1
  O  O12  1  0.88047100  0.31044500  0.62164100  1
  O  O13  1  0.11952900  0.68955500  0.37835900  1
  O  O14  1  0.64754100  0.30808600  0.89510000  1
  O  O15  1  0.35245900  0.69191400  0.10490000  1
  O  O16  1  0.33945500  0.69191400  0.60490000  1
  O  O17  1  0.66054500  0.30808600  0.39510000  1
  O  O18  1  0.18074100  0.25661800  0.89117000  1
  O  O19  1  0.81925900  0.74338200  0.10883000  1
  O  O20  1  0.92412300  0.74338200  0.60883000  1
  O  O21  1  0.07587700  0.25661800  0.39117000  1
  O  O22  1  0.32124600  0.01094900  0.93970400  1
  O  O23  1  0.67875400  0.98905100  0.06029600  1
  O  O24  1  0.31029700  0.98905100  0.56029600  1
  O  O25  1  0.68970300  0.01094900  0.43970400  1
