# generated using pymatgen
data_Sm4MnS7
_symmetry_space_group_name_H-M   'P 1'
_cell_length_a   9.82044178
_cell_length_b   9.82044178
_cell_length_c   6.84744100
_cell_angle_alpha   90.00000000
_cell_angle_beta   90.00000000
_cell_angle_gamma   119.99999855
_symmetry_Int_Tables_number   1
_chemical_formula_structural   Sm4MnS7
_chemical_formula_sum   'Sm8 Mn2 S14'
_cell_volume   571.90117386
_cell_formula_units_Z   2
loop_
 _symmetry_equiv_pos_site_id
 _symmetry_equiv_pos_as_xyz
  1  'x, y, z'
loop_
 _atom_site_type_symbol
 _atom_site_label
 _atom_site_symmetry_multiplicity
 _atom_site_fract_x
 _atom_site_fract_y
 _atom_site_fract_z
 _atom_site_occupancy
  Sm  Sm0  1  0.33333300  0.66666700  0.16516000  1
  Sm  Sm1  1  0.66666700  0.33333300  0.66516000  1
  Sm  Sm2  1  0.37826500  0.22341900  0.21370400  1
  Sm  Sm3  1  0.77658100  0.15484600  0.21370400  1
  Sm  Sm4  1  0.62173500  0.77658100  0.71370400  1
  Sm  Sm5  1  0.84515400  0.62173500  0.21370400  1
  Sm  Sm6  1  0.22341900  0.84515400  0.71370400  1
  Sm  Sm7  1  0.15484600  0.37826500  0.71370400  1
  Mn  Mn8  1  0.00000000  0.00000000  0.03870300  1
  Mn  Mn9  1  0.00000000  0.00000000  0.53870300  1
  S  S10  1  0.51103200  0.07447900  0.45036100  1
  S  S11  1  0.92552100  0.43655300  0.45036100  1
  S  S12  1  0.48896800  0.92552100  0.95036100  1
  S  S13  1  0.56344700  0.48896800  0.45036100  1
  S  S14  1  0.07447900  0.56344700  0.95036100  1
  S  S15  1  0.43655300  0.51103200  0.95036100  1
  S  S16  1  0.33333300  0.66666700  0.54932200  1
  S  S17  1  0.66666700  0.33333300  0.04932200  1
  S  S18  1  0.10587700  0.23836200  0.31687400  1
  S  S19  1  0.76163800  0.86751400  0.31687400  1
  S  S20  1  0.89412300  0.76163800  0.81687400  1
  S  S21  1  0.13248600  0.89412300  0.31687400  1
  S  S22  1  0.23836200  0.13248600  0.81687400  1
  S  S23  1  0.86751400  0.10587700  0.81687400  1
