# generated using pymatgen
data_Sm23Cd4Ir7
_symmetry_space_group_name_H-M   'P 1'
_cell_length_a   9.92723638
_cell_length_b   9.92723638
_cell_length_c   22.31456300
_cell_angle_alpha   90.00000000
_cell_angle_beta   90.00000000
_cell_angle_gamma   120.00000251
_symmetry_Int_Tables_number   1
_chemical_formula_structural   Sm23Cd4Ir7
_chemical_formula_sum   'Sm46 Cd8 Ir14'
_cell_volume   1904.47700293
_cell_formula_units_Z   2
loop_
 _symmetry_equiv_pos_site_id
 _symmetry_equiv_pos_as_xyz
  1  'x, y, z'
loop_
 _atom_site_type_symbol
 _atom_site_label
 _atom_site_symmetry_multiplicity
 _atom_site_fract_x
 _atom_site_fract_y
 _atom_site_fract_z
 _atom_site_occupancy
  Sm  Sm0  1  0.20698500  0.41397100  0.72046100  1
  Sm  Sm1  1  0.20698500  0.79301500  0.72046100  1
  Sm  Sm2  1  0.79301500  0.58602900  0.22046100  1
  Sm  Sm3  1  0.58602900  0.79301500  0.72046100  1
  Sm  Sm4  1  0.79301500  0.20698500  0.22046100  1
  Sm  Sm5  1  0.41397100  0.20698500  0.22046100  1
  Sm  Sm6  1  0.79295000  0.58590000  0.94688100  1
  Sm  Sm7  1  0.79295000  0.20705000  0.94688100  1
  Sm  Sm8  1  0.20705000  0.41410000  0.44688100  1
  Sm  Sm9  1  0.41410000  0.20705000  0.94688100  1
  Sm  Sm10  1  0.20705000  0.79295000  0.44688100  1
  Sm  Sm11  1  0.58590000  0.79295000  0.44688100  1
  Sm  Sm12  1  0.20881000  0.41762000  0.98991500  1
  Sm  Sm13  1  0.20881000  0.79119000  0.98991500  1
  Sm  Sm14  1  0.79119000  0.58238000  0.48991500  1
  Sm  Sm15  1  0.58238000  0.79119000  0.98991500  1
  Sm  Sm16  1  0.79119000  0.20881000  0.48991500  1
  Sm  Sm17  1  0.41762000  0.20881000  0.48991500  1
  Sm  Sm18  1  0.87236000  0.74472000  0.63602700  1
  Sm  Sm19  1  0.87236000  0.12764000  0.63602700  1
  Sm  Sm20  1  0.12764000  0.25528000  0.13602700  1
  Sm  Sm21  1  0.25528000  0.12764000  0.63602700  1
  Sm  Sm22  1  0.12764000  0.87236000  0.13602700  1
  Sm  Sm23  1  0.74472000  0.87236000  0.13602700  1
  Sm  Sm24  1  0.45950000  0.91900000  0.85593600  1
  Sm  Sm25  1  0.45950000  0.54050000  0.85593600  1
  Sm  Sm26  1  0.54050000  0.08100000  0.35593600  1
  Sm  Sm27  1  0.08100000  0.54050000  0.85593600  1
  Sm  Sm28  1  0.54050000  0.45950000  0.35593600  1
  Sm  Sm29  1  0.91900000  0.45950000  0.35593600  1
  Sm  Sm30  1  0.00000000  0.00000000  0.99797300  1
  Sm  Sm31  1  0.00000000  0.00000000  0.49797300  1
  Sm  Sm32  1  0.46088100  0.92176100  0.58543400  1
  Sm  Sm33  1  0.46088100  0.53911900  0.58543400  1
  Sm  Sm34  1  0.53911900  0.07823900  0.08543400  1
  Sm  Sm35  1  0.07823900  0.53911900  0.58543400  1
  Sm  Sm36  1  0.53911900  0.46088100  0.08543400  1
  Sm  Sm37  1  0.92176100  0.46088100  0.08543400  1
  Sm  Sm38  1  0.79731000  0.59462000  0.78243100  1
  Sm  Sm39  1  0.79731000  0.20269000  0.78243100  1
  Sm  Sm40  1  0.20269000  0.40538000  0.28243100  1
  Sm  Sm41  1  0.40538000  0.20269000  0.78243100  1
  Sm  Sm42  1  0.20269000  0.79731000  0.28243100  1
  Sm  Sm43  1  0.59462000  0.79731000  0.28243100  1
  Sm  Sm44  1  0.66666700  0.33333300  0.64495000  1
  Sm  Sm45  1  0.33333300  0.66666700  0.14495000  1
  Cd  Cd46  1  0.00000000  0.00000000  0.75005100  1
  Cd  Cd47  1  0.00000000  0.00000000  0.25005100  1
  Cd  Cd48  1  0.10725300  0.21450500  0.86343400  1
  Cd  Cd49  1  0.10725300  0.89274700  0.86343400  1
  Cd  Cd50  1  0.89274700  0.78549500  0.36343400  1
  Cd  Cd51  1  0.78549500  0.89274700  0.86343400  1
  Cd  Cd52  1  0.89274700  0.10725300  0.36343400  1
  Cd  Cd53  1  0.21450500  0.10725300  0.36343400  1
  Ir  Ir54  1  0.52073000  0.04146100  0.70953800  1
  Ir  Ir55  1  0.52073000  0.47927000  0.70953800  1
  Ir  Ir56  1  0.47927000  0.95853900  0.20953800  1
  Ir  Ir57  1  0.95853900  0.47927000  0.70953800  1
  Ir  Ir58  1  0.47927000  0.52073000  0.20953800  1
  Ir  Ir59  1  0.04146100  0.52073000  0.20953800  1
  Ir  Ir60  1  0.66666700  0.33333300  0.86354000  1
  Ir  Ir61  1  0.33333300  0.66666700  0.36354000  1
  Ir  Ir62  1  0.14378900  0.28757800  0.56334500  1
  Ir  Ir63  1  0.14378900  0.85621100  0.56334500  1
  Ir  Ir64  1  0.85621100  0.71242200  0.06334500  1
  Ir  Ir65  1  0.71242200  0.85621100  0.56334500  1
  Ir  Ir66  1  0.85621100  0.14378900  0.06334500  1
  Ir  Ir67  1  0.28757800  0.14378900  0.06334500  1
