# generated using pymatgen
data_RbMo3(PO7)2
_symmetry_space_group_name_H-M   'P 1'
_cell_length_a   6.51421700
_cell_length_b   9.13422900
_cell_length_c   10.89187061
_cell_angle_alpha   69.07254192
_cell_angle_beta   90.00000000
_cell_angle_gamma   90.00000000
_symmetry_Int_Tables_number   1
_chemical_formula_structural   RbMo3(PO7)2
_chemical_formula_sum   'Rb2 Mo6 P4 O28'
_cell_volume   605.33948023
_cell_formula_units_Z   2
loop_
 _symmetry_equiv_pos_site_id
 _symmetry_equiv_pos_as_xyz
  1  'x, y, z'
loop_
 _atom_site_type_symbol
 _atom_site_label
 _atom_site_symmetry_multiplicity
 _atom_site_fract_x
 _atom_site_fract_y
 _atom_site_fract_z
 _atom_site_occupancy
  Rb  Rb0  1  0.25000000  0.01025400  0.74830100  1
  Rb  Rb1  1  0.75000000  0.98974600  0.25169900  1
  Mo  Mo2  1  0.25000000  0.73590800  0.17501100  1
  Mo  Mo3  1  0.75000000  0.26409200  0.82498900  1
  Mo  Mo4  1  0.25000000  0.34685500  0.11936000  1
  Mo  Mo5  1  0.75000000  0.65314500  0.88064000  1
  Mo  Mo6  1  0.25000000  0.72092200  0.49561200  1
  Mo  Mo7  1  0.75000000  0.27907800  0.50438800  1
  P  P8  1  0.25000000  0.39144400  0.80138200  1
  P  P9  1  0.75000000  0.60855600  0.19861800  1
  P  P10  1  0.25000000  0.35891200  0.43163500  1
  P  P11  1  0.75000000  0.64108800  0.56836500  1
  O  O12  1  0.25000000  0.56679100  0.11325600  1
  O  O13  1  0.75000000  0.43320900  0.88674400  1
  O  O14  1  0.25000000  0.90028800  0.03615100  1
  O  O15  1  0.75000000  0.09971200  0.96384900  1
  O  O16  1  0.93874400  0.71540200  0.19074200  1
  O  O17  1  0.06125600  0.28459800  0.80925800  1
  O  O18  1  0.43874400  0.28459800  0.80925800  1
  O  O19  1  0.56125600  0.71540200  0.19074200  1
  O  O20  1  0.25000000  0.83515000  0.30043600  1
  O  O21  1  0.75000000  0.16485000  0.69956400  1
  O  O22  1  0.25000000  0.87809500  0.54548000  1
  O  O23  1  0.75000000  0.12190500  0.45452000  1
  O  O24  1  0.46545100  0.23427300  0.12616900  1
  O  O25  1  0.53454900  0.76572700  0.87383100  1
  O  O26  1  0.96545100  0.76572700  0.87383100  1
  O  O27  1  0.03454900  0.23427300  0.12616900  1
  O  O28  1  0.93842300  0.70827900  0.47975500  1
  O  O29  1  0.06157700  0.29172100  0.52024500  1
  O  O30  1  0.43842300  0.29172100  0.52024500  1
  O  O31  1  0.56157700  0.70827900  0.47975500  1
  O  O32  1  0.25000000  0.53398100  0.67267700  1
  O  O33  1  0.75000000  0.46601900  0.32732300  1
  O  O34  1  0.25000000  0.44992200  0.91867600  1
  O  O35  1  0.75000000  0.55007800  0.08132400  1
  O  O36  1  0.25000000  0.29940600  0.31593300  1
  O  O37  1  0.75000000  0.70059400  0.68406700  1
  O  O38  1  0.25000000  0.53997200  0.38416700  1
  O  O39  1  0.75000000  0.46002800  0.61583300  1
