# generated using pymatgen
data_Rb2Zr(MoO4)3
_symmetry_space_group_name_H-M   'P 1'
_cell_length_a   10.45665705
_cell_length_b   10.45665705
_cell_length_c   10.91855372
_cell_angle_alpha   75.29358755
_cell_angle_beta   75.29358755
_cell_angle_gamma   40.28841366
_symmetry_Int_Tables_number   1
_chemical_formula_structural   Rb2Zr(MoO4)3
_chemical_formula_sum   'Rb4 Zr2 Mo6 O24'
_cell_volume   743.22813316
_cell_formula_units_Z   2
loop_
 _symmetry_equiv_pos_site_id
 _symmetry_equiv_pos_as_xyz
  1  'x, y, z'
loop_
 _atom_site_type_symbol
 _atom_site_label
 _atom_site_symmetry_multiplicity
 _atom_site_fract_x
 _atom_site_fract_y
 _atom_site_fract_z
 _atom_site_occupancy
  Rb  Rb0  1  0.89886200  0.93361500  0.63401000  1
  Rb  Rb1  1  0.93361500  0.89886200  0.13401000  1
  Rb  Rb2  1  0.21520100  0.27488400  0.99798900  1
  Rb  Rb3  1  0.27488400  0.21520100  0.49798900  1
  Zr  Zr4  1  0.58126400  0.57997400  0.56110600  1
  Zr  Zr5  1  0.57997400  0.58126400  0.06110600  1
  Mo  Mo6  1  0.80433500  0.61890600  0.74429100  1
  Mo  Mo7  1  0.61890600  0.80433500  0.24429100  1
  Mo  Mo8  1  0.35424900  0.53980000  0.38406000  1
  Mo  Mo9  1  0.53980000  0.35424900  0.88406000  1
  Mo  Mo10  1  0.96701000  0.19899400  0.30911800  1
  Mo  Mo11  1  0.19899400  0.96701000  0.80911800  1
  O  O12  1  0.60638700  0.87824200  0.71876100  1
  O  O13  1  0.87824200  0.60638700  0.21876100  1
  O  O14  1  0.79065500  0.52270400  0.63357800  1
  O  O15  1  0.52270400  0.79065500  0.13357800  1
  O  O16  1  0.13200100  0.18429500  0.78218800  1
  O  O17  1  0.18429500  0.13200100  0.28218800  1
  O  O18  1  0.77402400  0.55125400  0.91482600  1
  O  O19  1  0.55125400  0.77402400  0.41482600  1
  O  O20  1  0.34925600  0.82960500  0.66771400  1
  O  O21  1  0.82960500  0.34925600  0.16771400  1
  O  O22  1  0.02164200  0.55269600  0.70810000  1
  O  O23  1  0.55269600  0.02164200  0.20810000  1
  O  O24  1  0.98374100  0.03149300  0.83239000  1
  O  O25  1  0.03149300  0.98374100  0.33239000  1
  O  O26  1  0.28086500  0.53721900  0.91811800  1
  O  O27  1  0.53721900  0.28086500  0.41811800  1
  O  O28  1  0.12768800  0.62492800  0.40511000  1
  O  O29  1  0.62492800  0.12768800  0.90511000  1
  O  O30  1  0.81433500  0.33504000  0.45268500  1
  O  O31  1  0.33504000  0.81433500  0.95268500  1
  O  O32  1  0.59682700  0.40394300  0.71650900  1
  O  O33  1  0.40394300  0.59682700  0.21650900  1
  O  O34  1  0.63359200  0.36807300  0.99744700  1
  O  O35  1  0.36807300  0.63359200  0.49744700  1
