# generated using pymatgen
data_PNO4
_symmetry_space_group_name_H-M   'P 1'
_cell_length_a   6.93678729
_cell_length_b   6.93678729
_cell_length_c   6.93678729
_cell_angle_alpha   96.44089926
_cell_angle_beta   96.44089926
_cell_angle_gamma   140.86340519
_symmetry_Int_Tables_number   1
_chemical_formula_structural   PNO4
_chemical_formula_sum   'P2 N2 O8'
_cell_volume   198.51132347
_cell_formula_units_Z   2
loop_
 _symmetry_equiv_pos_site_id
 _symmetry_equiv_pos_as_xyz
  1  'x, y, z'
loop_
 _atom_site_type_symbol
 _atom_site_label
 _atom_site_symmetry_multiplicity
 _atom_site_fract_x
 _atom_site_fract_y
 _atom_site_fract_z
 _atom_site_occupancy
  P  P0  1  0.25000000  0.75000000  0.50000000  1
  P  P1  1  0.00000000  0.00000000  0.00000000  1
  N  N2  1  0.75000000  0.25000000  0.50000000  1
  N  N3  1  0.50000000  0.50000000  0.00000000  1
  O  O4  1  0.51016800  0.08861700  0.66637800  1
  O  O5  1  0.42223800  0.84378900  0.33362200  1
  O  O6  1  0.15621100  0.48983200  0.57844900  1
  O  O7  1  0.82776200  0.66138300  0.92155100  1
  O  O8  1  0.91138300  0.57776200  0.42155100  1
  O  O9  1  0.73983200  0.90621100  0.07844900  1
  O  O10  1  0.33861700  0.26016800  0.16637800  1
  O  O11  1  0.09378900  0.17223800  0.83362200  1
