# generated using pymatgen
data_Rb3LaBr6
_symmetry_space_group_name_H-M   'P 1'
_cell_length_a   8.60082800
_cell_length_b   13.90039500
_cell_length_c   14.57137658
_cell_angle_alpha   71.47846102
_cell_angle_beta   90.00000000
_cell_angle_gamma   90.00000000
_symmetry_Int_Tables_number   1
_chemical_formula_structural   Rb3LaBr6
_chemical_formula_sum   'Rb12 La4 Br24'
_cell_volume   1651.84734283
_cell_formula_units_Z   4
loop_
 _symmetry_equiv_pos_site_id
 _symmetry_equiv_pos_as_xyz
  1  'x, y, z'
loop_
 _atom_site_type_symbol
 _atom_site_label
 _atom_site_symmetry_multiplicity
 _atom_site_fract_x
 _atom_site_fract_y
 _atom_site_fract_z
 _atom_site_occupancy
  Rb  Rb0  1  0.43470600  0.73388000  0.31644000  1
  Rb  Rb1  1  0.56529400  0.26612000  0.68356000  1
  Rb  Rb2  1  0.93470600  0.76612000  0.68356000  1
  Rb  Rb3  1  0.06529400  0.23388000  0.31644000  1
  Rb  Rb4  1  0.96453600  0.64144000  0.09754100  1
  Rb  Rb5  1  0.03546400  0.35856000  0.90245900  1
  Rb  Rb6  1  0.46453600  0.85856000  0.90245900  1
  Rb  Rb7  1  0.53546400  0.14144000  0.09754100  1
  Rb  Rb8  1  0.93216800  0.88734100  0.31922500  1
  Rb  Rb9  1  0.06783200  0.11265900  0.68077500  1
  Rb  Rb10  1  0.43216800  0.61265900  0.68077500  1
  Rb  Rb11  1  0.56783200  0.38734100  0.31922500  1
  La  La12  1  0.00000000  0.50000000  0.50000000  1
  La  La13  1  0.50000000  0.00000000  0.50000000  1
  La  La14  1  0.00000000  0.00000000  0.00000000  1
  La  La15  1  0.50000000  0.50000000  0.00000000  1
  Br  Br16  1  0.50041700  0.63316400  0.12084700  1
  Br  Br17  1  0.49958300  0.36683600  0.87915300  1
  Br  Br18  1  0.00041700  0.86683600  0.87915300  1
  Br  Br19  1  0.99958300  0.13316400  0.12084700  1
  Br  Br20  1  0.28993000  0.99593500  0.34205200  1
  Br  Br21  1  0.71007000  0.00406500  0.65794800  1
  Br  Br22  1  0.78993000  0.50406500  0.65794800  1
  Br  Br23  1  0.21007000  0.49593500  0.34205200  1
  Br  Br24  1  0.78621200  0.60703600  0.34408200  1
  Br  Br25  1  0.21378800  0.39296400  0.65591800  1
  Br  Br26  1  0.28621200  0.89296400  0.65591800  1
  Br  Br27  1  0.71378800  0.10703600  0.34408200  1
  Br  Br28  1  0.64433000  0.80481000  0.49937900  1
  Br  Br29  1  0.35567000  0.19519000  0.50062100  1
  Br  Br30  1  0.14433000  0.69519000  0.50062100  1
  Br  Br31  1  0.85567000  0.30481000  0.49937900  1
  Br  Br32  1  0.17889700  0.84136100  0.14036400  1
  Br  Br33  1  0.82110300  0.15863900  0.85963600  1
  Br  Br34  1  0.67889700  0.65863900  0.85963600  1
  Br  Br35  1  0.32110300  0.34136100  0.14036400  1
  Br  Br36  1  0.71258100  0.90536500  0.10301600  1
  Br  Br37  1  0.28741900  0.09463500  0.89698400  1
  Br  Br38  1  0.21258100  0.59463500  0.89698400  1
  Br  Br39  1  0.78741900  0.40536500  0.10301600  1
