# generated using pymatgen
data_SnPt(N2Cl3)2
_symmetry_space_group_name_H-M   'P 1'
_cell_length_a   7.59526065
_cell_length_b   7.59526065
_cell_length_c   12.26452100
_cell_angle_alpha   90.00000000
_cell_angle_beta   90.00000000
_cell_angle_gamma   100.47034373
_symmetry_Int_Tables_number   1
_chemical_formula_structural   SnPt(N2Cl3)2
_chemical_formula_sum   'Sn2 Pt2 N8 Cl12'
_cell_volume   695.73472552
_cell_formula_units_Z   2
loop_
 _symmetry_equiv_pos_site_id
 _symmetry_equiv_pos_as_xyz
  1  'x, y, z'
loop_
 _atom_site_type_symbol
 _atom_site_label
 _atom_site_symmetry_multiplicity
 _atom_site_fract_x
 _atom_site_fract_y
 _atom_site_fract_z
 _atom_site_occupancy
  Sn  Sn0  1  0.50000000  0.50000000  0.00000000  1
  Sn  Sn1  1  0.00000000  0.00000000  0.50000000  1
  Pt  Pt2  1  0.00000000  0.00000000  0.00000000  1
  Pt  Pt3  1  0.50000000  0.50000000  0.50000000  1
  N  N4  1  0.14726000  0.10256300  0.12239600  1
  N  N5  1  0.85274000  0.89743700  0.87760400  1
  N  N6  1  0.35274000  0.39743700  0.62239600  1
  N  N7  1  0.39743700  0.35274000  0.37760400  1
  N  N8  1  0.64726000  0.60256300  0.37760400  1
  N  N9  1  0.60256300  0.64726000  0.62239600  1
  N  N10  1  0.10256300  0.14726000  0.87760400  1
  N  N11  1  0.89743700  0.85274000  0.12239600  1
  Cl  Cl12  1  0.82590300  0.17409700  0.38638100  1
  Cl  Cl13  1  0.17409700  0.82590300  0.61361900  1
  Cl  Cl14  1  0.67409700  0.32590300  0.88638100  1
  Cl  Cl15  1  0.32590300  0.67409700  0.11361900  1
  Cl  Cl16  1  0.82324700  0.63113500  0.10720900  1
  Cl  Cl17  1  0.17675300  0.36886500  0.89279100  1
  Cl  Cl18  1  0.67675300  0.86886500  0.60720900  1
  Cl  Cl19  1  0.86886500  0.67675300  0.39279100  1
  Cl  Cl20  1  0.32324700  0.13113500  0.39279100  1
  Cl  Cl21  1  0.13113500  0.32324700  0.60720900  1
  Cl  Cl22  1  0.63113500  0.82324700  0.89279100  1
  Cl  Cl23  1  0.36886500  0.17675300  0.10720900  1
