# generated using pymatgen
data_Rb2UI5
_symmetry_space_group_name_H-M   'P 1'
_cell_length_a   9.40220900
_cell_length_b   9.99161300
_cell_length_c   15.32023200
_cell_angle_alpha   90.00000000
_cell_angle_beta   90.00000000
_cell_angle_gamma   90.00000000
_symmetry_Int_Tables_number   1
_chemical_formula_structural   Rb2UI5
_chemical_formula_sum   'Rb8 U4 I20'
_cell_volume   1439.23213470
_cell_formula_units_Z   4
loop_
 _symmetry_equiv_pos_site_id
 _symmetry_equiv_pos_as_xyz
  1  'x, y, z'
loop_
 _atom_site_type_symbol
 _atom_site_label
 _atom_site_symmetry_multiplicity
 _atom_site_fract_x
 _atom_site_fract_y
 _atom_site_fract_z
 _atom_site_occupancy
  Rb  Rb0  1  0.53716200  0.50165900  0.82510300  1
  Rb  Rb1  1  0.46283800  0.49834100  0.17489700  1
  Rb  Rb2  1  0.03716200  0.49834100  0.67489700  1
  Rb  Rb3  1  0.46283800  0.00165900  0.17489700  1
  Rb  Rb4  1  0.96283800  0.50165900  0.32510300  1
  Rb  Rb5  1  0.53716200  0.99834100  0.82510300  1
  Rb  Rb6  1  0.96283800  0.99834100  0.32510300  1
  Rb  Rb7  1  0.03716200  0.00165900  0.67489700  1
  U  U8  1  0.57368100  0.75000000  0.50143100  1
  U  U9  1  0.42631900  0.25000000  0.49856900  1
  U  U10  1  0.07368100  0.25000000  0.99856900  1
  U  U11  1  0.92631900  0.75000000  0.00143100  1
  I  I12  1  0.83020800  0.75000000  0.80185300  1
  I  I13  1  0.16979200  0.25000000  0.19814700  1
  I  I14  1  0.33020800  0.25000000  0.69814700  1
  I  I15  1  0.66979200  0.75000000  0.30185300  1
  I  I16  1  0.36454000  0.75000000  0.66615000  1
  I  I17  1  0.63546000  0.25000000  0.33385000  1
  I  I18  1  0.86454000  0.25000000  0.83385000  1
  I  I19  1  0.13546000  0.75000000  0.16615000  1
  I  I20  1  0.91627500  0.75000000  0.51190400  1
  I  I21  1  0.08372500  0.25000000  0.48809600  1
  I  I22  1  0.41627500  0.25000000  0.98809600  1
  I  I23  1  0.58372500  0.75000000  0.01190400  1
  I  I24  1  0.65512600  0.04241600  0.58030400  1
  I  I25  1  0.34487400  0.95758400  0.41969600  1
  I  I26  1  0.15512600  0.95758400  0.91969600  1
  I  I27  1  0.34487400  0.54241600  0.41969600  1
  I  I28  1  0.84487400  0.04241600  0.08030400  1
  I  I29  1  0.65512600  0.45758400  0.58030400  1
  I  I30  1  0.84487400  0.45758400  0.08030400  1
  I  I31  1  0.15512600  0.54241600  0.91969600  1
