# generated using pymatgen
data_Rb2ErCl5
_symmetry_space_group_name_H-M   'P 1'
_cell_length_a   7.43571900
_cell_length_b   9.56247400
_cell_length_c   14.96661700
_cell_angle_alpha   90.00000000
_cell_angle_beta   90.00000000
_cell_angle_gamma   90.00000000
_symmetry_Int_Tables_number   1
_chemical_formula_structural   Rb2ErCl5
_chemical_formula_sum   'Rb8 Er4 Cl20'
_cell_volume   1064.18438365
_cell_formula_units_Z   4
loop_
 _symmetry_equiv_pos_site_id
 _symmetry_equiv_pos_as_xyz
  1  'x, y, z'
loop_
 _atom_site_type_symbol
 _atom_site_label
 _atom_site_symmetry_multiplicity
 _atom_site_fract_x
 _atom_site_fract_y
 _atom_site_fract_z
 _atom_site_occupancy
  Rb  Rb0  1  0.25000000  0.66412900  0.91670100  1
  Rb  Rb1  1  0.75000000  0.33587100  0.08329900  1
  Rb  Rb2  1  0.75000000  0.83587100  0.41670100  1
  Rb  Rb3  1  0.25000000  0.16412900  0.58329900  1
  Rb  Rb4  1  0.25000000  0.97641300  0.21227000  1
  Rb  Rb5  1  0.75000000  0.02358700  0.78773000  1
  Rb  Rb6  1  0.75000000  0.52358700  0.71227000  1
  Rb  Rb7  1  0.25000000  0.47641300  0.28773000  1
  Er  Er8  1  0.25000000  0.67891400  0.56544100  1
  Er  Er9  1  0.75000000  0.32108600  0.43455900  1
  Er  Er10  1  0.75000000  0.82108600  0.06544100  1
  Er  Er11  1  0.25000000  0.17891400  0.93455900  1
  Cl  Cl12  1  0.25000000  0.51911000  0.70401200  1
  Cl  Cl13  1  0.75000000  0.48089000  0.29598800  1
  Cl  Cl14  1  0.75000000  0.98089000  0.20401200  1
  Cl  Cl15  1  0.25000000  0.01911000  0.79598800  1
  Cl  Cl16  1  0.50665900  0.83505800  0.61860200  1
  Cl  Cl17  1  0.49334100  0.16494200  0.38139800  1
  Cl  Cl18  1  0.49334100  0.66494200  0.11860200  1
  Cl  Cl19  1  0.00665900  0.16494200  0.38139800  1
  Cl  Cl20  1  0.50665900  0.33505800  0.88139800  1
  Cl  Cl21  1  0.99334100  0.83505800  0.61860200  1
  Cl  Cl22  1  0.99334100  0.33505800  0.88139800  1
  Cl  Cl23  1  0.00665900  0.66494200  0.11860200  1
  Cl  Cl24  1  0.25000000  0.78752100  0.40376600  1
  Cl  Cl25  1  0.75000000  0.21247900  0.59623400  1
  Cl  Cl26  1  0.75000000  0.71247900  0.90376600  1
  Cl  Cl27  1  0.25000000  0.28752100  0.09623400  1
  Cl  Cl28  1  0.00000000  0.50000000  0.50000000  1
  Cl  Cl29  1  0.00000000  0.00000000  0.00000000  1
  Cl  Cl30  1  0.50000000  0.50000000  0.50000000  1
  Cl  Cl31  1  0.50000000  0.00000000  0.00000000  1
