# generated using pymatgen
data_Pr7(S2Cl3)3
_symmetry_space_group_name_H-M   'P 1'
_cell_length_a   6.77543000
_cell_length_b   7.06876800
_cell_length_c   24.68605443
_cell_angle_alpha   82.22902213
_cell_angle_beta   90.00000000
_cell_angle_gamma   90.00000000
_symmetry_Int_Tables_number   1
_chemical_formula_structural   Pr7(S2Cl3)3
_chemical_formula_sum   'Pr14 S12 Cl18'
_cell_volume   1171.45466120
_cell_formula_units_Z   2
loop_
 _symmetry_equiv_pos_site_id
 _symmetry_equiv_pos_as_xyz
  1  'x, y, z'
loop_
 _atom_site_type_symbol
 _atom_site_label
 _atom_site_symmetry_multiplicity
 _atom_site_fract_x
 _atom_site_fract_y
 _atom_site_fract_z
 _atom_site_occupancy
  Pr  Pr0  1  0.69502500  0.37609500  0.35667600  1
  Pr  Pr1  1  0.30497500  0.62390500  0.64332400  1
  Pr  Pr2  1  0.69502500  0.12390500  0.64332400  1
  Pr  Pr3  1  0.30497500  0.87609500  0.35667600  1
  Pr  Pr4  1  0.71650200  0.50764500  0.07847900  1
  Pr  Pr5  1  0.28349800  0.49235500  0.92152100  1
  Pr  Pr6  1  0.71650200  0.99235500  0.92152100  1
  Pr  Pr7  1  0.28349800  0.00764500  0.07847900  1
  Pr  Pr8  1  0.69615700  0.86352500  0.21538600  1
  Pr  Pr9  1  0.30384300  0.13647500  0.78461400  1
  Pr  Pr10  1  0.69615700  0.63647500  0.78461400  1
  Pr  Pr11  1  0.30384300  0.36352500  0.21538600  1
  Pr  Pr12  1  0.71184800  0.75000000  0.50000000  1
  Pr  Pr13  1  0.28815200  0.25000000  0.50000000  1
  S  S14  1  0.46437800  0.92616200  0.57200400  1
  S  S15  1  0.53562200  0.07383800  0.42799600  1
  S  S16  1  0.46437800  0.57383800  0.42799600  1
  S  S17  1  0.53562200  0.42616200  0.57200400  1
  S  S18  1  0.44804700  0.61784700  0.28200300  1
  S  S19  1  0.55195300  0.38215300  0.71799700  1
  S  S20  1  0.44804700  0.88215300  0.71799700  1
  S  S21  1  0.55195300  0.11784700  0.28200300  1
  S  S22  1  0.44640400  0.68857100  0.13936800  1
  S  S23  1  0.55359600  0.31142900  0.86063200  1
  S  S24  1  0.44640400  0.81142900  0.86063200  1
  S  S25  1  0.55359600  0.18857100  0.13936800  1
  Cl  Cl26  1  0.92904900  0.73382000  0.31188900  1
  Cl  Cl27  1  0.07095100  0.26618000  0.68811100  1
  Cl  Cl28  1  0.92904900  0.76618000  0.68811100  1
  Cl  Cl29  1  0.07095100  0.23382000  0.31188900  1
  Cl  Cl30  1  0.95200600  0.43950100  0.44103400  1
  Cl  Cl31  1  0.04799400  0.56049900  0.55896600  1
  Cl  Cl32  1  0.95200600  0.06049900  0.55896600  1
  Cl  Cl33  1  0.04799400  0.93950100  0.44103400  1
  Cl  Cl34  1  0.44439600  0.75000000  0.00000000  1
  Cl  Cl35  1  0.55560400  0.25000000  0.00000000  1
  Cl  Cl36  1  0.89470300  0.87676600  0.05848700  1
  Cl  Cl37  1  0.10529700  0.12323400  0.94151300  1
  Cl  Cl38  1  0.89470300  0.62323400  0.94151300  1
  Cl  Cl39  1  0.10529700  0.37676600  0.05848700  1
  Cl  Cl40  1  0.91200600  0.52901300  0.18132800  1
  Cl  Cl41  1  0.08799400  0.47098700  0.81867200  1
  Cl  Cl42  1  0.91200600  0.97098700  0.81867200  1
  Cl  Cl43  1  0.08799400  0.02901300  0.18132800  1
