# generated using pymatgen
data_Rb3SbF12
_symmetry_space_group_name_H-M   'P 1'
_cell_length_a   8.29799429
_cell_length_b   8.74990426
_cell_length_c   7.18671120
_cell_angle_alpha   68.89503710
_cell_angle_beta   139.40913568
_cell_angle_gamma   118.30573283
_symmetry_Int_Tables_number   1
_chemical_formula_structural   Rb3SbF12
_chemical_formula_sum   'Rb3 Sb1 F12'
_cell_volume   298.91722978
_cell_formula_units_Z   1
loop_
 _symmetry_equiv_pos_site_id
 _symmetry_equiv_pos_as_xyz
  1  'x, y, z'
loop_
 _atom_site_type_symbol
 _atom_site_label
 _atom_site_symmetry_multiplicity
 _atom_site_fract_x
 _atom_site_fract_y
 _atom_site_fract_z
 _atom_site_occupancy
  Rb  Rb0  1  0.00000000  0.00000000  0.50000000  1
  Rb  Rb1  1  0.50000000  0.50000000  0.00000000  1
  Rb  Rb2  1  0.00000000  0.50000000  0.00000000  1
  Sb  Sb3  1  0.00000000  0.00000000  0.00000000  1
  F  F4  1  0.10574300  0.84412500  0.99291100  1
  F  F5  1  0.89425700  0.15587500  0.00708900  1
  F  F6  1  0.81112000  0.15472600  0.61177300  1
  F  F7  1  0.73838200  0.84412500  0.00708900  1
  F  F8  1  0.18888000  0.84527400  0.38822700  1
  F  F9  1  0.26161800  0.15587500  0.99291100  1
  F  F10  1  0.61204800  0.67608000  0.43132400  1
  F  F11  1  0.34360600  0.15472600  0.38822700  1
  F  F12  1  0.38795200  0.32392000  0.56867600  1
  F  F13  1  0.65639400  0.84527400  0.61177300  1
  F  F14  1  0.06403300  0.67608000  0.56867600  1
  F  F15  1  0.93596700  0.32392000  0.43132400  1
