# generated using pymatgen
data_Rb2Na2Al3(SiO4)3
_symmetry_space_group_name_H-M   'P 1'
_cell_length_a   5.29315300
_cell_length_b   8.33480200
_cell_length_c   15.50088900
_cell_angle_alpha   90.00000000
_cell_angle_beta   90.00000000
_cell_angle_gamma   90.00000000
_symmetry_Int_Tables_number   1
_chemical_formula_structural   Rb2Na2Al3(SiO4)3
_chemical_formula_sum   'Rb4 Na4 Al6 Si6 O24'
_cell_volume   683.85864462
_cell_formula_units_Z   2
loop_
 _symmetry_equiv_pos_site_id
 _symmetry_equiv_pos_as_xyz
  1  'x, y, z'
loop_
 _atom_site_type_symbol
 _atom_site_label
 _atom_site_symmetry_multiplicity
 _atom_site_fract_x
 _atom_site_fract_y
 _atom_site_fract_z
 _atom_site_occupancy
  Rb  Rb0  1  0.83027500  0.34606800  0.78613000  1
  Rb  Rb1  1  0.33027500  0.65393200  0.71387000  1
  Rb  Rb2  1  0.33027500  0.65393200  0.28613000  1
  Rb  Rb3  1  0.83027500  0.34606800  0.21387000  1
  Na  Na4  1  0.80529200  0.17217500  0.00000000  1
  Na  Na5  1  0.30529200  0.82782500  0.50000000  1
  Na  Na6  1  0.31610100  0.82663500  0.00000000  1
  Na  Na7  1  0.81610100  0.17336500  0.50000000  1
  Al  Al8  1  0.84283300  0.89405900  0.85473600  1
  Al  Al9  1  0.34283300  0.10594100  0.64526400  1
  Al  Al10  1  0.34283300  0.10594100  0.35473600  1
  Al  Al11  1  0.84283300  0.89405900  0.14526400  1
  Al  Al12  1  0.33676500  0.40057800  0.00000000  1
  Al  Al13  1  0.83676500  0.59942200  0.50000000  1
  Si  Si14  1  0.84108300  0.61496100  0.00000000  1
  Si  Si15  1  0.34108300  0.38503900  0.50000000  1
  Si  Si16  1  0.84205900  0.88967700  0.64172900  1
  Si  Si17  1  0.34205900  0.11032300  0.85827100  1
  Si  Si18  1  0.34205900  0.11032300  0.14172900  1
  Si  Si19  1  0.84205900  0.88967700  0.35827100  1
  O  O20  1  0.00822500  0.44666000  0.00000000  1
  O  O21  1  0.50822500  0.55334000  0.50000000  1
  O  O22  1  0.92018200  0.72221100  0.91510200  1
  O  O23  1  0.42018200  0.27778900  0.58489800  1
  O  O24  1  0.42018200  0.27778900  0.41510200  1
  O  O25  1  0.92018200  0.72221100  0.08489800  1
  O  O26  1  0.53707700  0.57134600  0.00000000  1
  O  O27  1  0.03707700  0.42865400  0.50000000  1
  O  O28  1  0.54416300  0.96999100  0.88735500  1
  O  O29  1  0.04416300  0.03000900  0.61264500  1
  O  O30  1  0.04416300  0.03000900  0.38735500  1
  O  O31  1  0.54416300  0.96999100  0.11264500  1
  O  O32  1  0.86217900  0.84809100  0.74453000  1
  O  O33  1  0.36217900  0.15190900  0.75547000  1
  O  O34  1  0.36217900  0.15190900  0.24453000  1
  O  O35  1  0.86217900  0.84809100  0.25547000  1
  O  O36  1  0.55521800  0.94820300  0.61519400  1
  O  O37  1  0.05521800  0.05179700  0.88480600  1
  O  O38  1  0.05521800  0.05179700  0.11519400  1
  O  O39  1  0.55521800  0.94820300  0.38480600  1
  O  O40  1  0.91381800  0.72375000  0.58956700  1
  O  O41  1  0.41381800  0.27625000  0.91043300  1
  O  O42  1  0.41381800  0.27625000  0.08956700  1
  O  O43  1  0.91381800  0.72375000  0.41043300  1
