# generated using pymatgen
data_Ni2Mo3O8
_symmetry_space_group_name_H-M   'P 1'
_cell_length_a   5.83864981
_cell_length_b   5.83864981
_cell_length_c   10.03440100
_cell_angle_alpha   90.00000000
_cell_angle_beta   90.00000000
_cell_angle_gamma   119.99999780
_symmetry_Int_Tables_number   1
_chemical_formula_structural   Ni2Mo3O8
_chemical_formula_sum   'Ni4 Mo6 O16'
_cell_volume   296.24221700
_cell_formula_units_Z   2
loop_
 _symmetry_equiv_pos_site_id
 _symmetry_equiv_pos_as_xyz
  1  'x, y, z'
loop_
 _atom_site_type_symbol
 _atom_site_label
 _atom_site_symmetry_multiplicity
 _atom_site_fract_x
 _atom_site_fract_y
 _atom_site_fract_z
 _atom_site_occupancy
  Ni  Ni0  1  0.66666700  0.33333300  0.94130900  1
  Ni  Ni1  1  0.33333300  0.66666700  0.44130900  1
  Ni  Ni2  1  0.66666700  0.33333300  0.37565000  1
  Ni  Ni3  1  0.33333300  0.66666700  0.87565000  1
  Mo  Mo4  1  0.85394800  0.70789700  0.63927800  1
  Mo  Mo5  1  0.85394800  0.14605200  0.63927800  1
  Mo  Mo6  1  0.14605200  0.29210300  0.13927800  1
  Mo  Mo7  1  0.29210300  0.14605200  0.63927800  1
  Mo  Mo8  1  0.14605200  0.85394800  0.13927800  1
  Mo  Mo9  1  0.70789700  0.85394800  0.13927800  1
  O  O10  1  0.51175500  0.02351000  0.52238900  1
  O  O11  1  0.51175500  0.48824500  0.52238900  1
  O  O12  1  0.48824500  0.97649000  0.02238900  1
  O  O13  1  0.97649000  0.48824500  0.52238900  1
  O  O14  1  0.48824500  0.51175500  0.02238900  1
  O  O15  1  0.02351000  0.51175500  0.02238900  1
  O  O16  1  0.16892400  0.33784700  0.75597600  1
  O  O17  1  0.16892400  0.83107600  0.75597600  1
  O  O18  1  0.83107600  0.66215300  0.25597600  1
  O  O19  1  0.66215300  0.83107600  0.75597600  1
  O  O20  1  0.83107600  0.16892400  0.25597600  1
  O  O21  1  0.33784700  0.16892400  0.25597600  1
  O  O22  1  0.00000000  0.00000000  0.99597100  1
  O  O23  1  0.00000000  0.00000000  0.49597100  1
  O  O24  1  0.66666700  0.33333300  0.74274200  1
  O  O25  1  0.33333300  0.66666700  0.24274200  1
