# generated using pymatgen
data_PNF6
_symmetry_space_group_name_H-M   'P 1'
_cell_length_a   7.67071200
_cell_length_b   7.67071200
_cell_length_c   7.67071200
_cell_angle_alpha   90.00000000
_cell_angle_beta   90.00000000
_cell_angle_gamma   90.00000000
_symmetry_Int_Tables_number   1
_chemical_formula_structural   PNF6
_chemical_formula_sum   'P4 N4 F24'
_cell_volume   451.34333320
_cell_formula_units_Z   4
loop_
 _symmetry_equiv_pos_site_id
 _symmetry_equiv_pos_as_xyz
  1  'x, y, z'
loop_
 _atom_site_type_symbol
 _atom_site_label
 _atom_site_symmetry_multiplicity
 _atom_site_fract_x
 _atom_site_fract_y
 _atom_site_fract_z
 _atom_site_occupancy
  P  P0  1  0.50000000  0.50000000  0.50000000  1
  P  P1  1  0.00000000  0.50000000  0.00000000  1
  P  P2  1  0.50000000  0.00000000  0.00000000  1
  P  P3  1  0.00000000  0.00000000  0.50000000  1
  N  N4  1  0.00000000  0.00000000  0.00000000  1
  N  N5  1  0.50000000  0.00000000  0.50000000  1
  N  N6  1  0.00000000  0.50000000  0.50000000  1
  N  N7  1  0.50000000  0.50000000  0.00000000  1
  F  F8  1  0.05163600  0.43031800  0.19460300  1
  F  F9  1  0.94836400  0.56968200  0.80539700  1
  F  F10  1  0.44836400  0.56968200  0.69460300  1
  F  F11  1  0.94836400  0.93031800  0.30539700  1
  F  F12  1  0.19460300  0.05163600  0.43031800  1
  F  F13  1  0.55163600  0.43031800  0.30539700  1
  F  F14  1  0.05163600  0.06968200  0.69460300  1
  F  F15  1  0.80539700  0.94836400  0.56968200  1
  F  F16  1  0.55163600  0.06968200  0.80539700  1
  F  F17  1  0.69460300  0.44836400  0.56968200  1
  F  F18  1  0.44836400  0.93031800  0.19460300  1
  F  F19  1  0.30539700  0.55163600  0.43031800  1
  F  F20  1  0.30539700  0.94836400  0.93031800  1
  F  F21  1  0.69460300  0.05163600  0.06968200  1
  F  F22  1  0.80539700  0.55163600  0.06968200  1
  F  F23  1  0.19460300  0.44836400  0.93031800  1
  F  F24  1  0.43031800  0.19460300  0.05163600  1
  F  F25  1  0.56968200  0.80539700  0.94836400  1
  F  F26  1  0.93031800  0.30539700  0.94836400  1
  F  F27  1  0.06968200  0.69460300  0.05163600  1
  F  F28  1  0.06968200  0.80539700  0.55163600  1
  F  F29  1  0.93031800  0.19460300  0.44836400  1
  F  F30  1  0.56968200  0.69460300  0.44836400  1
  F  F31  1  0.43031800  0.30539700  0.55163600  1
