# generated using pymatgen
data_Rb2Be2Cd(O3F4)2
_symmetry_space_group_name_H-M   'P 1'
_cell_length_a   6.50994993
_cell_length_b   8.53235826
_cell_length_c   11.68113800
_cell_angle_alpha   90.00000000
_cell_angle_beta   90.00000000
_cell_angle_gamma   108.96202779
_symmetry_Int_Tables_number   1
_chemical_formula_structural   Rb2Be2Cd(O3F4)2
_chemical_formula_sum   'Rb4 Be4 Cd2 O12 F16'
_cell_volume   613.62203992
_cell_formula_units_Z   2
loop_
 _symmetry_equiv_pos_site_id
 _symmetry_equiv_pos_as_xyz
  1  'x, y, z'
loop_
 _atom_site_type_symbol
 _atom_site_label
 _atom_site_symmetry_multiplicity
 _atom_site_fract_x
 _atom_site_fract_y
 _atom_site_fract_z
 _atom_site_occupancy
  Rb  Rb0  1  0.86009400  0.58350600  0.13867900  1
  Rb  Rb1  1  0.13990600  0.41649400  0.86132100  1
  Rb  Rb2  1  0.13990600  0.91649400  0.63867900  1
  Rb  Rb3  1  0.86009400  0.08350600  0.36132100  1
  Be  Be4  1  0.75497600  0.59352100  0.83416400  1
  Be  Be5  1  0.24502400  0.40647900  0.16583600  1
  Be  Be6  1  0.24502400  0.90647900  0.33416400  1
  Be  Be7  1  0.75497600  0.09352100  0.66583600  1
  Cd  Cd8  1  0.50000000  0.00000000  0.00000000  1
  Cd  Cd9  1  0.50000000  0.50000000  0.50000000  1
  O  O10  1  0.26895700  0.87654600  0.87164200  1
  O  O11  1  0.73104300  0.12345400  0.12835800  1
  O  O12  1  0.73104300  0.62345400  0.37164200  1
  O  O13  1  0.26895700  0.37654600  0.62835800  1
  O  O14  1  0.42717400  0.65706600  0.63520900  1
  O  O15  1  0.57282600  0.34293400  0.36479100  1
  O  O16  1  0.57282600  0.84293400  0.13520900  1
  O  O17  1  0.42717400  0.15706600  0.86479100  1
  O  O18  1  0.85633400  0.96659200  0.95125500  1
  O  O19  1  0.14366600  0.03340800  0.04874500  1
  O  O20  1  0.14366600  0.53340800  0.45125500  1
  O  O21  1  0.85633400  0.46659200  0.54874500  1
  F  F22  1  0.54717900  0.63658500  0.80329600  1
  F  F23  1  0.45282100  0.36341500  0.19670400  1
  F  F24  1  0.45282100  0.86341500  0.30329600  1
  F  F25  1  0.54717900  0.13658500  0.69670400  1
  F  F26  1  0.70874800  0.94042500  0.58838800  1
  F  F27  1  0.29125200  0.05957500  0.41161200  1
  F  F28  1  0.29125200  0.55957500  0.08838800  1
  F  F29  1  0.70874800  0.44042500  0.91161200  1
  F  F30  1  0.90362300  0.73828900  0.92104100  1
  F  F31  1  0.09637700  0.26171100  0.07895900  1
  F  F32  1  0.09637700  0.76171100  0.42104100  1
  F  F33  1  0.90362300  0.23828900  0.57895900  1
  F  F34  1  0.89979000  0.59315200  0.72981900  1
  F  F35  1  0.10021000  0.40684800  0.27018100  1
  F  F36  1  0.10021000  0.90684800  0.22981900  1
  F  F37  1  0.89979000  0.09315200  0.77018100  1
