# generated using pymatgen
data_Rb2Be2Ni(O3F4)2
_symmetry_space_group_name_H-M   'P 1'
_cell_length_a   5.99075163
_cell_length_b   8.44004706
_cell_length_c   11.66376500
_cell_angle_alpha   90.00000000
_cell_angle_beta   90.00000000
_cell_angle_gamma   102.80661849
_symmetry_Int_Tables_number   1
_chemical_formula_structural   Rb2Be2Ni(O3F4)2
_chemical_formula_sum   'Rb4 Be4 Ni2 O12 F16'
_cell_volume   575.07525529
_cell_formula_units_Z   2
loop_
 _symmetry_equiv_pos_site_id
 _symmetry_equiv_pos_as_xyz
  1  'x, y, z'
loop_
 _atom_site_type_symbol
 _atom_site_label
 _atom_site_symmetry_multiplicity
 _atom_site_fract_x
 _atom_site_fract_y
 _atom_site_fract_z
 _atom_site_occupancy
  Rb  Rb0  1  0.84682100  0.61192800  0.14480400  1
  Rb  Rb1  1  0.15317900  0.38807200  0.85519600  1
  Rb  Rb2  1  0.15317900  0.88807200  0.64480400  1
  Rb  Rb3  1  0.84682100  0.11192800  0.35519600  1
  Be  Be4  1  0.74167400  0.61221100  0.84532500  1
  Be  Be5  1  0.25832600  0.38778900  0.15467500  1
  Be  Be6  1  0.25832600  0.88778900  0.34532500  1
  Be  Be7  1  0.74167400  0.11221100  0.65467500  1
  Ni  Ni8  1  0.50000000  0.00000000  0.00000000  1
  Ni  Ni9  1  0.50000000  0.50000000  0.50000000  1
  O  O10  1  0.33668500  0.85881400  0.89611100  1
  O  O11  1  0.66331500  0.14118600  0.10388900  1
  O  O12  1  0.66331500  0.64118600  0.39611100  1
  O  O13  1  0.33668500  0.35881400  0.60388900  1
  O  O14  1  0.41079600  0.61729100  0.61570500  1
  O  O15  1  0.58920400  0.38270900  0.38429500  1
  O  O16  1  0.58920400  0.88270900  0.11570500  1
  O  O17  1  0.41079600  0.11729100  0.88429500  1
  O  O18  1  0.78082600  0.99926000  0.93128800  1
  O  O19  1  0.21917400  0.00074000  0.06871200  1
  O  O20  1  0.21917400  0.50074000  0.43128800  1
  O  O21  1  0.78082600  0.49926000  0.56871200  1
  F  F22  1  0.51403200  0.64835200  0.80027800  1
  F  F23  1  0.48596800  0.35164800  0.19972200  1
  F  F24  1  0.48596800  0.85164800  0.30027800  1
  F  F25  1  0.51403200  0.14835200  0.69972200  1
  F  F26  1  0.71736100  0.96587900  0.57655000  1
  F  F27  1  0.28263900  0.03412100  0.42345000  1
  F  F28  1  0.28263900  0.53412100  0.07655000  1
  F  F29  1  0.71736100  0.46587900  0.92345000  1
  F  F30  1  0.87085600  0.76670700  0.92011100  1
  F  F31  1  0.12914400  0.23329300  0.07988900  1
  F  F32  1  0.12914400  0.73329300  0.42011100  1
  F  F33  1  0.87085600  0.26670700  0.57988900  1
  F  F34  1  0.89808800  0.59456800  0.73980400  1
  F  F35  1  0.10191200  0.40543200  0.26019600  1
  F  F36  1  0.10191200  0.90543200  0.23980400  1
  F  F37  1  0.89808800  0.09456800  0.76019600  1
