# generated using pymatgen
data_Pr3CrS6
_symmetry_space_group_name_H-M   'P 1'
_cell_length_a   3.93354300
_cell_length_b   13.75115400
_cell_length_c   16.36349500
_cell_angle_alpha   90.00000000
_cell_angle_beta   90.00000000
_cell_angle_gamma   90.00000000
_symmetry_Int_Tables_number   1
_chemical_formula_structural   Pr3CrS6
_chemical_formula_sum   'Pr12 Cr4 S24'
_cell_volume   885.11380813
_cell_formula_units_Z   4
loop_
 _symmetry_equiv_pos_site_id
 _symmetry_equiv_pos_as_xyz
  1  'x, y, z'
loop_
 _atom_site_type_symbol
 _atom_site_label
 _atom_site_symmetry_multiplicity
 _atom_site_fract_x
 _atom_site_fract_y
 _atom_site_fract_z
 _atom_site_occupancy
  Pr  Pr0  1  0.00000000  0.55050600  0.28207700  1
  Pr  Pr1  1  0.00000000  0.44949400  0.71792300  1
  Pr  Pr2  1  0.50000000  0.94949400  0.78207700  1
  Pr  Pr3  1  0.50000000  0.05050600  0.21792300  1
  Pr  Pr4  1  0.00000000  0.75778600  0.09616100  1
  Pr  Pr5  1  0.00000000  0.24221400  0.90383900  1
  Pr  Pr6  1  0.50000000  0.74221400  0.59616100  1
  Pr  Pr7  1  0.50000000  0.25778600  0.40383900  1
  Pr  Pr8  1  0.00000000  0.31948100  0.14773100  1
  Pr  Pr9  1  0.00000000  0.68051900  0.85226900  1
  Pr  Pr10  1  0.50000000  0.18051900  0.64773100  1
  Pr  Pr11  1  0.50000000  0.81948100  0.35226900  1
  Cr  Cr12  1  0.00000000  0.00000000  0.50000000  1
  Cr  Cr13  1  0.50000000  0.50000000  0.00000000  1
  Cr  Cr14  1  0.00000000  0.00000000  0.00000000  1
  Cr  Cr15  1  0.50000000  0.50000000  0.50000000  1
  S  S16  1  0.00000000  0.12172900  0.10196500  1
  S  S17  1  0.00000000  0.87827100  0.89803500  1
  S  S18  1  0.50000000  0.37827100  0.60196500  1
  S  S19  1  0.50000000  0.62172900  0.39803500  1
  S  S20  1  0.00000000  0.18648100  0.28928900  1
  S  S21  1  0.00000000  0.81351900  0.71071100  1
  S  S22  1  0.50000000  0.31351900  0.78928900  1
  S  S23  1  0.50000000  0.68648100  0.21071100  1
  S  S24  1  0.00000000  0.17509400  0.51947000  1
  S  S25  1  0.00000000  0.82490600  0.48053000  1
  S  S26  1  0.50000000  0.32490600  0.01947000  1
  S  S27  1  0.50000000  0.67509400  0.98053000  1
  S  S28  1  0.00000000  0.52390800  0.09429800  1
  S  S29  1  0.00000000  0.47609200  0.90570200  1
  S  S30  1  0.50000000  0.97609200  0.59429800  1
  S  S31  1  0.50000000  0.02390800  0.40570200  1
  S  S32  1  0.00000000  0.10356100  0.75566200  1
  S  S33  1  0.00000000  0.89643900  0.24433800  1
  S  S34  1  0.50000000  0.39643900  0.25566200  1
  S  S35  1  0.50000000  0.60356100  0.74433800  1
  S  S36  1  0.00000000  0.42082700  0.43000200  1
  S  S37  1  0.00000000  0.57917300  0.56999800  1
  S  S38  1  0.50000000  0.07917300  0.93000200  1
  S  S39  1  0.50000000  0.92082700  0.06999800  1
