# generated using pymatgen
data_Pr4NiS7
_symmetry_space_group_name_H-M   'P 1'
_cell_length_a   10.05146609
_cell_length_b   10.05146609
_cell_length_c   6.73346300
_cell_angle_alpha   90.00000000
_cell_angle_beta   90.00000000
_cell_angle_gamma   120.00000056
_symmetry_Int_Tables_number   1
_chemical_formula_structural   Pr4NiS7
_chemical_formula_sum   'Pr8 Ni2 S14'
_cell_volume   589.15277901
_cell_formula_units_Z   2
loop_
 _symmetry_equiv_pos_site_id
 _symmetry_equiv_pos_as_xyz
  1  'x, y, z'
loop_
 _atom_site_type_symbol
 _atom_site_label
 _atom_site_symmetry_multiplicity
 _atom_site_fract_x
 _atom_site_fract_y
 _atom_site_fract_z
 _atom_site_occupancy
  Pr  Pr0  1  0.66666700  0.33333300  0.82428000  1
  Pr  Pr1  1  0.33333300  0.66666700  0.32428000  1
  Pr  Pr2  1  0.62986900  0.85758200  0.78136800  1
  Pr  Pr3  1  0.22771400  0.37013100  0.78136800  1
  Pr  Pr4  1  0.37013100  0.14241800  0.28136800  1
  Pr  Pr5  1  0.14241800  0.77228600  0.78136800  1
  Pr  Pr6  1  0.77228600  0.62986900  0.28136800  1
  Pr  Pr7  1  0.85758200  0.22771400  0.28136800  1
  Ni  Ni8  1  0.00000000  0.00000000  0.98695900  1
  Ni  Ni9  1  0.00000000  0.00000000  0.48695900  1
  S  S10  1  0.49977100  0.57067900  0.53571100  1
  S  S11  1  0.07090800  0.50022900  0.53571100  1
  S  S12  1  0.50022900  0.42932100  0.03571100  1
  S  S13  1  0.42932100  0.92909200  0.53571100  1
  S  S14  1  0.92909200  0.49977100  0.03571100  1
  S  S15  1  0.57067900  0.07090800  0.03571100  1
  S  S16  1  0.66666700  0.33333300  0.42715300  1
  S  S17  1  0.33333300  0.66666700  0.92715300  1
  S  S18  1  0.91236400  0.13294900  0.70479000  1
  S  S19  1  0.22058400  0.08763600  0.70479000  1
  S  S20  1  0.08763600  0.86705100  0.20479000  1
  S  S21  1  0.86705100  0.77941600  0.70479000  1
  S  S22  1  0.77941600  0.91236400  0.20479000  1
  S  S23  1  0.13294900  0.22058400  0.20479000  1
