# generated using pymatgen
data_Nd2MnP2O
_symmetry_space_group_name_H-M   'P 1'
_cell_length_a   3.36850400
_cell_length_b   3.36850400
_cell_length_c   14.85386700
_cell_angle_alpha   90.00000000
_cell_angle_beta   90.00000000
_cell_angle_gamma   90.00000000
_symmetry_Int_Tables_number   1
_chemical_formula_structural   Nd2MnP2O
_chemical_formula_sum   'Nd2 Mn1 P2 O1'
_cell_volume   168.54414324
_cell_formula_units_Z   1
loop_
 _symmetry_equiv_pos_site_id
 _symmetry_equiv_pos_as_xyz
  1  'x, y, z'
loop_
 _atom_site_type_symbol
 _atom_site_label
 _atom_site_symmetry_multiplicity
 _atom_site_fract_x
 _atom_site_fract_y
 _atom_site_fract_z
 _atom_site_occupancy
  Nd  Nd0  1  0.50000000  0.50000000  0.64221900  1
  Nd  Nd1  1  0.50000000  0.50000000  0.35778100  1
  Mn  Mn2  1  0.50000000  0.50000000  0.00000000  1
  P  P3  1  0.50000000  0.50000000  0.15874400  1
  P  P4  1  0.50000000  0.50000000  0.84125600  1
  O  O5  1  0.50000000  0.50000000  0.50000000  1
