# generated using pymatgen
data_PHPbO4
_symmetry_space_group_name_H-M   'P 1'
_cell_length_a   6.66601600
_cell_length_b   4.79697700
_cell_length_c   5.85094689
_cell_angle_alpha   82.94056333
_cell_angle_beta   90.00000000
_cell_angle_gamma   90.00000000
_symmetry_Int_Tables_number   1
_chemical_formula_structural   PHPbO4
_chemical_formula_sum   'P2 H2 Pb2 O8'
_cell_volume   185.67579809
_cell_formula_units_Z   2
loop_
 _symmetry_equiv_pos_site_id
 _symmetry_equiv_pos_as_xyz
  1  'x, y, z'
loop_
 _atom_site_type_symbol
 _atom_site_label
 _atom_site_symmetry_multiplicity
 _atom_site_fract_x
 _atom_site_fract_y
 _atom_site_fract_z
 _atom_site_occupancy
  P  P0  1  0.71129500  0.00000000  0.75000000  1
  P  P1  1  0.28870500  0.00000000  0.25000000  1
  H  H2  1  0.00000000  0.00000000  0.50000000  1
  H  H3  1  0.00000000  0.00000000  0.00000000  1
  Pb  Pb4  1  0.30055000  0.50000000  0.75000000  1
  Pb  Pb5  1  0.69945000  0.50000000  0.25000000  1
  O  O6  1  0.58127700  0.75791300  0.87136200  1
  O  O7  1  0.41872300  0.24208700  0.12863800  1
  O  O8  1  0.58127700  0.24208700  0.62863800  1
  O  O9  1  0.41872300  0.75791300  0.37136200  1
  O  O10  1  0.84669500  0.88219700  0.56550400  1
  O  O11  1  0.15330500  0.11780300  0.43449600  1
  O  O12  1  0.84669500  0.11780300  0.93449600  1
  O  O13  1  0.15330500  0.88219700  0.06550400  1
