# generated using pymatgen
data_Pr3Ge5
_symmetry_space_group_name_H-M   'P 1'
_cell_length_a   11.50345313
_cell_length_b   9.52897333
_cell_length_c   7.71891657
_cell_angle_alpha   82.95064215
_cell_angle_beta   55.29515719
_cell_angle_gamma   41.75420065
_symmetry_Int_Tables_number   1
_chemical_formula_structural   Pr3Ge5
_chemical_formula_sum   'Pr6 Ge10'
_cell_volume   386.35560071
_cell_formula_units_Z   2
loop_
 _symmetry_equiv_pos_site_id
 _symmetry_equiv_pos_as_xyz
  1  'x, y, z'
loop_
 _atom_site_type_symbol
 _atom_site_label
 _atom_site_symmetry_multiplicity
 _atom_site_fract_x
 _atom_site_fract_y
 _atom_site_fract_z
 _atom_site_occupancy
  Pr  Pr0  1  0.12638100  0.03843600  0.49163300  1
  Pr  Pr1  1  0.49163300  0.34355000  0.12638100  1
  Pr  Pr2  1  0.21156400  0.12361900  0.90645000  1
  Pr  Pr3  1  0.90645000  0.75836700  0.21156400  1
  Pr  Pr4  1  0.55213100  0.44786900  0.55213100  1
  Pr  Pr5  1  0.80213100  0.69786900  0.80213100  1
  Ge  Ge6  1  0.79933300  0.52618800  0.47554000  1
  Ge  Ge7  1  0.47554000  0.19893800  0.79933300  1
  Ge  Ge8  1  0.72381200  0.45066700  0.05106200  1
  Ge  Ge9  1  0.05106200  0.77446000  0.72381200  1
  Ge  Ge10  1  0.33084600  0.30398400  0.58651300  1
  Ge  Ge11  1  0.58651300  0.77865700  0.33084600  1
  Ge  Ge12  1  0.94601600  0.91915400  0.47134300  1
  Ge  Ge13  1  0.47134300  0.66348700  0.94601600  1
  Ge  Ge14  1  0.99612200  0.00387800  0.99612200  1
  Ge  Ge15  1  0.24612200  0.25387800  0.24612200  1
