# generated using pymatgen
data_Nd9Ga4
_symmetry_space_group_name_H-M   'P 1'
_cell_length_a   8.91576380
_cell_length_b   8.91576380
_cell_length_c   8.91576380
_cell_angle_alpha   94.88549732
_cell_angle_beta   94.88549732
_cell_angle_gamma   146.06491018
_symmetry_Int_Tables_number   1
_chemical_formula_structural   Nd9Ga4
_chemical_formula_sum   'Nd9 Ga4'
_cell_volume   378.42379560
_cell_formula_units_Z   1
loop_
 _symmetry_equiv_pos_site_id
 _symmetry_equiv_pos_as_xyz
  1  'x, y, z'
loop_
 _atom_site_type_symbol
 _atom_site_label
 _atom_site_symmetry_multiplicity
 _atom_site_fract_x
 _atom_site_fract_y
 _atom_site_fract_z
 _atom_site_occupancy
  Nd  Nd0  1  0.90374200  0.37386200  0.27760500  1
  Nd  Nd1  1  0.09625800  0.62613800  0.72239500  1
  Nd  Nd2  1  0.37386200  0.09625800  0.47012000  1
  Nd  Nd3  1  0.62613800  0.90374200  0.52988000  1
  Nd  Nd4  1  0.00000000  0.00000000  0.00000000  1
  Nd  Nd5  1  0.61125500  0.31583800  0.92709300  1
  Nd  Nd6  1  0.38874500  0.68416200  0.07290700  1
  Nd  Nd7  1  0.31583800  0.38874500  0.70458300  1
  Nd  Nd8  1  0.68416200  0.61125500  0.29541700  1
  Ga  Ga9  1  0.76727400  0.11337200  0.88064700  1
  Ga  Ga10  1  0.23272600  0.88662800  0.11935300  1
  Ga  Ga11  1  0.11337200  0.23272600  0.34609800  1
  Ga  Ga12  1  0.88662800  0.76727400  0.65390200  1
