# generated using pymatgen
data_NdZrF7
_symmetry_space_group_name_H-M   'P 1'
_cell_length_a   5.86897600
_cell_length_b   6.31900368
_cell_length_c   8.52141582
_cell_angle_alpha   101.64828831
_cell_angle_beta   90.00000000
_cell_angle_gamma   90.00000000
_symmetry_Int_Tables_number   1
_chemical_formula_structural   NdZrF7
_chemical_formula_sum   'Nd2 Zr2 F14'
_cell_volume   309.51750082
_cell_formula_units_Z   2
loop_
 _symmetry_equiv_pos_site_id
 _symmetry_equiv_pos_as_xyz
  1  'x, y, z'
loop_
 _atom_site_type_symbol
 _atom_site_label
 _atom_site_symmetry_multiplicity
 _atom_site_fract_x
 _atom_site_fract_y
 _atom_site_fract_z
 _atom_site_occupancy
  Nd  Nd0  1  0.69908800  0.65713000  0.68681400  1
  Nd  Nd1  1  0.19908800  0.34287000  0.31318600  1
  Zr  Zr2  1  0.70836500  0.81158200  0.22404200  1
  Zr  Zr3  1  0.20836500  0.18841800  0.77595800  1
  F  F4  1  0.88575400  0.44992300  0.47444700  1
  F  F5  1  0.38575400  0.55007700  0.52555300  1
  F  F6  1  0.42214400  0.93109200  0.76897000  1
  F  F7  1  0.92214400  0.06890800  0.23103000  1
  F  F8  1  0.94749600  0.96842900  0.76082300  1
  F  F9  1  0.44749600  0.03157100  0.23917600  1
  F  F10  1  0.99869700  0.44977100  0.78626500  1
  F  F11  1  0.49869700  0.55022900  0.21373500  1
  F  F12  1  0.70496800  0.75619600  0.97992700  1
  F  F13  1  0.20496800  0.24380400  0.02007300  1
  F  F14  1  0.71289100  0.85797700  0.46851300  1
  F  F15  1  0.21289100  0.14202300  0.53148700  1
  F  F16  1  0.49695700  0.37504400  0.78295600  1
  F  F17  1  0.99695700  0.62495600  0.21704400  1
