# generated using pymatgen
data_NdSi3N5
_symmetry_space_group_name_H-M   'P 1'
_cell_length_a   4.80314600
_cell_length_b   7.86220900
_cell_length_c   11.30299700
_cell_angle_alpha   90.00000000
_cell_angle_beta   90.00000000
_cell_angle_gamma   90.00000000
_symmetry_Int_Tables_number   1
_chemical_formula_structural   NdSi3N5
_chemical_formula_sum   'Nd4 Si12 N20'
_cell_volume   426.83889284
_cell_formula_units_Z   4
loop_
 _symmetry_equiv_pos_site_id
 _symmetry_equiv_pos_as_xyz
  1  'x, y, z'
loop_
 _atom_site_type_symbol
 _atom_site_label
 _atom_site_symmetry_multiplicity
 _atom_site_fract_x
 _atom_site_fract_y
 _atom_site_fract_z
 _atom_site_occupancy
  Nd  Nd0  1  0.50296300  0.06024600  0.17072400  1
  Nd  Nd1  1  0.99703700  0.93975400  0.67072400  1
  Nd  Nd2  1  0.49703700  0.56024600  0.32927600  1
  Nd  Nd3  1  0.00296300  0.43975400  0.82927600  1
  Si  Si4  1  0.01669100  0.20713100  0.41668500  1
  Si  Si5  1  0.48330900  0.79286900  0.91668500  1
  Si  Si6  1  0.98330900  0.70713100  0.08331500  1
  Si  Si7  1  0.51669100  0.29286900  0.58331500  1
  Si  Si8  1  0.52404700  0.46693300  0.04111500  1
  Si  Si9  1  0.97595300  0.53306700  0.54111500  1
  Si  Si10  1  0.47595300  0.96693300  0.45888500  1
  Si  Si11  1  0.02404700  0.03306700  0.95888500  1
  Si  Si12  1  0.01454500  0.33792000  0.16107700  1
  Si  Si13  1  0.48545500  0.66208000  0.66107700  1
  Si  Si14  1  0.98545500  0.83792000  0.33892300  1
  Si  Si15  1  0.51454500  0.16208000  0.83892300  1
  N  N16  1  0.16872500  0.29382400  0.29485700  1
  N  N17  1  0.33127500  0.70617600  0.79485700  1
  N  N18  1  0.83127500  0.79382400  0.20514300  1
  N  N19  1  0.66872500  0.20617600  0.70514300  1
  N  N20  1  0.18454400  0.51847100  0.09318400  1
  N  N21  1  0.31545600  0.48152900  0.59318400  1
  N  N22  1  0.81545600  0.01847100  0.40681600  1
  N  N23  1  0.68454400  0.98152900  0.90681600  1
  N  N24  1  0.66938700  0.38835700  0.16855800  1
  N  N25  1  0.83061300  0.61164300  0.66855800  1
  N  N26  1  0.33061300  0.88835700  0.33144200  1
  N  N27  1  0.16938700  0.11164300  0.83144200  1
  N  N28  1  0.04700300  0.15707400  0.08042300  1
  N  N29  1  0.45299700  0.84292600  0.58042300  1
  N  N30  1  0.95299700  0.65707400  0.41957700  1
  N  N31  1  0.54700300  0.34292600  0.91957700  1
  N  N32  1  0.29474300  0.14941300  0.51098700  1
  N  N33  1  0.20525700  0.85058700  0.01098700  1
  N  N34  1  0.70525700  0.64941300  0.98901300  1
  N  N35  1  0.79474300  0.35058700  0.48901300  1
