# generated using pymatgen
data_Ni(ClO6)2
_symmetry_space_group_name_H-M   'P 1'
_cell_length_a   9.63219000
_cell_length_b   9.63219000
_cell_length_c   9.63219000
_cell_angle_alpha   90.00000000
_cell_angle_beta   90.00000000
_cell_angle_gamma   90.00000000
_symmetry_Int_Tables_number   1
_chemical_formula_structural   Ni(ClO6)2
_chemical_formula_sum   'Ni4 Cl8 O48'
_cell_volume   893.66576700
_cell_formula_units_Z   4
loop_
 _symmetry_equiv_pos_site_id
 _symmetry_equiv_pos_as_xyz
  1  'x, y, z'
loop_
 _atom_site_type_symbol
 _atom_site_label
 _atom_site_symmetry_multiplicity
 _atom_site_fract_x
 _atom_site_fract_y
 _atom_site_fract_z
 _atom_site_occupancy
  Ni  Ni0  1  0.00000000  0.00000000  0.00000000  1
  Ni  Ni1  1  0.50000000  0.00000000  0.50000000  1
  Ni  Ni2  1  0.00000000  0.50000000  0.50000000  1
  Ni  Ni3  1  0.50000000  0.50000000  0.00000000  1
  Cl  Cl4  1  0.25332800  0.25332800  0.25332800  1
  Cl  Cl5  1  0.74667200  0.74667200  0.74667200  1
  Cl  Cl6  1  0.24667200  0.74667200  0.75332800  1
  Cl  Cl7  1  0.74667200  0.75332800  0.24667200  1
  Cl  Cl8  1  0.75332800  0.25332800  0.24667200  1
  Cl  Cl9  1  0.25332800  0.24667200  0.75332800  1
  Cl  Cl10  1  0.75332800  0.24667200  0.74667200  1
  Cl  Cl11  1  0.24667200  0.75332800  0.25332800  1
  O  O12  1  0.14054200  0.33887000  0.18681800  1
  O  O13  1  0.85945800  0.66113000  0.81318200  1
  O  O14  1  0.35945800  0.66113000  0.68681800  1
  O  O15  1  0.85945800  0.83887000  0.31318200  1
  O  O16  1  0.18681800  0.14054200  0.33887000  1
  O  O17  1  0.64054200  0.33887000  0.31318200  1
  O  O18  1  0.14054200  0.16113000  0.68681800  1
  O  O19  1  0.81318200  0.85945800  0.66113000  1
  O  O20  1  0.64054200  0.16113000  0.81318200  1
  O  O21  1  0.68681800  0.35945800  0.66113000  1
  O  O22  1  0.35945800  0.83887000  0.18681800  1
  O  O23  1  0.31318200  0.64054200  0.33887000  1
  O  O24  1  0.31318200  0.85945800  0.83887000  1
  O  O25  1  0.68681800  0.14054200  0.16113000  1
  O  O26  1  0.81318200  0.64054200  0.16113000  1
  O  O27  1  0.18681800  0.35945800  0.83887000  1
  O  O28  1  0.33887000  0.18681800  0.14054200  1
  O  O29  1  0.66113000  0.81318200  0.85945800  1
  O  O30  1  0.83887000  0.31318200  0.85945800  1
  O  O31  1  0.16113000  0.68681800  0.14054200  1
  O  O32  1  0.16113000  0.81318200  0.64054200  1
  O  O33  1  0.83887000  0.18681800  0.35945800  1
  O  O34  1  0.66113000  0.68681800  0.35945800  1
  O  O35  1  0.33887000  0.31318200  0.64054200  1
  O  O36  1  0.19005600  0.45090400  0.46547600  1
  O  O37  1  0.80994400  0.54909600  0.53452400  1
  O  O38  1  0.30994400  0.54909600  0.96547600  1
  O  O39  1  0.80994400  0.95090400  0.03452400  1
  O  O40  1  0.46547600  0.19005600  0.45090400  1
  O  O41  1  0.69005600  0.45090400  0.03452400  1
  O  O42  1  0.19005600  0.04909600  0.96547600  1
  O  O43  1  0.53452400  0.80994400  0.54909600  1
  O  O44  1  0.69005600  0.04909600  0.53452400  1
  O  O45  1  0.96547600  0.30994400  0.54909600  1
  O  O46  1  0.30994400  0.95090400  0.46547600  1
  O  O47  1  0.03452400  0.69005600  0.45090400  1
  O  O48  1  0.03452400  0.80994400  0.95090400  1
  O  O49  1  0.96547600  0.19005600  0.04909600  1
  O  O50  1  0.53452400  0.69005600  0.04909600  1
  O  O51  1  0.46547600  0.30994400  0.95090400  1
  O  O52  1  0.45090400  0.46547600  0.19005600  1
  O  O53  1  0.54909600  0.53452400  0.80994400  1
  O  O54  1  0.95090400  0.03452400  0.80994400  1
  O  O55  1  0.04909600  0.96547600  0.19005600  1
  O  O56  1  0.04909600  0.53452400  0.69005600  1
  O  O57  1  0.95090400  0.46547600  0.30994400  1
  O  O58  1  0.54909600  0.96547600  0.30994400  1
  O  O59  1  0.45090400  0.03452400  0.69005600  1
