# generated using pymatgen
data_Rb9Co2S7
_symmetry_space_group_name_H-M   'P 1'
_cell_length_a   13.26032300
_cell_length_b   13.26032300
_cell_length_c   13.26032300
_cell_angle_alpha   90.00000000
_cell_angle_beta   90.00000000
_cell_angle_gamma   90.00000000
_symmetry_Int_Tables_number   1
_chemical_formula_structural   Rb9Co2S7
_chemical_formula_sum   'Rb36 Co8 S28'
_cell_volume   2331.64435709
_cell_formula_units_Z   4
loop_
 _symmetry_equiv_pos_site_id
 _symmetry_equiv_pos_as_xyz
  1  'x, y, z'
loop_
 _atom_site_type_symbol
 _atom_site_label
 _atom_site_symmetry_multiplicity
 _atom_site_fract_x
 _atom_site_fract_y
 _atom_site_fract_z
 _atom_site_occupancy
  Rb  Rb0  1  0.08237600  0.54809400  0.25221500  1
  Rb  Rb1  1  0.41762400  0.45190600  0.75221500  1
  Rb  Rb2  1  0.91762400  0.04809400  0.24778500  1
  Rb  Rb3  1  0.25221500  0.08237600  0.54809400  1
  Rb  Rb4  1  0.58237600  0.95190600  0.74778500  1
  Rb  Rb5  1  0.75221500  0.41762400  0.45190600  1
  Rb  Rb6  1  0.24778500  0.91762400  0.04809400  1
  Rb  Rb7  1  0.74778500  0.58237600  0.95190600  1
  Rb  Rb8  1  0.54809400  0.25221500  0.08237600  1
  Rb  Rb9  1  0.04809400  0.24778500  0.91762400  1
  Rb  Rb10  1  0.95190600  0.74778500  0.58237600  1
  Rb  Rb11  1  0.45190600  0.75221500  0.41762400  1
  Rb  Rb12  1  0.48823100  0.48823100  0.48823100  1
  Rb  Rb13  1  0.01176900  0.51176900  0.98823100  1
  Rb  Rb14  1  0.51176900  0.98823100  0.01176900  1
  Rb  Rb15  1  0.98823100  0.01176900  0.51176900  1
  Rb  Rb16  1  0.04004100  0.29489200  0.42165000  1
  Rb  Rb17  1  0.45995900  0.70510800  0.92165000  1
  Rb  Rb18  1  0.95995900  0.79489200  0.07835000  1
  Rb  Rb19  1  0.42165000  0.04004100  0.29489200  1
  Rb  Rb20  1  0.54004100  0.20510800  0.57835000  1
  Rb  Rb21  1  0.92165000  0.45995900  0.70510800  1
  Rb  Rb22  1  0.07835000  0.95995900  0.79489200  1
  Rb  Rb23  1  0.57835000  0.54004100  0.20510800  1
  Rb  Rb24  1  0.29489200  0.42165000  0.04004100  1
  Rb  Rb25  1  0.79489200  0.07835000  0.95995900  1
  Rb  Rb26  1  0.20510800  0.57835000  0.54004100  1
  Rb  Rb27  1  0.70510800  0.92165000  0.45995900  1
  Rb  Rb28  1  0.66381200  0.66381200  0.66381200  1
  Rb  Rb29  1  0.83618800  0.33618800  0.16381200  1
  Rb  Rb30  1  0.33618800  0.16381200  0.83618800  1
  Rb  Rb31  1  0.16381200  0.83618800  0.33618800  1
  Rb  Rb32  1  0.30606600  0.30606600  0.30606600  1
  Rb  Rb33  1  0.19393400  0.69393400  0.80606600  1
  Rb  Rb34  1  0.69393400  0.80606600  0.19393400  1
  Rb  Rb35  1  0.80606600  0.19393400  0.69393400  1
  Co  Co36  1  0.15008300  0.15008300  0.15008300  1
  Co  Co37  1  0.34991700  0.84991700  0.65008300  1
  Co  Co38  1  0.84991700  0.65008300  0.34991700  1
  Co  Co39  1  0.65008300  0.34991700  0.84991700  1
  Co  Co40  1  0.82325400  0.82325400  0.82325400  1
  Co  Co41  1  0.67674600  0.17674600  0.32325400  1
  Co  Co42  1  0.17674600  0.32325400  0.67674600  1
  Co  Co43  1  0.32325400  0.67674600  0.17674600  1
  S  S44  1  0.08883300  0.31384600  0.15913300  1
  S  S45  1  0.41116700  0.68615400  0.65913300  1
  S  S46  1  0.91116700  0.81384600  0.34086700  1
  S  S47  1  0.15913300  0.08883300  0.31384600  1
  S  S48  1  0.58883300  0.18615400  0.84086700  1
  S  S49  1  0.65913300  0.41116700  0.68615400  1
  S  S50  1  0.34086700  0.91116700  0.81384600  1
  S  S51  1  0.84086700  0.58883300  0.18615400  1
  S  S52  1  0.31384600  0.15913300  0.08883300  1
  S  S53  1  0.81384600  0.34086700  0.91116700  1
  S  S54  1  0.18615400  0.84086700  0.58883300  1
  S  S55  1  0.68615400  0.65913300  0.41116700  1
  S  S56  1  0.04766800  0.04766800  0.04766800  1
  S  S57  1  0.45233200  0.95233200  0.54766800  1
  S  S58  1  0.95233200  0.54766800  0.45233200  1
  S  S59  1  0.54766800  0.45233200  0.95233200  1
  S  S60  1  0.06660900  0.20069300  0.67047500  1
  S  S61  1  0.43339100  0.79930700  0.17047500  1
  S  S62  1  0.93339100  0.70069300  0.82952500  1
  S  S63  1  0.67047500  0.06660900  0.20069300  1
  S  S64  1  0.56660900  0.29930700  0.32952500  1
  S  S65  1  0.17047500  0.43339100  0.79930700  1
  S  S66  1  0.82952500  0.93339100  0.70069300  1
  S  S67  1  0.32952500  0.56660900  0.29930700  1
  S  S68  1  0.20069300  0.67047500  0.06660900  1
  S  S69  1  0.70069300  0.82952500  0.93339100  1
  S  S70  1  0.29930700  0.32952500  0.56660900  1
  S  S71  1  0.79930700  0.17047500  0.43339100  1
