# generated using pymatgen
data_Nb3Pb2(O2F)4
_symmetry_space_group_name_H-M   'P 1'
_cell_length_a   16.81909463
_cell_length_b   16.81909463
_cell_length_c   16.81909463
_cell_angle_alpha   166.56952156
_cell_angle_beta   166.56952156
_cell_angle_gamma   19.03756399
_symmetry_Int_Tables_number   1
_chemical_formula_structural   Nb3Pb2(O2F)4
_chemical_formula_sum   'Nb3 Pb2 O8 F4'
_cell_volume   256.64624266
_cell_formula_units_Z   1
loop_
 _symmetry_equiv_pos_site_id
 _symmetry_equiv_pos_as_xyz
  1  'x, y, z'
loop_
 _atom_site_type_symbol
 _atom_site_label
 _atom_site_symmetry_multiplicity
 _atom_site_fract_x
 _atom_site_fract_y
 _atom_site_fract_z
 _atom_site_occupancy
  Nb  Nb0  1  0.11737800  0.11737800  0.00000000  1
  Nb  Nb1  1  0.88262200  0.88262200  0.00000000  1
  Nb  Nb2  1  0.00000000  0.00000000  0.00000000  1
  Pb  Pb3  1  0.29746300  0.29746300  0.00000000  1
  Pb  Pb4  1  0.70253700  0.70253700  0.00000000  1
  O  O5  1  0.62852300  0.12852300  0.50000000  1
  O  O6  1  0.37147700  0.87147700  0.50000000  1
  O  O7  1  0.12852300  0.62852300  0.50000000  1
  O  O8  1  0.87147700  0.37147700  0.50000000  1
  O  O9  1  0.50000000  0.00000000  0.50000000  1
  O  O10  1  0.00000000  0.50000000  0.50000000  1
  O  O11  1  0.06142800  0.06142800  0.00000000  1
  O  O12  1  0.93857200  0.93857200  0.00000000  1
  F  F13  1  0.18559000  0.18559000  0.00000000  1
  F  F14  1  0.81441000  0.81441000  0.00000000  1
  F  F15  1  0.75000000  0.25000000  0.50000000  1
  F  F16  1  0.25000000  0.75000000  0.50000000  1
