# generated using pymatgen
data_NaCoF4
_symmetry_space_group_name_H-M   'P 1'
_cell_length_a   5.01535300
_cell_length_b   5.67845900
_cell_length_c   10.99692100
_cell_angle_alpha   90.00000000
_cell_angle_beta   90.00000000
_cell_angle_gamma   90.00000000
_symmetry_Int_Tables_number   1
_chemical_formula_structural   NaCoF4
_chemical_formula_sum   'Na4 Co4 F16'
_cell_volume   313.18655188
_cell_formula_units_Z   4
loop_
 _symmetry_equiv_pos_site_id
 _symmetry_equiv_pos_as_xyz
  1  'x, y, z'
loop_
 _atom_site_type_symbol
 _atom_site_label
 _atom_site_symmetry_multiplicity
 _atom_site_fract_x
 _atom_site_fract_y
 _atom_site_fract_z
 _atom_site_occupancy
  Na  Na0  1  0.00000000  0.00000000  0.00000000  1
  Na  Na1  1  0.50000000  0.50000000  0.50000000  1
  Na  Na2  1  0.00000000  0.00000000  0.50000000  1
  Na  Na3  1  0.50000000  0.50000000  0.00000000  1
  Co  Co4  1  0.00000000  0.34472600  0.25000000  1
  Co  Co5  1  0.00000000  0.65527400  0.75000000  1
  Co  Co6  1  0.50000000  0.15527400  0.75000000  1
  Co  Co7  1  0.50000000  0.84472600  0.25000000  1
  F  F8  1  0.16050100  0.32542900  0.10119900  1
  F  F9  1  0.83949900  0.67457100  0.89880100  1
  F  F10  1  0.33949900  0.17457100  0.60119900  1
  F  F11  1  0.83949900  0.32542900  0.39880100  1
  F  F12  1  0.66050100  0.82542900  0.39880100  1
  F  F13  1  0.16050100  0.67457100  0.60119900  1
  F  F14  1  0.66050100  0.17457100  0.89880100  1
  F  F15  1  0.33949900  0.82542900  0.10119900  1
  F  F16  1  0.24719900  0.08496500  0.31366500  1
  F  F17  1  0.75280100  0.91503500  0.68633500  1
  F  F18  1  0.25280100  0.41503500  0.81366500  1
  F  F19  1  0.75280100  0.08496500  0.18633500  1
  F  F20  1  0.74719900  0.58496500  0.18633500  1
  F  F21  1  0.24719900  0.91503500  0.81366500  1
  F  F22  1  0.74719900  0.41503500  0.68633500  1
  F  F23  1  0.25280100  0.58496500  0.31366500  1
