# generated using pymatgen
data_Sc3(VGe2)2
_symmetry_space_group_name_H-M   'P 1'
_cell_length_a   6.84513500
_cell_length_b   7.06733600
_cell_length_c   13.50315000
_cell_angle_alpha   90.00000000
_cell_angle_beta   90.00000000
_cell_angle_gamma   90.00000000
_symmetry_Int_Tables_number   1
_chemical_formula_structural   Sc3(VGe2)2
_chemical_formula_sum   'Sc12 V8 Ge16'
_cell_volume   653.24011878
_cell_formula_units_Z   4
loop_
 _symmetry_equiv_pos_site_id
 _symmetry_equiv_pos_as_xyz
  1  'x, y, z'
loop_
 _atom_site_type_symbol
 _atom_site_label
 _atom_site_symmetry_multiplicity
 _atom_site_fract_x
 _atom_site_fract_y
 _atom_site_fract_z
 _atom_site_occupancy
  Sc  Sc0  1  0.15915200  0.50687600  0.75000000  1
  Sc  Sc1  1  0.84084800  0.49312400  0.25000000  1
  Sc  Sc2  1  0.34084800  0.00687600  0.25000000  1
  Sc  Sc3  1  0.65915200  0.99312400  0.75000000  1
  Sc  Sc4  1  0.33128300  0.16820300  0.62374000  1
  Sc  Sc5  1  0.66871700  0.83179700  0.37626000  1
  Sc  Sc6  1  0.16871700  0.66820300  0.37626000  1
  Sc  Sc7  1  0.66871700  0.83179700  0.12374000  1
  Sc  Sc8  1  0.83128300  0.33179700  0.62374000  1
  Sc  Sc9  1  0.33128300  0.16820300  0.87626000  1
  Sc  Sc10  1  0.83128300  0.33179700  0.87626000  1
  Sc  Sc11  1  0.16871700  0.66820300  0.12374000  1
  V  V12  1  0.01196200  0.18521400  0.09692400  1
  V  V13  1  0.98803800  0.81478600  0.90307600  1
  V  V14  1  0.48803800  0.68521400  0.90307600  1
  V  V15  1  0.98803800  0.81478600  0.59692400  1
  V  V16  1  0.51196200  0.31478600  0.09692400  1
  V  V17  1  0.01196200  0.18521400  0.40307600  1
  V  V18  1  0.51196200  0.31478600  0.40307600  1
  V  V19  1  0.48803800  0.68521400  0.59692400  1
  Ge  Ge20  1  0.02577200  0.10195100  0.75000000  1
  Ge  Ge21  1  0.97422800  0.89804900  0.25000000  1
  Ge  Ge22  1  0.47422800  0.60195100  0.25000000  1
  Ge  Ge23  1  0.52577200  0.39804900  0.75000000  1
  Ge  Ge24  1  0.29643700  0.85204500  0.75000000  1
  Ge  Ge25  1  0.70356300  0.14795500  0.25000000  1
  Ge  Ge26  1  0.20356300  0.35204500  0.25000000  1
  Ge  Ge27  1  0.79643700  0.64795500  0.75000000  1
  Ge  Ge28  1  0.17958700  0.47367600  0.54316300  1
  Ge  Ge29  1  0.82041300  0.52632400  0.45683700  1
  Ge  Ge30  1  0.32041300  0.97367600  0.45683700  1
  Ge  Ge31  1  0.82041300  0.52632400  0.04316300  1
  Ge  Ge32  1  0.67958700  0.02632400  0.54316300  1
  Ge  Ge33  1  0.17958700  0.47367600  0.95683700  1
  Ge  Ge34  1  0.67958700  0.02632400  0.95683700  1
  Ge  Ge35  1  0.32041300  0.97367600  0.04316300  1
