# generated using pymatgen
data_Nd2CoRuO6
_symmetry_space_group_name_H-M   'P 1'
_cell_length_a   5.82096400
_cell_length_b   5.44681300
_cell_length_c   9.52156721
_cell_angle_alpha   55.15861209
_cell_angle_beta   90.00000000
_cell_angle_gamma   90.00000000
_symmetry_Int_Tables_number   1
_chemical_formula_structural   Nd2CoRuO6
_chemical_formula_sum   'Nd4 Co2 Ru2 O12'
_cell_volume   247.77055245
_cell_formula_units_Z   2
loop_
 _symmetry_equiv_pos_site_id
 _symmetry_equiv_pos_as_xyz
  1  'x, y, z'
loop_
 _atom_site_type_symbol
 _atom_site_label
 _atom_site_symmetry_multiplicity
 _atom_site_fract_x
 _atom_site_fract_y
 _atom_site_fract_z
 _atom_site_occupancy
  Nd  Nd0  1  0.43333500  0.22980300  0.74931000  1
  Nd  Nd1  1  0.56666500  0.77019700  0.25069000  1
  Nd  Nd2  1  0.93333500  0.77019700  0.75069000  1
  Nd  Nd3  1  0.06666500  0.22980300  0.24931000  1
  Co  Co4  1  0.00000000  0.50000000  0.50000000  1
  Co  Co5  1  0.50000000  0.50000000  0.00000000  1
  Ru  Ru6  1  0.00000000  0.00000000  0.00000000  1
  Ru  Ru7  1  0.50000000  0.00000000  0.50000000  1
  O  O8  1  0.19589300  0.74782100  0.95083900  1
  O  O9  1  0.80410700  0.25217900  0.04916100  1
  O  O10  1  0.69589300  0.25217900  0.54916100  1
  O  O11  1  0.30410700  0.74782100  0.45083900  1
  O  O12  1  0.70539300  0.86543000  0.94472400  1
  O  O13  1  0.29460700  0.13457000  0.05527600  1
  O  O14  1  0.20539300  0.13457000  0.55527600  1
  O  O15  1  0.79460700  0.86543000  0.44472400  1
  O  O16  1  0.03272300  0.34782600  0.75327200  1
  O  O17  1  0.96727700  0.65217400  0.24672800  1
  O  O18  1  0.53272300  0.65217400  0.74672800  1
  O  O19  1  0.46727700  0.34782600  0.25327200  1
