# generated using pymatgen
data_Np3HF12
_symmetry_space_group_name_H-M   'P 1'
_cell_length_a   8.43070036
_cell_length_b   8.43070036
_cell_length_c   8.58354207
_cell_angle_alpha   63.09571983
_cell_angle_beta   63.09571983
_cell_angle_gamma   88.54901857
_symmetry_Int_Tables_number   1
_chemical_formula_structural   Np3HF12
_chemical_formula_sum   'Np6 H2 F24'
_cell_volume   472.65769757
_cell_formula_units_Z   2
loop_
 _symmetry_equiv_pos_site_id
 _symmetry_equiv_pos_as_xyz
  1  'x, y, z'
loop_
 _atom_site_type_symbol
 _atom_site_label
 _atom_site_symmetry_multiplicity
 _atom_site_fract_x
 _atom_site_fract_y
 _atom_site_fract_z
 _atom_site_occupancy
  Np  Np0  1  0.05908600  0.05908600  0.25229600  1
  Np  Np1  1  0.59991300  0.25100000  0.79555800  1
  Np  Np2  1  0.10484500  0.47882800  0.40519200  1
  Np  Np3  1  0.47882800  0.10484500  0.40519200  1
  Np  Np4  1  0.25100000  0.59991300  0.79555800  1
  Np  Np5  1  0.68260900  0.68260900  0.92519800  1
  H  H6  1  0.99322700  0.99322700  0.99962800  1
  H  H7  1  0.71563500  0.71563500  0.13232400  1
  F  F8  1  0.25065500  0.01118000  0.36894200  1
  F  F9  1  0.65589300  0.95646000  0.87771500  1
  F  F10  1  0.27310500  0.27310500  0.47165700  1
  F  F11  1  0.05847300  0.76914200  0.30885000  1
  F  F12  1  0.01118000  0.25065500  0.36894200  1
  F  F13  1  0.39964100  0.62585200  0.18038400  1
  F  F14  1  0.06911200  0.31330100  0.98946500  1
  F  F15  1  0.95646000  0.65589300  0.87771500  1
  F  F16  1  0.16600500  0.55775600  0.59114600  1
  F  F17  1  0.87997300  0.87997300  0.58549500  1
  F  F18  1  0.44892600  0.44892600  0.65815800  1
  F  F19  1  0.50417300  0.71790900  0.78904400  1
  F  F20  1  0.62585200  0.39964100  0.18038400  1
  F  F21  1  0.76914200  0.05847300  0.30885000  1
  F  F22  1  0.90612700  0.25664000  0.71772300  1
  F  F23  1  0.55775600  0.16600500  0.59114600  1
  F  F24  1  0.46305500  0.80356800  0.47357700  1
  F  F25  1  0.35472300  0.35472300  0.01456500  1
  F  F26  1  0.80356800  0.46305500  0.47357700  1
  F  F27  1  0.59299500  0.13352600  0.09270700  1
  F  F28  1  0.71790900  0.50417300  0.78904400  1
  F  F29  1  0.25664000  0.90612700  0.71772300  1
  F  F30  1  0.13352600  0.59299500  0.09270700  1
  F  F31  1  0.31330100  0.06911200  0.98946500  1
