# generated using pymatgen
data_NaMn2O4
_symmetry_space_group_name_H-M   'P 1'
_cell_length_a   6.67742781
_cell_length_b   6.67742781
_cell_length_c   15.94515761
_cell_angle_alpha   72.87135085
_cell_angle_beta   72.87135085
_cell_angle_gamma   51.85490269
_symmetry_Int_Tables_number   1
_chemical_formula_structural   NaMn2O4
_chemical_formula_sum   'Na6 Mn12 O24'
_cell_volume   528.30474802
_cell_formula_units_Z   6
loop_
 _symmetry_equiv_pos_site_id
 _symmetry_equiv_pos_as_xyz
  1  'x, y, z'
loop_
 _atom_site_type_symbol
 _atom_site_label
 _atom_site_symmetry_multiplicity
 _atom_site_fract_x
 _atom_site_fract_y
 _atom_site_fract_z
 _atom_site_occupancy
  Na  Na0  1  0.75096000  0.49784300  0.84195800  1
  Na  Na1  1  0.24411700  0.00479200  0.83661300  1
  Na  Na2  1  0.49784300  0.75096000  0.34195800  1
  Na  Na3  1  0.00479200  0.24411700  0.33661300  1
  Na  Na4  1  0.50951700  0.75465800  0.64210100  1
  Na  Na5  1  0.75465800  0.50951700  0.14210100  1
  Mn  Mn6  1  0.25145000  0.50272000  0.49775800  1
  Mn  Mn7  1  0.76135900  0.00792800  0.49669100  1
  Mn  Mn8  1  0.24279700  0.49389400  0.83117500  1
  Mn  Mn9  1  0.74562000  0.99671900  0.83078200  1
  Mn  Mn10  1  0.75500700  0.00024700  0.16602400  1
  Mn  Mn11  1  0.25076400  0.50474500  0.16579700  1
  Mn  Mn12  1  0.50272000  0.25145000  0.99775800  1
  Mn  Mn13  1  0.00792800  0.76135900  0.99669100  1
  Mn  Mn14  1  0.99671900  0.74562000  0.33078200  1
  Mn  Mn15  1  0.49389400  0.24279700  0.33117500  1
  Mn  Mn16  1  0.50474500  0.25076400  0.66579700  1
  Mn  Mn17  1  0.00024700  0.75500700  0.66602400  1
  O  O18  1  0.67506600  0.92051400  0.07799700  1
  O  O19  1  0.17117100  0.42852800  0.07503000  1
  O  O20  1  0.33846100  0.58717500  0.91175300  1
  O  O21  1  0.84247500  0.09793500  0.92393700  1
  O  O22  1  0.92051400  0.67506600  0.57799700  1
  O  O23  1  0.42852800  0.17117100  0.57503000  1
  O  O24  1  0.09793500  0.84247500  0.42393700  1
  O  O25  1  0.58717500  0.33846100  0.41175300  1
  O  O26  1  0.59279700  0.34354500  0.10123800  1
  O  O27  1  0.09496200  0.84455100  0.10224300  1
  O  O28  1  0.90779200  0.65256400  0.89998800  1
  O  O29  1  0.40056900  0.15801100  0.89917500  1
  O  O30  1  0.34354500  0.59279700  0.60123800  1
  O  O31  1  0.84455100  0.09496200  0.60224300  1
  O  O32  1  0.65256400  0.90779200  0.39998800  1
  O  O33  1  0.15801100  0.40056900  0.39917500  1
  O  O34  1  0.40918800  0.15730200  0.24348700  1
  O  O35  1  0.90041600  0.64957800  0.23177000  1
  O  O36  1  0.08927600  0.83181400  0.75518100  1
  O  O37  1  0.58050200  0.33988800  0.75501100  1
  O  O38  1  0.15730200  0.40918800  0.74348700  1
  O  O39  1  0.64957800  0.90041600  0.73177000  1
  O  O40  1  0.83181400  0.08927600  0.25518100  1
  O  O41  1  0.33988800  0.58050200  0.25501100  1
