# generated using pymatgen
data_P3Pb5BrO12
_symmetry_space_group_name_H-M   'P 1'
_cell_length_a   10.24810365
_cell_length_b   10.24810365
_cell_length_c   7.36138300
_cell_angle_alpha   90.00000000
_cell_angle_beta   90.00000000
_cell_angle_gamma   119.99999774
_symmetry_Int_Tables_number   1
_chemical_formula_structural   P3Pb5BrO12
_chemical_formula_sum   'P6 Pb10 Br2 O24'
_cell_volume   669.54084174
_cell_formula_units_Z   2
loop_
 _symmetry_equiv_pos_site_id
 _symmetry_equiv_pos_as_xyz
  1  'x, y, z'
loop_
 _atom_site_type_symbol
 _atom_site_label
 _atom_site_symmetry_multiplicity
 _atom_site_fract_x
 _atom_site_fract_y
 _atom_site_fract_z
 _atom_site_occupancy
  P  P0  1  0.03415100  0.40902600  0.75000000  1
  P  P1  1  0.96584900  0.59097400  0.25000000  1
  P  P2  1  0.59097400  0.62512500  0.75000000  1
  P  P3  1  0.40902600  0.37487500  0.25000000  1
  P  P4  1  0.37487500  0.96584900  0.75000000  1
  P  P5  1  0.62512500  0.03415100  0.25000000  1
  Pb  Pb6  1  0.25284300  0.26210900  0.75000000  1
  Pb  Pb7  1  0.74715700  0.73789100  0.25000000  1
  Pb  Pb8  1  0.73789100  0.99073500  0.75000000  1
  Pb  Pb9  1  0.26210900  0.00926500  0.25000000  1
  Pb  Pb10  1  0.00926500  0.74715700  0.75000000  1
  Pb  Pb11  1  0.99073500  0.25284300  0.25000000  1
  Pb  Pb12  1  0.33333300  0.66666700  0.49696900  1
  Pb  Pb13  1  0.66666700  0.33333300  0.50303100  1
  Pb  Pb14  1  0.66666700  0.33333300  0.99696900  1
  Pb  Pb15  1  0.33333300  0.66666700  0.00303100  1
  Br  Br16  1  0.00000000  0.00000000  0.50000000  1
  Br  Br17  1  0.00000000  0.00000000  0.00000000  1
  O  O18  1  0.48168000  0.13933800  0.75000000  1
  O  O19  1  0.51832000  0.86066200  0.25000000  1
  O  O20  1  0.86066200  0.34234200  0.75000000  1
  O  O21  1  0.13933800  0.65765800  0.25000000  1
  O  O22  1  0.65765800  0.51832000  0.75000000  1
  O  O23  1  0.34234200  0.48168000  0.25000000  1
  O  O24  1  0.11927700  0.58727800  0.75000000  1
  O  O25  1  0.88072300  0.41272200  0.25000000  1
  O  O26  1  0.41272200  0.53199900  0.75000000  1
  O  O27  1  0.58727800  0.46800100  0.25000000  1
  O  O28  1  0.46800100  0.88072300  0.75000000  1
  O  O29  1  0.53199900  0.11927700  0.25000000  1
  O  O30  1  0.09061100  0.36188500  0.57856800  1
  O  O31  1  0.90938900  0.63811500  0.42143200  1
  O  O32  1  0.63811500  0.72872600  0.57856800  1
  O  O33  1  0.90938900  0.63811500  0.07856800  1
  O  O34  1  0.36188500  0.27127400  0.42143200  1
  O  O35  1  0.09061100  0.36188500  0.92143200  1
  O  O36  1  0.27127400  0.90938900  0.57856800  1
  O  O37  1  0.36188500  0.27127400  0.07856800  1
  O  O38  1  0.72872600  0.09061100  0.42143200  1
  O  O39  1  0.63811500  0.72872600  0.92143200  1
  O  O40  1  0.72872600  0.09061100  0.07856800  1
  O  O41  1  0.27127400  0.90938900  0.92143200  1
