# generated using pymatgen
data_Nd2BeGa2O7
_symmetry_space_group_name_H-M   'P 1'
_cell_length_a   5.23994300
_cell_length_b   7.74560000
_cell_length_c   7.74560000
_cell_angle_alpha   90.00000000
_cell_angle_beta   90.00000000
_cell_angle_gamma   90.00000000
_symmetry_Int_Tables_number   1
_chemical_formula_structural   Nd2BeGa2O7
_chemical_formula_sum   'Nd4 Be2 Ga4 O14'
_cell_volume   314.36681377
_cell_formula_units_Z   2
loop_
 _symmetry_equiv_pos_site_id
 _symmetry_equiv_pos_as_xyz
  1  'x, y, z'
loop_
 _atom_site_type_symbol
 _atom_site_label
 _atom_site_symmetry_multiplicity
 _atom_site_fract_x
 _atom_site_fract_y
 _atom_site_fract_z
 _atom_site_occupancy
  Nd  Nd0  1  0.51678700  0.16637500  0.66637500  1
  Nd  Nd1  1  0.51678700  0.83362500  0.33362500  1
  Nd  Nd2  1  0.48321300  0.66637500  0.83362500  1
  Nd  Nd3  1  0.48321300  0.33362500  0.16637500  1
  Be  Be4  1  0.00000000  0.00000000  0.00000000  1
  Be  Be5  1  0.00000000  0.50000000  0.50000000  1
  Ga  Ga6  1  0.97049400  0.65091100  0.15091100  1
  Ga  Ga7  1  0.97049400  0.34908900  0.84908900  1
  Ga  Ga8  1  0.02950600  0.15091100  0.34908900  1
  Ga  Ga9  1  0.02950600  0.84908900  0.65091100  1
  O  O10  1  0.19672600  0.00000000  0.50000000  1
  O  O11  1  0.80327400  0.50000000  0.00000000  1
  O  O12  1  0.32004100  0.63498000  0.13498000  1
  O  O13  1  0.32004100  0.36502000  0.86502000  1
  O  O14  1  0.67995900  0.13498000  0.36502000  1
  O  O15  1  0.67995900  0.86502000  0.63498000  1
  O  O16  1  0.19335700  0.09158300  0.14461800  1
  O  O17  1  0.19335700  0.90841700  0.85538200  1
  O  O18  1  0.80664300  0.14461800  0.90841700  1
  O  O19  1  0.80664300  0.40841700  0.64461800  1
  O  O20  1  0.80664300  0.85538200  0.09158300  1
  O  O21  1  0.80664300  0.59158300  0.35538200  1
  O  O22  1  0.19335700  0.35538200  0.40841700  1
  O  O23  1  0.19335700  0.64461800  0.59158300  1
