# generated using pymatgen
data_NdMn7O12
_symmetry_space_group_name_H-M   'P 1'
_cell_length_a   6.55180434
_cell_length_b   6.55180434
_cell_length_c   6.55180434
_cell_angle_alpha   109.47122063
_cell_angle_beta   109.47122063
_cell_angle_gamma   109.47122063
_symmetry_Int_Tables_number   1
_chemical_formula_structural   NdMn7O12
_chemical_formula_sum   'Nd1 Mn7 O12'
_cell_volume   216.50147904
_cell_formula_units_Z   1
loop_
 _symmetry_equiv_pos_site_id
 _symmetry_equiv_pos_as_xyz
  1  'x, y, z'
loop_
 _atom_site_type_symbol
 _atom_site_label
 _atom_site_symmetry_multiplicity
 _atom_site_fract_x
 _atom_site_fract_y
 _atom_site_fract_z
 _atom_site_occupancy
  Nd  Nd0  1  0.00000000  0.00000000  0.00000000  1
  Mn  Mn1  1  0.50000000  0.50000000  0.00000000  1
  Mn  Mn2  1  0.50000000  0.00000000  0.00000000  1
  Mn  Mn3  1  0.00000000  0.00000000  0.50000000  1
  Mn  Mn4  1  0.00000000  0.50000000  0.50000000  1
  Mn  Mn5  1  0.00000000  0.50000000  0.00000000  1
  Mn  Mn6  1  0.50000000  0.50000000  0.50000000  1
  Mn  Mn7  1  0.50000000  0.00000000  0.50000000  1
  O  O8  1  0.51914900  0.69435500  0.82479400  1
  O  O9  1  0.48085100  0.30564500  0.17520600  1
  O  O10  1  0.13043900  0.30564500  0.82479400  1
  O  O11  1  0.86956100  0.69435500  0.17520600  1
  O  O12  1  0.30564500  0.82479400  0.13043900  1
  O  O13  1  0.69435500  0.17520600  0.86956100  1
  O  O14  1  0.30564500  0.17520600  0.48085100  1
  O  O15  1  0.69435500  0.82479400  0.51914900  1
  O  O16  1  0.82479400  0.51914900  0.69435500  1
  O  O17  1  0.17520600  0.48085100  0.30564500  1
  O  O18  1  0.17520600  0.86956100  0.69435500  1
  O  O19  1  0.82479400  0.13043900  0.30564500  1
