# generated using pymatgen
data_NaZn2Se2O7
_symmetry_space_group_name_H-M   'P 1'
_cell_length_a   6.27324700
_cell_length_b   13.56423100
_cell_length_c   8.35324300
_cell_angle_alpha   90.00000000
_cell_angle_beta   90.00000000
_cell_angle_gamma   90.00000000
_symmetry_Int_Tables_number   1
_chemical_formula_structural   NaZn2Se2O7
_chemical_formula_sum   'Na4 Zn8 Se8 O28'
_cell_volume   710.79224404
_cell_formula_units_Z   4
loop_
 _symmetry_equiv_pos_site_id
 _symmetry_equiv_pos_as_xyz
  1  'x, y, z'
loop_
 _atom_site_type_symbol
 _atom_site_label
 _atom_site_symmetry_multiplicity
 _atom_site_fract_x
 _atom_site_fract_y
 _atom_site_fract_z
 _atom_site_occupancy
  Na  Na0  1  0.75000000  0.75263100  0.36400400  1
  Na  Na1  1  0.25000000  0.24736900  0.63599600  1
  Na  Na2  1  0.25000000  0.74736900  0.86400400  1
  Na  Na3  1  0.75000000  0.25263100  0.13599600  1
  Zn  Zn4  1  0.75000000  0.88779000  0.72136000  1
  Zn  Zn5  1  0.25000000  0.11221000  0.27864000  1
  Zn  Zn6  1  0.25000000  0.61221000  0.22136000  1
  Zn  Zn7  1  0.75000000  0.38779000  0.77864000  1
  Zn  Zn8  1  0.00000000  0.00000000  0.00000000  1
  Zn  Zn9  1  0.00000000  0.50000000  0.50000000  1
  Zn  Zn10  1  0.50000000  0.00000000  0.00000000  1
  Zn  Zn11  1  0.50000000  0.50000000  0.50000000  1
  Se  Se12  1  0.75000000  0.67242400  0.72816000  1
  Se  Se13  1  0.25000000  0.32757600  0.27184000  1
  Se  Se14  1  0.25000000  0.82757600  0.22816000  1
  Se  Se15  1  0.75000000  0.17242400  0.77184000  1
  Se  Se16  1  0.75000000  0.52455400  0.11431900  1
  Se  Se17  1  0.25000000  0.47544600  0.88568100  1
  Se  Se18  1  0.25000000  0.97544600  0.61431900  1
  Se  Se19  1  0.75000000  0.02455400  0.38568100  1
  O  O20  1  0.75000000  0.91009200  0.47550500  1
  O  O21  1  0.25000000  0.08990800  0.52449500  1
  O  O22  1  0.25000000  0.58990800  0.97550500  1
  O  O23  1  0.75000000  0.41009200  0.02449500  1
  O  O24  1  0.95231100  0.75655100  0.70514100  1
  O  O25  1  0.04768900  0.24344900  0.29485900  1
  O  O26  1  0.04768900  0.74344900  0.20514100  1
  O  O27  1  0.45231100  0.24344900  0.29485900  1
  O  O28  1  0.95231100  0.25655100  0.79485900  1
  O  O29  1  0.54768900  0.75655100  0.70514100  1
  O  O30  1  0.54768900  0.25655100  0.79485900  1
  O  O31  1  0.45231100  0.74344900  0.20514100  1
  O  O32  1  0.46607000  0.98425900  0.74397000  1
  O  O33  1  0.53393000  0.01574100  0.25603000  1
  O  O34  1  0.53393000  0.51574100  0.24397000  1
  O  O35  1  0.96607000  0.01574100  0.25603000  1
  O  O36  1  0.46607000  0.48425900  0.75603000  1
  O  O37  1  0.03393000  0.98425900  0.74397000  1
  O  O38  1  0.03393000  0.48425900  0.75603000  1
  O  O39  1  0.96607000  0.51574100  0.24397000  1
  O  O40  1  0.75000000  0.61423100  0.53730200  1
  O  O41  1  0.25000000  0.38576900  0.46269800  1
  O  O42  1  0.25000000  0.88576900  0.03730200  1
  O  O43  1  0.75000000  0.11423100  0.96269800  1
  O  O44  1  0.75000000  0.91780000  0.95872100  1
  O  O45  1  0.25000000  0.08220000  0.04127900  1
  O  O46  1  0.25000000  0.58220000  0.45872100  1
  O  O47  1  0.75000000  0.41780000  0.54127900  1
