# generated using pymatgen
data_Pu(MoO4)2
_symmetry_space_group_name_H-M   'P 1'
_cell_length_a   9.70940500
_cell_length_b   10.20961100
_cell_length_c   14.53961200
_cell_angle_alpha   90.00000000
_cell_angle_beta   90.00000000
_cell_angle_gamma   90.00000000
_symmetry_Int_Tables_number   1
_chemical_formula_structural   Pu(MoO4)2
_chemical_formula_sum   'Pu8 Mo16 O64'
_cell_volume   1441.30080510
_cell_formula_units_Z   8
loop_
 _symmetry_equiv_pos_site_id
 _symmetry_equiv_pos_as_xyz
  1  'x, y, z'
loop_
 _atom_site_type_symbol
 _atom_site_label
 _atom_site_symmetry_multiplicity
 _atom_site_fract_x
 _atom_site_fract_y
 _atom_site_fract_z
 _atom_site_occupancy
  Pu  Pu0  1  0.27934900  0.97137300  0.61296800  1
  Pu  Pu1  1  0.72065100  0.02862700  0.38703200  1
  Pu  Pu2  1  0.22065100  0.47137300  0.38703200  1
  Pu  Pu3  1  0.72065100  0.52862700  0.11296800  1
  Pu  Pu4  1  0.77934900  0.52862700  0.61296800  1
  Pu  Pu5  1  0.27934900  0.47137300  0.88703200  1
  Pu  Pu6  1  0.77934900  0.02862700  0.88703200  1
  Pu  Pu7  1  0.22065100  0.97137300  0.11296800  1
  Mo  Mo8  1  0.00157200  0.72384000  0.94165300  1
  Mo  Mo9  1  0.99842800  0.27616000  0.05834700  1
  Mo  Mo10  1  0.49842800  0.22384000  0.05834700  1
  Mo  Mo11  1  0.99842800  0.77616000  0.44165300  1
  Mo  Mo12  1  0.50157200  0.77616000  0.94165300  1
  Mo  Mo13  1  0.00157200  0.22384000  0.55834700  1
  Mo  Mo14  1  0.50157200  0.27616000  0.55834700  1
  Mo  Mo15  1  0.49842800  0.72384000  0.44165300  1
  Mo  Mo16  1  0.18148700  0.60518900  0.65075600  1
  Mo  Mo17  1  0.81851300  0.39481100  0.34924400  1
  Mo  Mo18  1  0.31851300  0.10518900  0.34924400  1
  Mo  Mo19  1  0.81851300  0.89481100  0.15075600  1
  Mo  Mo20  1  0.68148700  0.89481100  0.65075600  1
  Mo  Mo21  1  0.18148700  0.10518900  0.84924400  1
  Mo  Mo22  1  0.68148700  0.39481100  0.84924400  1
  Mo  Mo23  1  0.31851300  0.60518900  0.15075600  1
  O  O24  1  0.38682300  0.67239400  0.87560600  1
  O  O25  1  0.61317700  0.32760600  0.12439400  1
  O  O26  1  0.11317700  0.17239400  0.12439400  1
  O  O27  1  0.61317700  0.82760600  0.37560600  1
  O  O28  1  0.88682300  0.82760600  0.87560600  1
  O  O29  1  0.38682300  0.17239400  0.62439400  1
  O  O30  1  0.88682300  0.32760600  0.62439400  1
  O  O31  1  0.11317700  0.67239400  0.37560600  1
  O  O32  1  0.23766800  0.56930800  0.53676200  1
  O  O33  1  0.76233200  0.43069200  0.46323800  1
  O  O34  1  0.26233200  0.06930800  0.46323800  1
  O  O35  1  0.76233200  0.93069200  0.03676200  1
  O  O36  1  0.73766800  0.93069200  0.53676200  1
  O  O37  1  0.23766800  0.06930800  0.96323800  1
  O  O38  1  0.73766800  0.43069200  0.96323800  1
  O  O39  1  0.26233200  0.56930800  0.03676200  1
  O  O40  1  0.11937500  0.83136800  0.99717800  1
  O  O41  1  0.88062500  0.16863200  0.00282200  1
  O  O42  1  0.38062500  0.33136800  0.00282200  1
  O  O43  1  0.88062500  0.66863200  0.49717800  1
  O  O44  1  0.61937500  0.66863200  0.99717800  1
  O  O45  1  0.11937500  0.33136800  0.50282200  1
  O  O46  1  0.61937500  0.16863200  0.50282200  1
  O  O47  1  0.38062500  0.83136800  0.49717800  1
  O  O48  1  0.22963300  0.77025600  0.67682900  1
  O  O49  1  0.77036700  0.22974400  0.32317100  1
  O  O50  1  0.27036700  0.27025600  0.32317100  1
  O  O51  1  0.77036700  0.72974400  0.17682900  1
  O  O52  1  0.72963300  0.72974400  0.67682900  1
  O  O53  1  0.22963300  0.27025600  0.82317100  1
  O  O54  1  0.72963300  0.22974400  0.82317100  1
  O  O55  1  0.27036700  0.77025600  0.17682900  1
  O  O56  1  0.09441900  0.60681800  0.86981500  1
  O  O57  1  0.90558100  0.39318200  0.13018500  1
  O  O58  1  0.40558100  0.10681800  0.13018500  1
  O  O59  1  0.90558100  0.89318200  0.36981500  1
  O  O60  1  0.59441900  0.89318200  0.86981500  1
  O  O61  1  0.09441900  0.10681800  0.63018500  1
  O  O62  1  0.59441900  0.39318200  0.63018500  1
  O  O63  1  0.40558100  0.60681800  0.36981500  1
  O  O64  1  0.26487900  0.99719500  0.76858900  1
  O  O65  1  0.73512100  0.00280500  0.23141100  1
  O  O66  1  0.23512100  0.49719500  0.23141100  1
  O  O67  1  0.73512100  0.50280500  0.26858900  1
  O  O68  1  0.76487900  0.50280500  0.76858900  1
  O  O69  1  0.26487900  0.49719500  0.73141100  1
  O  O70  1  0.76487900  0.00280500  0.73141100  1
  O  O71  1  0.23512100  0.99719500  0.26858900  1
  O  O72  1  0.09298200  0.86196500  0.52688100  1
  O  O73  1  0.90701800  0.13803500  0.47311900  1
  O  O74  1  0.40701800  0.36196500  0.47311900  1
  O  O75  1  0.90701800  0.63803500  0.02688100  1
  O  O76  1  0.59298200  0.63803500  0.52688100  1
  O  O77  1  0.09298200  0.36196500  0.97311900  1
  O  O78  1  0.59298200  0.13803500  0.97311900  1
  O  O79  1  0.40701800  0.86196500  0.02688100  1
  O  O80  1  0.99769800  0.58312100  0.65541100  1
  O  O81  1  0.00230200  0.41687900  0.34458900  1
  O  O82  1  0.50230200  0.08312100  0.34458900  1
  O  O83  1  0.00230200  0.91687900  0.15541100  1
  O  O84  1  0.49769800  0.91687900  0.65541100  1
  O  O85  1  0.99769800  0.08312100  0.84458900  1
  O  O86  1  0.49769800  0.41687900  0.84458900  1
  O  O87  1  0.50230200  0.58312100  0.15541100  1
