# generated using pymatgen
data_NaLuTiO4
_symmetry_space_group_name_H-M   'P 1'
_cell_length_a   5.26407200
_cell_length_b   5.40383800
_cell_length_c   12.30041100
_cell_angle_alpha   90.00000000
_cell_angle_beta   90.00000000
_cell_angle_gamma   90.00000000
_symmetry_Int_Tables_number   1
_chemical_formula_structural   NaLuTiO4
_chemical_formula_sum   'Na4 Lu4 Ti4 O16'
_cell_volume   349.89985678
_cell_formula_units_Z   4
loop_
 _symmetry_equiv_pos_site_id
 _symmetry_equiv_pos_as_xyz
  1  'x, y, z'
loop_
 _atom_site_type_symbol
 _atom_site_label
 _atom_site_symmetry_multiplicity
 _atom_site_fract_x
 _atom_site_fract_y
 _atom_site_fract_z
 _atom_site_occupancy
  Na  Na0  1  0.25000000  0.49949200  0.58671600  1
  Na  Na1  1  0.75000000  0.50050800  0.41328400  1
  Na  Na2  1  0.25000000  0.99949200  0.41328400  1
  Na  Na3  1  0.75000000  0.00050800  0.58671600  1
  Lu  Lu4  1  0.25000000  0.96991900  0.10405300  1
  Lu  Lu5  1  0.75000000  0.03008100  0.89594700  1
  Lu  Lu6  1  0.25000000  0.46991900  0.89594700  1
  Lu  Lu7  1  0.75000000  0.53008100  0.10405300  1
  Ti  Ti8  1  0.25000000  0.49127400  0.25746700  1
  Ti  Ti9  1  0.75000000  0.50872600  0.74253300  1
  Ti  Ti10  1  0.25000000  0.99127400  0.74253300  1
  Ti  Ti11  1  0.75000000  0.00872600  0.25746700  1
  O  O12  1  0.25000000  0.58200100  0.05956300  1
  O  O13  1  0.75000000  0.41799900  0.94043700  1
  O  O14  1  0.25000000  0.08200100  0.94043700  1
  O  O15  1  0.75000000  0.91799900  0.05956300  1
  O  O16  1  0.00000000  0.75000000  0.23698600  1
  O  O17  1  0.00000000  0.25000000  0.76301400  1
  O  O18  1  0.50000000  0.25000000  0.76301400  1
  O  O19  1  0.50000000  0.75000000  0.23698600  1
  O  O20  1  0.25000000  0.95902400  0.59986100  1
  O  O21  1  0.75000000  0.04097600  0.40013900  1
  O  O22  1  0.25000000  0.45902400  0.40013900  1
  O  O23  1  0.75000000  0.54097600  0.59986100  1
  O  O24  1  0.00000000  0.75000000  0.79640500  1
  O  O25  1  0.00000000  0.25000000  0.20359500  1
  O  O26  1  0.50000000  0.25000000  0.20359500  1
  O  O27  1  0.50000000  0.75000000  0.79640500  1
