# generated using pymatgen
data_NaNp(HO2)2
_symmetry_space_group_name_H-M   'P 1'
_cell_length_a   5.95498000
_cell_length_b   7.60266000
_cell_length_c   8.20412500
_cell_angle_alpha   90.00000000
_cell_angle_beta   90.00000000
_cell_angle_gamma   90.00000000
_symmetry_Int_Tables_number   1
_chemical_formula_structural   NaNp(HO2)2
_chemical_formula_sum   'Na4 Np4 H8 O16'
_cell_volume   371.43099759
_cell_formula_units_Z   4
loop_
 _symmetry_equiv_pos_site_id
 _symmetry_equiv_pos_as_xyz
  1  'x, y, z'
loop_
 _atom_site_type_symbol
 _atom_site_label
 _atom_site_symmetry_multiplicity
 _atom_site_fract_x
 _atom_site_fract_y
 _atom_site_fract_z
 _atom_site_occupancy
  Na  Na0  1  0.49433200  0.02561700  0.16696800  1
  Na  Na1  1  0.00566800  0.97438300  0.66696800  1
  Na  Na2  1  0.50566800  0.52561700  0.33303200  1
  Na  Na3  1  0.99433200  0.47438300  0.83303200  1
  Np  Np4  1  0.03770900  0.76472400  0.18430700  1
  Np  Np5  1  0.46229100  0.23527600  0.68430700  1
  Np  Np6  1  0.96229100  0.26472400  0.31569300  1
  Np  Np7  1  0.53770900  0.73527600  0.81569300  1
  H  H8  1  0.27095100  0.42916300  0.06507100  1
  H  H9  1  0.22904900  0.57083700  0.56507100  1
  H  H10  1  0.72904900  0.92916300  0.43492900  1
  H  H11  1  0.77095100  0.07083700  0.93492900  1
  H  H12  1  0.12681500  0.11848700  0.00148200  1
  H  H13  1  0.37318500  0.88151300  0.50148200  1
  H  H14  1  0.87318500  0.61848700  0.49851800  1
  H  H15  1  0.62681500  0.38151300  0.99851800  1
  O  O16  1  0.68683200  0.28857800  0.19942900  1
  O  O17  1  0.81316800  0.71142200  0.69942900  1
  O  O18  1  0.31316800  0.78857800  0.30057100  1
  O  O19  1  0.18683200  0.21142200  0.80057100  1
  O  O20  1  0.09598000  0.07232600  0.11204100  1
  O  O21  1  0.40402000  0.92767400  0.61204100  1
  O  O22  1  0.90402000  0.57232600  0.38795900  1
  O  O23  1  0.59598000  0.42767400  0.88795900  1
  O  O24  1  0.24094400  0.24094800  0.43269200  1
  O  O25  1  0.25905600  0.75905200  0.93269200  1
  O  O26  1  0.75905600  0.74094800  0.06730800  1
  O  O27  1  0.74094400  0.25905200  0.56730800  1
  O  O28  1  0.13289900  0.46191000  0.12227000  1
  O  O29  1  0.36710100  0.53809000  0.62227000  1
  O  O30  1  0.86710100  0.96191000  0.37773000  1
  O  O31  1  0.63289900  0.03809000  0.87773000  1
