# generated using pymatgen
data_Pr9(Ni13P6)2
_symmetry_space_group_name_H-M   'P 1'
_cell_length_a   14.42436070
_cell_length_b   14.42436070
_cell_length_c   3.87631600
_cell_angle_alpha   90.00000000
_cell_angle_beta   90.00000000
_cell_angle_gamma   120.00000320
_symmetry_Int_Tables_number   1
_chemical_formula_structural   Pr9(Ni13P6)2
_chemical_formula_sum   'Pr9 Ni26 P12'
_cell_volume   698.46225107
_cell_formula_units_Z   1
loop_
 _symmetry_equiv_pos_site_id
 _symmetry_equiv_pos_as_xyz
  1  'x, y, z'
loop_
 _atom_site_type_symbol
 _atom_site_label
 _atom_site_symmetry_multiplicity
 _atom_site_fract_x
 _atom_site_fract_y
 _atom_site_fract_z
 _atom_site_occupancy
  Pr  Pr0  1  0.19104800  0.80895200  0.50000000  1
  Pr  Pr1  1  0.19104800  0.38209600  0.50000000  1
  Pr  Pr2  1  0.61790400  0.80895200  0.50000000  1
  Pr  Pr3  1  0.90753600  0.09246400  0.50000000  1
  Pr  Pr4  1  0.90753600  0.81507100  0.50000000  1
  Pr  Pr5  1  0.18492900  0.09246400  0.50000000  1
  Pr  Pr6  1  0.57551600  0.42448400  0.00000000  1
  Pr  Pr7  1  0.57551600  0.15103300  0.00000000  1
  Pr  Pr8  1  0.84896700  0.42448400  0.00000000  1
  Ni  Ni9  1  0.80901300  0.19098700  0.00000000  1
  Ni  Ni10  1  0.80901300  0.61802700  0.00000000  1
  Ni  Ni11  1  0.38197300  0.19098700  0.00000000  1
  Ni  Ni12  1  0.39987100  0.60012900  0.50000000  1
  Ni  Ni13  1  0.39987100  0.79974200  0.50000000  1
  Ni  Ni14  1  0.20025800  0.60012900  0.50000000  1
  Ni  Ni15  1  0.27806100  0.72193900  0.00000000  1
  Ni  Ni16  1  0.27806100  0.55612100  0.00000000  1
  Ni  Ni17  1  0.44387900  0.72193900  0.00000000  1
  Ni  Ni18  1  0.09803300  0.90196700  0.00000000  1
  Ni  Ni19  1  0.09803300  0.19606600  0.00000000  1
  Ni  Ni20  1  0.80393400  0.90196700  0.00000000  1
  Ni  Ni21  1  0.37960800  0.05204800  0.50000000  1
  Ni  Ni22  1  0.94795200  0.32756000  0.50000000  1
  Ni  Ni23  1  0.94795200  0.62039200  0.50000000  1
  Ni  Ni24  1  0.67244000  0.62039200  0.50000000  1
  Ni  Ni25  1  0.67244000  0.05204800  0.50000000  1
  Ni  Ni26  1  0.37960800  0.32756000  0.50000000  1
  Ni  Ni27  1  0.07645900  0.45469700  0.00000000  1
  Ni  Ni28  1  0.54530300  0.62176300  0.00000000  1
  Ni  Ni29  1  0.54530300  0.92354100  0.00000000  1
  Ni  Ni30  1  0.37823700  0.92354100  0.00000000  1
  Ni  Ni31  1  0.37823700  0.45469700  0.00000000  1
  Ni  Ni32  1  0.07645900  0.62176300  0.00000000  1
  Ni  Ni33  1  0.66666700  0.33333300  0.50000000  1
  Ni  Ni34  1  0.00000000  0.00000000  0.00000000  1
  P  P35  1  0.48635700  0.51364300  0.50000000  1
  P  P36  1  0.48635700  0.97271500  0.50000000  1
  P  P37  1  0.02728500  0.51364300  0.50000000  1
  P  P38  1  0.99598600  0.27576800  0.00000000  1
  P  P39  1  0.72423200  0.72021700  0.00000000  1
  P  P40  1  0.72423200  0.00401400  0.00000000  1
  P  P41  1  0.27978300  0.00401400  0.00000000  1
  P  P42  1  0.27978300  0.27576800  0.00000000  1
  P  P43  1  0.99598600  0.72021700  0.00000000  1
  P  P44  1  0.75923300  0.24076700  0.50000000  1
  P  P45  1  0.75923300  0.51846600  0.50000000  1
  P  P46  1  0.48153400  0.24076700  0.50000000  1
