# generated using pymatgen
data_Na2MnFeF7
_symmetry_space_group_name_H-M   'P 1'
_cell_length_a   7.61185133
_cell_length_b   7.61185133
_cell_length_c   7.61185133
_cell_angle_alpha   121.12541360
_cell_angle_beta   119.11530815
_cell_angle_gamma   89.80050190
_symmetry_Int_Tables_number   1
_chemical_formula_structural   Na2MnFeF7
_chemical_formula_sum   'Na4 Mn2 Fe2 F14'
_cell_volume   311.16763695
_cell_formula_units_Z   2
loop_
 _symmetry_equiv_pos_site_id
 _symmetry_equiv_pos_as_xyz
  1  'x, y, z'
loop_
 _atom_site_type_symbol
 _atom_site_label
 _atom_site_symmetry_multiplicity
 _atom_site_fract_x
 _atom_site_fract_y
 _atom_site_fract_z
 _atom_site_occupancy
  Na  Na0  1  0.50000000  0.50000000  0.00000000  1
  Na  Na1  1  0.00000000  0.00000000  0.00000000  1
  Na  Na2  1  0.00000000  0.50000000  0.00000000  1
  Na  Na3  1  0.00000000  0.00000000  0.50000000  1
  Mn  Mn4  1  0.50000000  0.50000000  0.50000000  1
  Mn  Mn5  1  0.50000000  0.00000000  0.00000000  1
  Fe  Fe6  1  0.00000000  0.50000000  0.50000000  1
  Fe  Fe7  1  0.50000000  0.00000000  0.50000000  1
  F  F8  1  0.85879400  0.58706500  0.27172900  1
  F  F9  1  0.18466300  0.91293500  0.27172900  1
  F  F10  1  0.17377300  0.80479100  0.75410600  1
  F  F11  1  0.44931500  0.69520900  0.36898200  1
  F  F12  1  0.44931500  0.08033300  0.75410600  1
  F  F13  1  0.17377300  0.41966700  0.36898200  1
  F  F14  1  0.82622700  0.58033300  0.63101800  1
  F  F15  1  0.55068500  0.91966700  0.24589400  1
  F  F16  1  0.55068500  0.30479100  0.63101800  1
  F  F17  1  0.82622700  0.19520900  0.24589400  1
  F  F18  1  0.37943200  0.25000000  0.12943200  1
  F  F19  1  0.14120600  0.41293500  0.72827100  1
  F  F20  1  0.81533700  0.08706500  0.72827100  1
  F  F21  1  0.62056800  0.75000000  0.87056800  1
