# generated using pymatgen
data_NaCr2FeO10
_symmetry_space_group_name_H-M   'P 1'
_cell_length_a   5.98088952
_cell_length_b   5.98088952
_cell_length_c   7.60213474
_cell_angle_alpha   68.88554336
_cell_angle_beta   68.88554336
_cell_angle_gamma   54.99476324
_symmetry_Int_Tables_number   1
_chemical_formula_structural   NaCr2FeO10
_chemical_formula_sum   'Na1 Cr2 Fe1 O10'
_cell_volume   203.54787957
_cell_formula_units_Z   1
loop_
 _symmetry_equiv_pos_site_id
 _symmetry_equiv_pos_as_xyz
  1  'x, y, z'
loop_
 _atom_site_type_symbol
 _atom_site_label
 _atom_site_symmetry_multiplicity
 _atom_site_fract_x
 _atom_site_fract_y
 _atom_site_fract_z
 _atom_site_occupancy
  Na  Na0  1  0.00000000  0.00000000  0.50000000  1
  Cr  Cr1  1  0.39254900  0.39254900  0.28945900  1
  Cr  Cr2  1  0.60745100  0.60745100  0.71054100  1
  Fe  Fe3  1  0.00000000  0.00000000  0.00000000  1
  O  O4  1  0.81218200  0.81218200  0.07651600  1
  O  O5  1  0.18781800  0.18781800  0.92348400  1
  O  O6  1  0.74477100  0.23133500  0.19577100  1
  O  O7  1  0.25522900  0.76866500  0.80422900  1
  O  O8  1  0.76866500  0.25522900  0.80422900  1
  O  O9  1  0.23133500  0.74477100  0.19577100  1
  O  O10  1  0.64425500  0.64425500  0.48108000  1
  O  O11  1  0.35574500  0.35574500  0.51892000  1
  O  O12  1  0.25077700  0.25077700  0.25544300  1
  O  O13  1  0.74922300  0.74922300  0.74455700  1
