# generated using pymatgen
data_Na3Al4O8
_symmetry_space_group_name_H-M   'P 1'
_cell_length_a   9.09729029
_cell_length_b   9.09729029
_cell_length_c   9.09729029
_cell_angle_alpha   109.47122063
_cell_angle_beta   109.47122063
_cell_angle_gamma   109.47122063
_symmetry_Int_Tables_number   1
_chemical_formula_structural   Na3Al4O8
_chemical_formula_sum   'Na6 Al8 O16'
_cell_volume   579.58117227
_cell_formula_units_Z   2
loop_
 _symmetry_equiv_pos_site_id
 _symmetry_equiv_pos_as_xyz
  1  'x, y, z'
loop_
 _atom_site_type_symbol
 _atom_site_label
 _atom_site_symmetry_multiplicity
 _atom_site_fract_x
 _atom_site_fract_y
 _atom_site_fract_z
 _atom_site_occupancy
  Na  Na0  1  0.50000000  0.75000000  0.25000000  1
  Na  Na1  1  0.50000000  0.25000000  0.75000000  1
  Na  Na2  1  0.25000000  0.50000000  0.75000000  1
  Na  Na3  1  0.75000000  0.50000000  0.25000000  1
  Na  Na4  1  0.75000000  0.25000000  0.50000000  1
  Na  Na5  1  0.25000000  0.75000000  0.50000000  1
  Al  Al6  1  0.31251800  0.31251800  0.31251800  1
  Al  Al7  1  0.68748200  0.68748200  0.68748200  1
  Al  Al8  1  0.00000000  0.00000000  0.68748200  1
  Al  Al9  1  0.00000000  0.68748200  0.00000000  1
  Al  Al10  1  0.00000000  0.00000000  0.31251800  1
  Al  Al11  1  0.00000000  0.31251800  0.00000000  1
  Al  Al12  1  0.68748200  0.00000000  0.00000000  1
  Al  Al13  1  0.31251800  0.00000000  0.00000000  1
  O  O14  1  0.39808300  0.19904200  0.19904200  1
  O  O15  1  0.60191700  0.80095800  0.80095800  1
  O  O16  1  0.00000000  0.19904200  0.80095800  1
  O  O17  1  0.00000000  0.80095800  0.19904200  1
  O  O18  1  0.19904200  0.39808300  0.19904200  1
  O  O19  1  0.80095800  0.00000000  0.19904200  1
  O  O20  1  0.80095800  0.60191700  0.80095800  1
  O  O21  1  0.19904200  0.00000000  0.80095800  1
  O  O22  1  0.19904200  0.19904200  0.39808300  1
  O  O23  1  0.80095800  0.80095800  0.60191700  1
  O  O24  1  0.80095800  0.19904200  0.00000000  1
  O  O25  1  0.19904200  0.80095800  0.00000000  1
  O  O26  1  0.50000000  0.50000000  0.50000000  1
  O  O27  1  0.00000000  0.00000000  0.50000000  1
  O  O28  1  0.00000000  0.50000000  0.00000000  1
  O  O29  1  0.50000000  0.00000000  0.00000000  1
