# generated using pymatgen
data_Nb9As2O25
_symmetry_space_group_name_H-M   'P 1'
_cell_length_a   11.57124832
_cell_length_b   11.57124832
_cell_length_c   11.57124832
_cell_angle_alpha   91.75052099
_cell_angle_beta   91.75052099
_cell_angle_gamma   159.86843721
_symmetry_Int_Tables_number   1
_chemical_formula_structural   Nb9As2O25
_chemical_formula_sum   'Nb9 As2 O25'
_cell_volume   525.03189439
_cell_formula_units_Z   1
loop_
 _symmetry_equiv_pos_site_id
 _symmetry_equiv_pos_as_xyz
  1  'x, y, z'
loop_
 _atom_site_type_symbol
 _atom_site_label
 _atom_site_symmetry_multiplicity
 _atom_site_fract_x
 _atom_site_fract_y
 _atom_site_fract_z
 _atom_site_occupancy
  Nb  Nb0  1  0.00000000  0.00000000  0.00000000  1
  Nb  Nb1  1  0.22132800  0.89926700  0.12059500  1
  Nb  Nb2  1  0.77867200  0.10073300  0.87940500  1
  Nb  Nb3  1  0.89926700  0.77867200  0.67794000  1
  Nb  Nb4  1  0.10073300  0.22132800  0.32206000  1
  Nb  Nb5  1  0.12467700  0.68120400  0.80588100  1
  Nb  Nb6  1  0.87532300  0.31879600  0.19411900  1
  Nb  Nb7  1  0.68120400  0.87532300  0.55652700  1
  Nb  Nb8  1  0.31879600  0.12467700  0.44347300  1
  As  As9  1  0.75000000  0.25000000  0.50000000  1
  As  As10  1  0.25000000  0.75000000  0.50000000  1
  O  O11  1  0.35026700  0.83718200  0.18744900  1
  O  O12  1  0.64973300  0.16281800  0.81255100  1
  O  O13  1  0.83718200  0.64973300  0.48691600  1
  O  O14  1  0.16281800  0.35026700  0.51308400  1
  O  O15  1  0.25399200  0.61153100  0.86552300  1
  O  O16  1  0.74600800  0.38846900  0.13447700  1
  O  O17  1  0.61153100  0.74600800  0.35753900  1
  O  O18  1  0.38846900  0.25399200  0.64246100  1
  O  O19  1  0.18082200  0.78724100  0.96806400  1
  O  O20  1  0.81917800  0.21275900  0.03193600  1
  O  O21  1  0.78724100  0.81917800  0.60641900  1
  O  O22  1  0.21275900  0.18082200  0.39358100  1
  O  O23  1  0.09447100  0.55872100  0.65319200  1
  O  O24  1  0.90552900  0.44127900  0.34680800  1
  O  O25  1  0.55872100  0.90552900  0.46425000  1
  O  O26  1  0.44127900  0.09447100  0.53575000  1
  O  O27  1  0.50000000  0.50000000  0.00000000  1
  O  O28  1  0.11675800  0.94979300  0.06655100  1
  O  O29  1  0.88324200  0.05020700  0.93344900  1
  O  O30  1  0.94979300  0.88324200  0.83303500  1
  O  O31  1  0.05020700  0.11675800  0.16696500  1
  O  O32  1  0.01620500  0.71852200  0.73472800  1
  O  O33  1  0.98379500  0.28147800  0.26527200  1
  O  O34  1  0.71852200  0.98379500  0.70231700  1
  O  O35  1  0.28147800  0.01620500  0.29768300  1
