# generated using pymatgen
data_Rb3Ce(Cl3O)2
_symmetry_space_group_name_H-M   'P 1'
_cell_length_a   12.09677349
_cell_length_b   12.09677349
_cell_length_c   17.00693600
_cell_angle_alpha   90.00000000
_cell_angle_beta   90.00000000
_cell_angle_gamma   119.99999722
_symmetry_Int_Tables_number   1
_chemical_formula_structural   Rb3Ce(Cl3O)2
_chemical_formula_sum   'Rb18 Ce6 Cl36 O12'
_cell_volume   2155.24089277
_cell_formula_units_Z   6
loop_
 _symmetry_equiv_pos_site_id
 _symmetry_equiv_pos_as_xyz
  1  'x, y, z'
loop_
 _atom_site_type_symbol
 _atom_site_label
 _atom_site_symmetry_multiplicity
 _atom_site_fract_x
 _atom_site_fract_y
 _atom_site_fract_z
 _atom_site_occupancy
  Rb  Rb0  1  0.66666700  0.33333300  0.88652000  1
  Rb  Rb1  1  0.33333300  0.66666700  0.11348000  1
  Rb  Rb2  1  0.33333300  0.66666700  0.38652000  1
  Rb  Rb3  1  0.66666700  0.33333300  0.61348000  1
  Rb  Rb4  1  0.53845300  0.91288000  0.88506700  1
  Rb  Rb5  1  0.46154700  0.08712000  0.11493300  1
  Rb  Rb6  1  0.37442700  0.46154700  0.88506700  1
  Rb  Rb7  1  0.46154700  0.08712000  0.38506700  1
  Rb  Rb8  1  0.62557300  0.53845300  0.11493300  1
  Rb  Rb9  1  0.53845300  0.91288000  0.61493300  1
  Rb  Rb10  1  0.08712000  0.62557300  0.88506700  1
  Rb  Rb11  1  0.62557300  0.53845300  0.38506700  1
  Rb  Rb12  1  0.91288000  0.37442700  0.11493300  1
  Rb  Rb13  1  0.37442700  0.46154700  0.61493300  1
  Rb  Rb14  1  0.91288000  0.37442700  0.38506700  1
  Rb  Rb15  1  0.08712000  0.62557300  0.61493300  1
  Rb  Rb16  1  0.00000000  0.00000000  0.00000000  1
  Rb  Rb17  1  0.00000000  0.00000000  0.50000000  1
  Ce  Ce18  1  0.95388300  0.20151400  0.75000000  1
  Ce  Ce19  1  0.04611700  0.79848600  0.25000000  1
  Ce  Ce20  1  0.24763100  0.04611700  0.75000000  1
  Ce  Ce21  1  0.75236900  0.95388300  0.25000000  1
  Ce  Ce22  1  0.79848600  0.75236900  0.75000000  1
  Ce  Ce23  1  0.20151400  0.24763100  0.25000000  1
  Cl  Cl24  1  0.82104200  0.96325500  0.84196400  1
  Cl  Cl25  1  0.17895800  0.03674500  0.15803600  1
  Cl  Cl26  1  0.14221300  0.17895800  0.84196400  1
  Cl  Cl27  1  0.17895800  0.03674500  0.34196400  1
  Cl  Cl28  1  0.85778700  0.82104200  0.15803600  1
  Cl  Cl29  1  0.82104200  0.96325500  0.65803600  1
  Cl  Cl30  1  0.03674500  0.85778700  0.84196400  1
  Cl  Cl31  1  0.85778700  0.82104200  0.34196400  1
  Cl  Cl32  1  0.96325500  0.14221300  0.15803600  1
  Cl  Cl33  1  0.14221300  0.17895800  0.65803600  1
  Cl  Cl34  1  0.96325500  0.14221300  0.34196400  1
  Cl  Cl35  1  0.03674500  0.85778700  0.65803600  1
  Cl  Cl36  1  0.56594100  0.70657100  0.99221300  1
  Cl  Cl37  1  0.43405900  0.29342900  0.00778700  1
  Cl  Cl38  1  0.14063100  0.43405900  0.99221300  1
  Cl  Cl39  1  0.43405900  0.29342900  0.49221300  1
  Cl  Cl40  1  0.85936900  0.56594100  0.00778700  1
  Cl  Cl41  1  0.56594100  0.70657100  0.50778700  1
  Cl  Cl42  1  0.29342900  0.85936900  0.99221300  1
  Cl  Cl43  1  0.85936900  0.56594100  0.49221300  1
  Cl  Cl44  1  0.70657100  0.14063100  0.00778700  1
  Cl  Cl45  1  0.14063100  0.43405900  0.50778700  1
  Cl  Cl46  1  0.70657100  0.14063100  0.49221300  1
  Cl  Cl47  1  0.29342900  0.85936900  0.50778700  1
  Cl  Cl48  1  0.70111400  0.15286700  0.75000000  1
  Cl  Cl49  1  0.29888600  0.84713300  0.25000000  1
  Cl  Cl50  1  0.45175300  0.29888600  0.75000000  1
  Cl  Cl51  1  0.54824700  0.70111400  0.25000000  1
  Cl  Cl52  1  0.84713300  0.54824700  0.75000000  1
  Cl  Cl53  1  0.15286700  0.45175300  0.25000000  1
  Cl  Cl54  1  0.54501600  0.69362400  0.75000000  1
  Cl  Cl55  1  0.45498400  0.30637600  0.25000000  1
  Cl  Cl56  1  0.14860700  0.45498400  0.75000000  1
  Cl  Cl57  1  0.85139300  0.54501600  0.25000000  1
  Cl  Cl58  1  0.30637600  0.85139300  0.75000000  1
  Cl  Cl59  1  0.69362400  0.14860700  0.25000000  1
  O  O60  1  0.93291200  0.26466800  0.85873200  1
  O  O61  1  0.06708800  0.73533200  0.14126800  1
  O  O62  1  0.33175600  0.06708800  0.85873200  1
  O  O63  1  0.06708800  0.73533200  0.35873200  1
  O  O64  1  0.66824400  0.93291200  0.14126800  1
  O  O65  1  0.93291200  0.26466800  0.64126800  1
  O  O66  1  0.73533200  0.66824400  0.85873200  1
  O  O67  1  0.66824400  0.93291200  0.35873200  1
  O  O68  1  0.26466800  0.33175600  0.14126800  1
  O  O69  1  0.33175600  0.06708800  0.64126800  1
  O  O70  1  0.26466800  0.33175600  0.35873200  1
  O  O71  1  0.73533200  0.66824400  0.64126800  1
