# generated using pymatgen
data_Ni(CO3)2
_symmetry_space_group_name_H-M   'P 1'
_cell_length_a   6.31032100
_cell_length_b   6.25003238
_cell_length_c   18.98081500
_cell_angle_alpha   90.00000000
_cell_angle_beta   90.00000000
_cell_angle_gamma   120.31960240
_symmetry_Int_Tables_number   1
_chemical_formula_structural   Ni(CO3)2
_chemical_formula_sum   'Ni4 C8 O24'
_cell_volume   646.20679801
_cell_formula_units_Z   4
loop_
 _symmetry_equiv_pos_site_id
 _symmetry_equiv_pos_as_xyz
  1  'x, y, z'
loop_
 _atom_site_type_symbol
 _atom_site_label
 _atom_site_symmetry_multiplicity
 _atom_site_fract_x
 _atom_site_fract_y
 _atom_site_fract_z
 _atom_site_occupancy
  Ni  Ni0  1  0.50000000  0.50000000  0.00000000  1
  Ni  Ni1  1  0.00000000  0.50000000  0.50000000  1
  Ni  Ni2  1  0.50000000  0.00000000  0.25000000  1
  Ni  Ni3  1  0.50000000  0.00000000  0.75000000  1
  C  C4  1  0.00000000  0.00000000  0.15980900  1
  C  C5  1  0.00000000  0.00000000  0.84019100  1
  C  C6  1  0.00000000  0.00000000  0.34019100  1
  C  C7  1  0.00000000  0.00000000  0.65980900  1
  C  C8  1  0.50000000  0.50000000  0.40978100  1
  C  C9  1  0.50000000  0.50000000  0.59021900  1
  C  C10  1  0.00000000  0.50000000  0.09021900  1
  C  C11  1  0.00000000  0.50000000  0.90978100  1
  O  O12  1  0.32800100  0.17667900  0.00000000  1
  O  O13  1  0.67199900  0.82332100  0.00000000  1
  O  O14  1  0.84867800  0.17667900  0.50000000  1
  O  O15  1  0.15132200  0.82332100  0.50000000  1
  O  O16  1  0.31185800  0.49571300  0.41015300  1
  O  O17  1  0.68814200  0.50428700  0.58984700  1
  O  O18  1  0.68814200  0.50428700  0.41015300  1
  O  O19  1  0.18385400  0.49571300  0.08984700  1
  O  O20  1  0.31185800  0.49571300  0.58984700  1
  O  O21  1  0.81614600  0.50428700  0.91015300  1
  O  O22  1  0.81614600  0.50428700  0.08984700  1
  O  O23  1  0.18385400  0.49571300  0.91015300  1
  O  O24  1  0.18388400  0.99543600  0.16022600  1
  O  O25  1  0.81611600  0.00456400  0.83977400  1
  O  O26  1  0.81611600  0.00456400  0.16022600  1
  O  O27  1  0.81155200  0.99543600  0.33977400  1
  O  O28  1  0.18388400  0.99543600  0.83977400  1
  O  O29  1  0.18844800  0.00456400  0.66022600  1
  O  O30  1  0.18844800  0.00456400  0.33977400  1
  O  O31  1  0.81155200  0.99543600  0.66022600  1
  O  O32  1  0.33823300  0.67646600  0.25000000  1
  O  O33  1  0.66176700  0.32353400  0.75000000  1
  O  O34  1  0.66176700  0.32353400  0.25000000  1
  O  O35  1  0.33823300  0.67646600  0.75000000  1
