# generated using pymatgen
data_Np(WO4)2
_symmetry_space_group_name_H-M   'P 1'
_cell_length_a   9.77322100
_cell_length_b   10.38906200
_cell_length_c   14.58479400
_cell_angle_alpha   90.00000000
_cell_angle_beta   90.00000000
_cell_angle_gamma   90.00000000
_symmetry_Int_Tables_number   1
_chemical_formula_structural   Np(WO4)2
_chemical_formula_sum   'Np8 W16 O64'
_cell_volume   1480.86120896
_cell_formula_units_Z   8
loop_
 _symmetry_equiv_pos_site_id
 _symmetry_equiv_pos_as_xyz
  1  'x, y, z'
loop_
 _atom_site_type_symbol
 _atom_site_label
 _atom_site_symmetry_multiplicity
 _atom_site_fract_x
 _atom_site_fract_y
 _atom_site_fract_z
 _atom_site_occupancy
  Np  Np0  1  0.27693000  0.96560200  0.61028700  1
  Np  Np1  1  0.72307000  0.03439800  0.38971300  1
  Np  Np2  1  0.22307000  0.46560200  0.38971300  1
  Np  Np3  1  0.72307000  0.53439800  0.11028700  1
  Np  Np4  1  0.77693000  0.53439800  0.61028700  1
  Np  Np5  1  0.27693000  0.46560200  0.88971300  1
  Np  Np6  1  0.77693000  0.03439800  0.88971300  1
  Np  Np7  1  0.22307000  0.96560200  0.11028700  1
  W  W8  1  0.00140700  0.72399600  0.94073600  1
  W  W9  1  0.99859300  0.27600400  0.05926400  1
  W  W10  1  0.49859300  0.22399600  0.05926400  1
  W  W11  1  0.99859300  0.77600400  0.44073600  1
  W  W12  1  0.50140700  0.77600400  0.94073600  1
  W  W13  1  0.00140700  0.22399600  0.55926400  1
  W  W14  1  0.50140700  0.27600400  0.55926400  1
  W  W15  1  0.49859300  0.72399600  0.44073600  1
  W  W16  1  0.18137100  0.60512300  0.65184900  1
  W  W17  1  0.81862900  0.39487700  0.34815100  1
  W  W18  1  0.31862900  0.10512300  0.34815100  1
  W  W19  1  0.81862900  0.89487700  0.15184900  1
  W  W20  1  0.68137100  0.89487700  0.65184900  1
  W  W21  1  0.18137100  0.10512300  0.84815100  1
  W  W22  1  0.68137100  0.39487700  0.84815100  1
  W  W23  1  0.31862900  0.60512300  0.15184900  1
  O  O24  1  0.38712200  0.67242000  0.87551600  1
  O  O25  1  0.61287800  0.32758000  0.12448400  1
  O  O26  1  0.11287800  0.17242000  0.12448400  1
  O  O27  1  0.61287800  0.82758000  0.37551600  1
  O  O28  1  0.88712200  0.82758000  0.87551600  1
  O  O29  1  0.38712200  0.17242000  0.62448400  1
  O  O30  1  0.88712200  0.32758000  0.62448400  1
  O  O31  1  0.11287800  0.67242000  0.37551600  1
  O  O32  1  0.23745000  0.57016600  0.53611400  1
  O  O33  1  0.76255000  0.42983400  0.46388600  1
  O  O34  1  0.26255000  0.07016600  0.46388600  1
  O  O35  1  0.76255000  0.92983400  0.03611400  1
  O  O36  1  0.73745000  0.92983400  0.53611400  1
  O  O37  1  0.23745000  0.07016600  0.96388600  1
  O  O38  1  0.73745000  0.42983400  0.96388600  1
  O  O39  1  0.26255000  0.57016600  0.03611400  1
  O  O40  1  0.11975300  0.83192400  0.99772200  1
  O  O41  1  0.88024700  0.16807600  0.00227800  1
  O  O42  1  0.38024700  0.33192400  0.00227800  1
  O  O43  1  0.88024700  0.66807600  0.49772200  1
  O  O44  1  0.61975300  0.66807600  0.99772200  1
  O  O45  1  0.11975300  0.33192400  0.50227800  1
  O  O46  1  0.61975300  0.16807600  0.50227800  1
  O  O47  1  0.38024700  0.83192400  0.49772200  1
  O  O48  1  0.22964200  0.76998900  0.67695500  1
  O  O49  1  0.77035800  0.23001100  0.32304500  1
  O  O50  1  0.27035800  0.26998900  0.32304500  1
  O  O51  1  0.77035800  0.73001100  0.17695500  1
  O  O52  1  0.72964200  0.73001100  0.67695500  1
  O  O53  1  0.22964200  0.26998900  0.82304500  1
  O  O54  1  0.72964200  0.23001100  0.82304500  1
  O  O55  1  0.27035800  0.76998900  0.17695500  1
  O  O56  1  0.09512600  0.60806700  0.86894300  1
  O  O57  1  0.90487400  0.39193300  0.13105700  1
  O  O58  1  0.40487400  0.10806700  0.13105700  1
  O  O59  1  0.90487400  0.89193300  0.36894300  1
  O  O60  1  0.59512600  0.89193300  0.86894300  1
  O  O61  1  0.09512600  0.10806700  0.63105700  1
  O  O62  1  0.59512600  0.39193300  0.63105700  1
  O  O63  1  0.40487400  0.60806700  0.36894300  1
  O  O64  1  0.26435300  0.99763800  0.76731000  1
  O  O65  1  0.73564700  0.00236200  0.23269000  1
  O  O66  1  0.23564700  0.49763800  0.23269000  1
  O  O67  1  0.73564700  0.50236200  0.26731000  1
  O  O68  1  0.76435300  0.50236200  0.76731000  1
  O  O69  1  0.26435300  0.49763800  0.73269000  1
  O  O70  1  0.76435300  0.00236200  0.73269000  1
  O  O71  1  0.23564700  0.99763800  0.26731000  1
  O  O72  1  0.09450300  0.86245900  0.52715000  1
  O  O73  1  0.90549700  0.13754100  0.47285000  1
  O  O74  1  0.40549700  0.36245900  0.47285000  1
  O  O75  1  0.90549700  0.63754100  0.02715000  1
  O  O76  1  0.59450300  0.63754100  0.52715000  1
  O  O77  1  0.09450300  0.36245900  0.97285000  1
  O  O78  1  0.59450300  0.13754100  0.97285000  1
  O  O79  1  0.40549700  0.86245900  0.02715000  1
  O  O80  1  0.99709300  0.58176100  0.65552600  1
  O  O81  1  0.00290700  0.41823900  0.34447400  1
  O  O82  1  0.50290700  0.08176100  0.34447400  1
  O  O83  1  0.00290700  0.91823900  0.15552600  1
  O  O84  1  0.49709300  0.91823900  0.65552600  1
  O  O85  1  0.99709300  0.08176100  0.84447400  1
  O  O86  1  0.49709300  0.41823900  0.84447400  1
  O  O87  1  0.50290700  0.58176100  0.15552600  1
