# generated using pymatgen
data_NaCSCl3O4
_symmetry_space_group_name_H-M   'P 1'
_cell_length_a   5.91399000
_cell_length_b   10.72435500
_cell_length_c   12.92891021
_cell_angle_alpha   75.71180364
_cell_angle_beta   90.00000000
_cell_angle_gamma   90.00000000
_symmetry_Int_Tables_number   1
_chemical_formula_structural   NaCSCl3O4
_chemical_formula_sum   'Na4 C4 S4 Cl12 O16'
_cell_volume   794.63430536
_cell_formula_units_Z   4
loop_
 _symmetry_equiv_pos_site_id
 _symmetry_equiv_pos_as_xyz
  1  'x, y, z'
loop_
 _atom_site_type_symbol
 _atom_site_label
 _atom_site_symmetry_multiplicity
 _atom_site_fract_x
 _atom_site_fract_y
 _atom_site_fract_z
 _atom_site_occupancy
  Na  Na0  1  0.45476400  0.78141100  0.10907300  1
  Na  Na1  1  0.54523600  0.21858900  0.89092700  1
  Na  Na2  1  0.95476400  0.71858900  0.89092700  1
  Na  Na3  1  0.04523600  0.28141100  0.10907300  1
  C  C4  1  0.92171100  0.94354300  0.32050200  1
  C  C5  1  0.07828900  0.05645700  0.67949800  1
  C  C6  1  0.42171100  0.55645700  0.67949800  1
  C  C7  1  0.57828900  0.44354300  0.32050200  1
  S  S8  1  0.95566300  0.94523700  0.17382800  1
  S  S9  1  0.04433700  0.05476300  0.82617200  1
  S  S10  1  0.45566300  0.55476300  0.82617200  1
  S  S11  1  0.54433700  0.44523700  0.17382800  1
  Cl  Cl12  1  0.52755900  0.70243500  0.59998500  1
  Cl  Cl13  1  0.47244100  0.29756500  0.40001500  1
  Cl  Cl14  1  0.02755900  0.79756500  0.40001500  1
  Cl  Cl15  1  0.97244100  0.20243500  0.59998500  1
  Cl  Cl16  1  0.63262200  0.96109000  0.34657600  1
  Cl  Cl17  1  0.36737800  0.03891000  0.65342400  1
  Cl  Cl18  1  0.13262200  0.53891000  0.65342400  1
  Cl  Cl19  1  0.86737800  0.46109000  0.34657600  1
  Cl  Cl20  1  0.92103400  0.92481900  0.65569600  1
  Cl  Cl21  1  0.07896600  0.07518100  0.34430400  1
  Cl  Cl22  1  0.42103400  0.57518100  0.34430400  1
  Cl  Cl23  1  0.57896600  0.42481900  0.65569600  1
  O  O24  1  0.19719400  0.92023300  0.16187500  1
  O  O25  1  0.80280600  0.07976700  0.83812500  1
  O  O26  1  0.69719400  0.57976700  0.83812500  1
  O  O27  1  0.30280600  0.42023300  0.16187500  1
  O  O28  1  0.61633200  0.57434200  0.11734900  1
  O  O29  1  0.38366800  0.42565800  0.88265100  1
  O  O30  1  0.11633200  0.92565800  0.88265100  1
  O  O31  1  0.88366800  0.07434200  0.11734900  1
  O  O32  1  0.10693100  0.66394100  0.07683600  1
  O  O33  1  0.89306900  0.33605900  0.92316400  1
  O  O34  1  0.60693100  0.83605900  0.92316400  1
  O  O35  1  0.39306900  0.16394100  0.07683600  1
  O  O36  1  0.80840000  0.84165200  0.15860900  1
  O  O37  1  0.19160000  0.15834800  0.84139100  1
  O  O38  1  0.30840000  0.65834800  0.84139100  1
  O  O39  1  0.69160000  0.34165200  0.15860900  1
