# generated using pymatgen
data_RbNbGeO5
_symmetry_space_group_name_H-M   'P 1'
_cell_length_a   7.58624500
_cell_length_b   10.59485600
_cell_length_c   20.98767400
_cell_angle_alpha   90.00000000
_cell_angle_beta   90.00000000
_cell_angle_gamma   90.00000000
_symmetry_Int_Tables_number   1
_chemical_formula_structural   RbNbGeO5
_chemical_formula_sum   'Rb12 Nb12 Ge12 O60'
_cell_volume   1686.88793608
_cell_formula_units_Z   12
loop_
 _symmetry_equiv_pos_site_id
 _symmetry_equiv_pos_as_xyz
  1  'x, y, z'
loop_
 _atom_site_type_symbol
 _atom_site_label
 _atom_site_symmetry_multiplicity
 _atom_site_fract_x
 _atom_site_fract_y
 _atom_site_fract_z
 _atom_site_occupancy
  Rb  Rb0  1  0.23969400  0.38231800  0.34863200  1
  Rb  Rb1  1  0.26030600  0.61768200  0.84863200  1
  Rb  Rb2  1  0.76030600  0.88231800  0.15136800  1
  Rb  Rb3  1  0.73969400  0.11768200  0.65136800  1
  Rb  Rb4  1  0.25896400  0.68600900  0.16713800  1
  Rb  Rb5  1  0.24103600  0.31399100  0.66713800  1
  Rb  Rb6  1  0.74103600  0.18600900  0.33286200  1
  Rb  Rb7  1  0.75896400  0.81399100  0.83286200  1
  Rb  Rb8  1  0.22178300  0.38463700  0.01718300  1
  Rb  Rb9  1  0.27821700  0.61536300  0.51718300  1
  Rb  Rb10  1  0.77821700  0.88463700  0.48281700  1
  Rb  Rb11  1  0.72178300  0.11536300  0.98281700  1
  Nb  Nb12  1  0.25766800  0.02086700  0.39899900  1
  Nb  Nb13  1  0.24233200  0.97913300  0.89899900  1
  Nb  Nb14  1  0.74233200  0.52086700  0.10100100  1
  Nb  Nb15  1  0.75766800  0.47913300  0.60100100  1
  Nb  Nb16  1  0.47995900  0.26676200  0.49964200  1
  Nb  Nb17  1  0.02004100  0.73323800  0.99964200  1
  Nb  Nb18  1  0.52004100  0.76676200  0.00035800  1
  Nb  Nb19  1  0.97995900  0.23323800  0.50035800  1
  Nb  Nb20  1  0.23562100  0.01477600  0.07357700  1
  Nb  Nb21  1  0.26437900  0.98522400  0.57357700  1
  Nb  Nb22  1  0.76437900  0.51477600  0.42642300  1
  Nb  Nb23  1  0.73562100  0.48522400  0.92642300  1
  Ge  Ge24  1  0.51930400  0.24447800  0.14847700  1
  Ge  Ge25  1  0.98069600  0.75552200  0.64847700  1
  Ge  Ge26  1  0.48069600  0.74447800  0.35152300  1
  Ge  Ge27  1  0.01930400  0.25552200  0.85152300  1
  Ge  Ge28  1  0.23502700  0.11683300  0.23043500  1
  Ge  Ge29  1  0.26497300  0.88316700  0.73043500  1
  Ge  Ge30  1  0.76497300  0.61683300  0.26956500  1
  Ge  Ge31  1  0.73502700  0.38316700  0.76956500  1
  Ge  Ge32  1  0.06450200  0.73142300  0.35180700  1
  Ge  Ge33  1  0.43549800  0.26857700  0.85180700  1
  Ge  Ge34  1  0.93549800  0.23142300  0.14819300  1
  Ge  Ge35  1  0.56450200  0.76857700  0.64819300  1
  O  O36  1  0.06095200  0.10287000  0.56278600  1
  O  O37  1  0.43904800  0.89713000  0.06278600  1
  O  O38  1  0.93904800  0.60287000  0.93721400  1
  O  O39  1  0.56095200  0.39713000  0.43721400  1
  O  O40  1  0.23973000  0.08979300  0.31184200  1
  O  O41  1  0.26027000  0.91020700  0.81184200  1
  O  O42  1  0.76027000  0.58979300  0.18815800  1
  O  O43  1  0.73973000  0.41020700  0.68815800  1
  O  O44  1  0.02847300  0.13908300  0.08808900  1
  O  O45  1  0.47152700  0.86091700  0.58808900  1
  O  O46  1  0.97152700  0.63908300  0.41191100  1
  O  O47  1  0.52847300  0.36091700  0.91191100  1
  O  O48  1  0.03628200  0.20823800  0.22439000  1
  O  O49  1  0.46371800  0.79176200  0.72439000  1
  O  O50  1  0.96371800  0.70823800  0.27561000  1
  O  O51  1  0.53628200  0.29176200  0.77561000  1
  O  O52  1  0.41217500  0.16652500  0.08680800  1
  O  O53  1  0.08782500  0.83347500  0.58680800  1
  O  O54  1  0.58782500  0.66652500  0.41319200  1
  O  O55  1  0.91217500  0.33347500  0.91319200  1
  O  O56  1  0.40953000  0.23120900  0.22364200  1
  O  O57  1  0.09047000  0.76879100  0.72364200  1
  O  O58  1  0.59047000  0.73120900  0.27635800  1
  O  O59  1  0.90953000  0.26879100  0.77635800  1
  O  O60  1  0.23740000  0.31240600  0.50134700  1
  O  O61  1  0.26260000  0.68759400  0.00134700  1
  O  O62  1  0.76260000  0.81240600  0.99865300  1
  O  O63  1  0.73740000  0.18759400  0.49865300  1
  O  O64  1  0.42784200  0.14559100  0.42563800  1
  O  O65  1  0.07215800  0.85440900  0.92563800  1
  O  O66  1  0.57215800  0.64559100  0.07436200  1
  O  O67  1  0.92784200  0.35440900  0.57436200  1
  O  O68  1  0.73580000  0.43908200  0.01438300  1
  O  O69  1  0.76420000  0.56091800  0.51438300  1
  O  O70  1  0.26420000  0.93908200  0.48561700  1
  O  O71  1  0.23580000  0.06091800  0.98561700  1
  O  O72  1  0.05638600  0.12487300  0.42867800  1
  O  O73  1  0.44361400  0.87512700  0.92867800  1
  O  O74  1  0.94361400  0.62487300  0.07132200  1
  O  O75  1  0.55638600  0.37512700  0.57132200  1
  O  O76  1  0.72290800  0.16494800  0.16525300  1
  O  O77  1  0.77709200  0.83505200  0.66525300  1
  O  O78  1  0.27709200  0.66494800  0.33474700  1
  O  O79  1  0.22290800  0.33505200  0.83474700  1
  O  O80  1  0.24579300  0.99325700  0.17580900  1
  O  O81  1  0.25420700  0.00674300  0.67580900  1
  O  O82  1  0.75420700  0.49325700  0.32419100  1
  O  O83  1  0.74579300  0.50674300  0.82419100  1
  O  O84  1  0.54413800  0.40395400  0.13053500  1
  O  O85  1  0.95586200  0.59604600  0.63053500  1
  O  O86  1  0.45586200  0.90395400  0.36946500  1
  O  O87  1  0.04413800  0.09604600  0.86946500  1
  O  O88  1  0.06545700  0.88919200  0.37315700  1
  O  O89  1  0.43454300  0.11080800  0.87315700  1
  O  O90  1  0.93454300  0.38919200  0.12684300  1
  O  O91  1  0.56545700  0.61080800  0.62684300  1
  O  O92  1  0.42511400  0.12509300  0.56515100  1
  O  O93  1  0.07488600  0.87490700  0.06515100  1
  O  O94  1  0.57488600  0.62509300  0.93484900  1
  O  O95  1  0.92511400  0.37490700  0.43484900  1
