# generated using pymatgen
data_Na4Sn2Ge5HO16
_symmetry_space_group_name_H-M   'P 1'
_cell_length_a   5.45086600
_cell_length_b   7.05531500
_cell_length_c   21.25897824
_cell_angle_alpha   73.94298203
_cell_angle_beta   90.00000000
_cell_angle_gamma   90.00000000
_symmetry_Int_Tables_number   1
_chemical_formula_structural   Na4Sn2Ge5HO16
_chemical_formula_sum   'Na8 Sn4 Ge10 H2 O32'
_cell_volume   785.67290799
_cell_formula_units_Z   2
loop_
 _symmetry_equiv_pos_site_id
 _symmetry_equiv_pos_as_xyz
  1  'x, y, z'
loop_
 _atom_site_type_symbol
 _atom_site_label
 _atom_site_symmetry_multiplicity
 _atom_site_fract_x
 _atom_site_fract_y
 _atom_site_fract_z
 _atom_site_occupancy
  Na  Na0  1  0.25592100  0.89209000  0.97177200  1
  Na  Na1  1  0.25592100  0.10791000  0.52822800  1
  Na  Na2  1  0.48921400  0.74990600  0.29185800  1
  Na  Na3  1  0.48921400  0.25009400  0.20814200  1
  Na  Na4  1  0.51078600  0.74990600  0.79185800  1
  Na  Na5  1  0.51078600  0.25009400  0.70814200  1
  Na  Na6  1  0.74407900  0.10791000  0.02822800  1
  Na  Na7  1  0.74407900  0.89209000  0.47177200  1
  Sn  Sn8  1  0.25974600  0.38615900  0.91085800  1
  Sn  Sn9  1  0.25974600  0.61384100  0.58914200  1
  Sn  Sn10  1  0.74025400  0.38615900  0.41085800  1
  Sn  Sn11  1  0.74025400  0.61384100  0.08914200  1
  Ge  Ge12  1  0.00295200  0.50000000  0.25000000  1
  Ge  Ge13  1  0.25490000  0.84681200  0.13473300  1
  Ge  Ge14  1  0.25490000  0.15318800  0.36526700  1
  Ge  Ge15  1  0.78303700  0.31514700  0.57525400  1
  Ge  Ge16  1  0.78303700  0.68485300  0.92474600  1
  Ge  Ge17  1  0.74510000  0.15318800  0.86526700  1
  Ge  Ge18  1  0.74510000  0.84681200  0.63473300  1
  Ge  Ge19  1  0.21696300  0.31514700  0.07525400  1
  Ge  Ge20  1  0.21696300  0.68485300  0.42474600  1
  Ge  Ge21  1  0.99704800  0.50000000  0.75000000  1
  H  H22  1  0.16524900  0.00000000  0.75000000  1
  H  H23  1  0.83475100  0.00000000  0.25000000  1
  O  O24  1  0.20708300  0.70356500  0.21812800  1
  O  O25  1  0.20708300  0.29643500  0.28187200  1
  O  O26  1  0.18002400  0.54038100  0.81307400  1
  O  O27  1  0.18002400  0.45961900  0.68692600  1
  O  O28  1  0.43919200  0.15620000  0.88702400  1
  O  O29  1  0.43919200  0.84380000  0.61297600  1
  O  O30  1  0.34149200  0.24320700  0.00906900  1
  O  O31  1  0.34149200  0.75679300  0.49093100  1
  O  O32  1  0.22147400  0.08958700  0.14576800  1
  O  O33  1  0.22147400  0.91041300  0.35423200  1
  O  O34  1  0.09540100  0.61800200  0.93674400  1
  O  O35  1  0.09540100  0.38199800  0.56325600  1
  O  O36  1  0.04455400  0.80859700  0.07671600  1
  O  O37  1  0.04455400  0.19140300  0.42328400  1
  O  O38  1  0.65850800  0.24320700  0.50906900  1
  O  O39  1  0.65850800  0.75679300  0.99093100  1
  O  O40  1  0.81997600  0.54038100  0.31307400  1
  O  O41  1  0.81997600  0.45961900  0.18692600  1
  O  O42  1  0.79291700  0.29643500  0.78187200  1
  O  O43  1  0.79291700  0.70356500  0.71812800  1
  O  O44  1  0.95544600  0.19140300  0.92328400  1
  O  O45  1  0.95544600  0.80859700  0.57671600  1
  O  O46  1  0.40379000  0.53322500  0.39127000  1
  O  O47  1  0.40379000  0.46677500  0.10873000  1
  O  O48  1  0.90459900  0.61800200  0.43674400  1
  O  O49  1  0.90459900  0.38199800  0.06325600  1
  O  O50  1  0.59621000  0.53322500  0.89127000  1
  O  O51  1  0.59621000  0.46677500  0.60873000  1
  O  O52  1  0.77852600  0.91041300  0.85423200  1
  O  O53  1  0.77852600  0.08958700  0.64576800  1
  O  O54  1  0.56080800  0.84380000  0.11297600  1
  O  O55  1  0.56080800  0.15620000  0.38702400  1
