# generated using pymatgen
data_Rb2Cu(SO7)2
_symmetry_space_group_name_H-M   'P 1'
_cell_length_a   6.57228535
_cell_length_b   7.96353658
_cell_length_c   13.89292600
_cell_angle_alpha   90.00000000
_cell_angle_beta   90.00000000
_cell_angle_gamma   104.76157338
_symmetry_Int_Tables_number   1
_chemical_formula_structural   Rb2Cu(SO7)2
_chemical_formula_sum   'Rb4 Cu2 S4 O28'
_cell_volume   703.13726030
_cell_formula_units_Z   2
loop_
 _symmetry_equiv_pos_site_id
 _symmetry_equiv_pos_as_xyz
  1  'x, y, z'
loop_
 _atom_site_type_symbol
 _atom_site_label
 _atom_site_symmetry_multiplicity
 _atom_site_fract_x
 _atom_site_fract_y
 _atom_site_fract_z
 _atom_site_occupancy
  Rb  Rb0  1  0.84891400  0.63156700  0.14534900  1
  Rb  Rb1  1  0.15108600  0.36843300  0.85465100  1
  Rb  Rb2  1  0.15108600  0.86843300  0.64534900  1
  Rb  Rb3  1  0.84891400  0.13156700  0.35465100  1
  Cu  Cu4  1  0.50000000  0.00000000  0.00000000  1
  Cu  Cu5  1  0.50000000  0.50000000  0.50000000  1
  S  S6  1  0.74790800  0.59571400  0.85625400  1
  S  S7  1  0.25209200  0.40428600  0.14374600  1
  S  S8  1  0.25209200  0.90428600  0.35625400  1
  S  S9  1  0.74790800  0.09571400  0.64374600  1
  O  O10  1  0.54668000  0.61861400  0.82555400  1
  O  O11  1  0.45332000  0.38138600  0.17444600  1
  O  O12  1  0.45332000  0.88138600  0.32555400  1
  O  O13  1  0.54668000  0.11861400  0.67444600  1
  O  O14  1  0.74703700  0.95792500  0.57451600  1
  O  O15  1  0.25296300  0.04207500  0.42548400  1
  O  O16  1  0.25296300  0.54207500  0.07451600  1
  O  O17  1  0.74703700  0.45792500  0.92548400  1
  O  O18  1  0.33309000  0.91607000  0.89484200  1
  O  O19  1  0.66691000  0.08393000  0.10515800  1
  O  O20  1  0.66691000  0.58393000  0.39484200  1
  O  O21  1  0.33309000  0.41607000  0.60515800  1
  O  O22  1  0.84837400  0.78010600  0.93929600  1
  O  O23  1  0.15162600  0.21989400  0.06070400  1
  O  O24  1  0.15162600  0.71989400  0.43929600  1
  O  O25  1  0.84837400  0.28010600  0.56070400  1
  O  O26  1  0.41066200  0.59153200  0.61051800  1
  O  O27  1  0.58933800  0.40846800  0.38948200  1
  O  O28  1  0.58933800  0.90846800  0.11051800  1
  O  O29  1  0.41066200  0.09153200  0.88948200  1
  O  O30  1  0.80532700  0.92600700  0.91153700  1
  O  O31  1  0.19467300  0.07399300  0.08846300  1
  O  O32  1  0.19467300  0.57399300  0.41153700  1
  O  O33  1  0.80532700  0.42600700  0.58846300  1
  O  O34  1  0.91197800  0.62020900  0.78321700  1
  O  O35  1  0.08802200  0.37979200  0.21678300  1
  O  O36  1  0.08802200  0.87979100  0.28321700  1
  O  O37  1  0.91197800  0.12020800  0.71678300  1
