# generated using pymatgen
data_Na3Zn2(MoO4)3
_symmetry_space_group_name_H-M   'P 1'
_cell_length_a   9.33079417
_cell_length_b   9.33079417
_cell_length_c   7.31467846
_cell_angle_alpha   74.50425564
_cell_angle_beta   74.50425564
_cell_angle_gamma   97.93368531
_symmetry_Int_Tables_number   1
_chemical_formula_structural   Na3Zn2(MoO4)3
_chemical_formula_sum   'Na6 Zn4 Mo6 O24'
_cell_volume   576.15411617
_cell_formula_units_Z   2
loop_
 _symmetry_equiv_pos_site_id
 _symmetry_equiv_pos_as_xyz
  1  'x, y, z'
loop_
 _atom_site_type_symbol
 _atom_site_label
 _atom_site_symmetry_multiplicity
 _atom_site_fract_x
 _atom_site_fract_y
 _atom_site_fract_z
 _atom_site_occupancy
  Na  Na0  1  0.23488700  0.76511300  0.25000000  1
  Na  Na1  1  0.76511300  0.23488700  0.75000000  1
  Na  Na2  1  0.00000000  0.00000000  0.00000000  1
  Na  Na3  1  0.00000000  0.00000000  0.50000000  1
  Na  Na4  1  0.52252400  0.47747600  0.25000000  1
  Na  Na5  1  0.47747600  0.52252400  0.75000000  1
  Zn  Zn6  1  0.55731700  0.86692900  0.37324400  1
  Zn  Zn7  1  0.44268300  0.13307100  0.62675600  1
  Zn  Zn8  1  0.13307100  0.44268300  0.12675600  1
  Zn  Zn9  1  0.86692900  0.55731700  0.87324400  1
  Mo  Mo10  1  0.77780600  0.22219400  0.25000000  1
  Mo  Mo11  1  0.22219400  0.77780600  0.75000000  1
  Mo  Mo12  1  0.37524200  0.16914700  0.12047800  1
  Mo  Mo13  1  0.62475800  0.83085300  0.87952200  1
  Mo  Mo14  1  0.83085300  0.62475800  0.37952200  1
  Mo  Mo15  1  0.16914700  0.37524200  0.62047800  1
  O  O16  1  0.45775700  0.11643900  0.31894500  1
  O  O17  1  0.54224400  0.88356100  0.68105500  1
  O  O18  1  0.88356100  0.54224300  0.18105500  1
  O  O19  1  0.11643900  0.45775600  0.81894500  1
  O  O20  1  0.50806800  0.83801700  0.11515700  1
  O  O21  1  0.49193200  0.16198300  0.88484300  1
  O  O22  1  0.16198300  0.49193200  0.38484300  1
  O  O23  1  0.83801700  0.50806800  0.61515700  1
  O  O24  1  0.19716200  0.03934100  0.19395100  1
  O  O25  1  0.80283800  0.96065900  0.80604900  1
  O  O26  1  0.96065900  0.80283800  0.30604900  1
  O  O27  1  0.03934100  0.19716200  0.69395100  1
  O  O28  1  0.75087200  0.02247300  0.23695200  1
  O  O29  1  0.24912800  0.97752700  0.76304800  1
  O  O30  1  0.97752700  0.24912800  0.26304800  1
  O  O31  1  0.02247300  0.75087200  0.73695200  1
  O  O32  1  0.65650300  0.25389300  0.47979400  1
  O  O33  1  0.34349700  0.74610700  0.52020600  1
  O  O34  1  0.74610700  0.34349700  0.02020600  1
  O  O35  1  0.25389300  0.65650300  0.97979400  1
  O  O36  1  0.63791400  0.65545200  0.41339900  1
  O  O37  1  0.36208600  0.34454800  0.58660100  1
  O  O38  1  0.34454800  0.36208600  0.08660100  1
  O  O39  1  0.65545200  0.63791400  0.91339900  1
