# generated using pymatgen
data_NiH6(NO3)2
_symmetry_space_group_name_H-M   'P 1'
_cell_length_a   6.09333102
_cell_length_b   6.05691026
_cell_length_c   11.87748997
_cell_angle_alpha   102.53003881
_cell_angle_beta   99.35730486
_cell_angle_gamma   104.31742411
_symmetry_Int_Tables_number   1
_chemical_formula_structural   NiH6(NO3)2
_chemical_formula_sum   'Ni2 H12 N4 O12'
_cell_volume   403.64712088
_cell_formula_units_Z   2
loop_
 _symmetry_equiv_pos_site_id
 _symmetry_equiv_pos_as_xyz
  1  'x, y, z'
loop_
 _atom_site_type_symbol
 _atom_site_label
 _atom_site_symmetry_multiplicity
 _atom_site_fract_x
 _atom_site_fract_y
 _atom_site_fract_z
 _atom_site_occupancy
  Ni  Ni0  1  0.17334700  0.16856400  0.72666400  1
  Ni  Ni1  1  0.82665300  0.83143600  0.27333600  1
  H  H2  1  0.58096000  0.65958500  0.36581200  1
  H  H3  1  0.41904000  0.34041500  0.63418800  1
  H  H4  1  0.36598000  0.21536500  0.59368000  1
  H  H5  1  0.63402000  0.78463500  0.40632000  1
  H  H6  1  0.89156800  0.53138300  0.27006200  1
  H  H7  1  0.10843200  0.46861700  0.72993800  1
  H  H8  1  0.25096400  0.34089100  0.10646800  1
  H  H9  1  0.74903600  0.65910900  0.89353200  1
  H  H10  1  0.25891600  0.21046500  0.86139200  1
  H  H11  1  0.74108400  0.78953500  0.13860800  1
  H  H12  1  0.83106900  0.53474700  0.20743500  1
  H  H13  1  0.16893100  0.46525300  0.79256500  1
  N  N14  1  0.05872500  0.24314600  0.36961900  1
  N  N15  1  0.94127500  0.75685400  0.63038100  1
  N  N16  1  0.33462900  0.06227500  0.11855800  1
  N  N17  1  0.66537100  0.93772400  0.88144200  1
  O  O18  1  0.17409900  0.45202400  0.39921000  1
  O  O19  1  0.82590100  0.54797600  0.60079000  1
  O  O20  1  0.15207900  0.07083000  0.36066300  1
  O  O21  1  0.84792100  0.92917000  0.63933700  1
  O  O22  1  0.26124700  0.86259800  0.12642800  1
  O  O23  1  0.73875300  0.13740200  0.87357200  1
  O  O24  1  0.83353700  0.17691000  0.34211600  1
  O  O25  1  0.16646300  0.82309000  0.65788400  1
  O  O26  1  0.52487500  0.16748500  0.10743300  1
  O  O27  1  0.47512500  0.83251500  0.89256700  1
  O  O28  1  0.16916300  0.19470700  0.12394200  1
  O  O29  1  0.83083700  0.80529300  0.87605800  1
