# generated using pymatgen
data_Nb2CuS4
_symmetry_space_group_name_H-M   'P 1'
_cell_length_a   3.54674700
_cell_length_b   8.29544500
_cell_length_c   17.51654400
_cell_angle_alpha   90.00000000
_cell_angle_beta   90.00000000
_cell_angle_gamma   90.00000000
_symmetry_Int_Tables_number   1
_chemical_formula_structural   Nb2CuS4
_chemical_formula_sum   'Nb8 Cu4 S16'
_cell_volume   515.36903668
_cell_formula_units_Z   4
loop_
 _symmetry_equiv_pos_site_id
 _symmetry_equiv_pos_as_xyz
  1  'x, y, z'
loop_
 _atom_site_type_symbol
 _atom_site_label
 _atom_site_symmetry_multiplicity
 _atom_site_fract_x
 _atom_site_fract_y
 _atom_site_fract_z
 _atom_site_occupancy
  Nb  Nb0  1  0.75000000  0.87341800  0.52865300  1
  Nb  Nb1  1  0.25000000  0.12658200  0.47134700  1
  Nb  Nb2  1  0.25000000  0.62658200  0.02865300  1
  Nb  Nb3  1  0.75000000  0.37341800  0.97134700  1
  Nb  Nb4  1  0.75000000  0.56015000  0.39895400  1
  Nb  Nb5  1  0.25000000  0.43985000  0.60104600  1
  Nb  Nb6  1  0.25000000  0.93985000  0.89895400  1
  Nb  Nb7  1  0.75000000  0.06015000  0.10104600  1
  Cu  Cu8  1  0.75000000  0.68901900  0.78145900  1
  Cu  Cu9  1  0.25000000  0.31098100  0.21854100  1
  Cu  Cu10  1  0.25000000  0.81098100  0.28145900  1
  Cu  Cu11  1  0.75000000  0.18901900  0.71854100  1
  S  S12  1  0.75000000  0.64044700  0.64288000  1
  S  S13  1  0.25000000  0.35955300  0.35712000  1
  S  S14  1  0.25000000  0.85955300  0.14288000  1
  S  S15  1  0.75000000  0.14044700  0.85712000  1
  S  S16  1  0.75000000  0.65482500  0.27692400  1
  S  S17  1  0.25000000  0.34517500  0.72307600  1
  S  S18  1  0.25000000  0.84517500  0.77692400  1
  S  S19  1  0.75000000  0.15482500  0.22307600  1
  S  S20  1  0.75000000  0.99153500  0.39634900  1
  S  S21  1  0.25000000  0.00846500  0.60365100  1
  S  S22  1  0.25000000  0.50846500  0.89634900  1
  S  S23  1  0.75000000  0.49153500  0.10365100  1
  S  S24  1  0.75000000  0.83763700  0.99017800  1
  S  S25  1  0.25000000  0.16236300  0.00982200  1
  S  S26  1  0.25000000  0.66236300  0.49017800  1
  S  S27  1  0.75000000  0.33763700  0.50982200  1
