# generated using pymatgen
data_Na2Ti2Si2H2O9
_symmetry_space_group_name_H-M   'P 1'
_cell_length_a   5.43173000
_cell_length_b   7.09781509
_cell_length_c   11.86477335
_cell_angle_alpha   93.71636057
_cell_angle_beta   97.65755960
_cell_angle_gamma   90.32910191
_symmetry_Int_Tables_number   1
_chemical_formula_structural   Na2Ti2Si2H2O9
_chemical_formula_sum   'Na4 Ti4 Si4 H4 O18'
_cell_volume   452.34712144
_cell_formula_units_Z   2
loop_
 _symmetry_equiv_pos_site_id
 _symmetry_equiv_pos_as_xyz
  1  'x, y, z'
loop_
 _atom_site_type_symbol
 _atom_site_label
 _atom_site_symmetry_multiplicity
 _atom_site_fract_x
 _atom_site_fract_y
 _atom_site_fract_z
 _atom_site_occupancy
  Na  Na0  1  0.20696200  0.46266800  0.28907300  1
  Na  Na1  1  0.64035900  0.02306400  0.59610900  1
  Na  Na2  1  0.27589000  0.67978000  0.00338800  1
  Na  Na3  1  0.70952700  0.23552300  0.31170500  1
  Ti  Ti4  1  0.28308000  0.17601300  0.05043800  1
  Ti  Ti5  1  0.23659400  0.96259300  0.30280100  1
  Ti  Ti6  1  0.67963000  0.73857800  0.29647500  1
  Ti  Ti7  1  0.62853300  0.53051400  0.54952900  1
  Si  Si8  1  0.78307300  0.47548600  0.07103600  1
  Si  Si9  1  0.13287600  0.23130200  0.52771100  1
  Si  Si10  1  0.11598800  0.80148100  0.54291700  1
  Si  Si11  1  0.79467200  0.90607200  0.05749000  1
  H  H12  1  0.18815600  0.58935800  0.79157700  1
  H  H13  1  0.70582600  0.52489500  0.75740800  1
  H  H14  1  0.70246500  0.12647600  0.80290900  1
  H  H15  1  0.23140900  0.19557600  0.84432100  1
  O  O16  1  0.40132200  0.33046400  0.57341700  1
  O  O17  1  0.38482000  0.71486000  0.58586700  1
  O  O18  1  0.59113600  0.55042200  0.39741900  1
  O  O19  1  0.37101400  0.74868000  0.21325700  1
  O  O20  1  0.03488300  0.37488700  0.04013000  1
  O  O21  1  0.54511400  0.95326000  0.38578200  1
  O  O22  1  0.88060100  0.72089500  0.59786200  1
  O  O23  1  0.51758100  0.37188800  0.02664800  1
  O  O24  1  0.52490700  0.99122100  0.01481700  1
  O  O25  1  0.80588800  0.51979700  0.21061100  1
  O  O26  1  0.11239200  0.18483000  0.38868600  1
  O  O27  1  0.05344100  0.78846600  0.39986000  1
  O  O28  1  0.02859800  0.98837500  0.00237700  1
  O  O29  1  0.31831000  0.15399200  0.20232100  1
  O  O30  1  0.86040800  0.91735900  0.20028900  1
  O  O31  1  0.77224800  0.68045500  0.01154100  1
  O  O32  1  0.88438400  0.33818700  0.55737100  1
  O  O33  1  0.13531300  0.02748500  0.58825500  1
