# generated using pymatgen
data_RbNd(SO6)2
_symmetry_space_group_name_H-M   'P 1'
_cell_length_a   20.28622700
_cell_length_b   6.35267500
_cell_length_c   8.97242575
_cell_angle_alpha   86.25624407
_cell_angle_beta   90.00000000
_cell_angle_gamma   90.00000000
_symmetry_Int_Tables_number   1
_chemical_formula_structural   RbNd(SO6)2
_chemical_formula_sum   'Rb4 Nd4 S8 O48'
_cell_volume   1153.82524427
_cell_formula_units_Z   4
loop_
 _symmetry_equiv_pos_site_id
 _symmetry_equiv_pos_as_xyz
  1  'x, y, z'
loop_
 _atom_site_type_symbol
 _atom_site_label
 _atom_site_symmetry_multiplicity
 _atom_site_fract_x
 _atom_site_fract_y
 _atom_site_fract_z
 _atom_site_occupancy
  Rb  Rb0  1  0.21193900  0.83852500  0.63486600  1
  Rb  Rb1  1  0.78806100  0.16147500  0.36513400  1
  Rb  Rb2  1  0.71193900  0.16147500  0.86513400  1
  Rb  Rb3  1  0.28806100  0.83852500  0.13486600  1
  Nd  Nd4  1  0.36418600  0.37424800  0.79130500  1
  Nd  Nd5  1  0.63581400  0.62575200  0.20869500  1
  Nd  Nd6  1  0.86418600  0.62575200  0.70869500  1
  Nd  Nd7  1  0.13581400  0.37424800  0.29130500  1
  S  S8  1  0.21868200  0.37587300  0.90832300  1
  S  S9  1  0.78131800  0.62412700  0.09167700  1
  S  S10  1  0.71868200  0.62412700  0.59167700  1
  S  S11  1  0.28131800  0.37587300  0.40832300  1
  S  S12  1  0.42899800  0.80987900  0.77845200  1
  S  S13  1  0.57100200  0.19012100  0.22154800  1
  S  S14  1  0.92899800  0.19012100  0.72154800  1
  S  S15  1  0.07100200  0.80987900  0.27845200  1
  O  O16  1  0.12717200  0.18546400  0.53780000  1
  O  O17  1  0.87282800  0.81453600  0.46220000  1
  O  O18  1  0.62717200  0.81453600  0.96220000  1
  O  O19  1  0.37282800  0.18546400  0.03780000  1
  O  O20  1  0.42389000  0.64998400  0.91003600  1
  O  O21  1  0.57611000  0.35001600  0.08996400  1
  O  O22  1  0.92389000  0.35001600  0.58996400  1
  O  O23  1  0.07611000  0.64998400  0.41003600  1
  O  O24  1  0.76075600  0.81668700  0.61682700  1
  O  O25  1  0.23924400  0.18331300  0.38317300  1
  O  O26  1  0.26075600  0.18331300  0.88317300  1
  O  O27  1  0.73924400  0.81668700  0.11682700  1
  O  O28  1  0.47568000  0.30941300  0.63751800  1
  O  O29  1  0.52432000  0.69058700  0.36248200  1
  O  O30  1  0.97568000  0.69058700  0.86248200  1
  O  O31  1  0.02432000  0.30941300  0.13751800  1
  O  O32  1  0.07828300  0.78599700  0.82328000  1
  O  O33  1  0.92171700  0.21400300  0.17672000  1
  O  O34  1  0.57828300  0.21400300  0.67672000  1
  O  O35  1  0.42171700  0.78599700  0.32328000  1
  O  O36  1  0.16553600  0.40001200  0.79958900  1
  O  O37  1  0.83446400  0.59998800  0.20041100  1
  O  O38  1  0.66553600  0.59998800  0.70041100  1
  O  O39  1  0.33446400  0.40001200  0.29958900  1
  O  O40  1  0.38703200  0.72113400  0.65900600  1
  O  O41  1  0.61296800  0.27886600  0.34099400  1
  O  O42  1  0.88703200  0.27886600  0.84099400  1
  O  O43  1  0.11296800  0.72113400  0.15900600  1
  O  O44  1  0.30593200  0.35754000  0.56442200  1
  O  O45  1  0.69406800  0.64246000  0.43557800  1
  O  O46  1  0.80593200  0.64246000  0.93557800  1
  O  O47  1  0.19406800  0.35754000  0.06442200  1
  O  O48  1  0.26701500  0.55829400  0.89002900  1
  O  O49  1  0.73298500  0.44170600  0.10997100  1
  O  O50  1  0.76701500  0.44170600  0.60997100  1
  O  O51  1  0.23298500  0.55829400  0.39002900  1
  O  O52  1  0.49641900  0.85238400  0.73383300  1
  O  O53  1  0.50358100  0.14761600  0.26616700  1
  O  O54  1  0.99641900  0.14761600  0.76616700  1
  O  O55  1  0.00358100  0.85238400  0.23383300  1
  O  O56  1  0.02793400  0.69543300  0.77583400  1
  O  O57  1  0.97206600  0.30456700  0.22416600  1
  O  O58  1  0.52793400  0.30456700  0.72416600  1
  O  O59  1  0.47206600  0.69543300  0.27583400  1
  O  O60  1  0.39485100  0.01194300  0.81980500  1
  O  O61  1  0.60514900  0.98805700  0.18019500  1
  O  O62  1  0.89485100  0.98805700  0.68019500  1
  O  O63  1  0.10514900  0.01194300  0.31980500  1
