# generated using pymatgen
data_MgCr(SiO3)2
_symmetry_space_group_name_H-M   'P 1'
_cell_length_a   5.39098953
_cell_length_b   6.73559496
_cell_length_c   6.73560058
_cell_angle_alpha   84.36213120
_cell_angle_beta   74.69804627
_cell_angle_gamma   74.69754142
_symmetry_Int_Tables_number   1
_chemical_formula_structural   MgCr(SiO3)2
_chemical_formula_sum   'Mg2 Cr2 Si4 O12'
_cell_volume   227.43778017
_cell_formula_units_Z   2
loop_
 _symmetry_equiv_pos_site_id
 _symmetry_equiv_pos_as_xyz
  1  'x, y, z'
loop_
 _atom_site_type_symbol
 _atom_site_label
 _atom_site_symmetry_multiplicity
 _atom_site_fract_x
 _atom_site_fract_y
 _atom_site_fract_z
 _atom_site_occupancy
  Mg  Mg0  1  0.24998000  0.59678600  0.40322200  1
  Mg  Mg1  1  0.75001100  0.40320000  0.59683200  1
  Cr  Cr2  1  0.75008500  0.76729000  0.23254000  1
  Cr  Cr3  1  0.24986300  0.23268400  0.76745500  1
  Si  Si4  1  0.27391500  0.11681900  0.29410300  1
  Si  Si5  1  0.72605900  0.88317700  0.70587800  1
  Si  Si6  1  0.22609600  0.70591800  0.88316400  1
  Si  Si7  1  0.77395000  0.29409500  0.11684700  1
  O  O8  1  0.93478300  0.85308300  0.85515500  1
  O  O9  1  0.06519500  0.14695800  0.14487300  1
  O  O10  1  0.56520100  0.14486700  0.14691500  1
  O  O11  1  0.43476200  0.85518400  0.85301200  1
  O  O12  1  0.15246900  0.29371200  0.46680400  1
  O  O13  1  0.84755500  0.70625700  0.53322200  1
  O  O14  1  0.34755500  0.53321500  0.70626100  1
  O  O15  1  0.65244500  0.46675900  0.29375200  1
  O  O16  1  0.35004200  0.87775400  0.37178400  1
  O  O17  1  0.65000900  0.12223800  0.62817700  1
  O  O18  1  0.14994600  0.62818300  0.12223700  1
  O  O19  1  0.85007900  0.37182100  0.87776700  1
