# generated using pymatgen
data_Nb3N2Cl7O5
_symmetry_space_group_name_H-M   'P 1'
_cell_length_a   10.33102219
_cell_length_b   10.33102219
_cell_length_c   11.03173390
_cell_angle_alpha   76.79000843
_cell_angle_beta   76.79000843
_cell_angle_gamma   50.22526232
_symmetry_Int_Tables_number   1
_chemical_formula_structural   Nb3N2Cl7O5
_chemical_formula_sum   'Nb6 N4 Cl14 O10'
_cell_volume   875.62929789
_cell_formula_units_Z   2
loop_
 _symmetry_equiv_pos_site_id
 _symmetry_equiv_pos_as_xyz
  1  'x, y, z'
loop_
 _atom_site_type_symbol
 _atom_site_label
 _atom_site_symmetry_multiplicity
 _atom_site_fract_x
 _atom_site_fract_y
 _atom_site_fract_z
 _atom_site_occupancy
  Nb  Nb0  1  0.81936400  0.23672000  0.95253300  1
  Nb  Nb1  1  0.18063600  0.76328000  0.04746700  1
  Nb  Nb2  1  0.76328000  0.18063600  0.54746700  1
  Nb  Nb3  1  0.23672000  0.81936400  0.45253300  1
  Nb  Nb4  1  0.45689100  0.54310900  0.75000000  1
  Nb  Nb5  1  0.54310900  0.45689100  0.25000000  1
  N  N6  1  0.16628100  0.20098500  0.61358100  1
  N  N7  1  0.83371900  0.79901500  0.38641900  1
  N  N8  1  0.79901500  0.83371900  0.88641900  1
  N  N9  1  0.20098500  0.16628100  0.11358100  1
  Cl  Cl10  1  0.55318100  0.70701600  0.69904800  1
  Cl  Cl11  1  0.44681900  0.29298400  0.30095200  1
  Cl  Cl12  1  0.29298400  0.44681900  0.80095200  1
  Cl  Cl13  1  0.70701600  0.55318100  0.19904800  1
  Cl  Cl14  1  0.91170300  0.08829700  0.75000000  1
  Cl  Cl15  1  0.08829700  0.91170300  0.25000000  1
  Cl  Cl16  1  0.62148600  0.07091600  0.60355800  1
  Cl  Cl17  1  0.37851400  0.92908400  0.39644200  1
  Cl  Cl18  1  0.92908400  0.37851400  0.89644200  1
  Cl  Cl19  1  0.07091600  0.62148600  0.10355800  1
  Cl  Cl20  1  0.67917800  0.97941500  0.97879400  1
  Cl  Cl21  1  0.32082200  0.02058500  0.02120600  1
  Cl  Cl22  1  0.02058500  0.32082200  0.52120600  1
  Cl  Cl23  1  0.97941500  0.67917800  0.47879400  1
  O  O24  1  0.29153500  0.71538800  0.60964800  1
  O  O25  1  0.70846500  0.28461200  0.39035200  1
  O  O26  1  0.28461200  0.70846500  0.89035200  1
  O  O27  1  0.71538800  0.29153500  0.10964800  1
  O  O28  1  0.61035300  0.38826300  0.87392800  1
  O  O29  1  0.38964700  0.61173700  0.12607200  1
  O  O30  1  0.61173700  0.38964700  0.62607200  1
  O  O31  1  0.38826300  0.61035300  0.37392800  1
  O  O32  1  0.00000000  0.00000000  0.50000000  1
  O  O33  1  0.00000000  0.00000000  0.00000000  1
