# generated using pymatgen
data_Na2GdCl5
_symmetry_space_group_name_H-M   'P 1'
_cell_length_a   7.78185200
_cell_length_b   8.34536200
_cell_length_c   12.19498400
_cell_angle_alpha   90.00000000
_cell_angle_beta   90.00000000
_cell_angle_gamma   90.00000000
_symmetry_Int_Tables_number   1
_chemical_formula_structural   Na2GdCl5
_chemical_formula_sum   'Na8 Gd4 Cl20'
_cell_volume   791.97118710
_cell_formula_units_Z   4
loop_
 _symmetry_equiv_pos_site_id
 _symmetry_equiv_pos_as_xyz
  1  'x, y, z'
loop_
 _atom_site_type_symbol
 _atom_site_label
 _atom_site_symmetry_multiplicity
 _atom_site_fract_x
 _atom_site_fract_y
 _atom_site_fract_z
 _atom_site_occupancy
  Na  Na0  1  0.95166100  0.00532400  0.82900000  1
  Na  Na1  1  0.04833900  0.99467600  0.17100000  1
  Na  Na2  1  0.45166100  0.99467600  0.67100000  1
  Na  Na3  1  0.04833900  0.50532400  0.17100000  1
  Na  Na4  1  0.54833900  0.00532400  0.32900000  1
  Na  Na5  1  0.95166100  0.49467600  0.82900000  1
  Na  Na6  1  0.54833900  0.49467600  0.32900000  1
  Na  Na7  1  0.45166100  0.50532400  0.67100000  1
  Gd  Gd8  1  0.92152900  0.75000000  0.50652700  1
  Gd  Gd9  1  0.07847100  0.25000000  0.49347300  1
  Gd  Gd10  1  0.42152900  0.25000000  0.99347300  1
  Gd  Gd11  1  0.57847100  0.75000000  0.00652700  1
  Cl  Cl12  1  0.13138600  0.75000000  0.68514000  1
  Cl  Cl13  1  0.86861400  0.25000000  0.31486000  1
  Cl  Cl14  1  0.63138600  0.25000000  0.81486000  1
  Cl  Cl15  1  0.36861400  0.75000000  0.18514000  1
  Cl  Cl16  1  0.83076200  0.04513200  0.58111800  1
  Cl  Cl17  1  0.16923800  0.95486800  0.41888200  1
  Cl  Cl18  1  0.33076200  0.95486800  0.91888200  1
  Cl  Cl19  1  0.16923800  0.54513200  0.41888200  1
  Cl  Cl20  1  0.66923800  0.04513200  0.08111800  1
  Cl  Cl21  1  0.83076200  0.45486800  0.58111800  1
  Cl  Cl22  1  0.66923800  0.45486800  0.08111800  1
  Cl  Cl23  1  0.33076200  0.54513200  0.91888200  1
  Cl  Cl24  1  0.56532000  0.75000000  0.50617500  1
  Cl  Cl25  1  0.43468000  0.25000000  0.49382500  1
  Cl  Cl26  1  0.06532000  0.25000000  0.99382500  1
  Cl  Cl27  1  0.93468000  0.75000000  0.00617500  1
  Cl  Cl28  1  0.66685000  0.75000000  0.78985500  1
  Cl  Cl29  1  0.33315000  0.25000000  0.21014500  1
  Cl  Cl30  1  0.16685000  0.25000000  0.71014500  1
  Cl  Cl31  1  0.83315000  0.75000000  0.28985500  1
