# generated using pymatgen
data_Rb3Pr(Cl3O)2
_symmetry_space_group_name_H-M   'P 1'
_cell_length_a   12.30939768
_cell_length_b   12.30939768
_cell_length_c   16.91910500
_cell_angle_alpha   90.00000000
_cell_angle_beta   90.00000000
_cell_angle_gamma   119.99999826
_symmetry_Int_Tables_number   1
_chemical_formula_structural   Rb3Pr(Cl3O)2
_chemical_formula_sum   'Rb18 Pr6 Cl36 O12'
_cell_volume   2220.14648494
_cell_formula_units_Z   6
loop_
 _symmetry_equiv_pos_site_id
 _symmetry_equiv_pos_as_xyz
  1  'x, y, z'
loop_
 _atom_site_type_symbol
 _atom_site_label
 _atom_site_symmetry_multiplicity
 _atom_site_fract_x
 _atom_site_fract_y
 _atom_site_fract_z
 _atom_site_occupancy
  Rb  Rb0  1  0.66666700  0.33333300  0.88869500  1
  Rb  Rb1  1  0.33333300  0.66666700  0.11130500  1
  Rb  Rb2  1  0.33333300  0.66666700  0.38869500  1
  Rb  Rb3  1  0.66666700  0.33333300  0.61130500  1
  Rb  Rb4  1  0.55484200  0.93444600  0.88273100  1
  Rb  Rb5  1  0.44515800  0.06555400  0.11726900  1
  Rb  Rb6  1  0.37960400  0.44515800  0.88273100  1
  Rb  Rb7  1  0.44515800  0.06555400  0.38273100  1
  Rb  Rb8  1  0.62039600  0.55484200  0.11726900  1
  Rb  Rb9  1  0.55484200  0.93444600  0.61726900  1
  Rb  Rb10  1  0.06555400  0.62039600  0.88273100  1
  Rb  Rb11  1  0.62039600  0.55484200  0.38273100  1
  Rb  Rb12  1  0.93444600  0.37960400  0.11726900  1
  Rb  Rb13  1  0.37960400  0.44515800  0.61726900  1
  Rb  Rb14  1  0.93444600  0.37960400  0.38273100  1
  Rb  Rb15  1  0.06555400  0.62039600  0.61726900  1
  Rb  Rb16  1  0.00000000  0.00000000  0.00000000  1
  Rb  Rb17  1  0.00000000  0.00000000  0.50000000  1
  Pr  Pr18  1  0.97000100  0.19914000  0.75000000  1
  Pr  Pr19  1  0.02999900  0.80086000  0.25000000  1
  Pr  Pr20  1  0.22914000  0.02999900  0.75000000  1
  Pr  Pr21  1  0.77086000  0.97000100  0.25000000  1
  Pr  Pr22  1  0.80086000  0.77086000  0.75000000  1
  Pr  Pr23  1  0.19914000  0.22914000  0.25000000  1
  Cl  Cl24  1  0.82607200  0.97548100  0.84751900  1
  Cl  Cl25  1  0.17392800  0.02451900  0.15248100  1
  Cl  Cl26  1  0.14940900  0.17392800  0.84751900  1
  Cl  Cl27  1  0.17392800  0.02451900  0.34751900  1
  Cl  Cl28  1  0.85059100  0.82607200  0.15248100  1
  Cl  Cl29  1  0.82607200  0.97548100  0.65248100  1
  Cl  Cl30  1  0.02451900  0.85059100  0.84751900  1
  Cl  Cl31  1  0.85059100  0.82607200  0.34751900  1
  Cl  Cl32  1  0.97548100  0.14940900  0.15248100  1
  Cl  Cl33  1  0.14940900  0.17392800  0.65248100  1
  Cl  Cl34  1  0.97548100  0.14940900  0.34751900  1
  Cl  Cl35  1  0.02451900  0.85059100  0.65248100  1
  Cl  Cl36  1  0.57882900  0.70338400  0.96753700  1
  Cl  Cl37  1  0.42117100  0.29661600  0.03246300  1
  Cl  Cl38  1  0.12455500  0.42117100  0.96753700  1
  Cl  Cl39  1  0.42117100  0.29661600  0.46753700  1
  Cl  Cl40  1  0.87544500  0.57882900  0.03246300  1
  Cl  Cl41  1  0.57882900  0.70338400  0.53246300  1
  Cl  Cl42  1  0.29661600  0.87544500  0.96753700  1
  Cl  Cl43  1  0.87544500  0.57882900  0.46753700  1
  Cl  Cl44  1  0.70338400  0.12455500  0.03246300  1
  Cl  Cl45  1  0.12455500  0.42117100  0.53246300  1
  Cl  Cl46  1  0.70338400  0.12455500  0.46753700  1
  Cl  Cl47  1  0.29661600  0.87544500  0.53246300  1
  Cl  Cl48  1  0.72825600  0.17886100  0.75000000  1
  Cl  Cl49  1  0.27174400  0.82113900  0.25000000  1
  Cl  Cl50  1  0.45060500  0.27174400  0.75000000  1
  Cl  Cl51  1  0.54939500  0.72825600  0.25000000  1
  Cl  Cl52  1  0.82113900  0.54939500  0.75000000  1
  Cl  Cl53  1  0.17886100  0.45060500  0.25000000  1
  Cl  Cl54  1  0.53470500  0.68124500  0.75000000  1
  Cl  Cl55  1  0.46529500  0.31875500  0.25000000  1
  Cl  Cl56  1  0.14654000  0.46529500  0.75000000  1
  Cl  Cl57  1  0.85346000  0.53470500  0.25000000  1
  Cl  Cl58  1  0.31875500  0.85346000  0.75000000  1
  Cl  Cl59  1  0.68124500  0.14654000  0.25000000  1
  O  O60  1  0.98092900  0.34451400  0.85416700  1
  O  O61  1  0.01907100  0.65548600  0.14583300  1
  O  O62  1  0.36358600  0.01907100  0.85416700  1
  O  O63  1  0.01907100  0.65548600  0.35416700  1
  O  O64  1  0.63641400  0.98092900  0.14583300  1
  O  O65  1  0.98092900  0.34451400  0.64583300  1
  O  O66  1  0.65548600  0.63641400  0.85416700  1
  O  O67  1  0.63641400  0.98092900  0.35416700  1
  O  O68  1  0.34451400  0.36358600  0.14583300  1
  O  O69  1  0.36358600  0.01907100  0.64583300  1
  O  O70  1  0.34451400  0.36358600  0.35416700  1
  O  O71  1  0.65548600  0.63641400  0.64583300  1
