data_image0
_chemical_formula_structural       I6Rb2Sn
_chemical_formula_sum              "I6 Rb2 Sn1"
_cell_length_a       8.32827
_cell_length_b       8.32827
_cell_length_c       8.32827
_cell_angle_alpha    120
_cell_angle_beta     90
_cell_angle_gamma    120

_space_group_name_H-M_alt    "P 1"
_space_group_IT_number       1

loop_
  _space_group_symop_operation_xyz
  'x, y, z'

loop_
  _atom_site_type_symbol
  _atom_site_label
  _atom_site_symmetry_multiplicity
  _atom_site_fract_x
  _atom_site_fract_y
  _atom_site_fract_z
  _atom_site_occupancy
  I   I1        1.0  0.24600  0.00000  0.24600  1.0000
  I   I2        1.0  0.24600  0.49200  0.24600  1.0000
  I   I3        1.0  0.75400  0.00000  0.24600  1.0000
  I   I4        1.0  0.24600  0.00000  0.75400  1.0000
  I   I5        1.0  0.75400  0.00000  0.75400  1.0000
  I   I6        1.0  0.75400  0.50800  0.75400  1.0000
  Rb  Rb1       1.0  0.75000  0.50000  0.25000  1.0000
  Rb  Rb2       1.0  0.25000  0.50000  0.75000  1.0000
  Sn  Sn1       1.0  0.00000  0.00000  0.00000  1.0000
