# generated using pymatgen
data_Ni(IN)6
_symmetry_space_group_name_H-M   'P 1'
_cell_length_a   5.56131167
_cell_length_b   11.37319077
_cell_length_c   11.37319077
_cell_angle_alpha   77.40961841
_cell_angle_beta   75.19428178
_cell_angle_gamma   75.19428178
_symmetry_Int_Tables_number   1
_chemical_formula_structural   Ni(IN)6
_chemical_formula_sum   'Ni2 I12 N12'
_cell_volume   663.34703784
_cell_formula_units_Z   2
loop_
 _symmetry_equiv_pos_site_id
 _symmetry_equiv_pos_as_xyz
  1  'x, y, z'
loop_
 _atom_site_type_symbol
 _atom_site_label
 _atom_site_symmetry_multiplicity
 _atom_site_fract_x
 _atom_site_fract_y
 _atom_site_fract_z
 _atom_site_occupancy
  Ni  Ni0  1  0.50000000  0.00000000  0.50000000  1
  Ni  Ni1  1  0.00000000  0.50000000  0.00000000  1
  I  I2  1  0.25000000  0.59900800  0.40099200  1
  I  I3  1  0.75000000  0.40099200  0.59900800  1
  I  I4  1  0.10297700  0.13738100  0.67842200  1
  I  I5  1  0.89702300  0.86261900  0.32157800  1
  I  I6  1  0.39702300  0.32157800  0.86261900  1
  I  I7  1  0.60297700  0.67842200  0.13738100  1
  I  I8  1  0.99408000  0.87234800  0.60609300  1
  I  I9  1  0.00592000  0.12765200  0.39390700  1
  I  I10  1  0.50592000  0.39390700  0.12765200  1
  I  I11  1  0.49408000  0.60609300  0.87234800  1
  I  I12  1  0.00000000  0.00000000  0.00000000  1
  I  I13  1  0.50000000  0.00000000  0.00000000  1
  N  N14  1  0.27821400  0.16512200  0.49746800  1
  N  N15  1  0.72178600  0.83487800  0.50253200  1
  N  N16  1  0.22178600  0.50253200  0.83487800  1
  N  N17  1  0.77821400  0.49746800  0.16512200  1
  N  N18  1  0.26233700  0.96891500  0.41368800  1
  N  N19  1  0.73766300  0.03108500  0.58631200  1
  N  N20  1  0.23766300  0.58631200  0.03108500  1
  N  N21  1  0.76233700  0.41368800  0.96891500  1
  N  N22  1  0.26781900  0.95501900  0.66104500  1
  N  N23  1  0.73218100  0.04498100  0.33895500  1
  N  N24  1  0.23218100  0.33895500  0.04498100  1
  N  N25  1  0.76781900  0.66104500  0.95501900  1
