# generated using pymatgen
data_Na3P6(PbO9)2
_symmetry_space_group_name_H-M   'P 1'
_cell_length_a   7.79122299
_cell_length_b   7.80857447
_cell_length_c   8.36413737
_cell_angle_alpha   117.63328841
_cell_angle_beta   102.82010052
_cell_angle_gamma   96.00305710
_symmetry_Int_Tables_number   1
_chemical_formula_structural   Na3P6(PbO9)2
_chemical_formula_sum   'Na3 P6 Pb2 O18'
_cell_volume   426.70921571
_cell_formula_units_Z   1
loop_
 _symmetry_equiv_pos_site_id
 _symmetry_equiv_pos_as_xyz
  1  'x, y, z'
loop_
 _atom_site_type_symbol
 _atom_site_label
 _atom_site_symmetry_multiplicity
 _atom_site_fract_x
 _atom_site_fract_y
 _atom_site_fract_z
 _atom_site_occupancy
  Na  Na0  1  0.32774000  0.65135400  0.46903600  1
  Na  Na1  1  0.67226000  0.34864600  0.53096400  1
  Na  Na2  1  0.00000000  0.50000000  0.00000000  1
  P  P3  1  0.01183900  0.22188200  0.27594900  1
  P  P4  1  0.98816100  0.77811800  0.72405100  1
  P  P5  1  0.25879600  0.33955800  0.64927900  1
  P  P6  1  0.74120400  0.66044200  0.35072100  1
  P  P7  1  0.73471600  0.01504000  0.68650800  1
  P  P8  1  0.26528400  0.98496000  0.31349200  1
  Pb  Pb9  1  0.39637500  0.18414600  0.03200100  1
  Pb  Pb10  1  0.60362500  0.81585400  0.96799900  1
  O  O11  1  0.06789900  0.32169600  0.50608700  1
  O  O12  1  0.93210100  0.67830400  0.49391300  1
  O  O13  1  0.24463100  0.77150400  0.25731000  1
  O  O14  1  0.75536900  0.22849600  0.74269000  1
  O  O15  1  0.80807200  0.16742100  0.20511400  1
  O  O16  1  0.19192800  0.83257900  0.79488600  1
  O  O17  1  0.22916800  0.37572400  0.83107900  1
  O  O18  1  0.77083200  0.62427600  0.16892100  1
  O  O19  1  0.58987500  0.52136500  0.35009600  1
  O  O20  1  0.41012500  0.47863500  0.64990400  1
  O  O21  1  0.28251500  0.11159700  0.53738200  1
  O  O22  1  0.71748500  0.88840300  0.46261800  1
  O  O23  1  0.41719900  0.08836700  0.27904300  1
  O  O24  1  0.58280100  0.91163300  0.72095700  1
  O  O25  1  0.11984700  0.34775800  0.22361500  1
  O  O26  1  0.88015300  0.65224200  0.77638500  1
  O  O27  1  0.07414300  0.01258700  0.21437100  1
  O  O28  1  0.92585700  0.98741300  0.78562900  1
