# generated using pymatgen
data_MoH(ClO)2
_symmetry_space_group_name_H-M   'P 1'
_cell_length_a   3.84369200
_cell_length_b   9.32349800
_cell_length_c   7.47134800
_cell_angle_alpha   90.00000000
_cell_angle_beta   90.00000000
_cell_angle_gamma   90.00000000
_symmetry_Int_Tables_number   1
_chemical_formula_structural   MoH(ClO)2
_chemical_formula_sum   'Mo2 H2 Cl4 O4'
_cell_volume   267.74811823
_cell_formula_units_Z   2
loop_
 _symmetry_equiv_pos_site_id
 _symmetry_equiv_pos_as_xyz
  1  'x, y, z'
loop_
 _atom_site_type_symbol
 _atom_site_label
 _atom_site_symmetry_multiplicity
 _atom_site_fract_x
 _atom_site_fract_y
 _atom_site_fract_z
 _atom_site_occupancy
  Mo  Mo0  1  0.80036600  0.00000000  0.77429000  1
  Mo  Mo1  1  0.19963400  0.50000000  0.27429000  1
  H  H2  1  0.76491200  0.00000000  0.44380500  1
  H  H3  1  0.23508800  0.50000000  0.94380500  1
  Cl  Cl4  1  0.72690100  0.76078300  0.69853200  1
  Cl  Cl5  1  0.27309900  0.73921700  0.19853200  1
  Cl  Cl6  1  0.27309900  0.26078300  0.19853200  1
  Cl  Cl7  1  0.72690100  0.23921700  0.69853200  1
  O  O8  1  0.78233900  0.00000000  0.00191200  1
  O  O9  1  0.21766100  0.50000000  0.50191200  1
  O  O10  1  0.26177400  0.00000000  0.72792900  1
  O  O11  1  0.73822600  0.50000000  0.22792900  1
