# generated using pymatgen
data_Na3Mg2(WO4)3
_symmetry_space_group_name_H-M   'P 1'
_cell_length_a   9.17690392
_cell_length_b   9.17690392
_cell_length_c   7.26668814
_cell_angle_alpha   74.61426074
_cell_angle_beta   74.61426074
_cell_angle_gamma   95.68002876
_symmetry_Int_Tables_number   1
_chemical_formula_structural   Na3Mg2(WO4)3
_chemical_formula_sum   'Na6 Mg4 W6 O24'
_cell_volume   559.36881485
_cell_formula_units_Z   2
loop_
 _symmetry_equiv_pos_site_id
 _symmetry_equiv_pos_as_xyz
  1  'x, y, z'
loop_
 _atom_site_type_symbol
 _atom_site_label
 _atom_site_symmetry_multiplicity
 _atom_site_fract_x
 _atom_site_fract_y
 _atom_site_fract_z
 _atom_site_occupancy
  Na  Na0  1  0.23533700  0.76466300  0.25000000  1
  Na  Na1  1  0.76466300  0.23533700  0.75000000  1
  Na  Na2  1  0.00000000  0.00000000  0.00000000  1
  Na  Na3  1  0.00000000  0.00000000  0.50000000  1
  Na  Na4  1  0.53019700  0.46980300  0.25000000  1
  Na  Na5  1  0.46980300  0.53019700  0.75000000  1
  Mg  Mg6  1  0.55464000  0.86741600  0.37325400  1
  Mg  Mg7  1  0.44536000  0.13258400  0.62674600  1
  Mg  Mg8  1  0.13258400  0.44536000  0.12674600  1
  Mg  Mg9  1  0.86741600  0.55464000  0.87325400  1
  W  W10  1  0.78004600  0.21995400  0.25000000  1
  W  W11  1  0.21995400  0.78004600  0.75000000  1
  W  W12  1  0.38553800  0.15800700  0.12490900  1
  W  W13  1  0.61446200  0.84199300  0.87509100  1
  W  W14  1  0.84199300  0.61446200  0.37509100  1
  W  W15  1  0.15800700  0.38553800  0.62490900  1
  O  O16  1  0.45914500  0.09517500  0.34100700  1
  O  O17  1  0.54085500  0.90482500  0.65899300  1
  O  O18  1  0.90482500  0.54085500  0.15899300  1
  O  O19  1  0.09517500  0.45914500  0.84100700  1
  O  O20  1  0.50127400  0.85166900  0.11793300  1
  O  O21  1  0.49872600  0.14833100  0.88206700  1
  O  O22  1  0.14833100  0.49872600  0.38206700  1
  O  O23  1  0.85166900  0.50127400  0.61793300  1
  O  O24  1  0.20595500  0.03348800  0.19519300  1
  O  O25  1  0.79404500  0.96651200  0.80480700  1
  O  O26  1  0.96651200  0.79404500  0.30480700  1
  O  O27  1  0.03348800  0.20595500  0.69519300  1
  O  O28  1  0.75798800  0.02060300  0.22485100  1
  O  O29  1  0.24201200  0.97939700  0.77514900  1
  O  O30  1  0.97939700  0.24201200  0.27514900  1
  O  O31  1  0.02060300  0.75798800  0.72485100  1
  O  O32  1  0.65889600  0.27626900  0.46905800  1
  O  O33  1  0.34110400  0.72373100  0.53094200  1
  O  O34  1  0.72373100  0.34110400  0.03094200  1
  O  O35  1  0.27626900  0.65889600  0.96905800  1
  O  O36  1  0.64817300  0.65850900  0.40409400  1
  O  O37  1  0.35182700  0.34149100  0.59590600  1
  O  O38  1  0.34149100  0.35182700  0.09590600  1
  O  O39  1  0.65850900  0.64817300  0.90409400  1
