# generated using pymatgen
data_Mn(HCl)2
_symmetry_space_group_name_H-M   'P 1'
_cell_length_a   4.93373735
_cell_length_b   4.93373735
_cell_length_c   3.36453468
_cell_angle_alpha   84.66222500
_cell_angle_beta   84.66222500
_cell_angle_gamma   94.22824616
_symmetry_Int_Tables_number   1
_chemical_formula_structural   Mn(HCl)2
_chemical_formula_sum   'Mn1 H2 Cl2'
_cell_volume   80.90911641
_cell_formula_units_Z   1
loop_
 _symmetry_equiv_pos_site_id
 _symmetry_equiv_pos_as_xyz
  1  'x, y, z'
loop_
 _atom_site_type_symbol
 _atom_site_label
 _atom_site_symmetry_multiplicity
 _atom_site_fract_x
 _atom_site_fract_y
 _atom_site_fract_z
 _atom_site_occupancy
  Mn  Mn0  1  0.00000000  0.00000000  0.00000000  1
  H  H1  1  0.77006500  0.22993500  0.00000000  1
  H  H2  1  0.22993500  0.77006500  0.00000000  1
  Cl  Cl3  1  0.76032300  0.76032300  0.56664300  1
  Cl  Cl4  1  0.23967700  0.23967700  0.43335700  1
