# generated using pymatgen
data_NaNd(SeO5)2
_symmetry_space_group_name_H-M   'P 1'
_cell_length_a   7.22084900
_cell_length_b   11.21862400
_cell_length_c   11.33532755
_cell_angle_alpha   69.29573196
_cell_angle_beta   90.00000000
_cell_angle_gamma   90.00000000
_symmetry_Int_Tables_number   1
_chemical_formula_structural   NaNd(SeO5)2
_chemical_formula_sum   'Na4 Nd4 Se8 O40'
_cell_volume   858.94926495
_cell_formula_units_Z   4
loop_
 _symmetry_equiv_pos_site_id
 _symmetry_equiv_pos_as_xyz
  1  'x, y, z'
loop_
 _atom_site_type_symbol
 _atom_site_label
 _atom_site_symmetry_multiplicity
 _atom_site_fract_x
 _atom_site_fract_y
 _atom_site_fract_z
 _atom_site_occupancy
  Na  Na0  1  0.64361100  0.96373600  0.36977100  1
  Na  Na1  1  0.35638900  0.03626400  0.63022900  1
  Na  Na2  1  0.14361100  0.53626400  0.63022900  1
  Na  Na3  1  0.85638900  0.46373600  0.36977100  1
  Nd  Nd4  1  0.38578100  0.66595000  0.24874500  1
  Nd  Nd5  1  0.61421900  0.33405000  0.75125500  1
  Nd  Nd6  1  0.88578100  0.83405000  0.75125500  1
  Nd  Nd7  1  0.11421900  0.16595000  0.24874500  1
  Se  Se8  1  0.87225300  0.72090300  0.10571800  1
  Se  Se9  1  0.12774700  0.27909700  0.89428200  1
  Se  Se10  1  0.37225300  0.77909700  0.89428200  1
  Se  Se11  1  0.62774700  0.22090300  0.10571800  1
  Se  Se12  1  0.65447700  0.64057300  0.55298200  1
  Se  Se13  1  0.34552300  0.35942700  0.44701800  1
  Se  Se14  1  0.15447700  0.85942700  0.44701800  1
  Se  Se15  1  0.84552300  0.14057300  0.55298200  1
  O  O16  1  0.83744500  0.87713600  0.08511700  1
  O  O17  1  0.16255500  0.12286400  0.91488300  1
  O  O18  1  0.33744500  0.62286400  0.91488300  1
  O  O19  1  0.66255500  0.37713600  0.08511700  1
  O  O20  1  0.56150500  0.83694400  0.80711100  1
  O  O21  1  0.43849500  0.16305600  0.19288900  1
  O  O22  1  0.06150500  0.66305600  0.19288900  1
  O  O23  1  0.93849500  0.33694400  0.80711100  1
  O  O24  1  0.82215800  0.53214100  0.57114300  1
  O  O25  1  0.17784200  0.46785900  0.42885700  1
  O  O26  1  0.32215800  0.96785900  0.42885700  1
  O  O27  1  0.67784200  0.03214100  0.57114300  1
  O  O28  1  0.53551700  0.88109900  0.20165200  1
  O  O29  1  0.46448300  0.11890100  0.79834800  1
  O  O30  1  0.03551700  0.61890100  0.79834800  1
  O  O31  1  0.96448300  0.38109900  0.20165200  1
  O  O32  1  0.60537400  0.71485300  0.40006200  1
  O  O33  1  0.39462600  0.28514700  0.59993800  1
  O  O34  1  0.10537400  0.78514700  0.59993800  1
  O  O35  1  0.89462600  0.21485300  0.40006200  1
  O  O36  1  0.70551000  0.75372100  0.61048400  1
  O  O37  1  0.29449000  0.24627900  0.38951600  1
  O  O38  1  0.20551000  0.74627900  0.38951600  1
  O  O39  1  0.79449000  0.25372100  0.61048400  1
  O  O40  1  0.97580800  0.94948300  0.36969200  1
  O  O41  1  0.02419200  0.05051700  0.63030800  1
  O  O42  1  0.47580800  0.55051700  0.63030800  1
  O  O43  1  0.52419200  0.44948300  0.36969200  1
  O  O44  1  0.39201100  0.79978300  0.03192800  1
  O  O45  1  0.60798900  0.20021700  0.96807200  1
  O  O46  1  0.89201100  0.70021700  0.96807200  1
  O  O47  1  0.10798900  0.29978300  0.03192800  1
  O  O48  1  0.29532700  0.52424500  0.12101500  1
  O  O49  1  0.70467300  0.47575500  0.87898500  1
  O  O50  1  0.79532700  0.97575500  0.87898500  1
  O  O51  1  0.20467300  0.02424500  0.12101500  1
  O  O52  1  0.70037100  0.63131900  0.18993100  1
  O  O53  1  0.29962900  0.36868100  0.81006900  1
  O  O54  1  0.20037100  0.86868100  0.81006900  1
  O  O55  1  0.79962900  0.13131900  0.18993100  1
