# generated using pymatgen
data_Na2MgFe2(PO4)3
_symmetry_space_group_name_H-M   'P 1'
_cell_length_a   8.67776192
_cell_length_b   8.67776192
_cell_length_c   6.57116302
_cell_angle_alpha   73.77915794
_cell_angle_beta   73.77915794
_cell_angle_gamma   93.28998243
_symmetry_Int_Tables_number   1
_chemical_formula_structural   Na2MgFe2(PO4)3
_chemical_formula_sum   'Na4 Mg2 Fe4 P6 O24'
_cell_volume   451.27151501
_cell_formula_units_Z   2
loop_
 _symmetry_equiv_pos_site_id
 _symmetry_equiv_pos_as_xyz
  1  'x, y, z'
loop_
 _atom_site_type_symbol
 _atom_site_label
 _atom_site_symmetry_multiplicity
 _atom_site_fract_x
 _atom_site_fract_y
 _atom_site_fract_z
 _atom_site_occupancy
  Na  Na0  1  0.98350700  0.01649300  0.25000000  1
  Na  Na1  1  0.01649300  0.98350700  0.75000000  1
  Na  Na2  1  0.50000000  0.50000000  0.00000000  1
  Na  Na3  1  0.50000000  0.50000000  0.50000000  1
  Mg  Mg4  1  0.26658200  0.73341800  0.25000000  1
  Mg  Mg5  1  0.73341800  0.26658200  0.75000000  1
  Fe  Fe6  1  0.38085200  0.05732100  0.37393900  1
  Fe  Fe7  1  0.61914800  0.94267900  0.62606100  1
  Fe  Fe8  1  0.94267900  0.61914800  0.12606100  1
  Fe  Fe9  1  0.05732100  0.38085200  0.87393900  1
  P  P10  1  0.71118600  0.28881400  0.25000000  1
  P  P11  1  0.28881400  0.71118600  0.75000000  1
  P  P12  1  0.65460300  0.87393100  0.11994500  1
  P  P13  1  0.34539700  0.12606900  0.88005500  1
  P  P14  1  0.12606900  0.34539700  0.38005500  1
  P  P15  1  0.87393100  0.65460300  0.61994500  1
  O  O16  1  0.53305200  0.26235000  0.25360100  1
  O  O17  1  0.46694800  0.73765000  0.74639900  1
  O  O18  1  0.73765000  0.46694800  0.24639900  1
  O  O19  1  0.26235000  0.53305200  0.75360100  1
  O  O20  1  0.52194300  0.73116300  0.17065600  1
  O  O21  1  0.47805700  0.26883700  0.82934400  1
  O  O22  1  0.26883700  0.47805700  0.32934400  1
  O  O23  1  0.73116300  0.52194300  0.67065600  1
  O  O24  1  0.74197700  0.17802100  0.46369800  1
  O  O25  1  0.25802300  0.82197900  0.53630200  1
  O  O26  1  0.82197900  0.25802300  0.03630200  1
  O  O27  1  0.17802100  0.74197700  0.96369800  1
  O  O28  1  0.60329700  0.95557700  0.30861200  1
  O  O29  1  0.39670300  0.04442300  0.69138800  1
  O  O30  1  0.04442300  0.39670300  0.19138800  1
  O  O31  1  0.95557700  0.60329700  0.80861200  1
  O  O32  1  0.82563000  0.82465100  0.11035000  1
  O  O33  1  0.17437000  0.17534900  0.88965000  1
  O  O34  1  0.17534900  0.17437000  0.38965000  1
  O  O35  1  0.82465100  0.82563000  0.61035000  1
  O  O36  1  0.32418400  0.99517700  0.10988900  1
  O  O37  1  0.67581600  0.00482300  0.89011100  1
  O  O38  1  0.00482300  0.67581600  0.39011100  1
  O  O39  1  0.99517700  0.32418400  0.60988900  1
