# generated using pymatgen
data_Na3Eu2(SiSe3)2
_symmetry_space_group_name_H-M   'P 1'
_cell_length_a   7.20566988
_cell_length_b   7.20566988
_cell_length_c   7.92978510
_cell_angle_alpha   81.29294057
_cell_angle_beta   81.29294057
_cell_angle_gamma   119.96492211
_symmetry_Int_Tables_number   1
_chemical_formula_structural   Na3Eu2(SiSe3)2
_chemical_formula_sum   'Na3 Eu2 Si2 Se6'
_cell_volume   339.96952416
_cell_formula_units_Z   1
loop_
 _symmetry_equiv_pos_site_id
 _symmetry_equiv_pos_as_xyz
  1  'x, y, z'
loop_
 _atom_site_type_symbol
 _atom_site_label
 _atom_site_symmetry_multiplicity
 _atom_site_fract_x
 _atom_site_fract_y
 _atom_site_fract_z
 _atom_site_occupancy
  Na  Na0  1  0.00000000  0.00000000  0.00000000  1
  Na  Na1  1  0.67261800  0.32738200  0.00000000  1
  Na  Na2  1  0.32738200  0.67261800  0.00000000  1
  Eu  Eu3  1  0.83375100  0.16624900  0.50000000  1
  Eu  Eu4  1  0.16624900  0.83375100  0.50000000  1
  Si  Si5  1  0.55116800  0.55116800  0.34374800  1
  Si  Si6  1  0.44883200  0.44883200  0.65625200  1
  Se  Se7  1  0.58140400  0.89458300  0.25462400  1
  Se  Se8  1  0.41859600  0.10541700  0.74537600  1
  Se  Se9  1  0.10541700  0.41859600  0.74537600  1
  Se  Se10  1  0.89458300  0.58140400  0.25462400  1
  Se  Se11  1  0.26899200  0.26899200  0.25493400  1
  Se  Se12  1  0.73100800  0.73100800  0.74506600  1
