# generated using pymatgen
data_MgZn7O8
_symmetry_space_group_name_H-M   'P 1'
_cell_length_a   6.58714396
_cell_length_b   6.58714396
_cell_length_c   5.28702400
_cell_angle_alpha   90.00000000
_cell_angle_beta   90.00000000
_cell_angle_gamma   119.99999963
_symmetry_Int_Tables_number   1
_chemical_formula_structural   MgZn7O8
_chemical_formula_sum   'Mg1 Zn7 O8'
_cell_volume   198.67179947
_cell_formula_units_Z   1
loop_
 _symmetry_equiv_pos_site_id
 _symmetry_equiv_pos_as_xyz
  1  'x, y, z'
loop_
 _atom_site_type_symbol
 _atom_site_label
 _atom_site_symmetry_multiplicity
 _atom_site_fract_x
 _atom_site_fract_y
 _atom_site_fract_z
 _atom_site_occupancy
  Mg  Mg0  1  0.33333300  0.66666700  0.49708400  1
  Zn  Zn1  1  0.83239600  0.66479200  0.49901300  1
  Zn  Zn2  1  0.49967400  0.50032600  0.99987700  1
  Zn  Zn3  1  0.00065100  0.50032600  0.99987700  1
  Zn  Zn4  1  0.33520800  0.16760400  0.49901300  1
  Zn  Zn5  1  0.83239600  0.16760400  0.49901300  1
  Zn  Zn6  1  0.49967400  0.99934900  0.99987700  1
  Zn  Zn7  1  0.00000000  0.00000000  0.00083500  1
  O  O8  1  0.33333300  0.66666700  0.87480200  1
  O  O9  1  0.00000000  0.00000000  0.38151900  1
  O  O10  1  0.33326500  0.16663300  0.88025400  1
  O  O11  1  0.83336700  0.16663300  0.88025400  1
  O  O12  1  0.83336700  0.66673500  0.88025400  1
  O  O13  1  0.49900800  0.50099200  0.38010800  1
  O  O14  1  0.00198500  0.50099200  0.38010800  1
  O  O15  1  0.49900800  0.99801500  0.38010800  1
