# generated using pymatgen
data_P(NO2)2
_symmetry_space_group_name_H-M   'P 1'
_cell_length_a   5.49398100
_cell_length_b   9.91516800
_cell_length_c   11.25501331
_cell_angle_alpha   65.88755069
_cell_angle_beta   90.00000000
_cell_angle_gamma   90.00000000
_symmetry_Int_Tables_number   1
_chemical_formula_structural   P(NO2)2
_chemical_formula_sum   'P4 N8 O16'
_cell_volume   559.60670831
_cell_formula_units_Z   4
loop_
 _symmetry_equiv_pos_site_id
 _symmetry_equiv_pos_as_xyz
  1  'x, y, z'
loop_
 _atom_site_type_symbol
 _atom_site_label
 _atom_site_symmetry_multiplicity
 _atom_site_fract_x
 _atom_site_fract_y
 _atom_site_fract_z
 _atom_site_occupancy
  P  P0  1  0.93957600  0.91669200  0.17212500  1
  P  P1  1  0.06042400  0.08330800  0.82787500  1
  P  P2  1  0.43957600  0.58330800  0.82787500  1
  P  P3  1  0.56042400  0.41669200  0.17212500  1
  N  N4  1  0.91769700  0.64828400  0.56132500  1
  N  N5  1  0.08230300  0.35171600  0.43867500  1
  N  N6  1  0.41769700  0.85171600  0.43867500  1
  N  N7  1  0.58230300  0.14828400  0.56132500  1
  N  N8  1  0.20090300  0.72513000  0.12636100  1
  N  N9  1  0.79909700  0.27487000  0.87363900  1
  N  N10  1  0.70090300  0.77487000  0.87363900  1
  N  N11  1  0.29909700  0.22513000  0.12636100  1
  O  O12  1  0.66595000  0.70223100  0.79798100  1
  O  O13  1  0.33405000  0.29776900  0.20201900  1
  O  O14  1  0.16595000  0.79776900  0.20201900  1
  O  O15  1  0.83405000  0.20223100  0.79798100  1
  O  O16  1  0.94379400  0.98474800  0.26535500  1
  O  O17  1  0.05620600  0.01525200  0.73464500  1
  O  O18  1  0.44379400  0.51525200  0.73464500  1
  O  O19  1  0.55620600  0.48474800  0.26535500  1
  O  O20  1  0.77752300  0.92174300  0.06673600  1
  O  O21  1  0.22247700  0.07825700  0.93326400  1
  O  O22  1  0.27752300  0.57825700  0.93326400  1
  O  O23  1  0.72247700  0.42174300  0.06673600  1
  O  O24  1  0.78605200  0.67888200  0.47261700  1
  O  O25  1  0.21394800  0.32111800  0.52738300  1
  O  O26  1  0.28605200  0.82111800  0.52738300  1
  O  O27  1  0.71394800  0.17888200  0.47261700  1
