# generated using pymatgen
data_Rb5HW3S4(NO7)2
_symmetry_space_group_name_H-M   'P 1'
_cell_length_a   9.48452100
_cell_length_b   11.38496475
_cell_length_c   12.03938941
_cell_angle_alpha   103.08560586
_cell_angle_beta   94.13344911
_cell_angle_gamma   112.98895055
_symmetry_Int_Tables_number   1
_chemical_formula_structural   Rb5HW3S4(NO7)2
_chemical_formula_sum   'Rb10 H2 W6 S8 N4 O28'
_cell_volume   1146.87315497
_cell_formula_units_Z   2
loop_
 _symmetry_equiv_pos_site_id
 _symmetry_equiv_pos_as_xyz
  1  'x, y, z'
loop_
 _atom_site_type_symbol
 _atom_site_label
 _atom_site_symmetry_multiplicity
 _atom_site_fract_x
 _atom_site_fract_y
 _atom_site_fract_z
 _atom_site_occupancy
  Rb  Rb0  1  0.11481600  0.17126900  0.25901800  1
  Rb  Rb1  1  0.88518400  0.82873100  0.74098200  1
  Rb  Rb2  1  0.20063600  0.83123300  0.07892400  1
  Rb  Rb3  1  0.79936400  0.16876700  0.92107600  1
  Rb  Rb4  1  0.31070100  0.83551000  0.71455000  1
  Rb  Rb5  1  0.68929900  0.16449000  0.28545000  1
  Rb  Rb6  1  0.31937000  0.52169000  0.04891200  1
  Rb  Rb7  1  0.68063000  0.47831000  0.95108800  1
  Rb  Rb8  1  0.35930700  0.48598900  0.67282200  1
  Rb  Rb9  1  0.64069300  0.51401100  0.32717800  1
  H  H10  1  0.00000000  0.50000000  0.50000000  1
  H  H11  1  0.00000000  0.00000000  0.00000000  1
  W  W12  1  0.01177000  0.84663600  0.42941300  1
  W  W13  1  0.98823000  0.15336400  0.57058700  1
  W  W14  1  0.70649400  0.88323500  0.46127500  1
  W  W15  1  0.29350600  0.11676500  0.53872500  1
  W  W16  1  0.36417300  0.87484700  0.41463800  1
  W  W17  1  0.63582700  0.12515300  0.58536200  1
  S  S18  1  0.79586400  0.83604400  0.15804500  1
  S  S19  1  0.20413600  0.16395600  0.84195500  1
  S  S20  1  0.28037300  0.56949400  0.38693500  1
  S  S21  1  0.71962700  0.43050600  0.61306500  1
  S  S22  1  0.00104700  0.46173000  0.20026500  1
  S  S23  1  0.99895300  0.53827000  0.79973500  1
  S  S24  1  0.59360500  0.80109800  0.94256900  1
  S  S25  1  0.40639500  0.19890200  0.05743100  1
  N  N26  1  0.78635400  0.85713500  0.01714800  1
  N  N27  1  0.21364600  0.14286500  0.98285200  1
  N  N28  1  0.08162500  0.52264200  0.34996600  1
  N  N29  1  0.91837500  0.47735800  0.65003400  1
  O  O30  1  0.32028600  0.45602400  0.35289300  1
  O  O31  1  0.67971400  0.54397600  0.64710700  1
  O  O32  1  0.07207000  0.57443800  0.15302600  1
  O  O33  1  0.92793000  0.42556200  0.84697400  1
  O  O34  1  0.83414000  0.42067200  0.20049100  1
  O  O35  1  0.16586000  0.57932800  0.79950900  1
  O  O36  1  0.54195600  0.65618500  0.90326800  1
  O  O37  1  0.45804400  0.34381500  0.09673200  1
  O  O38  1  0.87598600  0.99329300  0.02834800  1
  O  O39  1  0.12401400  0.00670700  0.97165200  1
  O  O40  1  0.68593100  0.69838700  0.14363500  1
  O  O41  1  0.31406900  0.30161300  0.85636500  1
  O  O42  1  0.61757700  0.86332600  0.84671500  1
  O  O43  1  0.38242300  0.13667400  0.15328500  1
  O  O44  1  0.75984900  0.93730500  0.23408500  1
  O  O45  1  0.24015100  0.06269500  0.76591500  1
  O  O46  1  0.49728800  0.84098100  0.01934200  1
  O  O47  1  0.50271200  0.15901900  0.98065800  1
  O  O48  1  0.35178400  0.67003500  0.32233200  1
  O  O49  1  0.64821600  0.32996500  0.67766800  1
  O  O50  1  0.00612800  0.42840500  0.40886700  1
  O  O51  1  0.99387200  0.57159500  0.59113300  1
  O  O52  1  0.31386000  0.62969400  0.51217900  1
  O  O53  1  0.68614000  0.37030600  0.48782100  1
  O  O54  1  0.96015200  0.86072100  0.18641300  1
  O  O55  1  0.03984800  0.13927900  0.81358700  1
  O  O56  1  0.03627100  0.34791200  0.14803300  1
  O  O57  1  0.96372900  0.65208800  0.85196700  1
