# generated using pymatgen
data_Na5Ca4(SiO3)6
_symmetry_space_group_name_H-M   'P 1'
_cell_length_a   10.64912544
_cell_length_b   10.64912544
_cell_length_c   13.37704200
_cell_angle_alpha   90.00000000
_cell_angle_beta   90.00000000
_cell_angle_gamma   119.99999653
_symmetry_Int_Tables_number   1
_chemical_formula_structural   Na5Ca4(SiO3)6
_chemical_formula_sum   'Na15 Ca12 Si18 O54'
_cell_volume   1313.76783019
_cell_formula_units_Z   3
loop_
 _symmetry_equiv_pos_site_id
 _symmetry_equiv_pos_as_xyz
  1  'x, y, z'
loop_
 _atom_site_type_symbol
 _atom_site_label
 _atom_site_symmetry_multiplicity
 _atom_site_fract_x
 _atom_site_fract_y
 _atom_site_fract_z
 _atom_site_occupancy
  Na  Na0  1  0.19225000  0.48843200  0.83091300  1
  Na  Na1  1  0.29618200  0.80775000  0.49758000  1
  Na  Na2  1  0.51156800  0.70381800  0.16424700  1
  Na  Na3  1  0.99768900  0.66682000  0.40105500  1
  Na  Na4  1  0.66913100  0.00231100  0.06772200  1
  Na  Na5  1  0.33318000  0.33086900  0.73438900  1
  Na  Na6  1  0.48251400  0.65111000  0.66437000  1
  Na  Na7  1  0.16859600  0.51748600  0.33103700  1
  Na  Na8  1  0.34889000  0.83140400  0.99770400  1
  Na  Na9  1  0.81702200  0.83715900  0.99026000  1
  Na  Na10  1  0.02013700  0.18297800  0.65692700  1
  Na  Na11  1  0.16284100  0.97986300  0.32359300  1
  Na  Na12  1  0.84161000  0.30876500  0.99442200  1
  Na  Na13  1  0.46715500  0.15839000  0.66108900  1
  Na  Na14  1  0.69123500  0.53284500  0.32775500  1
  Ca  Ca15  1  0.84884700  0.34241600  0.48889300  1
  Ca  Ca16  1  0.49356900  0.15115300  0.15555900  1
  Ca  Ca17  1  0.65758400  0.50643100  0.82222600  1
  Ca  Ca18  1  0.83299300  0.85149000  0.47999800  1
  Ca  Ca19  1  0.01849700  0.16700700  0.14666500  1
  Ca  Ca20  1  0.14851000  0.98150300  0.81333100  1
  Ca  Ca21  1  0.64860000  0.00212700  0.57597600  1
  Ca  Ca22  1  0.35352700  0.35140000  0.24264300  1
  Ca  Ca23  1  0.99787300  0.64647300  0.90931000  1
  Ca  Ca24  1  0.97700900  0.64316000  0.65162700  1
  Ca  Ca25  1  0.66615100  0.02299100  0.31829400  1
  Ca  Ca26  1  0.35684000  0.33384900  0.98496100  1
  Si  Si27  1  0.81940600  0.28843000  0.76283300  1
  Si  Si28  1  0.46902500  0.18059400  0.42950000  1
  Si  Si29  1  0.71157000  0.53097500  0.09616600  1
  Si  Si30  1  0.49058900  0.65374100  0.42853900  1
  Si  Si31  1  0.16315200  0.50941100  0.09520500  1
  Si  Si32  1  0.34625900  0.83684800  0.76187200  1
  Si  Si33  1  0.51678200  0.70545000  0.89157900  1
  Si  Si34  1  0.18866800  0.48321800  0.55824500  1
  Si  Si35  1  0.29455000  0.81133200  0.22491200  1
  Si  Si36  1  0.51748900  0.13894500  0.88252400  1
  Si  Si37  1  0.62145600  0.48251100  0.54919100  1
  Si  Si38  1  0.86105500  0.37854400  0.21585700  1
  Si  Si39  1  0.98786300  0.15641200  0.88390800  1
  Si  Si40  1  0.16854900  0.01213700  0.55057500  1
  Si  Si41  1  0.84358800  0.83145100  0.21724100  1
  Si  Si42  1  0.81528700  0.85459800  0.75215500  1
  Si  Si43  1  0.03931100  0.18471300  0.41882200  1
  Si  Si44  1  0.14540200  0.96068900  0.08548900  1
  O  O45  1  0.86336900  0.10528300  0.43375400  1
  O  O46  1  0.24191400  0.13663100  0.10042100  1
  O  O47  1  0.89471700  0.75808600  0.76708800  1
  O  O48  1  0.66745000  0.17369700  0.82186900  1
  O  O49  1  0.50624700  0.33255000  0.48853600  1
  O  O50  1  0.82630300  0.49375300  0.15520200  1
  O  O51  1  0.77773400  0.93952500  0.20918200  1
  O  O52  1  0.16179100  0.22226600  0.87584800  1
  O  O53  1  0.06047500  0.83820900  0.54251500  1
  O  O54  1  0.58453900  0.83071300  0.43607400  1
  O  O55  1  0.24617300  0.41546100  0.10274100  1
  O  O56  1  0.16928700  0.75382700  0.76940800  1
  O  O57  1  0.55465800  0.77772900  0.00030400  1
  O  O58  1  0.22307100  0.44534200  0.66697000  1
  O  O59  1  0.22227100  0.77692900  0.33363700  1
  O  O60  1  0.81220200  0.23143300  0.64828100  1
  O  O61  1  0.41923100  0.18779800  0.31494800  1
  O  O62  1  0.76856700  0.58076900  0.98161400  1
  O  O63  1  0.92849500  0.00890100  0.81050100  1
  O  O64  1  0.08040600  0.07150500  0.47716800  1
  O  O65  1  0.99109900  0.91959400  0.14383500  1
  O  O66  1  0.39965500  0.74410500  0.83419300  1
  O  O67  1  0.34444900  0.60034500  0.50086000  1
  O  O68  1  0.25589500  0.65555100  0.16752700  1
  O  O69  1  0.78835800  0.52362300  0.52786400  1
  O  O70  1  0.73526500  0.21164200  0.19453100  1
  O  O71  1  0.47637700  0.26473500  0.86119800  1
  O  O72  1  0.77920400  0.89163200  0.64160600  1
  O  O73  1  0.11242800  0.22079600  0.30827200  1
  O  O74  1  0.10836800  0.88757200  0.97493900  1
  O  O75  1  0.94864400  0.27142700  0.82489600  1
  O  O76  1  0.32278300  0.05135600  0.49156300  1
  O  O77  1  0.72857300  0.67721700  0.15822900  1
  O  O78  1  0.45151700  0.53193200  0.87885900  1
  O  O79  1  0.08041500  0.54848300  0.54552600  1
  O  O80  1  0.46806800  0.91958500  0.21219200  1
  O  O81  1  0.52121100  0.08966300  0.99648500  1
  O  O82  1  0.56845300  0.47878900  0.66315200  1
  O  O83  1  0.91033700  0.43154700  0.32981800  1
  O  O84  1  0.60727300  0.61328700  0.48634600  1
  O  O85  1  0.00601400  0.39272700  0.15301300  1
  O  O86  1  0.38671300  0.99398600  0.81967900  1
  O  O87  1  0.42788100  0.87008400  0.65461800  1
  O  O88  1  0.44220300  0.57211900  0.32128500  1
  O  O89  1  0.12991600  0.55779700  0.98795100  1
  O  O90  1  0.90935700  0.11370300  0.99215000  1
  O  O91  1  0.20434600  0.09064300  0.65881700  1
  O  O92  1  0.88629700  0.79565400  0.32548300  1
  O  O93  1  0.85777900  0.45599400  0.78211700  1
  O  O94  1  0.59821500  0.14222100  0.44878400  1
  O  O95  1  0.54400600  0.40178500  0.11545000  1
  O  O96  1  0.66550600  0.77303300  0.81964800  1
  O  O97  1  0.10752700  0.33449400  0.48631400  1
  O  O98  1  0.22696700  0.89247300  0.15298100  1
