# generated using pymatgen
data_Na7YbC4(O3F)4
_symmetry_space_group_name_H-M   'P 1'
_cell_length_a   15.73061103
_cell_length_b   15.73061103
_cell_length_c   7.10178527
_cell_angle_alpha   85.01098366
_cell_angle_beta   85.01098366
_cell_angle_gamma   152.98271814
_symmetry_Int_Tables_number   1
_chemical_formula_structural   Na7YbC4(O3F)4
_chemical_formula_sum   'Na14 Yb2 C8 O24 F8'
_cell_volume   740.90804434
_cell_formula_units_Z   2
loop_
 _symmetry_equiv_pos_site_id
 _symmetry_equiv_pos_as_xyz
  1  'x, y, z'
loop_
 _atom_site_type_symbol
 _atom_site_label
 _atom_site_symmetry_multiplicity
 _atom_site_fract_x
 _atom_site_fract_y
 _atom_site_fract_z
 _atom_site_occupancy
  Na  Na0  1  0.23896300  0.48028900  0.27752300  1
  Na  Na1  1  0.48028900  0.23896300  0.77752300  1
  Na  Na2  1  0.21219400  0.27376100  0.02536500  1
  Na  Na3  1  0.27376100  0.21219400  0.52536500  1
  Na  Na4  1  0.23466100  0.97937500  0.29118600  1
  Na  Na5  1  0.97937500  0.23466100  0.79118600  1
  Na  Na6  1  0.70068400  0.26773200  0.03654000  1
  Na  Na7  1  0.26773200  0.70068400  0.53654000  1
  Na  Na8  1  0.48707200  0.74535000  0.78302700  1
  Na  Na9  1  0.74535000  0.48707200  0.28302700  1
  Na  Na10  1  0.75408600  0.99391700  0.27013000  1
  Na  Na11  1  0.99391700  0.75408600  0.77013000  1
  Na  Na12  1  0.70373700  0.76795400  0.02719700  1
  Na  Na13  1  0.76795400  0.70373600  0.52719700  1
  Yb  Yb14  1  0.75980800  0.20663200  0.52705600  1
  Yb  Yb15  1  0.20663200  0.75980800  0.02705600  1
  C  C16  1  0.44775700  0.05681200  0.54518300  1
  C  C17  1  0.05681200  0.44775700  0.04518300  1
  C  C18  1  0.94036300  0.05242700  0.53813100  1
  C  C19  1  0.05242700  0.94036300  0.03813100  1
  C  C20  1  0.53904300  0.92675500  0.04204600  1
  C  C21  1  0.92675500  0.53904300  0.54204600  1
  C  C22  1  0.55742700  0.44175400  0.03935400  1
  C  C23  1  0.44175400  0.55742700  0.53935400  1
  O  O24  1  0.56083200  0.86508900  0.06621500  1
  O  O25  1  0.86508900  0.56083200  0.56621500  1
  O  O26  1  0.60472300  0.70419300  0.38410400  1
  O  O27  1  0.70419300  0.60472300  0.88410400  1
  O  O28  1  0.07610500  0.65728600  0.38115400  1
  O  O29  1  0.65728600  0.07610500  0.88115400  1
  O  O30  1  0.43758600  0.38536700  0.15373800  1
  O  O31  1  0.38536700  0.43758600  0.65373800  1
  O  O32  1  0.02925400  0.34156000  0.07586100  1
  O  O33  1  0.34156000  0.02925400  0.57586100  1
  O  O34  1  0.10772100  0.19829900  0.39001300  1
  O  O35  1  0.19829900  0.10772100  0.89001300  1
  O  O36  1  0.40067000  0.84153600  0.17474300  1
  O  O37  1  0.84153600  0.40067000  0.67474300  1
  O  O38  1  0.61485600  0.20625200  0.39225200  1
  O  O39  1  0.20625200  0.61485600  0.89225200  1
  O  O40  1  0.53485700  0.34011900  0.07709800  1
  O  O41  1  0.34011900  0.53485700  0.57709800  1
  O  O42  1  0.86751400  0.91976100  0.65538600  1
  O  O43  1  0.91976100  0.86751400  0.15538600  1
  O  O44  1  0.84909400  0.04180900  0.56798900  1
  O  O45  1  0.04180900  0.84909400  0.06798900  1
  O  O46  1  0.39116800  0.93767600  0.66883600  1
  O  O47  1  0.93767600  0.39116800  0.16883600  1
  F  F48  1  0.92705600  0.07210100  0.00881200  1
  F  F49  1  0.07210100  0.92705600  0.50881200  1
  F  F50  1  0.41797500  0.56870400  0.01154500  1
  F  F51  1  0.56870400  0.41797500  0.51154500  1
  F  F52  1  0.58746600  0.94259400  0.50641800  1
  F  F53  1  0.94259400  0.58746600  0.00641800  1
  F  F54  1  0.39523000  0.03859500  0.02459900  1
  F  F55  1  0.03859500  0.39523000  0.52459900  1
