# generated using pymatgen
data_MgSeO5
_symmetry_space_group_name_H-M   'P 1'
_cell_length_a   5.32866797
_cell_length_b   5.32866797
_cell_length_c   7.86902500
_cell_angle_alpha   75.27039094
_cell_angle_beta   75.27039094
_cell_angle_gamma   96.04021187
_symmetry_Int_Tables_number   1
_chemical_formula_structural   MgSeO5
_chemical_formula_sum   'Mg2 Se2 O10'
_cell_volume   205.51838180
_cell_formula_units_Z   2
loop_
 _symmetry_equiv_pos_site_id
 _symmetry_equiv_pos_as_xyz
  1  'x, y, z'
loop_
 _atom_site_type_symbol
 _atom_site_label
 _atom_site_symmetry_multiplicity
 _atom_site_fract_x
 _atom_site_fract_y
 _atom_site_fract_z
 _atom_site_occupancy
  Mg  Mg0  1  0.50000000  0.00000000  0.50000000  1
  Mg  Mg1  1  0.00000000  0.50000000  0.00000000  1
  Se  Se2  1  0.91383500  0.08616500  0.75000000  1
  Se  Se3  1  0.08616500  0.91383500  0.25000000  1
  O  O4  1  0.33247900  0.66752100  0.75000000  1
  O  O5  1  0.66752100  0.33247900  0.25000000  1
  O  O6  1  0.77961900  0.18751200  0.58167900  1
  O  O7  1  0.22038100  0.81248800  0.41832100  1
  O  O8  1  0.81248800  0.22038100  0.91832100  1
  O  O9  1  0.18751200  0.77961900  0.08167900  1
  O  O10  1  0.24595700  0.17166500  0.66487400  1
  O  O11  1  0.75404300  0.82833500  0.33512600  1
  O  O12  1  0.82833500  0.75404300  0.83512600  1
  O  O13  1  0.17166500  0.24595700  0.16487400  1
