# generated using pymatgen
data_Mn3(SiSe3)2
_symmetry_space_group_name_H-M   'P 1'
_cell_length_a   6.51580418
_cell_length_b   6.51580418
_cell_length_c   13.74025100
_cell_angle_alpha   90.00000000
_cell_angle_beta   90.00000000
_cell_angle_gamma   120.00000185
_symmetry_Int_Tables_number   1
_chemical_formula_structural   Mn3(SiSe3)2
_chemical_formula_sum   'Mn6 Si4 Se12'
_cell_volume   505.19766897
_cell_formula_units_Z   2
loop_
 _symmetry_equiv_pos_site_id
 _symmetry_equiv_pos_as_xyz
  1  'x, y, z'
loop_
 _atom_site_type_symbol
 _atom_site_label
 _atom_site_symmetry_multiplicity
 _atom_site_fract_x
 _atom_site_fract_y
 _atom_site_fract_z
 _atom_site_occupancy
  Mn  Mn0  1  0.66666700  0.33333300  0.99950000  1
  Mn  Mn1  1  0.33333300  0.66666700  0.00050000  1
  Mn  Mn2  1  0.66666700  0.33333300  0.50050000  1
  Mn  Mn3  1  0.33333300  0.66666700  0.49950000  1
  Mn  Mn4  1  0.66666700  0.33333300  0.75000000  1
  Mn  Mn5  1  0.33333300  0.66666700  0.25000000  1
  Si  Si6  1  0.00000000  0.00000000  0.91550500  1
  Si  Si7  1  0.00000000  0.00000000  0.08449500  1
  Si  Si8  1  0.00000000  0.00000000  0.58449500  1
  Si  Si9  1  0.00000000  0.00000000  0.41550500  1
  Se  Se10  1  0.65686000  0.65753100  0.87333500  1
  Se  Se11  1  0.34314000  0.34246900  0.12666500  1
  Se  Se12  1  0.00067100  0.34314000  0.87333500  1
  Se  Se13  1  0.00067100  0.65753100  0.62666500  1
  Se  Se14  1  0.99932900  0.65686000  0.12666500  1
  Se  Se15  1  0.99932900  0.34246900  0.37333500  1
  Se  Se16  1  0.34246900  0.99932900  0.87333500  1
  Se  Se17  1  0.34246900  0.34314000  0.62666500  1
  Se  Se18  1  0.65753100  0.00067100  0.12666500  1
  Se  Se19  1  0.65753100  0.65686000  0.37333500  1
  Se  Se20  1  0.65686000  0.99932900  0.62666500  1
  Se  Se21  1  0.34314000  0.00067100  0.37333500  1
