# generated using pymatgen
data_Mn4Cu3BiO12
_symmetry_space_group_name_H-M   'P 1'
_cell_length_a   6.47590860
_cell_length_b   6.47828922
_cell_length_c   6.47662408
_cell_angle_alpha   109.69239272
_cell_angle_beta   109.34933130
_cell_angle_gamma   109.38734039
_symmetry_Int_Tables_number   1
_chemical_formula_structural   Mn4Cu3BiO12
_chemical_formula_sum   'Mn4 Cu3 Bi1 O12'
_cell_volume   209.12297568
_cell_formula_units_Z   1
loop_
 _symmetry_equiv_pos_site_id
 _symmetry_equiv_pos_as_xyz
  1  'x, y, z'
loop_
 _atom_site_type_symbol
 _atom_site_label
 _atom_site_symmetry_multiplicity
 _atom_site_fract_x
 _atom_site_fract_y
 _atom_site_fract_z
 _atom_site_occupancy
  Mn  Mn0  1  0.49999800  0.49999400  0.49999600  1
  Mn  Mn1  1  0.50000100  0.99999900  0.99999900  1
  Mn  Mn2  1  0.99999600  0.50000500  0.99999600  1
  Mn  Mn3  1  0.99999700  0.00000000  0.49999800  1
  Cu  Cu4  1  0.49999500  0.50000100  0.00000100  1
  Cu  Cu5  1  0.50002300  0.99999900  0.50002500  1
  Cu  Cu6  1  0.00000200  0.49999900  0.50000000  1
  Bi  Bi7  1  0.00000000  0.00000000  0.99999900  1
  O  O8  1  0.82950500  0.69067600  0.52041300  1
  O  O9  1  0.17049300  0.30932500  0.47958500  1
  O  O10  1  0.17040400  0.69080300  0.86117000  1
  O  O11  1  0.82959400  0.30919800  0.13882800  1
  O  O12  1  0.69025000  0.52026600  0.83005100  1
  O  O13  1  0.30974800  0.47973400  0.16994700  1
  O  O14  1  0.69036200  0.86025900  0.17008700  1
  O  O15  1  0.30963600  0.13974100  0.82991000  1
  O  O16  1  0.52061300  0.82947800  0.69114200  1
  O  O17  1  0.47938500  0.17052300  0.30885500  1
  O  O18  1  0.13833500  0.82945100  0.30887600  1
  O  O19  1  0.86166200  0.17055000  0.69112100  1
