# generated using pymatgen
data_NiSn2(OF)6
_symmetry_space_group_name_H-M   'P 1'
_cell_length_a   5.73602613
_cell_length_b   7.11488428
_cell_length_c   6.81197218
_cell_angle_alpha   97.32929086
_cell_angle_beta   90.09890861
_cell_angle_gamma   82.46562756
_symmetry_Int_Tables_number   1
_chemical_formula_structural   NiSn2(OF)6
_chemical_formula_sum   'Ni1 Sn2 O6 F6'
_cell_volume   273.32063643
_cell_formula_units_Z   1
loop_
 _symmetry_equiv_pos_site_id
 _symmetry_equiv_pos_as_xyz
  1  'x, y, z'
loop_
 _atom_site_type_symbol
 _atom_site_label
 _atom_site_symmetry_multiplicity
 _atom_site_fract_x
 _atom_site_fract_y
 _atom_site_fract_z
 _atom_site_occupancy
  Ni  Ni0  1  0.00000000  0.00000000  0.00000000  1
  Sn  Sn1  1  0.50995200  0.31348500  0.14706800  1
  Sn  Sn2  1  0.49004800  0.68651500  0.85293200  1
  O  O3  1  0.82947500  0.20461800  0.16172500  1
  O  O4  1  0.17052500  0.79538200  0.83827500  1
  O  O5  1  0.06286700  0.82789300  0.32896900  1
  O  O6  1  0.93713300  0.17210700  0.67103100  1
  O  O7  1  0.10919300  0.21786900  0.58984900  1
  O  O8  1  0.89080700  0.78213100  0.41015100  1
  F  F9  1  0.30995900  0.09741300  0.11105700  1
  F  F10  1  0.69004100  0.90258700  0.88894300  1
  F  F11  1  0.39159500  0.39533700  0.88259300  1
  F  F12  1  0.60840500  0.60466300  0.11740700  1
  F  F13  1  0.30315900  0.45322600  0.35205600  1
  F  F14  1  0.69684100  0.54677400  0.64794400  1
