# generated using pymatgen
data_Mg2Ta4O9
_symmetry_space_group_name_H-M   'P 1'
_cell_length_a   5.27519176
_cell_length_b   5.27519176
_cell_length_c   14.08968100
_cell_angle_alpha   90.00000000
_cell_angle_beta   90.00000000
_cell_angle_gamma   119.99999694
_symmetry_Int_Tables_number   1
_chemical_formula_structural   Mg2Ta4O9
_chemical_formula_sum   'Mg4 Ta8 O18'
_cell_volume   339.55357535
_cell_formula_units_Z   2
loop_
 _symmetry_equiv_pos_site_id
 _symmetry_equiv_pos_as_xyz
  1  'x, y, z'
loop_
 _atom_site_type_symbol
 _atom_site_label
 _atom_site_symmetry_multiplicity
 _atom_site_fract_x
 _atom_site_fract_y
 _atom_site_fract_z
 _atom_site_occupancy
  Mg  Mg0  1  0.00000000  0.00000000  0.65144900  1
  Mg  Mg1  1  0.00000000  0.00000000  0.34855100  1
  Mg  Mg2  1  0.00000000  0.00000000  0.84855100  1
  Mg  Mg3  1  0.00000000  0.00000000  0.15144900  1
  Ta  Ta4  1  0.33333300  0.66666700  0.50897800  1
  Ta  Ta5  1  0.66666700  0.33333300  0.49102200  1
  Ta  Ta6  1  0.66666700  0.33333300  0.99102200  1
  Ta  Ta7  1  0.33333300  0.66666700  0.00897800  1
  Ta  Ta8  1  0.33333300  0.66666700  0.82022300  1
  Ta  Ta9  1  0.66666700  0.33333300  0.17977700  1
  Ta  Ta10  1  0.66666700  0.33333300  0.67977700  1
  Ta  Ta11  1  0.33333300  0.66666700  0.32022300  1
  O  O12  1  0.34167300  0.33127900  0.58818800  1
  O  O13  1  0.65832700  0.66872100  0.41181200  1
  O  O14  1  0.66872100  0.01039500  0.58818800  1
  O  O15  1  0.33127900  0.34167300  0.91181200  1
  O  O16  1  0.33127900  0.98960500  0.41181200  1
  O  O17  1  0.66872100  0.65832700  0.08818800  1
  O  O18  1  0.98960500  0.65832700  0.58818800  1
  O  O19  1  0.01039500  0.66872100  0.91181200  1
  O  O20  1  0.01039500  0.34167300  0.41181200  1
  O  O21  1  0.98960500  0.33127900  0.08818800  1
  O  O22  1  0.65832700  0.98960500  0.91181200  1
  O  O23  1  0.34167300  0.01039500  0.08818800  1
  O  O24  1  0.31409700  0.00000000  0.75000000  1
  O  O25  1  0.68590300  0.00000000  0.25000000  1
  O  O26  1  0.00000000  0.31409700  0.75000000  1
  O  O27  1  0.00000000  0.68590300  0.25000000  1
  O  O28  1  0.68590300  0.68590300  0.75000000  1
  O  O29  1  0.31409700  0.31409700  0.25000000  1
