# generated using pymatgen
data_MgSb2F12
_symmetry_space_group_name_H-M   'P 1'
_cell_length_a   5.91355700
_cell_length_b   5.91355700
_cell_length_c   7.31117600
_cell_angle_alpha   90.00000000
_cell_angle_beta   90.00000000
_cell_angle_gamma   90.00000000
_symmetry_Int_Tables_number   1
_chemical_formula_structural   MgSb2F12
_chemical_formula_sum   'Mg1 Sb2 F12'
_cell_volume   255.67296813
_cell_formula_units_Z   1
loop_
 _symmetry_equiv_pos_site_id
 _symmetry_equiv_pos_as_xyz
  1  'x, y, z'
loop_
 _atom_site_type_symbol
 _atom_site_label
 _atom_site_symmetry_multiplicity
 _atom_site_fract_x
 _atom_site_fract_y
 _atom_site_fract_z
 _atom_site_occupancy
  Mg  Mg0  1  0.00000000  0.00000000  0.00000000  1
  Sb  Sb1  1  0.00000000  0.50000000  0.22229700  1
  Sb  Sb2  1  0.50000000  0.00000000  0.77770300  1
  F  F3  1  0.24900700  0.20940800  0.79936500  1
  F  F4  1  0.75099300  0.79059200  0.79936500  1
  F  F5  1  0.20940800  0.75099300  0.20063500  1
  F  F6  1  0.79059200  0.24900700  0.20063500  1
  F  F7  1  0.00000000  0.50000000  0.47967600  1
  F  F8  1  0.50000000  0.00000000  0.52032400  1
  F  F9  1  0.00000000  0.50000000  0.96307700  1
  F  F10  1  0.50000000  0.00000000  0.03692300  1
  F  F11  1  0.20940800  0.24900700  0.20063500  1
  F  F12  1  0.79059200  0.75099300  0.20063500  1
  F  F13  1  0.24900700  0.79059200  0.79936500  1
  F  F14  1  0.75099300  0.20940800  0.79936500  1
