# generated using pymatgen
data_Mg3(SiO3)4
_symmetry_space_group_name_H-M   'P 1'
_cell_length_a   5.33036200
_cell_length_b   5.38227022
_cell_length_c   9.68497561
_cell_angle_alpha   98.50851066
_cell_angle_beta   85.86577078
_cell_angle_gamma   119.58041792
_symmetry_Int_Tables_number   1
_chemical_formula_structural   Mg3(SiO3)4
_chemical_formula_sum   'Mg3 Si4 O12'
_cell_volume   238.98212760
_cell_formula_units_Z   1
loop_
 _symmetry_equiv_pos_site_id
 _symmetry_equiv_pos_as_xyz
  1  'x, y, z'
loop_
 _atom_site_type_symbol
 _atom_site_label
 _atom_site_symmetry_multiplicity
 _atom_site_fract_x
 _atom_site_fract_y
 _atom_site_fract_z
 _atom_site_occupancy
  Mg  Mg0  1  0.67758500  0.85510800  0.00011800  1
  Mg  Mg1  1  0.32241500  0.14489200  0.99988200  1
  Mg  Mg2  1  0.00000000  0.50000000  0.00000000  1
  Si  Si3  1  0.32743300  0.91005700  0.29114700  1
  Si  Si4  1  0.67256700  0.08994300  0.70885300  1
  Si  Si5  1  0.00452200  0.75458600  0.70891400  1
  Si  Si6  1  0.99547800  0.24541400  0.29108600  1
  O  O7  1  0.64736500  0.52282800  0.08702000  1
  O  O8  1  0.35263500  0.47717200  0.91298000  1
  O  O9  1  0.14526100  0.59239500  0.34586500  1
  O  O10  1  0.85473900  0.40760500  0.65413500  1
  O  O11  1  0.32672500  0.86534500  0.11882300  1
  O  O12  1  0.67327500  0.13465500  0.88117700  1
  O  O13  1  0.00688400  0.80243500  0.88115900  1
  O  O14  1  0.99311600  0.19756500  0.11884100  1
  O  O15  1  0.33811400  0.92222800  0.65263300  1
  O  O16  1  0.66188600  0.07777200  0.34736700  1
  O  O17  1  0.17689800  0.10795500  0.34784800  1
  O  O18  1  0.82310200  0.89204500  0.65215200  1
