# generated using pymatgen
data_Rb2TaCuSe2
_symmetry_space_group_name_H-M   'P 1'
_cell_length_a   5.64937900
_cell_length_b   6.89471488
_cell_length_c   23.03971626
_cell_angle_alpha   87.12092318
_cell_angle_beta   82.95777058
_cell_angle_gamma   65.81469882
_symmetry_Int_Tables_number   1
_chemical_formula_structural   Rb2TaCuSe2
_chemical_formula_sum   'Rb8 Ta4 Cu4 Se8'
_cell_volume   812.47035789
_cell_formula_units_Z   4
loop_
 _symmetry_equiv_pos_site_id
 _symmetry_equiv_pos_as_xyz
  1  'x, y, z'
loop_
 _atom_site_type_symbol
 _atom_site_label
 _atom_site_symmetry_multiplicity
 _atom_site_fract_x
 _atom_site_fract_y
 _atom_site_fract_z
 _atom_site_occupancy
  Rb  Rb0  1  0.61787900  0.26299300  0.59031900  1
  Rb  Rb1  1  0.79180200  0.73700700  0.59031900  1
  Rb  Rb2  1  0.11912700  0.26299300  0.40968100  1
  Rb  Rb3  1  0.13212100  0.23700700  0.90968100  1
  Rb  Rb4  1  0.47119100  0.73700700  0.40968100  1
  Rb  Rb5  1  0.95819800  0.76299300  0.90968100  1
  Rb  Rb6  1  0.63087300  0.23700700  0.09031900  1
  Rb  Rb7  1  0.27880900  0.76299300  0.09031900  1
  Ta  Ta8  1  0.87500000  0.25000000  0.25000000  1
  Ta  Ta9  1  0.87500000  0.75000000  0.25000000  1
  Ta  Ta10  1  0.87500000  0.25000000  0.75000000  1
  Ta  Ta11  1  0.37500000  0.75000000  0.75000000  1
  Cu  Cu12  1  0.37500000  0.25000000  0.25000000  1
  Cu  Cu13  1  0.37500000  0.75000000  0.25000000  1
  Cu  Cu14  1  0.37500000  0.25000000  0.75000000  1
  Cu  Cu15  1  0.87500000  0.75000000  0.75000000  1
  Se  Se16  1  0.10893800  0.22146000  0.15178800  1
  Se  Se17  1  0.73927400  0.77854000  0.15178800  1
  Se  Se18  1  0.66960100  0.22146000  0.84821200  1
  Se  Se19  1  0.64106200  0.27854000  0.34821200  1
  Se  Se20  1  0.48218600  0.77854000  0.84821200  1
  Se  Se21  1  0.01072600  0.72146000  0.34821200  1
  Se  Se22  1  0.08039900  0.27854000  0.65178800  1
  Se  Se23  1  0.26781400  0.72146000  0.65178800  1
