# generated using pymatgen
data_Na6Zn3P4O19
_symmetry_space_group_name_H-M   'P 1'
_cell_length_a   12.00540000
_cell_length_b   12.00540000
_cell_length_c   12.00540000
_cell_angle_alpha   90.00000000
_cell_angle_beta   90.00000000
_cell_angle_gamma   90.00000000
_symmetry_Int_Tables_number   1
_chemical_formula_structural   Na6Zn3P4O19
_chemical_formula_sum   'Na24 Zn12 P16 O76'
_cell_volume   1730.33384992
_cell_formula_units_Z   4
loop_
 _symmetry_equiv_pos_site_id
 _symmetry_equiv_pos_as_xyz
  1  'x, y, z'
loop_
 _atom_site_type_symbol
 _atom_site_label
 _atom_site_symmetry_multiplicity
 _atom_site_fract_x
 _atom_site_fract_y
 _atom_site_fract_z
 _atom_site_occupancy
  Na  Na0  1  0.00479500  0.24628700  0.17018000  1
  Na  Na1  1  0.49520500  0.75371300  0.67018000  1
  Na  Na2  1  0.99520500  0.74628700  0.32982000  1
  Na  Na3  1  0.17018000  0.00479500  0.24628700  1
  Na  Na4  1  0.50479500  0.25371300  0.82982000  1
  Na  Na5  1  0.67018000  0.49520500  0.75371300  1
  Na  Na6  1  0.32982000  0.99520500  0.74628700  1
  Na  Na7  1  0.82982000  0.50479500  0.25371300  1
  Na  Na8  1  0.24628700  0.17018000  0.00479500  1
  Na  Na9  1  0.74628700  0.32982000  0.99520500  1
  Na  Na10  1  0.25371300  0.82982000  0.50479500  1
  Na  Na11  1  0.75371300  0.67018000  0.49520500  1
  Na  Na12  1  0.24900100  0.42390800  0.49120700  1
  Na  Na13  1  0.25099900  0.57609200  0.99120700  1
  Na  Na14  1  0.75099900  0.92390800  0.00879300  1
  Na  Na15  1  0.49120700  0.24900100  0.42390800  1
  Na  Na16  1  0.74900100  0.07609200  0.50879300  1
  Na  Na17  1  0.99120700  0.25099900  0.57609200  1
  Na  Na18  1  0.00879300  0.75099900  0.92390800  1
  Na  Na19  1  0.50879300  0.74900100  0.07609200  1
  Na  Na20  1  0.42390800  0.49120700  0.24900100  1
  Na  Na21  1  0.92390800  0.00879300  0.75099900  1
  Na  Na22  1  0.07609200  0.50879300  0.74900100  1
  Na  Na23  1  0.57609200  0.99120700  0.25099900  1
  Zn  Zn24  1  0.12606900  0.50417400  0.23836500  1
  Zn  Zn25  1  0.37393100  0.49582600  0.73836500  1
  Zn  Zn26  1  0.87393100  0.00417400  0.26163500  1
  Zn  Zn27  1  0.23836500  0.12606900  0.50417400  1
  Zn  Zn28  1  0.62606900  0.99582600  0.76163500  1
  Zn  Zn29  1  0.73836500  0.37393100  0.49582600  1
  Zn  Zn30  1  0.26163500  0.87393100  0.00417400  1
  Zn  Zn31  1  0.76163500  0.62606900  0.99582600  1
  Zn  Zn32  1  0.50417400  0.23836500  0.12606900  1
  Zn  Zn33  1  0.00417400  0.26163500  0.87393100  1
  Zn  Zn34  1  0.99582600  0.76163500  0.62606900  1
  Zn  Zn35  1  0.49582600  0.73836500  0.37393100  1
  P  P36  1  0.76740500  0.76740500  0.76740500  1
  P  P37  1  0.73259500  0.23259500  0.26740500  1
  P  P38  1  0.23259500  0.26740500  0.73259500  1
  P  P39  1  0.26740500  0.73259500  0.23259500  1
  P  P40  1  0.02900700  0.02900700  0.02900700  1
  P  P41  1  0.47099300  0.97099300  0.52900700  1
  P  P42  1  0.97099300  0.52900700  0.47099300  1
  P  P43  1  0.52900700  0.47099300  0.97099300  1
  P  P44  1  0.28111600  0.28111600  0.28111600  1
  P  P45  1  0.21888400  0.71888400  0.78111600  1
  P  P46  1  0.71888400  0.78111600  0.21888400  1
  P  P47  1  0.78111600  0.21888400  0.71888400  1
  P  P48  1  0.51800800  0.51800800  0.51800800  1
  P  P49  1  0.98199200  0.48199200  0.01800800  1
  P  P50  1  0.48199200  0.01800800  0.98199200  1
  P  P51  1  0.01800800  0.98199200  0.48199200  1
  O  O52  1  0.95549400  0.95549400  0.95549400  1
  O  O53  1  0.54450600  0.04450600  0.45549400  1
  O  O54  1  0.04450600  0.45549400  0.54450600  1
  O  O55  1  0.45549400  0.54450600  0.04450600  1
  O  O56  1  0.23970900  0.40420000  0.29126900  1
  O  O57  1  0.26029100  0.59580000  0.79126900  1
  O  O58  1  0.76029100  0.90420000  0.20873100  1
  O  O59  1  0.29126900  0.23970900  0.40420000  1
  O  O60  1  0.73970900  0.09580000  0.70873100  1
  O  O61  1  0.79126900  0.26029100  0.59580000  1
  O  O62  1  0.20873100  0.76029100  0.90420000  1
  O  O63  1  0.70873100  0.73970900  0.09580000  1
  O  O64  1  0.40420000  0.29126900  0.23970900  1
  O  O65  1  0.90420000  0.20873100  0.76029100  1
  O  O66  1  0.09580000  0.70873100  0.73970900  1
  O  O67  1  0.59580000  0.79126900  0.26029100  1
  O  O68  1  0.17450800  0.20028900  0.63659400  1
  O  O69  1  0.32549200  0.79971100  0.13659400  1
  O  O70  1  0.82549200  0.70028900  0.86340600  1
  O  O71  1  0.63659400  0.17450800  0.20028900  1
  O  O72  1  0.67450800  0.29971100  0.36340600  1
  O  O73  1  0.13659400  0.32549200  0.79971100  1
  O  O74  1  0.86340600  0.82549200  0.70028900  1
  O  O75  1  0.36340600  0.67450800  0.29971100  1
  O  O76  1  0.20028900  0.63659400  0.17450800  1
  O  O77  1  0.70028900  0.86340600  0.82549200  1
  O  O78  1  0.29971100  0.36340600  0.67450800  1
  O  O79  1  0.79971100  0.13659400  0.32549200  1
  O  O80  1  0.04782300  0.42771700  0.11704300  1
  O  O81  1  0.45217700  0.57228300  0.61704300  1
  O  O82  1  0.95217700  0.92771700  0.38295700  1
  O  O83  1  0.11704300  0.04782300  0.42771700  1
  O  O84  1  0.54782300  0.07228300  0.88295700  1
  O  O85  1  0.61704300  0.45217700  0.57228300  1
  O  O86  1  0.38295700  0.95217700  0.92771700  1
  O  O87  1  0.88295700  0.54782300  0.07228300  1
  O  O88  1  0.42771700  0.11704300  0.04782300  1
  O  O89  1  0.92771700  0.38295700  0.95217700  1
  O  O90  1  0.07228300  0.88295700  0.54782300  1
  O  O91  1  0.57228300  0.61704300  0.45217700  1
  O  O92  1  0.02092300  0.55127900  0.35250500  1
  O  O93  1  0.47907700  0.44872100  0.85250500  1
  O  O94  1  0.97907700  0.05127900  0.14749500  1
  O  O95  1  0.35250500  0.02092300  0.55127900  1
  O  O96  1  0.52092300  0.94872100  0.64749500  1
  O  O97  1  0.85250500  0.47907700  0.44872100  1
  O  O98  1  0.14749500  0.97907700  0.05127900  1
  O  O99  1  0.64749500  0.52092300  0.94872100  1
  O  O100  1  0.55127900  0.35250500  0.02092300  1
  O  O101  1  0.05127900  0.14749500  0.97907700  1
  O  O102  1  0.94872100  0.64749500  0.52092300  1
  O  O103  1  0.44872100  0.85250500  0.47907700  1
  O  O104  1  0.99857600  0.24049000  0.37297200  1
  O  O105  1  0.50142400  0.75951000  0.87297200  1
  O  O106  1  0.00142400  0.74049000  0.12702800  1
  O  O107  1  0.37297200  0.99857600  0.24049000  1
  O  O108  1  0.49857600  0.25951000  0.62702800  1
  O  O109  1  0.87297200  0.50142400  0.75951000  1
  O  O110  1  0.12702800  0.00142400  0.74049000  1
  O  O111  1  0.62702800  0.49857600  0.25951000  1
  O  O112  1  0.24049000  0.37297200  0.99857600  1
  O  O113  1  0.74049000  0.12702800  0.00142400  1
  O  O114  1  0.25951000  0.62702800  0.49857600  1
  O  O115  1  0.75951000  0.87297200  0.50142400  1
  O  O116  1  0.44543000  0.44543000  0.44543000  1
  O  O117  1  0.05457000  0.55457000  0.94543000  1
  O  O118  1  0.55457000  0.94543000  0.05457000  1
  O  O119  1  0.94543000  0.05457000  0.55457000  1
  O  O120  1  0.20780000  0.20780000  0.20780000  1
  O  O121  1  0.29220000  0.79220000  0.70780000  1
  O  O122  1  0.79220000  0.70780000  0.29220000  1
  O  O123  1  0.70780000  0.29220000  0.79220000  1
  O  O124  1  0.69414800  0.69414800  0.69414800  1
  O  O125  1  0.80585200  0.30585200  0.19414800  1
  O  O126  1  0.30585200  0.19414800  0.80585200  1
  O  O127  1  0.19414800  0.80585200  0.30585200  1
