# generated using pymatgen
data_P2N3O8
_symmetry_space_group_name_H-M   'P 1'
_cell_length_a   10.90305700
_cell_length_b   6.67659300
_cell_length_c   12.82102519
_cell_angle_alpha   73.05395698
_cell_angle_beta   90.00000000
_cell_angle_gamma   90.00000000
_symmetry_Int_Tables_number   1
_chemical_formula_structural   P2N3O8
_chemical_formula_sum   'P8 N12 O32'
_cell_volume   892.78540892
_cell_formula_units_Z   4
loop_
 _symmetry_equiv_pos_site_id
 _symmetry_equiv_pos_as_xyz
  1  'x, y, z'
loop_
 _atom_site_type_symbol
 _atom_site_label
 _atom_site_symmetry_multiplicity
 _atom_site_fract_x
 _atom_site_fract_y
 _atom_site_fract_z
 _atom_site_occupancy
  P  P0  1  0.80575600  0.97286900  0.42906100  1
  P  P1  1  0.19424400  0.02713100  0.57093900  1
  P  P2  1  0.30575600  0.02713100  0.07093900  1
  P  P3  1  0.69424400  0.97286900  0.92906100  1
  P  P4  1  0.52403500  0.70216400  0.12055000  1
  P  P5  1  0.47596500  0.29783600  0.87945000  1
  P  P6  1  0.02403500  0.29783600  0.37945000  1
  P  P7  1  0.97596500  0.70216400  0.62055000  1
  N  N8  1  0.39242000  0.81975400  0.08725000  1
  N  N9  1  0.60758000  0.18024600  0.91275000  1
  N  N10  1  0.89242000  0.18024600  0.41275000  1
  N  N11  1  0.10758000  0.81975400  0.58725000  1
  N  N12  1  0.89018800  0.79591100  0.51351400  1
  N  N13  1  0.10981200  0.20408900  0.48648600  1
  N  N14  1  0.39018800  0.20408900  0.98648600  1
  N  N15  1  0.60981200  0.79591100  0.01351400  1
  N  N16  1  0.88067500  0.92690300  0.17388800  1
  N  N17  1  0.11932500  0.07309700  0.82611200  1
  N  N18  1  0.38067500  0.07309700  0.32611200  1
  N  N19  1  0.61932500  0.92690300  0.67388800  1
  O  O20  1  0.86687100  0.49325200  0.13681400  1
  O  O21  1  0.13312900  0.50674800  0.86318600  1
  O  O22  1  0.36687100  0.50674800  0.36318600  1
  O  O23  1  0.63312900  0.49325200  0.63681400  1
  O  O24  1  0.57466700  0.79296300  0.20792100  1
  O  O25  1  0.42533300  0.20703700  0.79207900  1
  O  O26  1  0.07466700  0.20703700  0.29207900  1
  O  O27  1  0.92533300  0.79296300  0.70792100  1
  O  O28  1  0.68610100  0.99869000  0.48249800  1
  O  O29  1  0.31389900  0.00131000  0.51750200  1
  O  O30  1  0.18610100  0.00131000  0.01750200  1
  O  O31  1  0.81389900  0.99869000  0.98249800  1
  O  O32  1  0.79254300  0.91873700  0.32229400  1
  O  O33  1  0.20745700  0.08126300  0.67770600  1
  O  O34  1  0.29254300  0.08126300  0.17770600  1
  O  O35  1  0.70745700  0.91873700  0.82229400  1
  O  O36  1  0.78401700  0.41304600  0.08925200  1
  O  O37  1  0.21598300  0.58695400  0.91074800  1
  O  O38  1  0.28401700  0.58695400  0.41074800  1
  O  O39  1  0.71598300  0.41304600  0.58925200  1
  O  O40  1  0.51366000  0.46980000  0.14441400  1
  O  O41  1  0.48634000  0.53020000  0.85558600  1
  O  O42  1  0.01366000  0.53020000  0.35558600  1
  O  O43  1  0.98634000  0.46980000  0.64441400  1
  O  O44  1  0.70318200  0.43488700  0.48714600  1
  O  O45  1  0.29681800  0.56511300  0.51285400  1
  O  O46  1  0.20318200  0.56511300  0.01285400  1
  O  O47  1  0.79681800  0.43488700  0.98714600  1
  O  O48  1  0.47459100  0.00421000  0.33624000  1
  O  O49  1  0.52540900  0.99579000  0.66376000  1
  O  O50  1  0.97459100  0.99579000  0.16376000  1
  O  O51  1  0.02540900  0.00421000  0.83624000  1
