# generated using pymatgen
data_MgCr(SiO3)2
_symmetry_space_group_name_H-M   'P 1'
_cell_length_a   9.37478300
_cell_length_b   5.38160900
_cell_length_c   9.54564411
_cell_angle_alpha   79.80871434
_cell_angle_beta   90.00000000
_cell_angle_gamma   90.00000000
_symmetry_Int_Tables_number   1
_chemical_formula_structural   MgCr(SiO3)2
_chemical_formula_sum   'Mg4 Cr4 Si8 O24'
_cell_volume   473.99297579
_cell_formula_units_Z   4
loop_
 _symmetry_equiv_pos_site_id
 _symmetry_equiv_pos_as_xyz
  1  'x, y, z'
loop_
 _atom_site_type_symbol
 _atom_site_label
 _atom_site_symmetry_multiplicity
 _atom_site_fract_x
 _atom_site_fract_y
 _atom_site_fract_z
 _atom_site_occupancy
  Mg  Mg0  1  0.00224900  0.48838600  0.24750400  1
  Mg  Mg1  1  0.99775100  0.51161400  0.75249600  1
  Mg  Mg2  1  0.50224900  0.01161400  0.75249600  1
  Mg  Mg3  1  0.49775100  0.98838600  0.24750400  1
  Cr  Cr4  1  0.35153100  0.48806700  0.25197400  1
  Cr  Cr5  1  0.64846900  0.51193300  0.74802600  1
  Cr  Cr6  1  0.85153100  0.01193300  0.74802600  1
  Cr  Cr7  1  0.14846900  0.98806700  0.25197400  1
  Si  Si8  1  0.83832900  0.23928400  0.04543000  1
  Si  Si9  1  0.16167100  0.76071600  0.95457000  1
  Si  Si10  1  0.33832900  0.26071600  0.95457000  1
  Si  Si11  1  0.66167100  0.73928400  0.04543000  1
  Si  Si12  1  0.16276500  0.21877600  0.54635400  1
  Si  Si13  1  0.83723500  0.78122400  0.45364600  1
  Si  Si14  1  0.66276500  0.28122400  0.45364600  1
  Si  Si15  1  0.33723500  0.71877600  0.54635400  1
  O  O16  1  0.98974900  0.22644200  0.12588900  1
  O  O17  1  0.01025100  0.77355800  0.87411100  1
  O  O18  1  0.48974900  0.27355800  0.87411100  1
  O  O19  1  0.51025100  0.72644200  0.12588900  1
  O  O20  1  0.34727000  0.20903500  0.12941600  1
  O  O21  1  0.65273000  0.79096500  0.87058400  1
  O  O22  1  0.84727000  0.29096500  0.87058400  1
  O  O23  1  0.15273000  0.70903500  0.12941600  1
  O  O24  1  0.27754400  0.42489600  0.59268000  1
  O  O25  1  0.72245600  0.57510400  0.40732000  1
  O  O26  1  0.77754400  0.07510400  0.40732000  1
  O  O27  1  0.22245600  0.92489600  0.59268000  1
  O  O28  1  0.15035500  0.27317700  0.37093500  1
  O  O29  1  0.84964500  0.72682300  0.62906500  1
  O  O30  1  0.65035500  0.22682300  0.62906500  1
  O  O31  1  0.34964500  0.77317700  0.37093500  1
  O  O32  1  0.75892300  0.48331200  0.09855700  1
  O  O33  1  0.24107700  0.51668800  0.90144300  1
  O  O34  1  0.25892300  0.01668800  0.90144300  1
  O  O35  1  0.74107700  0.98331200  0.09855700  1
  O  O36  1  0.51831100  0.24658500  0.36825000  1
  O  O37  1  0.48168900  0.75341500  0.63175000  1
  O  O38  1  0.01831100  0.25341500  0.63175000  1
  O  O39  1  0.98168900  0.74658500  0.36825000  1
