# generated using pymatgen
data_Na2CaFe2(PO4)3
_symmetry_space_group_name_H-M   'P 1'
_cell_length_a   8.88902861
_cell_length_b   8.88902861
_cell_length_c   6.61461635
_cell_angle_alpha   73.05528560
_cell_angle_beta   73.05528560
_cell_angle_gamma   91.97487432
_symmetry_Int_Tables_number   1
_chemical_formula_structural   Na2CaFe2(PO4)3
_chemical_formula_sum   'Na4 Ca2 Fe4 P6 O24'
_cell_volume   474.16826912
_cell_formula_units_Z   2
loop_
 _symmetry_equiv_pos_site_id
 _symmetry_equiv_pos_as_xyz
  1  'x, y, z'
loop_
 _atom_site_type_symbol
 _atom_site_label
 _atom_site_symmetry_multiplicity
 _atom_site_fract_x
 _atom_site_fract_y
 _atom_site_fract_z
 _atom_site_occupancy
  Na  Na0  1  0.97548700  0.02451300  0.25000000  1
  Na  Na1  1  0.02451300  0.97548700  0.75000000  1
  Na  Na2  1  0.50000000  0.50000000  0.00000000  1
  Na  Na3  1  0.50000000  0.50000000  0.50000000  1
  Ca  Ca4  1  0.26865700  0.73134300  0.25000000  1
  Ca  Ca5  1  0.73134300  0.26865700  0.75000000  1
  Fe  Fe6  1  0.38830500  0.06419600  0.36723600  1
  Fe  Fe7  1  0.61169500  0.93580400  0.63276400  1
  Fe  Fe8  1  0.93580400  0.61169500  0.13276400  1
  Fe  Fe9  1  0.06419600  0.38830500  0.86723600  1
  P  P10  1  0.71863800  0.28136200  0.25000000  1
  P  P11  1  0.28136200  0.71863800  0.75000000  1
  P  P12  1  0.65935800  0.86441200  0.12450800  1
  P  P13  1  0.34064200  0.13558800  0.87549200  1
  P  P14  1  0.13558800  0.34064200  0.37549200  1
  P  P15  1  0.86441200  0.65935800  0.62450800  1
  O  O16  1  0.55118400  0.25921600  0.22839800  1
  O  O17  1  0.44881600  0.74078400  0.77160200  1
  O  O18  1  0.74078400  0.44881600  0.27160200  1
  O  O19  1  0.25921600  0.55118400  0.72839800  1
  O  O20  1  0.54110300  0.71735200  0.17967900  1
  O  O21  1  0.45889700  0.28264800  0.82032100  1
  O  O22  1  0.28264800  0.45889700  0.32032100  1
  O  O23  1  0.71735200  0.54110300  0.67967900  1
  O  O24  1  0.73931900  0.15879500  0.46025000  1
  O  O25  1  0.26068100  0.84120500  0.53975000  1
  O  O26  1  0.84120500  0.26068100  0.03975000  1
  O  O27  1  0.15879500  0.73931900  0.96025000  1
  O  O28  1  0.60170900  0.94517600  0.31190000  1
  O  O29  1  0.39829100  0.05482400  0.68810000  1
  O  O30  1  0.05482400  0.39829100  0.18810000  1
  O  O31  1  0.94517600  0.60170900  0.81190000  1
  O  O32  1  0.83101000  0.82400000  0.10760000  1
  O  O33  1  0.16899000  0.17600000  0.89240000  1
  O  O34  1  0.17600000  0.16899000  0.39240000  1
  O  O35  1  0.82400000  0.83101000  0.60760000  1
  O  O36  1  0.33270300  0.01096900  0.10249600  1
  O  O37  1  0.66729700  0.98903100  0.89750400  1
  O  O38  1  0.98903100  0.66729700  0.39750400  1
  O  O39  1  0.01096900  0.33270300  0.60249600  1
