# generated using pymatgen
data_Mn2Fe5(SiO3)8
_symmetry_space_group_name_H-M   'P 1'
_cell_length_a   5.40011600
_cell_length_b   9.47422400
_cell_length_c   18.45646800
_cell_angle_alpha   90.00000000
_cell_angle_beta   90.00000000
_cell_angle_gamma   90.00000000
_symmetry_Int_Tables_number   1
_chemical_formula_structural   Mn2Fe5(SiO3)8
_chemical_formula_sum   'Mn4 Fe10 Si16 O48'
_cell_volume   944.26812908
_cell_formula_units_Z   2
loop_
 _symmetry_equiv_pos_site_id
 _symmetry_equiv_pos_as_xyz
  1  'x, y, z'
loop_
 _atom_site_type_symbol
 _atom_site_label
 _atom_site_symmetry_multiplicity
 _atom_site_fract_x
 _atom_site_fract_y
 _atom_site_fract_z
 _atom_site_occupancy
  Mn  Mn0  1  0.00000000  0.50000000  0.23970000  1
  Mn  Mn1  1  0.00000000  0.50000000  0.76030000  1
  Mn  Mn2  1  0.50000000  0.00000000  0.26030000  1
  Mn  Mn3  1  0.50000000  0.00000000  0.73970000  1
  Fe  Fe4  1  0.00000000  0.50000000  0.42124100  1
  Fe  Fe5  1  0.00000000  0.50000000  0.57875900  1
  Fe  Fe6  1  0.50000000  0.00000000  0.07875900  1
  Fe  Fe7  1  0.50000000  0.00000000  0.92124100  1
  Fe  Fe8  1  0.00000000  0.00000000  0.00000000  1
  Fe  Fe9  1  0.50000000  0.50000000  0.50000000  1
  Fe  Fe10  1  0.00000000  0.00000000  0.17853300  1
  Fe  Fe11  1  0.00000000  0.00000000  0.82146700  1
  Fe  Fe12  1  0.50000000  0.50000000  0.32146700  1
  Fe  Fe13  1  0.50000000  0.50000000  0.67853300  1
  Si  Si14  1  0.15237300  0.20301200  0.33412500  1
  Si  Si15  1  0.84762700  0.79698800  0.66587500  1
  Si  Si16  1  0.84762700  0.79698800  0.33412500  1
  Si  Si17  1  0.34762700  0.70301200  0.16587500  1
  Si  Si18  1  0.15237300  0.20301200  0.66587500  1
  Si  Si19  1  0.65237300  0.29698800  0.83412500  1
  Si  Si20  1  0.65237300  0.29698800  0.16587500  1
  Si  Si21  1  0.34762700  0.70301200  0.83412500  1
  Si  Si22  1  0.15920100  0.29017200  0.08325100  1
  Si  Si23  1  0.84079900  0.70982800  0.91674900  1
  Si  Si24  1  0.84079900  0.70982800  0.08325100  1
  Si  Si25  1  0.34079900  0.79017200  0.41674900  1
  Si  Si26  1  0.15920100  0.29017200  0.91674900  1
  Si  Si27  1  0.65920100  0.20982800  0.58325100  1
  Si  Si28  1  0.65920100  0.20982800  0.41674900  1
  Si  Si29  1  0.34079900  0.79017200  0.58325100  1
  O  O30  1  0.16510700  0.34660200  0.00000000  1
  O  O31  1  0.83489300  0.65339800  0.00000000  1
  O  O32  1  0.33489300  0.84660200  0.50000000  1
  O  O33  1  0.66510700  0.15339800  0.50000000  1
  O  O34  1  0.40641000  0.14891700  0.37754000  1
  O  O35  1  0.59359000  0.85108300  0.62246000  1
  O  O36  1  0.59359000  0.85108300  0.37754000  1
  O  O37  1  0.09359000  0.64891700  0.12246000  1
  O  O38  1  0.40641000  0.14891700  0.62246000  1
  O  O39  1  0.90641000  0.35108300  0.87754000  1
  O  O40  1  0.90641000  0.35108300  0.12246000  1
  O  O41  1  0.09359000  0.64891700  0.87754000  1
  O  O42  1  0.66003200  0.10453500  0.00000000  1
  O  O43  1  0.33996800  0.89546500  0.00000000  1
  O  O44  1  0.83996800  0.60453500  0.50000000  1
  O  O45  1  0.16003200  0.39546500  0.50000000  1
  O  O46  1  0.18162400  0.12444300  0.25632900  1
  O  O47  1  0.81837600  0.87555700  0.74367100  1
  O  O48  1  0.81837600  0.87555700  0.25632900  1
  O  O49  1  0.31837600  0.62444300  0.24367100  1
  O  O50  1  0.18162400  0.12444300  0.74367100  1
  O  O51  1  0.68162400  0.37555700  0.75632900  1
  O  O52  1  0.68162400  0.37555700  0.24367100  1
  O  O53  1  0.31837600  0.62444300  0.75632900  1
  O  O54  1  0.15353100  0.37724300  0.33260100  1
  O  O55  1  0.84646900  0.62275700  0.66739900  1
  O  O56  1  0.84646900  0.62275700  0.33260100  1
  O  O57  1  0.34646900  0.87724300  0.16739900  1
  O  O58  1  0.15353100  0.37724300  0.66739900  1
  O  O59  1  0.65353100  0.12275700  0.83260100  1
  O  O60  1  0.65353100  0.12275700  0.16739900  1
  O  O61  1  0.34646900  0.87724300  0.83260100  1
  O  O62  1  0.17076100  0.11741200  0.08845200  1
  O  O63  1  0.82923900  0.88258800  0.91154800  1
  O  O64  1  0.82923900  0.88258800  0.08845200  1
  O  O65  1  0.32923900  0.61741200  0.41154800  1
  O  O66  1  0.17076100  0.11741200  0.91154800  1
  O  O67  1  0.67076100  0.38258800  0.58845200  1
  O  O68  1  0.67076100  0.38258800  0.41154800  1
  O  O69  1  0.32923900  0.61741200  0.58845200  1
  O  O70  1  0.39659800  0.35428100  0.12715400  1
  O  O71  1  0.60340200  0.64571900  0.87284600  1
  O  O72  1  0.60340200  0.64571900  0.12715400  1
  O  O73  1  0.10340200  0.85428100  0.37284600  1
  O  O74  1  0.39659800  0.35428100  0.87284600  1
  O  O75  1  0.89659800  0.14571900  0.62715400  1
  O  O76  1  0.89659800  0.14571900  0.37284600  1
  O  O77  1  0.10340200  0.85428100  0.62715400  1
