# generated using pymatgen
data_Lu4Fe
_symmetry_space_group_name_H-M   'P 1'
_cell_length_a   7.24330630
_cell_length_b   7.24330630
_cell_length_c   7.24330630
_cell_angle_alpha   60.00000000
_cell_angle_beta   60.00000000
_cell_angle_gamma   60.00000000
_symmetry_Int_Tables_number   1
_chemical_formula_structural   Lu4Fe
_chemical_formula_sum   'Lu8 Fe2'
_cell_volume   268.71725449
_cell_formula_units_Z   2
loop_
 _symmetry_equiv_pos_site_id
 _symmetry_equiv_pos_as_xyz
  1  'x, y, z'
loop_
 _atom_site_type_symbol
 _atom_site_label
 _atom_site_symmetry_multiplicity
 _atom_site_fract_x
 _atom_site_fract_y
 _atom_site_fract_z
 _atom_site_occupancy
  Lu  Lu0  1  0.38482900  0.38482900  0.38482900  1
  Lu  Lu1  1  0.38482900  0.38482900  0.84551400  1
  Lu  Lu2  1  0.38482900  0.84551400  0.38482900  1
  Lu  Lu3  1  0.86517100  0.86517100  0.40448600  1
  Lu  Lu4  1  0.86517100  0.86517100  0.86517100  1
  Lu  Lu5  1  0.84551400  0.38482900  0.38482900  1
  Lu  Lu6  1  0.86517100  0.40448600  0.86517100  1
  Lu  Lu7  1  0.40448600  0.86517100  0.86517100  1
  Fe  Fe8  1  0.00000000  0.00000000  0.00000000  1
  Fe  Fe9  1  0.25000000  0.25000000  0.25000000  1
