# generated using pymatgen
data_NaMg6Al6(SiO5)6
_symmetry_space_group_name_H-M   'P 1'
_cell_length_a   8.31285900
_cell_length_b   10.94040119
_cell_length_c   10.94040228
_cell_angle_alpha   113.81445525
_cell_angle_beta   104.67151723
_cell_angle_gamma   104.67151872
_symmetry_Int_Tables_number   1
_chemical_formula_structural   NaMg6Al6(SiO5)6
_chemical_formula_sum   'Na1 Mg6 Al6 Si6 O30'
_cell_volume   806.40674643
_cell_formula_units_Z   1
loop_
 _symmetry_equiv_pos_site_id
 _symmetry_equiv_pos_as_xyz
  1  'x, y, z'
loop_
 _atom_site_type_symbol
 _atom_site_label
 _atom_site_symmetry_multiplicity
 _atom_site_fract_x
 _atom_site_fract_y
 _atom_site_fract_z
 _atom_site_occupancy
  Na  Na0  1  0.83120500  0.00000000  0.00000000  1
  Mg  Mg1  1  0.99230800  0.70271800  0.32160300  1
  Mg  Mg2  1  0.28959000  0.61888500  0.29728200  1
  Mg  Mg3  1  0.28959000  0.29728200  0.61888500  1
  Mg  Mg4  1  0.67070500  0.67839700  0.38111500  1
  Mg  Mg5  1  0.67070500  0.38111500  0.67839700  1
  Mg  Mg6  1  0.99230800  0.32160300  0.70271800  1
  Al  Al7  1  0.49890900  0.82823000  0.64282800  1
  Al  Al8  1  0.67068000  0.81459800  0.17177000  1
  Al  Al9  1  0.67068000  0.17177000  0.81459800  1
  Al  Al10  1  0.85608200  0.35717200  0.18540200  1
  Al  Al11  1  0.85608200  0.18540200  0.35717200  1
  Al  Al12  1  0.49890900  0.64282800  0.82823000  1
  Si  Si13  1  0.45290300  0.34591500  0.17566500  1
  Si  Si14  1  0.10698800  0.82975000  0.65408500  1
  Si  Si15  1  0.10698800  0.65408500  0.82975000  1
  Si  Si16  1  0.27723800  0.82433500  0.17025000  1
  Si  Si17  1  0.27723800  0.17025000  0.82433500  1
  Si  Si18  1  0.45290300  0.17566500  0.34591500  1
  O  O19  1  0.66856000  0.00000000  0.77763400  1
  O  O20  1  0.66856000  0.77763400  0.00000000  1
  O  O21  1  0.89092700  0.22236600  0.22236600  1
  O  O22  1  0.32898600  0.00000000  0.24939100  1
  O  O23  1  0.32898600  0.24939100  0.00000000  1
  O  O24  1  0.07959500  0.75060900  0.75060900  1
  O  O25  1  0.76216800  0.71813600  0.24267400  1
  O  O26  1  0.04403200  0.52453800  0.28186400  1
  O  O27  1  0.04403200  0.28186400  0.52453800  1
  O  O28  1  0.51949400  0.75732600  0.47546200  1
  O  O29  1  0.51949400  0.47546200  0.75732600  1
  O  O30  1  0.76216800  0.24267400  0.71813600  1
  O  O31  1  0.13700500  0.00000000  0.75371300  1
  O  O32  1  0.13700500  0.75371300  0.00000000  1
  O  O33  1  0.38329200  0.24628700  0.24628700  1
  O  O34  1  0.80629200  0.00000000  0.29080200  1
  O  O35  1  0.80629200  0.29080200  0.00000000  1
  O  O36  1  0.51548900  0.70919800  0.70919800  1
  O  O37  1  0.42974800  0.49970100  0.24608100  1
  O  O38  1  0.93004700  0.74638000  0.50029900  1
  O  O39  1  0.93004700  0.50029900  0.74638000  1
  O  O40  1  0.18366700  0.75391900  0.25362000  1
  O  O41  1  0.18366700  0.25362000  0.75391900  1
  O  O42  1  0.42974800  0.24608100  0.49970100  1
  O  O43  1  0.66908400  0.39110100  0.21430500  1
  O  O44  1  0.27798200  0.82320400  0.60889900  1
  O  O45  1  0.27798200  0.60889900  0.82320400  1
  O  O46  1  0.45477800  0.78569500  0.17679600  1
  O  O47  1  0.45477800  0.17679600  0.78569500  1
  O  O48  1  0.66908400  0.21430500  0.39110100  1
