# generated using pymatgen
data_MnFe2Ag2(PO4)3
_symmetry_space_group_name_H-M   'P 1'
_cell_length_a   8.86620351
_cell_length_b   8.86620351
_cell_length_c   6.58909736
_cell_angle_alpha   73.57168068
_cell_angle_beta   73.57168068
_cell_angle_gamma   92.62681367
_symmetry_Int_Tables_number   1
_chemical_formula_structural   MnFe2Ag2(PO4)3
_chemical_formula_sum   'Mn2 Fe4 Ag4 P6 O24'
_cell_volume   472.05974120
_cell_formula_units_Z   2
loop_
 _symmetry_equiv_pos_site_id
 _symmetry_equiv_pos_as_xyz
  1  'x, y, z'
loop_
 _atom_site_type_symbol
 _atom_site_label
 _atom_site_symmetry_multiplicity
 _atom_site_fract_x
 _atom_site_fract_y
 _atom_site_fract_z
 _atom_site_occupancy
  Mn  Mn0  1  0.23258600  0.76741400  0.25000000  1
  Mn  Mn1  1  0.76741400  0.23258600  0.75000000  1
  Fe  Fe2  1  0.56014900  0.88327100  0.37145900  1
  Fe  Fe3  1  0.43985100  0.11672900  0.62854100  1
  Fe  Fe4  1  0.11672900  0.43985100  0.12854100  1
  Fe  Fe5  1  0.88327100  0.56014900  0.87145900  1
  Ag  Ag6  1  0.50983300  0.49016700  0.25000000  1
  Ag  Ag7  1  0.49016700  0.50983300  0.75000000  1
  Ag  Ag8  1  0.00000000  0.00000000  0.00000000  1
  Ag  Ag9  1  0.00000000  0.00000000  0.50000000  1
  P  P10  1  0.37250300  0.15366600  0.12534900  1
  P  P11  1  0.62749700  0.84633400  0.87465100  1
  P  P12  1  0.84633400  0.62749700  0.37465100  1
  P  P13  1  0.15366600  0.37250300  0.62534900  1
  P  P14  1  0.78383800  0.21616200  0.25000000  1
  P  P15  1  0.21616200  0.78383800  0.75000000  1
  O  O16  1  0.50204900  0.82968400  0.10384400  1
  O  O17  1  0.49795100  0.17031600  0.89615600  1
  O  O18  1  0.17031600  0.49795100  0.39615600  1
  O  O19  1  0.82968400  0.50204900  0.60384400  1
  O  O20  1  0.23193200  0.02582800  0.17528700  1
  O  O21  1  0.76806800  0.97417200  0.82471300  1
  O  O22  1  0.97417200  0.76806800  0.32471300  1
  O  O23  1  0.02582800  0.23193200  0.67528700  1
  O  O24  1  0.66841900  0.23934000  0.46433400  1
  O  O25  1  0.33158100  0.76066000  0.53566600  1
  O  O26  1  0.76066000  0.33158100  0.03566600  1
  O  O27  1  0.23934000  0.66841900  0.96433400  1
  O  O28  1  0.67882800  0.67969400  0.38398600  1
  O  O29  1  0.32117200  0.32030600  0.61601400  1
  O  O30  1  0.32030600  0.32117200  0.11601400  1
  O  O31  1  0.67969400  0.67882800  0.88398600  1
  O  O32  1  0.45119400  0.10043300  0.31417700  1
  O  O33  1  0.54880600  0.89956700  0.68582300  1
  O  O34  1  0.89956700  0.54880600  0.18582300  1
  O  O35  1  0.10043300  0.45119400  0.81417700  1
  O  O36  1  0.75560700  0.04413500  0.24371900  1
  O  O37  1  0.24439300  0.95586500  0.75628100  1
  O  O38  1  0.95586500  0.24439300  0.25628100  1
  O  O39  1  0.04413500  0.75560700  0.74371900  1
