data_image0
_chemical_formula_structural       Fe6P3
_chemical_formula_sum              "Fe6 P3"
_cell_length_a       5.7938
_cell_length_b       5.7938
_cell_length_c       3.41728
_cell_angle_alpha    90
_cell_angle_beta     90
_cell_angle_gamma    119.998

_space_group_name_H-M_alt    "P 1"
_space_group_IT_number       1

loop_
  _space_group_symop_operation_xyz
  'x, y, z'

loop_
  _atom_site_type_symbol
  _atom_site_label
  _atom_site_symmetry_multiplicity
  _atom_site_fract_x
  _atom_site_fract_y
  _atom_site_fract_z
  _atom_site_occupancy
  Fe  Fe1       1.0  0.25700  0.00005  0.00000  1.0000
  Fe  Fe2       1.0  0.00005  0.25700  0.00000  1.0000
  Fe  Fe3       1.0  0.74300  0.74300  0.00000  1.0000
  Fe  Fe4       1.0  0.59100  0.00002  0.50000  1.0000
  Fe  Fe5       1.0  0.40900  0.40900  0.50000  1.0000
  Fe  Fe6       1.0  0.00002  0.59100  0.50000  1.0000
  P   P1        1.0  0.66700  0.33300  0.00000  1.0000
  P   P2        1.0  0.33300  0.66700  0.00000  1.0000
  P   P3        1.0  0.00000  0.00000  0.50000  1.0000
