# generated using pymatgen
data_LiGa2
_symmetry_space_group_name_H-M   'P 1'
_cell_length_a   6.91418062
_cell_length_b   6.91418062
_cell_length_c   6.91418062
_cell_angle_alpha   60.00000000
_cell_angle_beta   60.00000000
_cell_angle_gamma   60.00000000
_symmetry_Int_Tables_number   1
_chemical_formula_structural   LiGa2
_chemical_formula_sum   'Li4 Ga8'
_cell_volume   233.72607335
_cell_formula_units_Z   4
loop_
 _symmetry_equiv_pos_site_id
 _symmetry_equiv_pos_as_xyz
  1  'x, y, z'
loop_
 _atom_site_type_symbol
 _atom_site_label
 _atom_site_symmetry_multiplicity
 _atom_site_fract_x
 _atom_site_fract_y
 _atom_site_fract_z
 _atom_site_occupancy
  Li  Li0  1  0.87500000  0.87500000  0.87500000  1
  Li  Li1  1  0.37500000  0.87500000  0.87500000  1
  Li  Li2  1  0.87500000  0.37500000  0.87500000  1
  Li  Li3  1  0.87500000  0.87500000  0.37500000  1
  Ga  Ga4  1  0.60005600  0.60005600  0.60005600  1
  Ga  Ga5  1  0.19983200  0.60005600  0.60005600  1
  Ga  Ga6  1  0.60005600  0.19983200  0.60005600  1
  Ga  Ga7  1  0.55016800  0.14994400  0.14994400  1
  Ga  Ga8  1  0.14994400  0.14994400  0.14994400  1
  Ga  Ga9  1  0.60005600  0.60005600  0.19983200  1
  Ga  Ga10  1  0.14994400  0.55016800  0.14994400  1
  Ga  Ga11  1  0.14994400  0.14994400  0.55016800  1
