# generated using pymatgen
data_LuAg(WO4)2
_symmetry_space_group_name_H-M   'P 1'
_cell_length_a   7.30273406
_cell_length_b   7.30273406
_cell_length_c   7.27179264
_cell_angle_alpha   66.04655540
_cell_angle_beta   66.04655540
_cell_angle_gamma   94.31513562
_symmetry_Int_Tables_number   1
_chemical_formula_structural   LuAg(WO4)2
_chemical_formula_sum   'Lu2 Ag2 W4 O16'
_cell_volume   310.21217540
_cell_formula_units_Z   2
loop_
 _symmetry_equiv_pos_site_id
 _symmetry_equiv_pos_as_xyz
  1  'x, y, z'
loop_
 _atom_site_type_symbol
 _atom_site_label
 _atom_site_symmetry_multiplicity
 _atom_site_fract_x
 _atom_site_fract_y
 _atom_site_fract_z
 _atom_site_occupancy
  Lu  Lu0  1  0.69860400  0.30139600  0.00000000  1
  Lu  Lu1  1  0.30139600  0.69860400  0.00000000  1
  Ag  Ag2  1  0.68251000  0.68251000  0.48006400  1
  Ag  Ag3  1  0.31749000  0.31749000  0.51993600  1
  W  W4  1  0.21149300  0.21149300  0.03286500  1
  W  W5  1  0.78850700  0.78850700  0.96713500  1
  W  W6  1  0.83398100  0.16601900  0.50000000  1
  W  W7  1  0.16601900  0.83398100  0.50000000  1
  O  O8  1  0.35794800  0.10353700  0.24389800  1
  O  O9  1  0.64205200  0.89646300  0.75610200  1
  O  O10  1  0.89646300  0.64205200  0.75610200  1
  O  O11  1  0.10353700  0.35794800  0.24389800  1
  O  O12  1  0.68636400  0.22238500  0.34444500  1
  O  O13  1  0.31363600  0.77761500  0.65555500  1
  O  O14  1  0.77761500  0.31363600  0.65555500  1
  O  O15  1  0.22238500  0.68636400  0.34444500  1
  O  O16  1  0.69974300  0.96438400  0.08184100  1
  O  O17  1  0.30025700  0.03561600  0.91815900  1
  O  O18  1  0.03561600  0.30025700  0.91815900  1
  O  O19  1  0.96438400  0.69974300  0.08184100  1
  O  O20  1  0.97752900  0.97752900  0.34235400  1
  O  O21  1  0.02247100  0.02247100  0.65764600  1
  O  O22  1  0.55340700  0.55340700  0.13469600  1
  O  O23  1  0.44659300  0.44659300  0.86530400  1
