# generated using pymatgen
data_Na2Ca5TiSi4(O8F)2
_symmetry_space_group_name_H-M   'P 1'
_cell_length_a   5.72650100
_cell_length_b   7.42062300
_cell_length_c   19.12933236
_cell_angle_alpha   78.88867181
_cell_angle_beta   90.00000000
_cell_angle_gamma   90.00000000
_symmetry_Int_Tables_number   1
_chemical_formula_structural   Na2Ca5TiSi4(O8F)2
_chemical_formula_sum   'Na4 Ca10 Ti2 Si8 O32 F4'
_cell_volume   797.64788660
_cell_formula_units_Z   2
loop_
 _symmetry_equiv_pos_site_id
 _symmetry_equiv_pos_as_xyz
  1  'x, y, z'
loop_
 _atom_site_type_symbol
 _atom_site_label
 _atom_site_symmetry_multiplicity
 _atom_site_fract_x
 _atom_site_fract_y
 _atom_site_fract_z
 _atom_site_occupancy
  Na  Na0  1  0.83889100  0.50416000  0.25074100  1
  Na  Na1  1  0.33889100  0.49584000  0.74925900  1
  Na  Na2  1  0.83644300  0.99195100  0.25602600  1
  Na  Na3  1  0.33644300  0.00804900  0.74397400  1
  Ca  Ca4  1  0.18608900  0.34669800  0.56170000  1
  Ca  Ca5  1  0.68608900  0.65330200  0.43830000  1
  Ca  Ca6  1  0.00306800  0.34076300  0.05987200  1
  Ca  Ca7  1  0.50306800  0.65923700  0.94012800  1
  Ca  Ca8  1  0.99698300  0.84693500  0.05614300  1
  Ca  Ca9  1  0.49698300  0.15306500  0.94385700  1
  Ca  Ca10  1  0.33654500  0.24756700  0.24971000  1
  Ca  Ca11  1  0.83654500  0.75243300  0.75029000  1
  Ca  Ca12  1  0.18355000  0.84450000  0.55806100  1
  Ca  Ca13  1  0.68355000  0.15550000  0.44193900  1
  Ti  Ti14  1  0.37178700  0.74475900  0.25944400  1
  Ti  Ti15  1  0.87178700  0.25524100  0.74055600  1
  Si  Si16  1  0.18775000  0.39578200  0.38990400  1
  Si  Si17  1  0.68775000  0.60421800  0.61009600  1
  Si  Si18  1  0.19211900  0.95771800  0.39185800  1
  Si  Si19  1  0.69211900  0.04228200  0.60814200  1
  Si  Si20  1  0.49139400  0.09923400  0.11151700  1
  Si  Si21  1  0.99139400  0.90076600  0.88848300  1
  Si  Si22  1  0.48640700  0.53971600  0.10812500  1
  Si  Si23  1  0.98640700  0.46028400  0.89187500  1
  O  O24  1  0.20081500  0.18686700  0.36923400  1
  O  O25  1  0.70081500  0.81313300  0.63076600  1
  O  O26  1  0.40721500  0.41347500  0.44152000  1
  O  O27  1  0.90721500  0.58652500  0.55848000  1
  O  O28  1  0.41761700  0.89422300  0.44184500  1
  O  O29  1  0.91761700  0.10577700  0.55815500  1
  O  O30  1  0.46505800  0.58718400  0.18868600  1
  O  O31  1  0.96505800  0.41281600  0.81131400  1
  O  O32  1  0.07711600  0.76167700  0.18430300  1
  O  O33  1  0.57711600  0.23832300  0.81569700  1
  O  O34  1  0.19971400  0.90903800  0.31113900  1
  O  O35  1  0.69971400  0.09096200  0.68886100  1
  O  O36  1  0.73258100  0.59539100  0.06817500  1
  O  O37  1  0.23258100  0.40460900  0.93182500  1
  O  O38  1  0.20737200  0.51994600  0.30905500  1
  O  O39  1  0.70737200  0.48005400  0.69094500  1
  O  O40  1  0.62899200  0.71754900  0.30929600  1
  O  O41  1  0.12899200  0.28245100  0.69070400  1
  O  O42  1  0.46969000  0.31059900  0.12984000  1
  O  O43  1  0.96969000  0.68940100  0.87016000  1
  O  O44  1  0.26717800  0.60547100  0.05564100  1
  O  O45  1  0.76717800  0.39452900  0.94435900  1
  O  O46  1  0.24048400  0.91695700  0.92675000  1
  O  O47  1  0.74048400  0.08304300  0.07325000  1
  O  O48  1  0.47500800  0.97795700  0.19289800  1
  O  O49  1  0.97500800  0.02204300  0.80710200  1
  O  O50  1  0.95134300  0.90178100  0.43474700  1
  O  O51  1  0.45134300  0.09821900  0.56525300  1
  O  O52  1  0.27420100  0.08157800  0.05888600  1
  O  O53  1  0.77420100  0.91842200  0.94111400  1
  O  O54  1  0.43985600  0.58584300  0.57189300  1
  O  O55  1  0.93985600  0.41415700  0.42810700  1
  F  F56  1  0.49922100  0.72445400  0.81149000  1
  F  F57  1  0.99922100  0.27554600  0.18851000  1
  F  F58  1  0.17251200  0.78236200  0.68681600  1
  F  F59  1  0.67251200  0.21763800  0.31318400  1
