# generated using pymatgen
data_Na2ZrSi3O10
_symmetry_space_group_name_H-M   'P 1'
_cell_length_a   7.16061400
_cell_length_b   10.29415500
_cell_length_c   13.40324100
_cell_angle_alpha   90.00000000
_cell_angle_beta   90.00000000
_cell_angle_gamma   90.00000000
_symmetry_Int_Tables_number   1
_chemical_formula_structural   Na2ZrSi3O10
_chemical_formula_sum   'Na8 Zr4 Si12 O40'
_cell_volume   987.98600563
_cell_formula_units_Z   4
loop_
 _symmetry_equiv_pos_site_id
 _symmetry_equiv_pos_as_xyz
  1  'x, y, z'
loop_
 _atom_site_type_symbol
 _atom_site_label
 _atom_site_symmetry_multiplicity
 _atom_site_fract_x
 _atom_site_fract_y
 _atom_site_fract_z
 _atom_site_occupancy
  Na  Na0  1  0.25026000  0.41513600  0.08929500  1
  Na  Na1  1  0.24974000  0.58486400  0.58929500  1
  Na  Na2  1  0.74974000  0.91513600  0.41070500  1
  Na  Na3  1  0.75026000  0.08486400  0.91070500  1
  Na  Na4  1  0.18585800  0.26442700  0.35264800  1
  Na  Na5  1  0.31414200  0.73557300  0.85264800  1
  Na  Na6  1  0.81414200  0.76442700  0.14735200  1
  Na  Na7  1  0.68585800  0.23557300  0.64735200  1
  Zr  Zr8  1  0.26262800  0.04276700  0.79658500  1
  Zr  Zr9  1  0.23737200  0.95723300  0.29658500  1
  Zr  Zr10  1  0.73737200  0.54276700  0.70341500  1
  Zr  Zr11  1  0.76262800  0.45723300  0.20341500  1
  Si  Si12  1  0.06965300  0.65196400  0.33366000  1
  Si  Si13  1  0.43034700  0.34803600  0.83366000  1
  Si  Si14  1  0.93034700  0.15196400  0.16634000  1
  Si  Si15  1  0.56965300  0.84803600  0.66634000  1
  Si  Si16  1  0.23334100  0.02469800  0.05320600  1
  Si  Si17  1  0.26665900  0.97530200  0.55320600  1
  Si  Si18  1  0.76665900  0.52469800  0.44679400  1
  Si  Si19  1  0.73334100  0.47530200  0.94679400  1
  Si  Si20  1  0.50680300  0.18413900  0.16997900  1
  Si  Si21  1  0.99319700  0.81586100  0.66997900  1
  Si  Si22  1  0.49319700  0.68413900  0.33002100  1
  Si  Si23  1  0.00680300  0.31586100  0.83002100  1
  O  O24  1  0.24628700  0.07968000  0.64340300  1
  O  O25  1  0.25371300  0.92032000  0.14340300  1
  O  O26  1  0.75371300  0.57968000  0.85659700  1
  O  O27  1  0.74628700  0.42032000  0.35659700  1
  O  O28  1  0.03749200  0.80901000  0.32516600  1
  O  O29  1  0.46250800  0.19099000  0.82516600  1
  O  O30  1  0.96250800  0.30901000  0.17483400  1
  O  O31  1  0.53749200  0.69099000  0.67483400  1
  O  O32  1  0.40630400  0.12565700  0.26922200  1
  O  O33  1  0.09369600  0.87434300  0.76922200  1
  O  O34  1  0.59369600  0.62565700  0.23077800  1
  O  O35  1  0.90630400  0.37434300  0.73077800  1
  O  O36  1  0.37847300  0.14920900  0.07125600  1
  O  O37  1  0.12152700  0.85079100  0.57125600  1
  O  O38  1  0.62152700  0.64920900  0.42874400  1
  O  O39  1  0.87847300  0.35079100  0.92874400  1
  O  O40  1  0.02146300  0.09104300  0.06235500  1
  O  O41  1  0.47853700  0.90895700  0.56235500  1
  O  O42  1  0.97853700  0.59104300  0.43764500  1
  O  O43  1  0.52146300  0.40895700  0.93764500  1
  O  O44  1  0.00550100  0.27548000  0.58273300  1
  O  O45  1  0.49449900  0.72452000  0.08273300  1
  O  O46  1  0.99449900  0.77548000  0.91726700  1
  O  O47  1  0.50550100  0.22452000  0.41726700  1
  O  O48  1  0.23170400  0.03248400  0.44273300  1
  O  O49  1  0.26829600  0.96751600  0.94273300  1
  O  O50  1  0.76829600  0.53248400  0.05726700  1
  O  O51  1  0.73170400  0.46751600  0.55726700  1
  O  O52  1  0.52703000  0.34098000  0.17512500  1
  O  O53  1  0.97297000  0.65902000  0.67512500  1
  O  O54  1  0.47297000  0.84098000  0.32487500  1
  O  O55  1  0.02703000  0.15902000  0.82487500  1
  O  O56  1  0.70937600  0.11368700  0.15105600  1
  O  O57  1  0.79062400  0.88631300  0.65105600  1
  O  O58  1  0.29062400  0.61368700  0.34894400  1
  O  O59  1  0.20937600  0.38631300  0.84894400  1
  O  O60  1  0.01012200  0.08230500  0.26625300  1
  O  O61  1  0.48987800  0.91769500  0.76625300  1
  O  O62  1  0.98987800  0.58230500  0.23374700  1
  O  O63  1  0.51012200  0.41769500  0.73374700  1
