# generated using pymatgen
data_NaMgAl5P4(H5O12)2
_symmetry_space_group_name_H-M   'P 1'
_cell_length_a   12.87673018
_cell_length_b   12.87673018
_cell_length_c   13.57372287
_cell_angle_alpha   69.41726565
_cell_angle_beta   69.41726565
_cell_angle_gamma   22.76469372
_symmetry_Int_Tables_number   1
_chemical_formula_structural   NaMgAl5P4(H5O12)2
_chemical_formula_sum   'Na2 Mg2 Al10 P8 H20 O48'
_cell_volume   812.96184713
_cell_formula_units_Z   2
loop_
 _symmetry_equiv_pos_site_id
 _symmetry_equiv_pos_as_xyz
  1  'x, y, z'
loop_
 _atom_site_type_symbol
 _atom_site_label
 _atom_site_symmetry_multiplicity
 _atom_site_fract_x
 _atom_site_fract_y
 _atom_site_fract_z
 _atom_site_occupancy
  Na  Na0  1  0.86626900  0.13373100  0.25000000  1
  Na  Na1  1  0.13373100  0.86626900  0.75000000  1
  Mg  Mg2  1  0.50000000  0.00000000  0.50000000  1
  Mg  Mg3  1  0.00000000  0.50000000  0.00000000  1
  Al  Al4  1  0.63936600  0.07766000  0.35369400  1
  Al  Al5  1  0.36063400  0.92234000  0.64630600  1
  Al  Al6  1  0.92234000  0.36063400  0.14630600  1
  Al  Al7  1  0.07766000  0.63936600  0.85369400  1
  Al  Al8  1  0.82601200  0.86993000  0.11096900  1
  Al  Al9  1  0.17398800  0.13007000  0.88903100  1
  Al  Al10  1  0.13007000  0.17398900  0.38903100  1
  Al  Al11  1  0.86993000  0.82601200  0.61096900  1
  Al  Al12  1  0.00000000  0.00000000  0.00000000  1
  Al  Al13  1  0.00000000  0.00000000  0.50000000  1
  P  P14  1  0.36353300  0.79794000  0.10244100  1
  P  P15  1  0.63646700  0.20206000  0.89755900  1
  P  P16  1  0.20206000  0.63646700  0.39755900  1
  P  P17  1  0.79794000  0.36353300  0.60244100  1
  P  P18  1  0.48398400  0.94680800  0.17261200  1
  P  P19  1  0.51601600  0.05319200  0.82738800  1
  P  P20  1  0.05319200  0.51601600  0.32738800  1
  P  P21  1  0.94680800  0.48398400  0.67261200  1
  H  H22  1  0.43054900  0.27871300  0.19852400  1
  H  H23  1  0.56945100  0.72128700  0.80147600  1
  H  H24  1  0.72128700  0.56945100  0.30147600  1
  H  H25  1  0.27871300  0.43054900  0.69852400  1
  H  H26  1  0.54170300  0.44638000  0.09955300  1
  H  H27  1  0.45829700  0.55362000  0.90044700  1
  H  H28  1  0.55362000  0.45829700  0.40044700  1
  H  H29  1  0.44638000  0.54170300  0.59955300  1
  H  H30  1  0.65860000  0.20996000  0.14695100  1
  H  H31  1  0.34140000  0.79004000  0.85304900  1
  H  H32  1  0.79004000  0.34140000  0.35304900  1
  H  H33  1  0.20996000  0.65860000  0.64695100  1
  H  H34  1  0.18229600  0.66676300  0.11417000  1
  H  H35  1  0.81770400  0.33323700  0.88583000  1
  H  H36  1  0.33323700  0.81770400  0.38583000  1
  H  H37  1  0.66676300  0.18229600  0.61417000  1
  H  H38  1  0.54963500  0.77147800  0.46849600  1
  H  H39  1  0.45036500  0.22852200  0.53150400  1
  H  H40  1  0.22852200  0.45036500  0.03150400  1
  H  H41  1  0.77147800  0.54963500  0.96849600  1
  O  O42  1  0.25753100  0.78297100  0.09750000  1
  O  O43  1  0.74246900  0.21702900  0.90250000  1
  O  O44  1  0.21702900  0.74246900  0.40250000  1
  O  O45  1  0.78297100  0.25753100  0.59750000  1
  O  O46  1  0.70048900  0.69389200  0.11780800  1
  O  O47  1  0.29951100  0.30610800  0.88219200  1
  O  O48  1  0.30610800  0.29951100  0.38219200  1
  O  O49  1  0.69389200  0.70048900  0.61780800  1
  O  O50  1  0.58585400  0.16290100  0.00997700  1
  O  O51  1  0.41414600  0.83709900  0.99002300  1
  O  O52  1  0.83709900  0.41414600  0.49002300  1
  O  O53  1  0.16290100  0.58585400  0.50997700  1
  O  O54  1  0.79851700  0.05156700  0.56200400  1
  O  O55  1  0.20148300  0.94843300  0.43799600  1
  O  O56  1  0.94843300  0.20148300  0.93799600  1
  O  O57  1  0.05156700  0.79851700  0.06200400  1
  O  O58  1  0.43212400  0.91594000  0.28922500  1
  O  O59  1  0.56787600  0.08406000  0.71077500  1
  O  O60  1  0.08406000  0.56787600  0.21077500  1
  O  O61  1  0.91594000  0.43212400  0.78922500  1
  O  O62  1  0.62137600  0.11970800  0.20685300  1
  O  O63  1  0.37862400  0.88029200  0.79314700  1
  O  O64  1  0.88029200  0.37862400  0.29314700  1
  O  O65  1  0.11970800  0.62137600  0.70685300  1
  O  O66  1  0.46630600  0.37163800  0.34278400  1
  O  O67  1  0.53369400  0.62836200  0.65721600  1
  O  O68  1  0.62836200  0.53369400  0.15721600  1
  O  O69  1  0.37163800  0.46630600  0.84278400  1
  O  O70  1  0.70704100  0.24851500  0.10704000  1
  O  O71  1  0.29295900  0.75148500  0.89296000  1
  O  O72  1  0.75148500  0.29295900  0.39296000  1
  O  O73  1  0.24851500  0.70704100  0.60704000  1
  O  O74  1  0.21673600  0.19964200  0.11853300  1
  O  O75  1  0.78326400  0.80035800  0.88146700  1
  O  O76  1  0.80035800  0.78326400  0.38146700  1
  O  O77  1  0.19964200  0.21673600  0.61853300  1
  O  O78  1  0.61827500  0.04184900  0.51194100  1
  O  O79  1  0.38172500  0.95815100  0.48805900  1
  O  O80  1  0.95815100  0.38172500  0.98805900  1
  O  O81  1  0.04184900  0.61827500  0.01194100  1
  O  O82  1  0.58512400  0.96851200  0.16128800  1
  O  O83  1  0.41487600  0.03148800  0.83871200  1
  O  O84  1  0.03148800  0.41487600  0.33871200  1
  O  O85  1  0.96851200  0.58512400  0.66128800  1
  O  O86  1  0.14922600  0.03408900  0.16895900  1
  O  O87  1  0.85077400  0.96591100  0.83104100  1
  O  O88  1  0.96591100  0.85077400  0.33104100  1
  O  O89  1  0.03408900  0.14922600  0.66895900  1
