# generated using pymatgen
data_MgCrH3(CO3)2
_symmetry_space_group_name_H-M   'P 1'
_cell_length_a   7.07955221
_cell_length_b   6.88635122
_cell_length_c   7.99499595
_cell_angle_alpha   81.28246578
_cell_angle_beta   74.64099027
_cell_angle_gamma   78.06465910
_symmetry_Int_Tables_number   1
_chemical_formula_structural   MgCrH3(CO3)2
_chemical_formula_sum   'Mg2 Cr2 H6 C4 O12'
_cell_volume   365.78800511
_cell_formula_units_Z   2
loop_
 _symmetry_equiv_pos_site_id
 _symmetry_equiv_pos_as_xyz
  1  'x, y, z'
loop_
 _atom_site_type_symbol
 _atom_site_label
 _atom_site_symmetry_multiplicity
 _atom_site_fract_x
 _atom_site_fract_y
 _atom_site_fract_z
 _atom_site_occupancy
  Mg  Mg0  1  0.43503400  0.33041800  0.33315900  1
  Mg  Mg1  1  0.56496600  0.66958200  0.66684100  1
  Cr  Cr2  1  0.12592200  0.63952100  0.00340500  1
  Cr  Cr3  1  0.87407800  0.36047900  0.99659500  1
  H  H4  1  0.14109500  0.69094000  0.41295700  1
  H  H5  1  0.85890500  0.30906000  0.58704300  1
  H  H6  1  0.72365000  0.06913200  0.34524200  1
  H  H7  1  0.27635000  0.93086800  0.65475800  1
  H  H8  1  0.27021900  0.80088200  0.99761800  1
  H  H9  1  0.72978100  0.19911800  0.00238200  1
  C  C10  1  0.27944200  0.39665200  0.72284200  1
  C  C11  1  0.72055800  0.60334800  0.27715800  1
  C  C12  1  0.18357200  0.24741200  0.20997700  1
  C  C13  1  0.81642800  0.75258800  0.79002300  1
  O  O14  1  0.12165100  0.32815400  0.80305600  1
  O  O15  1  0.87834900  0.67184600  0.19694400  1
  O  O16  1  0.24508200  0.42670500  0.16772100  1
  O  O17  1  0.75491800  0.57329500  0.83227900  1
  O  O18  1  0.39129100  0.33690800  0.58123800  1
  O  O19  1  0.60870900  0.66309200  0.41876200  1
  O  O20  1  0.03912800  0.21114000  0.15895600  1
  O  O21  1  0.96087200  0.78886000  0.84104400  1
  O  O22  1  0.28063200  0.12353300  0.30616600  1
  O  O23  1  0.71936800  0.87646700  0.69383400  1
  O  O24  1  0.66750300  0.46318800  0.20868300  1
  O  O25  1  0.33249700  0.53681200  0.79131700  1
