# generated using pymatgen
data_Na2Co(SO6)2
_symmetry_space_group_name_H-M   'P 1'
_cell_length_a   5.54835089
_cell_length_b   7.86306700
_cell_length_c   11.36888666
_cell_angle_alpha   90.00000000
_cell_angle_beta   102.74554966
_cell_angle_gamma   90.00000000
_symmetry_Int_Tables_number   1
_chemical_formula_structural   Na2Co(SO6)2
_chemical_formula_sum   'Na4 Co2 S4 O24'
_cell_volume   483.76955420
_cell_formula_units_Z   2
loop_
 _symmetry_equiv_pos_site_id
 _symmetry_equiv_pos_as_xyz
  1  'x, y, z'
loop_
 _atom_site_type_symbol
 _atom_site_label
 _atom_site_symmetry_multiplicity
 _atom_site_fract_x
 _atom_site_fract_y
 _atom_site_fract_z
 _atom_site_occupancy
  Na  Na0  1  0.10194600  0.06039700  0.35598200  1
  Na  Na1  1  0.89805400  0.93960300  0.64401800  1
  Na  Na2  1  0.89805400  0.56039700  0.14401800  1
  Na  Na3  1  0.10194600  0.43960300  0.85598200  1
  Co  Co4  1  0.00000000  0.00000000  0.00000000  1
  Co  Co5  1  0.00000000  0.50000000  0.50000000  1
  S  S6  1  0.37173400  0.27409700  0.13440900  1
  S  S7  1  0.62826600  0.72590300  0.86559100  1
  S  S8  1  0.62826600  0.77409700  0.36559100  1
  S  S9  1  0.37173400  0.22590300  0.63440900  1
  O  O10  1  0.32212000  0.24413500  0.25487300  1
  O  O11  1  0.67788000  0.75586500  0.74512700  1
  O  O12  1  0.67788000  0.74413500  0.24512700  1
  O  O13  1  0.32212000  0.25586500  0.75487300  1
  O  O14  1  0.12350600  0.81484000  0.07638700  1
  O  O15  1  0.87649400  0.18516000  0.92361300  1
  O  O16  1  0.87649400  0.31484000  0.42361300  1
  O  O17  1  0.12350600  0.68516000  0.57638700  1
  O  O18  1  0.20328600  0.40683700  0.07076500  1
  O  O19  1  0.79671400  0.59316300  0.92923500  1
  O  O20  1  0.79671400  0.90683700  0.42923500  1
  O  O21  1  0.20328600  0.09316300  0.57076500  1
  O  O22  1  0.63029500  0.31899400  0.14027500  1
  O  O23  1  0.36970500  0.68100600  0.85972500  1
  O  O24  1  0.36970500  0.81899400  0.35972500  1
  O  O25  1  0.63029500  0.18100600  0.64027500  1
  O  O26  1  0.33058300  0.10872000  0.06033600  1
  O  O27  1  0.66941700  0.89128000  0.93966400  1
  O  O28  1  0.66941700  0.60872000  0.43966400  1
  O  O29  1  0.33058300  0.39128000  0.56033600  1
  O  O30  1  0.07830900  0.51817600  0.35908300  1
  O  O31  1  0.92169100  0.48182400  0.64091700  1
  O  O32  1  0.92169100  0.01817600  0.14091700  1
  O  O33  1  0.07830900  0.98182400  0.85908300  1
