# generated using pymatgen
data_Na2SO2
_symmetry_space_group_name_H-M   'P 1'
_cell_length_a   8.38021816
_cell_length_b   8.38021816
_cell_length_c   8.72191052
_cell_angle_alpha   110.78462461
_cell_angle_beta   110.78462461
_cell_angle_gamma   105.15019598
_symmetry_Int_Tables_number   1
_chemical_formula_structural   Na2SO2
_chemical_formula_sum   'Na8 S4 O8'
_cell_volume   479.97345987
_cell_formula_units_Z   4
loop_
 _symmetry_equiv_pos_site_id
 _symmetry_equiv_pos_as_xyz
  1  'x, y, z'
loop_
 _atom_site_type_symbol
 _atom_site_label
 _atom_site_symmetry_multiplicity
 _atom_site_fract_x
 _atom_site_fract_y
 _atom_site_fract_z
 _atom_site_occupancy
  Na  Na0  1  0.38871500  0.09128400  0.64832600  1
  Na  Na1  1  0.25961100  0.55704200  0.64832600  1
  Na  Na2  1  0.90871600  0.61128500  0.35167400  1
  Na  Na3  1  0.86128500  0.65871600  0.85167400  1
  Na  Na4  1  0.44295800  0.74038900  0.35167400  1
  Na  Na5  1  0.99038900  0.19295800  0.85167400  1
  Na  Na6  1  0.34128400  0.13871500  0.14832600  1
  Na  Na7  1  0.80704200  0.00961100  0.14832600  1
  S  S8  1  0.62500000  0.87500000  0.75000000  1
  S  S9  1  0.12500000  0.87500000  0.75000000  1
  S  S10  1  0.12500000  0.37500000  0.25000000  1
  S  S11  1  0.12500000  0.87500000  0.25000000  1
  O  O12  1  0.58490100  0.68746500  0.79067800  1
  O  O13  1  0.20577700  0.10321300  0.79067800  1
  O  O14  1  0.31253500  0.41509900  0.20932200  1
  O  O15  1  0.66509900  0.06253500  0.70932200  1
  O  O16  1  0.89678700  0.79422300  0.20932200  1
  O  O17  1  0.04422300  0.64678700  0.70932200  1
  O  O18  1  0.93746500  0.33490100  0.29067800  1
  O  O19  1  0.35321300  0.95577700  0.29067800  1
