# generated using pymatgen
data_Nd7V2BO17
_symmetry_space_group_name_H-M   'P 1'
_cell_length_a   18.12551800
_cell_length_b   6.99028700
_cell_length_c   13.67737083
_cell_angle_alpha   66.55288127
_cell_angle_beta   90.00000000
_cell_angle_gamma   90.00000000
_symmetry_Int_Tables_number   1
_chemical_formula_structural   Nd7V2BO17
_chemical_formula_sum   'Nd28 V8 B4 O68'
_cell_volume   1589.86375734
_cell_formula_units_Z   4
loop_
 _symmetry_equiv_pos_site_id
 _symmetry_equiv_pos_as_xyz
  1  'x, y, z'
loop_
 _atom_site_type_symbol
 _atom_site_label
 _atom_site_symmetry_multiplicity
 _atom_site_fract_x
 _atom_site_fract_y
 _atom_site_fract_z
 _atom_site_occupancy
  Nd  Nd0  1  0.72218700  0.79717000  0.17924500  1
  Nd  Nd1  1  0.27781300  0.20283000  0.82075500  1
  Nd  Nd2  1  0.22218700  0.20283000  0.32075500  1
  Nd  Nd3  1  0.77781300  0.79717000  0.67924500  1
  Nd  Nd4  1  0.86691800  0.77751000  0.43710600  1
  Nd  Nd5  1  0.13308200  0.22249000  0.56289400  1
  Nd  Nd6  1  0.36691800  0.22249000  0.06289400  1
  Nd  Nd7  1  0.63308200  0.77751000  0.93710600  1
  Nd  Nd8  1  0.60683700  0.30981700  0.19762000  1
  Nd  Nd9  1  0.39316300  0.69018300  0.80238000  1
  Nd  Nd10  1  0.10683700  0.69018300  0.30238000  1
  Nd  Nd11  1  0.89316300  0.30981700  0.69762000  1
  Nd  Nd12  1  0.27373000  0.71381800  0.09708700  1
  Nd  Nd13  1  0.72627000  0.28618200  0.90291300  1
  Nd  Nd14  1  0.77373000  0.28618200  0.40291300  1
  Nd  Nd15  1  0.22627000  0.71381800  0.59708700  1
  Nd  Nd16  1  0.44758200  0.70841700  0.51487200  1
  Nd  Nd17  1  0.55241800  0.29158300  0.48512800  1
  Nd  Nd18  1  0.94758200  0.29158300  0.98512800  1
  Nd  Nd19  1  0.05241800  0.70841700  0.01487200  1
  Nd  Nd20  1  0.52065700  0.80162500  0.20897900  1
  Nd  Nd21  1  0.47934300  0.19837500  0.79102100  1
  Nd  Nd22  1  0.02065700  0.19837500  0.29102100  1
  Nd  Nd23  1  0.97934300  0.80162500  0.70897900  1
  Nd  Nd24  1  0.65424400  0.81776000  0.42405000  1
  Nd  Nd25  1  0.34575600  0.18224000  0.57595000  1
  Nd  Nd26  1  0.15424400  0.18224000  0.07595000  1
  Nd  Nd27  1  0.84575600  0.81776000  0.92405000  1
  V  V28  1  0.80251800  0.28942900  0.16321100  1
  V  V29  1  0.19748200  0.71057100  0.83678900  1
  V  V30  1  0.30251800  0.71057100  0.33678900  1
  V  V31  1  0.69748200  0.28942900  0.66321100  1
  V  V32  1  0.93623000  0.77778800  0.18327100  1
  V  V33  1  0.06377000  0.22221200  0.81672900  1
  V  V34  1  0.43623000  0.22221200  0.31672900  1
  V  V35  1  0.56377000  0.77778800  0.68327100  1
  B  B36  1  0.43093800  0.74776900  0.00045200  1
  B  B37  1  0.56906200  0.25223100  0.99954800  1
  B  B38  1  0.93093800  0.25223100  0.49954800  1
  B  B39  1  0.06906200  0.74776900  0.50045200  1
  O  O40  1  0.87373100  0.44101600  0.08791000  1
  O  O41  1  0.12626900  0.55898400  0.91209000  1
  O  O42  1  0.37373100  0.55898400  0.41209000  1
  O  O43  1  0.62626900  0.44101600  0.58791000  1
  O  O44  1  0.37787900  0.59863100  0.99987800  1
  O  O45  1  0.62212100  0.40136900  0.00012200  1
  O  O46  1  0.87787900  0.40136900  0.50012200  1
  O  O47  1  0.12212100  0.59863100  0.49987800  1
  O  O48  1  0.76621900  0.89978200  0.49259500  1
  O  O49  1  0.23378100  0.10021800  0.50740500  1
  O  O50  1  0.26621900  0.10021800  0.00740500  1
  O  O51  1  0.73378100  0.89978200  0.99259500  1
  O  O52  1  0.63201000  0.95447100  0.23984800  1
  O  O53  1  0.36799000  0.04552900  0.76015200  1
  O  O54  1  0.13201000  0.04552900  0.26015200  1
  O  O55  1  0.86799000  0.95447100  0.73984800  1
  O  O56  1  0.93637000  0.87001200  0.04346200  1
  O  O57  1  0.06363000  0.12998800  0.95653800  1
  O  O58  1  0.43637000  0.12998800  0.45653800  1
  O  O59  1  0.56363000  0.87001200  0.54346200  1
  O  O60  1  0.85316500  0.70486800  0.24455400  1
  O  O61  1  0.14683500  0.29513200  0.75544600  1
  O  O62  1  0.35316500  0.29513200  0.25544600  1
  O  O63  1  0.64683500  0.70486800  0.74455400  1
  O  O64  1  0.14485300  0.79685700  0.12034500  1
  O  O65  1  0.85514700  0.20314300  0.87965500  1
  O  O66  1  0.64485300  0.20314300  0.37965500  1
  O  O67  1  0.35514700  0.79685700  0.62034500  1
  O  O68  1  0.73737800  0.43403400  0.20116400  1
  O  O69  1  0.26262200  0.56596600  0.79883600  1
  O  O70  1  0.23737800  0.56596600  0.29883600  1
  O  O71  1  0.76262200  0.43403400  0.70116400  1
  O  O72  1  0.54214600  0.63869300  0.40047700  1
  O  O73  1  0.45785400  0.36130700  0.59952300  1
  O  O74  1  0.04214600  0.36130700  0.09952300  1
  O  O75  1  0.95785400  0.63869300  0.90047700  1
  O  O76  1  0.00390900  0.58101500  0.22740900  1
  O  O77  1  0.99609100  0.41898500  0.77259100  1
  O  O78  1  0.50390900  0.41898500  0.27259100  1
  O  O79  1  0.49609100  0.58101500  0.72740900  1
  O  O80  1  0.33027700  0.89363700  0.21604000  1
  O  O81  1  0.66972300  0.10636300  0.78396000  1
  O  O82  1  0.83027700  0.10636300  0.28396000  1
  O  O83  1  0.16972300  0.89363700  0.71604000  1
  O  O84  1  0.61021500  0.68365900  0.12235500  1
  O  O85  1  0.38978500  0.31634100  0.87764500  1
  O  O86  1  0.11021500  0.31634100  0.37764500  1
  O  O87  1  0.88978500  0.68365900  0.62235500  1
  O  O88  1  0.96967700  0.98697400  0.20401100  1
  O  O89  1  0.03032300  0.01302600  0.79598900  1
  O  O90  1  0.46967700  0.01302600  0.29598900  1
  O  O91  1  0.53032300  0.98697400  0.70401100  1
  O  O92  1  0.42089400  0.83425400  0.07427200  1
  O  O93  1  0.57910600  0.16574600  0.92572800  1
  O  O94  1  0.92089400  0.16574600  0.42572800  1
  O  O95  1  0.07910600  0.83425400  0.57427200  1
  O  O96  1  0.51551900  0.19485300  0.07938800  1
  O  O97  1  0.48448100  0.80514700  0.92061200  1
  O  O98  1  0.01551900  0.80514700  0.42061200  1
  O  O99  1  0.98448100  0.19485300  0.57938800  1
  O  O100  1  0.73976300  0.62574800  0.37628000  1
  O  O101  1  0.26023700  0.37425200  0.62372000  1
  O  O102  1  0.23976300  0.37425200  0.12372000  1
  O  O103  1  0.76023700  0.62574800  0.87628000  1
  O  O104  1  0.26076100  0.83692700  0.40850200  1
  O  O105  1  0.73923900  0.16307300  0.59149800  1
  O  O106  1  0.76076100  0.16307300  0.09149800  1
  O  O107  1  0.23923900  0.83692700  0.90850200  1
