# generated using pymatgen
data_Pr7(IO6)3
_symmetry_space_group_name_H-M   'P 1'
_cell_length_a   17.00142306
_cell_length_b   17.00142306
_cell_length_c   4.22642300
_cell_angle_alpha   90.00000000
_cell_angle_beta   90.00000000
_cell_angle_gamma   119.99999635
_symmetry_Int_Tables_number   1
_chemical_formula_structural   Pr7(IO6)3
_chemical_formula_sum   'Pr14 I6 O36'
_cell_volume   1057.97196024
_cell_formula_units_Z   2
loop_
 _symmetry_equiv_pos_site_id
 _symmetry_equiv_pos_as_xyz
  1  'x, y, z'
loop_
 _atom_site_type_symbol
 _atom_site_label
 _atom_site_symmetry_multiplicity
 _atom_site_fract_x
 _atom_site_fract_y
 _atom_site_fract_z
 _atom_site_occupancy
  Pr  Pr0  1  0.44343100  0.31037600  0.25000000  1
  Pr  Pr1  1  0.55656900  0.68962400  0.75000000  1
  Pr  Pr2  1  0.68962400  0.13305500  0.25000000  1
  Pr  Pr3  1  0.31037600  0.86694500  0.75000000  1
  Pr  Pr4  1  0.86694500  0.55656900  0.25000000  1
  Pr  Pr5  1  0.13305500  0.44343100  0.75000000  1
  Pr  Pr6  1  0.15825400  0.20614700  0.25000000  1
  Pr  Pr7  1  0.84174600  0.79385300  0.75000000  1
  Pr  Pr8  1  0.79385300  0.95210700  0.25000000  1
  Pr  Pr9  1  0.20614700  0.04789300  0.75000000  1
  Pr  Pr10  1  0.04789300  0.84174600  0.25000000  1
  Pr  Pr11  1  0.95210700  0.15825400  0.75000000  1
  Pr  Pr12  1  0.33333300  0.66666700  0.25000000  1
  Pr  Pr13  1  0.66666700  0.33333300  0.75000000  1
  I  I14  1  0.45795400  0.10876900  0.25000000  1
  I  I15  1  0.54204600  0.89123100  0.75000000  1
  I  I16  1  0.89123100  0.34918500  0.25000000  1
  I  I17  1  0.10876900  0.65081500  0.75000000  1
  I  I18  1  0.65081500  0.54204600  0.25000000  1
  I  I19  1  0.34918500  0.45795400  0.75000000  1
  O  O20  1  0.11290300  0.50430300  0.25000000  1
  O  O21  1  0.88709700  0.49569700  0.75000000  1
  O  O22  1  0.49569700  0.60860000  0.25000000  1
  O  O23  1  0.50430300  0.39140000  0.75000000  1
  O  O24  1  0.39140000  0.88709700  0.25000000  1
  O  O25  1  0.60860000  0.11290300  0.75000000  1
  O  O26  1  0.31016600  0.29448600  0.25000000  1
  O  O27  1  0.68983400  0.70551400  0.75000000  1
  O  O28  1  0.70551400  0.01568000  0.25000000  1
  O  O29  1  0.29448600  0.98432000  0.75000000  1
  O  O30  1  0.98432000  0.68983400  0.25000000  1
  O  O31  1  0.01568000  0.31016600  0.75000000  1
  O  O32  1  0.17190800  0.07967200  0.25000000  1
  O  O33  1  0.82809200  0.92032800  0.75000000  1
  O  O34  1  0.92032800  0.09223600  0.25000000  1
  O  O35  1  0.07967200  0.90776400  0.75000000  1
  O  O36  1  0.90776400  0.82809200  0.25000000  1
  O  O37  1  0.09223600  0.17190800  0.75000000  1
  O  O38  1  0.20491000  0.51081300  0.25000000  1
  O  O39  1  0.79509000  0.48918700  0.75000000  1
  O  O40  1  0.48918700  0.69409700  0.25000000  1
  O  O41  1  0.51081300  0.30590300  0.75000000  1
  O  O42  1  0.30590300  0.79509000  0.25000000  1
  O  O43  1  0.69409700  0.20491000  0.75000000  1
  O  O44  1  0.37086900  0.14780300  0.25000000  1
  O  O45  1  0.62913100  0.85219700  0.75000000  1
  O  O46  1  0.85219700  0.22306600  0.25000000  1
  O  O47  1  0.14780300  0.77693400  0.75000000  1
  O  O48  1  0.77693400  0.62913100  0.25000000  1
  O  O49  1  0.22306600  0.37086900  0.75000000  1
  O  O50  1  0.57215300  0.22533400  0.25000000  1
  O  O51  1  0.42784700  0.77466600  0.75000000  1
  O  O52  1  0.77466600  0.34681800  0.25000000  1
  O  O53  1  0.22533400  0.65318200  0.75000000  1
  O  O54  1  0.65318200  0.42784700  0.25000000  1
  O  O55  1  0.34681800  0.57215300  0.75000000  1
