# generated using pymatgen
data_MnAg2SnS4
_symmetry_space_group_name_H-M   'P 1'
_cell_length_a   6.78674200
_cell_length_b   7.19842700
_cell_length_c   8.00196300
_cell_angle_alpha   90.00000000
_cell_angle_beta   90.00000000
_cell_angle_gamma   90.00000000
_symmetry_Int_Tables_number   1
_chemical_formula_structural   MnAg2SnS4
_chemical_formula_sum   'Mn2 Ag4 Sn2 S8'
_cell_volume   390.92683498
_cell_formula_units_Z   2
loop_
 _symmetry_equiv_pos_site_id
 _symmetry_equiv_pos_as_xyz
  1  'x, y, z'
loop_
 _atom_site_type_symbol
 _atom_site_label
 _atom_site_symmetry_multiplicity
 _atom_site_fract_x
 _atom_site_fract_y
 _atom_site_fract_z
 _atom_site_occupancy
  Mn  Mn0  1  0.50519700  0.34582800  0.00000000  1
  Mn  Mn1  1  0.00519700  0.65417200  0.50000000  1
  Ag  Ag2  1  0.51735100  0.82752900  0.75177800  1
  Ag  Ag3  1  0.01735100  0.17247100  0.74822200  1
  Ag  Ag4  1  0.01735100  0.17247100  0.25177800  1
  Ag  Ag5  1  0.51735100  0.82752900  0.24822200  1
  Sn  Sn6  1  0.00115400  0.66104100  0.00000000  1
  Sn  Sn7  1  0.50115400  0.33895900  0.50000000  1
  S  S8  1  0.85987500  0.34858500  0.00000000  1
  S  S9  1  0.35987500  0.65141500  0.50000000  1
  S  S10  1  0.89432900  0.82866400  0.74641500  1
  S  S11  1  0.39432900  0.17133600  0.75358500  1
  S  S12  1  0.39432900  0.17133600  0.24641500  1
  S  S13  1  0.89432900  0.82866400  0.25358500  1
  S  S14  1  0.36291400  0.65119100  0.00000000  1
  S  S15  1  0.86291400  0.34880900  0.50000000  1
