# generated using pymatgen
data_MgV8O24
_symmetry_space_group_name_H-M   'P 1'
_cell_length_a   8.06867700
_cell_length_b   11.17682378
_cell_length_c   10.73836857
_cell_angle_alpha   91.16047396
_cell_angle_beta   90.00000000
_cell_angle_gamma   90.00000000
_symmetry_Int_Tables_number   1
_chemical_formula_structural   MgV8O24
_chemical_formula_sum   'Mg2 V16 O48'
_cell_volume   968.21086958
_cell_formula_units_Z   2
loop_
 _symmetry_equiv_pos_site_id
 _symmetry_equiv_pos_as_xyz
  1  'x, y, z'
loop_
 _atom_site_type_symbol
 _atom_site_label
 _atom_site_symmetry_multiplicity
 _atom_site_fract_x
 _atom_site_fract_y
 _atom_site_fract_z
 _atom_site_occupancy
  Mg  Mg0  1  0.00000000  0.00000000  0.00000000  1
  Mg  Mg1  1  0.50000000  0.00000000  0.50000000  1
  V  V2  1  0.54100000  0.64057100  0.91542800  1
  V  V3  1  0.45900000  0.35942900  0.08457200  1
  V  V4  1  0.04100000  0.35942900  0.58457200  1
  V  V5  1  0.95900000  0.64057100  0.41542800  1
  V  V6  1  0.96948200  0.66475100  0.97506900  1
  V  V7  1  0.03051800  0.33524900  0.02493100  1
  V  V8  1  0.46948200  0.33524900  0.52493100  1
  V  V9  1  0.53051800  0.66475100  0.47506900  1
  V  V10  1  0.72225000  0.35900400  0.79880700  1
  V  V11  1  0.27775000  0.64099600  0.20119300  1
  V  V12  1  0.22225000  0.64099600  0.70119300  1
  V  V13  1  0.77775000  0.35900400  0.29880700  1
  V  V14  1  0.84101100  0.64402200  0.68754900  1
  V  V15  1  0.15898900  0.35597800  0.31245100  1
  V  V16  1  0.34101100  0.35597800  0.81245100  1
  V  V17  1  0.65898900  0.64402200  0.18754900  1
  O  O18  1  0.24635800  0.98973000  0.50027500  1
  O  O19  1  0.75364200  0.01027000  0.49972500  1
  O  O20  1  0.74635800  0.01027000  0.99972500  1
  O  O21  1  0.25364200  0.98973000  0.00027500  1
  O  O22  1  0.53951500  0.39087200  0.91909300  1
  O  O23  1  0.46048500  0.60912800  0.08090700  1
  O  O24  1  0.03951500  0.60912800  0.58090700  1
  O  O25  1  0.96048500  0.39087200  0.41909300  1
  O  O26  1  0.52042000  0.37645200  0.68637400  1
  O  O27  1  0.47958000  0.62354800  0.31362600  1
  O  O28  1  0.02042000  0.62354800  0.81362600  1
  O  O29  1  0.97958000  0.37645200  0.18637400  1
  O  O30  1  0.88485300  0.39588300  0.92548300  1
  O  O31  1  0.11514700  0.60411700  0.07451700  1
  O  O32  1  0.38485300  0.60411700  0.57451700  1
  O  O33  1  0.61514700  0.39588300  0.42548300  1
  O  O34  1  0.23560100  0.78402200  0.70614100  1
  O  O35  1  0.76439900  0.21597800  0.29385900  1
  O  O36  1  0.73560100  0.21597800  0.79385900  1
  O  O37  1  0.26439900  0.78402200  0.20614100  1
  O  O38  1  0.51114000  0.99226900  0.69030100  1
  O  O39  1  0.48886000  0.00773100  0.30969900  1
  O  O40  1  0.01114000  0.00773100  0.80969900  1
  O  O41  1  0.98886000  0.99226900  0.19030100  1
  O  O42  1  0.73960200  0.62200700  0.52513700  1
  O  O43  1  0.26039800  0.37799300  0.47486300  1
  O  O44  1  0.23960200  0.37799300  0.97486300  1
  O  O45  1  0.76039800  0.62200700  0.02513700  1
  O  O46  1  0.85941800  0.40907600  0.67112000  1
  O  O47  1  0.14058200  0.59092400  0.32888000  1
  O  O48  1  0.35941800  0.59092400  0.82888000  1
  O  O49  1  0.64058200  0.40907600  0.17112000  1
  O  O50  1  0.81815900  0.78597800  0.70319600  1
  O  O51  1  0.18184100  0.21402200  0.29680400  1
  O  O52  1  0.31815900  0.21402200  0.79680400  1
  O  O53  1  0.68184100  0.78597800  0.20319600  1
  O  O54  1  0.53906400  0.78290900  0.90359300  1
  O  O55  1  0.46093600  0.21709100  0.09640700  1
  O  O56  1  0.03906400  0.21709100  0.59640700  1
  O  O57  1  0.96093600  0.78290900  0.40359300  1
  O  O58  1  0.98242900  0.81090200  0.98870800  1
  O  O59  1  0.01757100  0.18909800  0.01129200  1
  O  O60  1  0.48242900  0.18909800  0.51129200  1
  O  O61  1  0.51757100  0.81090200  0.48870800  1
  O  O62  1  0.68938800  0.58176400  0.79132700  1
  O  O63  1  0.31061200  0.41823600  0.20867300  1
  O  O64  1  0.18938800  0.41823600  0.70867300  1
  O  O65  1  0.81061200  0.58176400  0.29132700  1
