# generated using pymatgen
data_MoPbO2
_symmetry_space_group_name_H-M   'P 1'
_cell_length_a   7.68134142
_cell_length_b   7.68134142
_cell_length_c   7.68134142
_cell_angle_alpha   127.93236092
_cell_angle_beta   127.93236092
_cell_angle_gamma   76.73462634
_symmetry_Int_Tables_number   1
_chemical_formula_structural   MoPbO2
_chemical_formula_sum   'Mo4 Pb4 O8'
_cell_volume   273.80917474
_cell_formula_units_Z   4
loop_
 _symmetry_equiv_pos_site_id
 _symmetry_equiv_pos_as_xyz
  1  'x, y, z'
loop_
 _atom_site_type_symbol
 _atom_site_label
 _atom_site_symmetry_multiplicity
 _atom_site_fract_x
 _atom_site_fract_y
 _atom_site_fract_z
 _atom_site_occupancy
  Mo  Mo0  1  0.37500000  0.12500000  0.25000000  1
  Mo  Mo1  1  0.87500000  0.12500000  0.75000000  1
  Mo  Mo2  1  0.87500000  0.12500000  0.25000000  1
  Mo  Mo3  1  0.87500000  0.62500000  0.75000000  1
  Pb  Pb4  1  0.87500000  0.62500000  0.25000000  1
  Pb  Pb5  1  0.37500000  0.62500000  0.75000000  1
  Pb  Pb6  1  0.37500000  0.62500000  0.25000000  1
  Pb  Pb7  1  0.37500000  0.12500000  0.75000000  1
  O  O8  1  0.15804600  0.36595800  0.20791200  1
  O  O9  1  0.15804600  0.95013400  0.79208800  1
  O  O10  1  0.11595800  0.40804600  0.70791200  1
  O  O11  1  0.59195400  0.88404200  0.29208800  1
  O  O12  1  0.70013400  0.40804600  0.29208800  1
  O  O13  1  0.59195400  0.29986600  0.70791200  1
  O  O14  1  0.63404200  0.84195400  0.79208800  1
  O  O15  1  0.04986600  0.84195400  0.20791200  1
