# generated using pymatgen
data_NaCoBP2H4O11
_symmetry_space_group_name_H-M   'P 1'
_cell_length_a   9.51900376
_cell_length_b   9.51900376
_cell_length_c   15.96162800
_cell_angle_alpha   90.00000000
_cell_angle_beta   90.00000000
_cell_angle_gamma   119.99999830
_symmetry_Int_Tables_number   1
_chemical_formula_structural   NaCoBP2H4O11
_chemical_formula_sum   'Na6 Co6 B6 P12 H24 O66'
_cell_volume   1252.53774004
_cell_formula_units_Z   6
loop_
 _symmetry_equiv_pos_site_id
 _symmetry_equiv_pos_as_xyz
  1  'x, y, z'
loop_
 _atom_site_type_symbol
 _atom_site_label
 _atom_site_symmetry_multiplicity
 _atom_site_fract_x
 _atom_site_fract_y
 _atom_site_fract_z
 _atom_site_occupancy
  Na  Na0  1  0.19308900  0.38617700  0.25000000  1
  Na  Na1  1  0.61382300  0.80691100  0.58333300  1
  Na  Na2  1  0.80691100  0.61382300  0.75000000  1
  Na  Na3  1  0.38617700  0.19308900  0.08333300  1
  Na  Na4  1  0.19308900  0.80691100  0.91666700  1
  Na  Na5  1  0.80691100  0.19308900  0.41666700  1
  Co  Co6  1  0.55324800  0.10649600  0.25000000  1
  Co  Co7  1  0.89350400  0.44675200  0.58333300  1
  Co  Co8  1  0.44675200  0.89350400  0.75000000  1
  Co  Co9  1  0.10649600  0.55324800  0.08333300  1
  Co  Co10  1  0.55324800  0.44675200  0.91666700  1
  Co  Co11  1  0.44675200  0.55324800  0.41666700  1
  B  B12  1  0.84786300  0.69572700  0.25000000  1
  B  B13  1  0.30427300  0.15213700  0.58333300  1
  B  B14  1  0.15213700  0.30427300  0.75000000  1
  B  B15  1  0.69572700  0.84786300  0.08333300  1
  B  B16  1  0.84786300  0.15213700  0.91666700  1
  B  B17  1  0.15213700  0.84786300  0.41666700  1
  P  P18  1  0.38818000  0.16800500  0.41439400  1
  P  P19  1  0.83199500  0.22017500  0.74772700  1
  P  P20  1  0.61182000  0.83199500  0.91439400  1
  P  P21  1  0.16800500  0.38818000  0.91894000  1
  P  P22  1  0.77982500  0.61182000  0.08106000  1
  P  P23  1  0.16800500  0.77982500  0.24772700  1
  P  P24  1  0.22017500  0.83199500  0.58560600  1
  P  P25  1  0.83199500  0.61182000  0.41894000  1
  P  P26  1  0.22017500  0.38818000  0.58106000  1
  P  P27  1  0.77982500  0.16800500  0.08560600  1
  P  P28  1  0.61182000  0.77982500  0.25227300  1
  P  P29  1  0.38818000  0.22017500  0.75227300  1
  H  H30  1  0.18619600  0.58547900  0.37068500  1
  H  H31  1  0.41452100  0.60071700  0.70401800  1
  H  H32  1  0.81380400  0.41452100  0.87068500  1
  H  H33  1  0.58547900  0.18619600  0.96264900  1
  H  H34  1  0.39928300  0.81380400  0.03735100  1
  H  H35  1  0.58547900  0.39928300  0.20401800  1
  H  H36  1  0.60071700  0.41452100  0.62931500  1
  H  H37  1  0.41452100  0.81380400  0.46264900  1
  H  H38  1  0.60071700  0.18619600  0.53735100  1
  H  H39  1  0.39928300  0.58547900  0.12931500  1
  H  H40  1  0.81380400  0.39928300  0.29598200  1
  H  H41  1  0.18619600  0.60071700  0.79598200  1
  H  H42  1  0.31740000  0.45834700  0.05573100  1
  H  H43  1  0.54165300  0.85905300  0.38906500  1
  H  H44  1  0.68260000  0.54165300  0.55573100  1
  H  H45  1  0.45834700  0.31740000  0.27760200  1
  H  H46  1  0.14094700  0.68260000  0.72239800  1
  H  H47  1  0.45834700  0.14094700  0.88906500  1
  H  H48  1  0.85905300  0.54165300  0.94426900  1
  H  H49  1  0.54165300  0.68260000  0.77760200  1
  H  H50  1  0.85905300  0.31740000  0.22239800  1
  H  H51  1  0.14094700  0.45834700  0.44426900  1
  H  H52  1  0.68260000  0.14094700  0.61093500  1
  H  H53  1  0.31740000  0.85905300  0.11093500  1
  O  O54  1  0.38807500  0.31797600  0.37934500  1
  O  O55  1  0.68202400  0.07009900  0.71267800  1
  O  O56  1  0.61192500  0.68202400  0.87934500  1
  O  O57  1  0.31797600  0.38807500  0.95398900  1
  O  O58  1  0.92990100  0.61192500  0.04601100  1
  O  O59  1  0.31797600  0.92990100  0.21267800  1
  O  O60  1  0.07009900  0.68202400  0.62065500  1
  O  O61  1  0.68202400  0.61192500  0.45398900  1
  O  O62  1  0.07009900  0.38807500  0.54601100  1
  O  O63  1  0.92990100  0.31797600  0.12065500  1
  O  O64  1  0.61192500  0.92990100  0.28732200  1
  O  O65  1  0.38807500  0.07009900  0.78732200  1
  O  O66  1  0.29384900  0.49167700  0.11095200  1
  O  O67  1  0.50832300  0.80217200  0.44428500  1
  O  O68  1  0.70615100  0.50832300  0.61095200  1
  O  O69  1  0.49167700  0.29384900  0.22238200  1
  O  O70  1  0.19782800  0.70615100  0.77761800  1
  O  O71  1  0.49167700  0.19782800  0.94428500  1
  O  O72  1  0.80217200  0.50832300  0.88904800  1
  O  O73  1  0.50832300  0.70615100  0.72238200  1
  O  O74  1  0.80217200  0.29384900  0.27761800  1
  O  O75  1  0.19782800  0.49167700  0.38904800  1
  O  O76  1  0.70615100  0.19782800  0.55571500  1
  O  O77  1  0.29384900  0.80217200  0.05571500  1
  O  O78  1  0.13430700  0.00000000  0.00000000  1
  O  O79  1  0.00000000  0.13430700  0.33333300  1
  O  O80  1  0.86569300  0.00000000  0.50000000  1
  O  O81  1  0.86569300  0.86569300  0.66666700  1
  O  O82  1  0.00000000  0.86569300  0.83333300  1
  O  O83  1  0.13430700  0.13430700  0.16666700  1
  O  O84  1  0.61931700  0.13785900  0.12372900  1
  O  O85  1  0.86214100  0.48145800  0.45706200  1
  O  O86  1  0.38068300  0.86214100  0.62372900  1
  O  O87  1  0.13785900  0.61931700  0.20960500  1
  O  O88  1  0.51854200  0.38068300  0.79039500  1
  O  O89  1  0.13785900  0.51854200  0.95706200  1
  O  O90  1  0.48145800  0.86214100  0.87627100  1
  O  O91  1  0.86214100  0.38068300  0.70960500  1
  O  O92  1  0.48145800  0.61931700  0.29039500  1
  O  O93  1  0.51854200  0.13785900  0.37627100  1
  O  O94  1  0.38068300  0.51854200  0.54293800  1
  O  O95  1  0.61931700  0.48145800  0.04293800  1
  O  O96  1  0.42030300  0.18352800  0.51245600  1
  O  O97  1  0.81647200  0.23677500  0.84578900  1
  O  O98  1  0.57969700  0.81647200  0.01245600  1
  O  O99  1  0.18352800  0.42030300  0.82087800  1
  O  O100  1  0.76322500  0.57969700  0.17912200  1
  O  O101  1  0.18352800  0.76322500  0.34578900  1
  O  O102  1  0.23677500  0.81647200  0.48754400  1
  O  O103  1  0.81647200  0.57969700  0.32087800  1
  O  O104  1  0.23677500  0.42030300  0.67912200  1
  O  O105  1  0.76322500  0.18352800  0.98754400  1
  O  O106  1  0.57969700  0.76322500  0.15421100  1
  O  O107  1  0.42030300  0.23677500  0.65421100  1
  O  O108  1  0.21525700  0.01962500  0.39954200  1
  O  O109  1  0.98037500  0.19563200  0.73287500  1
  O  O110  1  0.78474300  0.98037500  0.89954200  1
  O  O111  1  0.01962500  0.21525700  0.93379100  1
  O  O112  1  0.80436800  0.78474300  0.06620900  1
  O  O113  1  0.01962500  0.80436800  0.23287500  1
  O  O114  1  0.19563200  0.98037500  0.60045800  1
  O  O115  1  0.98037500  0.78474300  0.43379100  1
  O  O116  1  0.19563200  0.21525700  0.56620900  1
  O  O117  1  0.80436800  0.01962500  0.10045800  1
  O  O118  1  0.78474300  0.80436800  0.26712500  1
  O  O119  1  0.21525700  0.19563200  0.76712500  1
