# generated using pymatgen
data_NiS2O9
_symmetry_space_group_name_H-M   'P 1'
_cell_length_a   6.51158300
_cell_length_b   10.23362500
_cell_length_c   14.03883900
_cell_angle_alpha   90.00000000
_cell_angle_beta   90.00000000
_cell_angle_gamma   90.00000000
_symmetry_Int_Tables_number   1
_chemical_formula_structural   NiS2O9
_chemical_formula_sum   'Ni4 S8 O36'
_cell_volume   935.50749837
_cell_formula_units_Z   4
loop_
 _symmetry_equiv_pos_site_id
 _symmetry_equiv_pos_as_xyz
  1  'x, y, z'
loop_
 _atom_site_type_symbol
 _atom_site_label
 _atom_site_symmetry_multiplicity
 _atom_site_fract_x
 _atom_site_fract_y
 _atom_site_fract_z
 _atom_site_occupancy
  Ni  Ni0  1  0.00000000  0.00000000  0.00000000  1
  Ni  Ni1  1  0.50000000  0.50000000  0.00000000  1
  Ni  Ni2  1  0.00000000  0.00000000  0.50000000  1
  Ni  Ni3  1  0.50000000  0.50000000  0.50000000  1
  S  S4  1  0.56363500  0.31278500  0.25000000  1
  S  S5  1  0.43636500  0.68721500  0.75000000  1
  S  S6  1  0.06363500  0.18721500  0.75000000  1
  S  S7  1  0.93636500  0.81278500  0.25000000  1
  S  S8  1  0.42003100  0.00195000  0.25000000  1
  S  S9  1  0.57996900  0.99805000  0.75000000  1
  S  S10  1  0.92003100  0.49805000  0.75000000  1
  S  S11  1  0.07996900  0.50195000  0.25000000  1
  O  O12  1  0.45267600  0.33156100  0.16139200  1
  O  O13  1  0.54732400  0.66843900  0.83860800  1
  O  O14  1  0.95267600  0.16843900  0.83860800  1
  O  O15  1  0.54732400  0.66843900  0.66139200  1
  O  O16  1  0.04732400  0.83156100  0.16139200  1
  O  O17  1  0.45267600  0.33156100  0.33860800  1
  O  O18  1  0.04732400  0.83156100  0.33860800  1
  O  O19  1  0.95267600  0.16843900  0.66139200  1
  O  O20  1  0.22976600  0.07212300  0.25000000  1
  O  O21  1  0.77023400  0.92787700  0.75000000  1
  O  O22  1  0.72976600  0.42787700  0.75000000  1
  O  O23  1  0.27023400  0.57212300  0.25000000  1
  O  O24  1  0.17214900  0.13602100  0.46744000  1
  O  O25  1  0.82785100  0.86397900  0.53256000  1
  O  O26  1  0.67214900  0.36397900  0.53256000  1
  O  O27  1  0.82785100  0.86397900  0.96744000  1
  O  O28  1  0.32785100  0.63602100  0.46744000  1
  O  O29  1  0.17214900  0.13602100  0.03256000  1
  O  O30  1  0.32785100  0.63602100  0.03256000  1
  O  O31  1  0.67214900  0.36397900  0.96744000  1
  O  O32  1  0.51209000  0.65027100  0.07259100  1
  O  O33  1  0.48791000  0.34972900  0.92740900  1
  O  O34  1  0.01209000  0.84972900  0.92740900  1
  O  O35  1  0.48791000  0.34972900  0.57259100  1
  O  O36  1  0.98791000  0.15027100  0.07259100  1
  O  O37  1  0.51209000  0.65027100  0.42740900  1
  O  O38  1  0.98791000  0.15027100  0.42740900  1
  O  O39  1  0.01209000  0.84972900  0.57259100  1
  O  O40  1  0.98157600  0.46949200  0.16148900  1
  O  O41  1  0.01842400  0.53050800  0.83851100  1
  O  O42  1  0.48157600  0.03050800  0.83851100  1
  O  O43  1  0.01842400  0.53050800  0.66148900  1
  O  O44  1  0.51842400  0.96949200  0.16148900  1
  O  O45  1  0.98157600  0.46949200  0.33851100  1
  O  O46  1  0.51842400  0.96949200  0.33851100  1
  O  O47  1  0.48157600  0.03050800  0.66148900  1
