# generated using pymatgen
data_MgCr2(NO7)2
_symmetry_space_group_name_H-M   'P 1'
_cell_length_a   13.43252100
_cell_length_b   6.70785400
_cell_length_c   10.05138277
_cell_angle_alpha   73.95841784
_cell_angle_beta   90.00000000
_cell_angle_gamma   90.00000000
_symmetry_Int_Tables_number   1
_chemical_formula_structural   MgCr2(NO7)2
_chemical_formula_sum   'Mg2 Cr4 N4 O28'
_cell_volume   870.39838428
_cell_formula_units_Z   2
loop_
 _symmetry_equiv_pos_site_id
 _symmetry_equiv_pos_as_xyz
  1  'x, y, z'
loop_
 _atom_site_type_symbol
 _atom_site_label
 _atom_site_symmetry_multiplicity
 _atom_site_fract_x
 _atom_site_fract_y
 _atom_site_fract_z
 _atom_site_occupancy
  Mg  Mg0  1  0.50000000  0.50000000  0.50000000  1
  Mg  Mg1  1  0.00000000  0.50000000  0.00000000  1
  Cr  Cr2  1  0.36034100  0.76109700  0.90302900  1
  Cr  Cr3  1  0.63965900  0.23890300  0.09697100  1
  Cr  Cr4  1  0.86034100  0.23890300  0.59697100  1
  Cr  Cr5  1  0.13965900  0.76109700  0.40302900  1
  N  N6  1  0.64906500  0.85972000  0.86960200  1
  N  N7  1  0.35093500  0.14028000  0.13039800  1
  N  N8  1  0.14906500  0.14028000  0.63039800  1
  N  N9  1  0.85093500  0.85972000  0.36960200  1
  O  O10  1  0.32138700  0.53141100  0.88592500  1
  O  O11  1  0.67861300  0.46858900  0.11407500  1
  O  O12  1  0.82138700  0.46858900  0.61407500  1
  O  O13  1  0.17861300  0.53141100  0.38592500  1
  O  O14  1  0.07997700  0.70561800  0.55368800  1
  O  O15  1  0.92002300  0.29438200  0.44631200  1
  O  O16  1  0.57997700  0.29438200  0.94631200  1
  O  O17  1  0.42002300  0.70561800  0.05368800  1
  O  O18  1  0.40838600  0.34901100  0.64998400  1
  O  O19  1  0.59161400  0.65098900  0.35001600  1
  O  O20  1  0.90838600  0.65098900  0.85001600  1
  O  O21  1  0.09161400  0.34901100  0.14998400  1
  O  O22  1  0.43555500  0.88150700  0.77297000  1
  O  O23  1  0.56444500  0.11849300  0.22703000  1
  O  O24  1  0.93555500  0.11849300  0.72703000  1
  O  O25  1  0.06444500  0.88150700  0.27297000  1
  O  O26  1  0.09785800  0.47323600  0.85657400  1
  O  O27  1  0.90214200  0.52676400  0.14342600  1
  O  O28  1  0.59785800  0.52676400  0.64342600  1
  O  O29  1  0.40214200  0.47323600  0.35657400  1
  O  O30  1  0.43842900  0.76768900  0.50278400  1
  O  O31  1  0.56157100  0.23231100  0.49721600  1
  O  O32  1  0.93842900  0.23231100  0.99721600  1
  O  O33  1  0.06157100  0.76768900  0.00278400  1
  O  O34  1  0.26506200  0.91970700  0.90140600  1
  O  O35  1  0.73493800  0.08029300  0.09859400  1
  O  O36  1  0.76506200  0.08029300  0.59859400  1
  O  O37  1  0.23493800  0.91970700  0.40140600  1
