# generated using pymatgen
data_MnV2O10
_symmetry_space_group_name_H-M   'P 1'
_cell_length_a   6.97769080
_cell_length_b   8.39474903
_cell_length_c   8.39474903
_cell_angle_alpha   67.66936653
_cell_angle_beta   72.66802189
_cell_angle_gamma   72.66802189
_symmetry_Int_Tables_number   1
_chemical_formula_structural   MnV2O10
_chemical_formula_sum   'Mn2 V4 O20'
_cell_volume   424.59439303
_cell_formula_units_Z   2
loop_
 _symmetry_equiv_pos_site_id
 _symmetry_equiv_pos_as_xyz
  1  'x, y, z'
loop_
 _atom_site_type_symbol
 _atom_site_label
 _atom_site_symmetry_multiplicity
 _atom_site_fract_x
 _atom_site_fract_y
 _atom_site_fract_z
 _atom_site_occupancy
  Mn  Mn0  1  0.30299400  0.89335100  0.36510600  1
  Mn  Mn1  1  0.80299400  0.36510600  0.89335100  1
  V  V2  1  0.09427700  0.52433000  0.45585200  1
  V  V3  1  0.59427700  0.45585200  0.52433000  1
  V  V4  1  0.97295500  0.32672500  0.25593200  1
  V  V5  1  0.47295500  0.25593200  0.32672500  1
  O  O6  1  0.44086700  0.04774500  0.42805400  1
  O  O7  1  0.94086700  0.42805400  0.04774500  1
  O  O8  1  0.47460700  0.01667800  0.95373500  1
  O  O9  1  0.97460700  0.95373500  0.01667800  1
  O  O10  1  0.12556200  0.73310800  0.35475100  1
  O  O11  1  0.62556200  0.35475100  0.73310800  1
  O  O12  1  0.01595300  0.89795600  0.66218100  1
  O  O13  1  0.51595300  0.66218100  0.89795600  1
  O  O14  1  0.47360700  0.66944700  0.50126200  1
  O  O15  1  0.97360700  0.50126200  0.66944700  1
  O  O16  1  0.36040200  0.39430100  0.49897400  1
  O  O17  1  0.86040200  0.49897400  0.39430100  1
  O  O18  1  0.84006700  0.88445700  0.67709600  1
  O  O19  1  0.34006700  0.67709600  0.88445700  1
  O  O20  1  0.01429800  0.09408000  0.90471000  1
  O  O21  1  0.51429800  0.90471000  0.09408000  1
  O  O22  1  0.20760100  0.38662000  0.28301200  1
  O  O23  1  0.70760100  0.28301200  0.38662000  1
  O  O24  1  0.09680900  0.11521400  0.27132400  1
  O  O25  1  0.59680900  0.27132400  0.11521400  1
