# generated using pymatgen
data_Rb2Pd3S2
_symmetry_space_group_name_H-M   'P 1'
_cell_length_a   8.25122500
_cell_length_b   6.71062737
_cell_length_c   18.01919731
_cell_angle_alpha   81.90818938
_cell_angle_beta   76.76435354
_cell_angle_gamma   52.06348432
_symmetry_Int_Tables_number   1
_chemical_formula_structural   Rb2Pd3S2
_chemical_formula_sum   'Rb8 Pd12 S8'
_cell_volume   766.00632953
_cell_formula_units_Z   4
loop_
 _symmetry_equiv_pos_site_id
 _symmetry_equiv_pos_as_xyz
  1  'x, y, z'
loop_
 _atom_site_type_symbol
 _atom_site_label
 _atom_site_symmetry_multiplicity
 _atom_site_fract_x
 _atom_site_fract_y
 _atom_site_fract_z
 _atom_site_occupancy
  Rb  Rb0  1  0.64888200  0.13902100  0.10008400  1
  Rb  Rb1  1  0.25103300  0.86097900  0.10008400  1
  Rb  Rb2  1  0.21209700  0.13902100  0.89991600  1
  Rb  Rb3  1  0.10111800  0.36097900  0.39991600  1
  Rb  Rb4  1  0.88798700  0.86097900  0.89991600  1
  Rb  Rb5  1  0.49896700  0.63902100  0.39991600  1
  Rb  Rb6  1  0.53790300  0.36097900  0.60008400  1
  Rb  Rb7  1  0.86201300  0.63902100  0.60008400  1
  Pd  Pd8  1  0.51652000  0.24736900  0.77922000  1
  Pd  Pd9  1  0.70426000  0.75263100  0.77922000  1
  Pd  Pd10  1  0.23611000  0.24736900  0.22078000  1
  Pd  Pd11  1  0.23348000  0.25263100  0.72078000  1
  Pd  Pd12  1  0.54310900  0.75263100  0.22078000  1
  Pd  Pd13  1  0.04574000  0.74736900  0.72078000  1
  Pd  Pd14  1  0.51389000  0.25263100  0.27922000  1
  Pd  Pd15  1  0.20689100  0.74736900  0.27922000  1
  Pd  Pd16  1  0.87500000  0.25000000  0.25000000  1
  Pd  Pd17  1  0.87500000  0.75000000  0.25000000  1
  Pd  Pd18  1  0.87500000  0.25000000  0.75000000  1
  Pd  Pd19  1  0.37500000  0.75000000  0.75000000  1
  S  S20  1  0.81683000  0.46842200  0.13132000  1
  S  S21  1  0.05185000  0.53157800  0.13132000  1
  S  S22  1  0.71474800  0.46842200  0.86868000  1
  S  S23  1  0.93317000  0.03157800  0.36868000  1
  S  S24  1  0.41657200  0.53157800  0.86868000  1
  S  S25  1  0.69815000  0.96842200  0.36868000  1
  S  S26  1  0.03525200  0.03157800  0.63132000  1
  S  S27  1  0.33342800  0.96842200  0.63132000  1
