# generated using pymatgen
data_Mn5(SO5)3
_symmetry_space_group_name_H-M   'P 1'
_cell_length_a   7.37013593
_cell_length_b   8.09829100
_cell_length_c   10.36511014
_cell_angle_alpha   90.00000000
_cell_angle_beta   98.90454608
_cell_angle_gamma   90.00000000
_symmetry_Int_Tables_number   1
_chemical_formula_structural   Mn5(SO5)3
_chemical_formula_sum   'Mn10 S6 O30'
_cell_volume   611.19065092
_cell_formula_units_Z   2
loop_
 _symmetry_equiv_pos_site_id
 _symmetry_equiv_pos_as_xyz
  1  'x, y, z'
loop_
 _atom_site_type_symbol
 _atom_site_label
 _atom_site_symmetry_multiplicity
 _atom_site_fract_x
 _atom_site_fract_y
 _atom_site_fract_z
 _atom_site_occupancy
  Mn  Mn0  1  0.30572900  0.05094600  0.39228300  1
  Mn  Mn1  1  0.69427100  0.94905400  0.60771700  1
  Mn  Mn2  1  0.69427100  0.55094600  0.60771700  1
  Mn  Mn3  1  0.30572900  0.44905400  0.39228300  1
  Mn  Mn4  1  0.05708000  0.25000000  0.60024500  1
  Mn  Mn5  1  0.94292000  0.75000000  0.39975500  1
  Mn  Mn6  1  0.05326600  0.05024000  0.84108400  1
  Mn  Mn7  1  0.94673400  0.94976000  0.15891600  1
  Mn  Mn8  1  0.94673400  0.55024000  0.15891600  1
  Mn  Mn9  1  0.05326600  0.44976000  0.84108400  1
  S  S10  1  0.64965200  0.25000000  0.82271000  1
  S  S11  1  0.35034800  0.75000000  0.17729000  1
  S  S12  1  0.68355500  0.25000000  0.37658200  1
  S  S13  1  0.31644500  0.75000000  0.62341800  1
  S  S14  1  0.24306100  0.25000000  0.09957000  1
  S  S15  1  0.75693900  0.75000000  0.90043000  1
  O  O16  1  0.86541800  0.25000000  0.86483700  1
  O  O17  1  0.13458200  0.75000000  0.13516300  1
  O  O18  1  0.88673600  0.25000000  0.43273800  1
  O  O19  1  0.11326400  0.75000000  0.56726200  1
  O  O20  1  0.25507200  0.25000000  0.49784300  1
  O  O21  1  0.74492800  0.75000000  0.50215700  1
  O  O22  1  0.28085900  0.25000000  0.24901400  1
  O  O23  1  0.71914100  0.75000000  0.75098600  1
  O  O24  1  0.39607200  0.59684800  0.26046700  1
  O  O25  1  0.60392800  0.40315200  0.73953300  1
  O  O26  1  0.60392800  0.09684800  0.73953300  1
  O  O27  1  0.39607200  0.90315200  0.26046700  1
  O  O28  1  0.05789100  0.54142200  0.33537200  1
  O  O29  1  0.94210900  0.45857800  0.66462800  1
  O  O30  1  0.94210900  0.04142200  0.66462800  1
  O  O31  1  0.05789100  0.95857800  0.33537200  1
  O  O32  1  0.59907700  0.09933200  0.44060500  1
  O  O33  1  0.40092300  0.90066800  0.55939500  1
  O  O34  1  0.40092300  0.59933200  0.55939500  1
  O  O35  1  0.59907700  0.40066800  0.44060500  1
  O  O36  1  0.75974700  0.07381900  0.14184600  1
  O  O37  1  0.24025300  0.92618100  0.85815400  1
  O  O38  1  0.24025300  0.57381900  0.85815400  1
  O  O39  1  0.75974700  0.42618100  0.14184600  1
  O  O40  1  0.11610800  0.09707600  0.06555600  1
  O  O41  1  0.88389200  0.90292400  0.93444400  1
  O  O42  1  0.88389200  0.59707600  0.93444400  1
  O  O43  1  0.11610800  0.40292400  0.06555600  1
  O  O44  1  0.17980500  0.25000000  0.78417200  1
  O  O45  1  0.82019500  0.75000000  0.21582800  1
