# generated using pymatgen
data_MnSi(OF)6
_symmetry_space_group_name_H-M   'P 1'
_cell_length_a   9.09653354
_cell_length_b   9.09653354
_cell_length_c   8.18801400
_cell_angle_alpha   90.00000000
_cell_angle_beta   90.00000000
_cell_angle_gamma   119.99999666
_symmetry_Int_Tables_number   1
_chemical_formula_structural   MnSi(OF)6
_chemical_formula_sum   'Mn3 Si3 O18 F18'
_cell_volume   586.76077461
_cell_formula_units_Z   3
loop_
 _symmetry_equiv_pos_site_id
 _symmetry_equiv_pos_as_xyz
  1  'x, y, z'
loop_
 _atom_site_type_symbol
 _atom_site_label
 _atom_site_symmetry_multiplicity
 _atom_site_fract_x
 _atom_site_fract_y
 _atom_site_fract_z
 _atom_site_occupancy
  Mn  Mn0  1  0.00000000  0.00000000  0.50000000  1
  Mn  Mn1  1  0.66666700  0.33333300  0.85555000  1
  Mn  Mn2  1  0.33333300  0.66666700  0.14445000  1
  Si  Si3  1  0.66666700  0.33333300  0.32653000  1
  Si  Si4  1  0.33333300  0.66666700  0.67347000  1
  Si  Si5  1  0.00000000  0.00000000  0.00000000  1
  O  O6  1  0.71514400  0.19123700  0.93822000  1
  O  O7  1  0.28485600  0.80876300  0.06178000  1
  O  O8  1  0.47609300  0.28485600  0.93822000  1
  O  O9  1  0.52390700  0.71514400  0.06178000  1
  O  O10  1  0.80876300  0.52390700  0.93822000  1
  O  O11  1  0.19123700  0.47609300  0.06178000  1
  O  O12  1  0.85873400  0.42505200  0.70053600  1
  O  O13  1  0.14126600  0.57494800  0.29946400  1
  O  O14  1  0.56631700  0.14126600  0.70053600  1
  O  O15  1  0.43368300  0.85873400  0.29946400  1
  O  O16  1  0.57494800  0.43368300  0.70053600  1
  O  O17  1  0.42505200  0.56631700  0.29946400  1
  O  O18  1  0.80832800  0.86264700  0.62175200  1
  O  O19  1  0.19167200  0.13735300  0.37824800  1
  O  O20  1  0.05431800  0.19167200  0.62175200  1
  O  O21  1  0.94568200  0.80832800  0.37824800  1
  O  O22  1  0.13735300  0.94568200  0.62175200  1
  O  O23  1  0.86264700  0.05431800  0.37824800  1
  F  F24  1  0.96850400  0.13647700  0.87866500  1
  F  F25  1  0.03149600  0.86352300  0.12133500  1
  F  F26  1  0.16797300  0.03149600  0.87866500  1
  F  F27  1  0.83202700  0.96850400  0.12133500  1
  F  F28  1  0.86352300  0.83202700  0.87866500  1
  F  F29  1  0.13647700  0.16797300  0.12133500  1
  F  F30  1  0.46484900  0.62732900  0.79215400  1
  F  F31  1  0.53515100  0.37267100  0.20784600  1
  F  F32  1  0.16248000  0.53515100  0.79215400  1
  F  F33  1  0.83752000  0.46484900  0.20784600  1
  F  F34  1  0.37267100  0.83752000  0.79215400  1
  F  F35  1  0.62732900  0.16248000  0.20784600  1
  F  F36  1  0.50372700  0.79804000  0.55096700  1
  F  F37  1  0.49627300  0.20196000  0.44903300  1
  F  F38  1  0.29431400  0.49627300  0.55096700  1
  F  F39  1  0.70568600  0.50372700  0.44903300  1
  F  F40  1  0.20196000  0.70568600  0.55096700  1
  F  F41  1  0.79804000  0.29431400  0.44903300  1
