# generated using pymatgen
data_MgU2Si2(HO3)4
_symmetry_space_group_name_H-M   'P 1'
_cell_length_a   6.63420340
_cell_length_b   6.81553200
_cell_length_c   9.66811436
_cell_angle_alpha   110.63875556
_cell_angle_beta   122.00162175
_cell_angle_gamma   90.00000000
_symmetry_Int_Tables_number   1
_chemical_formula_structural   MgU2Si2(HO3)4
_chemical_formula_sum   'Mg1 U2 Si2 H4 O12'
_cell_volume   337.17877376
_cell_formula_units_Z   1
loop_
 _symmetry_equiv_pos_site_id
 _symmetry_equiv_pos_as_xyz
  1  'x, y, z'
loop_
 _atom_site_type_symbol
 _atom_site_label
 _atom_site_symmetry_multiplicity
 _atom_site_fract_x
 _atom_site_fract_y
 _atom_site_fract_z
 _atom_site_occupancy
  Mg  Mg0  1  0.00000000  0.00000000  0.00000000  1
  U  U1  1  0.37199400  0.76101900  0.52203800  1
  U  U2  1  0.62800600  0.23898100  0.47796200  1
  Si  Si3  1  0.91735900  0.81140300  0.62280600  1
  Si  Si4  1  0.08264100  0.18859700  0.37719400  1
  H  H5  1  0.60886700  0.51429000  0.79946700  1
  H  H6  1  0.39113300  0.48571000  0.20053300  1
  H  H7  1  0.39113300  0.71482300  0.20053300  1
  H  H8  1  0.60886700  0.28517700  0.79946700  1
  O  O9  1  0.60651900  0.88914700  0.77829300  1
  O  O10  1  0.39348100  0.11085300  0.22170700  1
  O  O11  1  0.95151200  0.24309200  0.48618500  1
  O  O12  1  0.04848800  0.75690800  0.51381500  1
  O  O13  1  0.71345700  0.58762600  0.54442300  1
  O  O14  1  0.28654300  0.41237400  0.45557700  1
  O  O15  1  0.28654300  0.04320200  0.45557700  1
  O  O16  1  0.71345700  0.95679800  0.54442300  1
  O  O17  1  0.69432800  0.39719100  0.79438200  1
  O  O18  1  0.30567200  0.60280900  0.20561800  1
  O  O19  1  0.09373700  0.91740900  0.83481700  1
  O  O20  1  0.90626300  0.08259100  0.16518300  1
