# generated using pymatgen
data_MgSi3HO12
_symmetry_space_group_name_H-M   'P 1'
_cell_length_a   6.87392500
_cell_length_b   8.50053983
_cell_length_c   11.30958495
_cell_angle_alpha   125.87727025
_cell_angle_beta   90.00000000
_cell_angle_gamma   90.00000000
_symmetry_Int_Tables_number   1
_chemical_formula_structural   MgSi3HO12
_chemical_formula_sum   'Mg2 Si6 H2 O24'
_cell_volume   535.46362189
_cell_formula_units_Z   2
loop_
 _symmetry_equiv_pos_site_id
 _symmetry_equiv_pos_as_xyz
  1  'x, y, z'
loop_
 _atom_site_type_symbol
 _atom_site_label
 _atom_site_symmetry_multiplicity
 _atom_site_fract_x
 _atom_site_fract_y
 _atom_site_fract_z
 _atom_site_occupancy
  Mg  Mg0  1  0.00000000  0.00000000  0.00000000  1
  Mg  Mg1  1  0.50000000  0.00000000  0.00000000  1
  Si  Si2  1  0.75000000  0.82641700  0.70684300  1
  Si  Si3  1  0.25000000  0.17358300  0.29315700  1
  Si  Si4  1  0.75000000  0.68036800  0.25563400  1
  Si  Si5  1  0.25000000  0.31963200  0.74436600  1
  Si  Si6  1  0.75000000  0.65197100  0.97359500  1
  Si  Si7  1  0.25000000  0.34802900  0.02640500  1
  H  H8  1  0.75000000  0.08363800  0.35982600  1
  H  H9  1  0.25000000  0.91636200  0.64017400  1
  O  O10  1  0.91544500  0.87659500  0.34126300  1
  O  O11  1  0.08455500  0.12340500  0.65873700  1
  O  O12  1  0.41544500  0.12340500  0.65873700  1
  O  O13  1  0.58455500  0.87659500  0.34126300  1
  O  O14  1  0.94649000  0.77232100  0.99824800  1
  O  O15  1  0.05351000  0.22767900  0.00175200  1
  O  O16  1  0.44649000  0.22767900  0.00175200  1
  O  O17  1  0.55351000  0.77232100  0.99824800  1
  O  O18  1  0.96795100  0.72836000  0.65508100  1
  O  O19  1  0.03204900  0.27164000  0.34491900  1
  O  O20  1  0.46795100  0.27164000  0.34491900  1
  O  O21  1  0.53204900  0.72836000  0.65508100  1
  O  O22  1  0.75000000  0.95371500  0.88387100  1
  O  O23  1  0.25000000  0.04628500  0.11612900  1
  O  O24  1  0.75000000  0.91184600  0.60793400  1
  O  O25  1  0.25000000  0.08815400  0.39206600  1
  O  O26  1  0.75000000  0.58335100  0.08374300  1
  O  O27  1  0.25000000  0.41664900  0.91625700  1
  O  O28  1  0.75000000  0.54022300  0.30463100  1
  O  O29  1  0.25000000  0.45977700  0.69536900  1
  O  O30  1  0.75000000  0.46594500  0.79988800  1
  O  O31  1  0.25000000  0.53405500  0.20011200  1
  O  O32  1  0.75000000  0.01529000  0.40923000  1
  O  O33  1  0.25000000  0.98471000  0.59077000  1
