# generated using pymatgen
data_Mo(NO2)2
_symmetry_space_group_name_H-M   'P 1'
_cell_length_a   6.17887316
_cell_length_b   9.19739600
_cell_length_c   7.66216993
_cell_angle_alpha   90.00000000
_cell_angle_beta   99.85767823
_cell_angle_gamma   90.00000000
_symmetry_Int_Tables_number   1
_chemical_formula_structural   Mo(NO2)2
_chemical_formula_sum   'Mo4 N8 O16'
_cell_volume   429.00884058
_cell_formula_units_Z   4
loop_
 _symmetry_equiv_pos_site_id
 _symmetry_equiv_pos_as_xyz
  1  'x, y, z'
loop_
 _atom_site_type_symbol
 _atom_site_label
 _atom_site_symmetry_multiplicity
 _atom_site_fract_x
 _atom_site_fract_y
 _atom_site_fract_z
 _atom_site_occupancy
  Mo  Mo0  1  0.19139900  0.63874500  0.40144300  1
  Mo  Mo1  1  0.80860100  0.36125500  0.59855700  1
  Mo  Mo2  1  0.30860100  0.13874500  0.09855700  1
  Mo  Mo3  1  0.69139900  0.86125500  0.90144300  1
  N  N4  1  0.62881500  0.38040300  0.19005200  1
  N  N5  1  0.37118500  0.61959700  0.80994800  1
  N  N6  1  0.87118500  0.88040300  0.30994800  1
  N  N7  1  0.12881500  0.11959700  0.69005200  1
  N  N8  1  0.85704500  0.80494400  0.17003300  1
  N  N9  1  0.14295500  0.19505600  0.82996700  1
  N  N10  1  0.64295500  0.30494400  0.32996700  1
  N  N11  1  0.35704500  0.69505600  0.67003300  1
  O  O12  1  0.97857200  0.68108700  0.17744500  1
  O  O13  1  0.02142800  0.31891300  0.82255500  1
  O  O14  1  0.52142800  0.18108700  0.32255500  1
  O  O15  1  0.47857200  0.81891300  0.67744500  1
  O  O16  1  0.15476300  0.45154800  0.40640900  1
  O  O17  1  0.84523700  0.54845200  0.59359100  1
  O  O18  1  0.34523700  0.95154800  0.09359100  1
  O  O19  1  0.65476300  0.04845200  0.90640900  1
  O  O20  1  0.42986000  0.66814000  0.32159400  1
  O  O21  1  0.57014000  0.33186000  0.67840600  1
  O  O22  1  0.07014000  0.16814000  0.17840600  1
  O  O23  1  0.92986000  0.83186000  0.82159400  1
  O  O24  1  0.01122800  0.82687500  0.44249900  1
  O  O25  1  0.98877200  0.17312500  0.55750100  1
  O  O26  1  0.48877200  0.32687500  0.05750100  1
  O  O27  1  0.51122800  0.67312500  0.94249900  1
