# generated using pymatgen
data_Lu2Mn17C3
_symmetry_space_group_name_H-M   'P 1'
_cell_length_a   8.46086473
_cell_length_b   8.46086473
_cell_length_c   8.30302700
_cell_angle_alpha   90.00000000
_cell_angle_beta   90.00000000
_cell_angle_gamma   120.00000568
_symmetry_Int_Tables_number   1
_chemical_formula_structural   Lu2Mn17C3
_chemical_formula_sum   'Lu4 Mn34 C6'
_cell_volume   514.75024269
_cell_formula_units_Z   2
loop_
 _symmetry_equiv_pos_site_id
 _symmetry_equiv_pos_as_xyz
  1  'x, y, z'
loop_
 _atom_site_type_symbol
 _atom_site_label
 _atom_site_symmetry_multiplicity
 _atom_site_fract_x
 _atom_site_fract_y
 _atom_site_fract_z
 _atom_site_occupancy
  Lu  Lu0  1  0.33333300  0.66666700  0.25000000  1
  Lu  Lu1  1  0.66666700  0.33333300  0.75000000  1
  Lu  Lu2  1  0.00000000  0.00000000  0.25000000  1
  Lu  Lu3  1  0.00000000  0.00000000  0.75000000  1
  Mn  Mn4  1  0.38729300  0.05893000  0.25000000  1
  Mn  Mn5  1  0.61270700  0.94107000  0.75000000  1
  Mn  Mn6  1  0.94107000  0.32836300  0.25000000  1
  Mn  Mn7  1  0.05893000  0.38729300  0.75000000  1
  Mn  Mn8  1  0.05893000  0.67163700  0.75000000  1
  Mn  Mn9  1  0.94107000  0.61270700  0.25000000  1
  Mn  Mn10  1  0.67163700  0.61270700  0.25000000  1
  Mn  Mn11  1  0.32836300  0.94107000  0.75000000  1
  Mn  Mn12  1  0.32836300  0.38729300  0.75000000  1
  Mn  Mn13  1  0.67163700  0.05893000  0.25000000  1
  Mn  Mn14  1  0.61270700  0.67163700  0.75000000  1
  Mn  Mn15  1  0.38729300  0.32836300  0.25000000  1
  Mn  Mn16  1  0.33333300  0.66666700  0.60761800  1
  Mn  Mn17  1  0.66666700  0.33333300  0.39238200  1
  Mn  Mn18  1  0.66666700  0.33333300  0.10761800  1
  Mn  Mn19  1  0.33333300  0.66666700  0.89238200  1
  Mn  Mn20  1  0.17081200  0.34162300  0.02463900  1
  Mn  Mn21  1  0.82918800  0.65837700  0.97536100  1
  Mn  Mn22  1  0.65837700  0.82918800  0.02463900  1
  Mn  Mn23  1  0.82918800  0.65837700  0.52463900  1
  Mn  Mn24  1  0.34162300  0.17081200  0.97536100  1
  Mn  Mn25  1  0.17081200  0.34162300  0.47536100  1
  Mn  Mn26  1  0.17081200  0.82918800  0.02463900  1
  Mn  Mn27  1  0.34162300  0.17081200  0.52463900  1
  Mn  Mn28  1  0.82918800  0.17081200  0.97536100  1
  Mn  Mn29  1  0.65837700  0.82918800  0.47536100  1
  Mn  Mn30  1  0.82918800  0.17081200  0.52463900  1
  Mn  Mn31  1  0.17081200  0.82918800  0.47536100  1
  Mn  Mn32  1  0.50000000  0.00000000  0.00000000  1
  Mn  Mn33  1  0.00000000  0.50000000  0.00000000  1
  Mn  Mn34  1  0.50000000  0.00000000  0.50000000  1
  Mn  Mn35  1  0.50000000  0.50000000  0.00000000  1
  Mn  Mn36  1  0.00000000  0.50000000  0.50000000  1
  Mn  Mn37  1  0.50000000  0.50000000  0.50000000  1
  C  C38  1  0.16389600  0.32779100  0.25000000  1
  C  C39  1  0.83610400  0.67220900  0.75000000  1
  C  C40  1  0.67220900  0.83610400  0.25000000  1
  C  C41  1  0.32779100  0.16389600  0.75000000  1
  C  C42  1  0.16389600  0.83610400  0.25000000  1
  C  C43  1  0.83610400  0.16389600  0.75000000  1
