data_image0
_chemical_formula_structural       B6CeCr2
_chemical_formula_sum              "B6 Ce1 Cr2"
_cell_length_a       3.11561
_cell_length_b       5.55441
_cell_length_c       5.55441
_cell_angle_alpha    97.6454
_cell_angle_beta     106.288
_cell_angle_gamma    106.288

_space_group_name_H-M_alt    "P 1"
_space_group_IT_number       1

loop_
  _space_group_symop_operation_xyz
  'x, y, z'

loop_
  _atom_site_type_symbol
  _atom_site_label
  _atom_site_symmetry_multiplicity
  _atom_site_fract_x
  _atom_site_fract_y
  _atom_site_fract_z
  _atom_site_occupancy
  B   B1        1.0  0.73400  0.43200  0.03580  1.0000
  B   B2        1.0  0.63700  0.13700  0.13700  1.0000
  B   B3        1.0  0.73400  0.03580  0.43200  1.0000
  B   B4        1.0  0.26600  0.96400  0.56800  1.0000
  B   B5        1.0  0.36300  0.86300  0.86300  1.0000
  B   B6        1.0  0.26600  0.56800  0.96400  1.0000
  Ce  Ce1       1.0  0.50000  0.50000  0.50000  1.0000
  Cr  Cr1       1.0  0.00000  0.84600  0.15400  1.0000
  Cr  Cr2       1.0  0.00000  0.15400  0.84600  1.0000
