# generated using pymatgen
data_La3(Al2Si3)2
_symmetry_space_group_name_H-M   'P 1'
_cell_length_a   4.20332145
_cell_length_b   4.20332145
_cell_length_c   18.48114200
_cell_angle_alpha   90.00000000
_cell_angle_beta   90.00000000
_cell_angle_gamma   119.99999138
_symmetry_Int_Tables_number   1
_chemical_formula_structural   La3(Al2Si3)2
_chemical_formula_sum   'La3 Al4 Si6'
_cell_volume   282.77739018
_cell_formula_units_Z   1
loop_
 _symmetry_equiv_pos_site_id
 _symmetry_equiv_pos_as_xyz
  1  'x, y, z'
loop_
 _atom_site_type_symbol
 _atom_site_label
 _atom_site_symmetry_multiplicity
 _atom_site_fract_x
 _atom_site_fract_y
 _atom_site_fract_z
 _atom_site_occupancy
  La  La0  1  0.00000000  0.00000000  0.11220000  1
  La  La1  1  0.00000000  0.00000000  0.88780000  1
  La  La2  1  0.00000000  0.00000000  0.50000000  1
  Al  Al3  1  0.33333300  0.66666700  0.74384400  1
  Al  Al4  1  0.66666700  0.33333300  0.25615600  1
  Al  Al5  1  0.33333300  0.66666700  0.35782900  1
  Al  Al6  1  0.66666700  0.33333300  0.64217100  1
  Si  Si7  1  0.33333300  0.66666700  0.60445700  1
  Si  Si8  1  0.66666700  0.33333300  0.39554300  1
  Si  Si9  1  0.33333300  0.66666700  0.99680200  1
  Si  Si10  1  0.66666700  0.33333300  0.00319800  1
  Si  Si11  1  0.33333300  0.66666700  0.22012600  1
  Si  Si12  1  0.66666700  0.33333300  0.77987400  1
