# generated using pymatgen
data_Na2PdW6S2(NO3)2
_symmetry_space_group_name_H-M   'P 1'
_cell_length_a   6.51981511
_cell_length_b   8.22298006
_cell_length_c   7.64244822
_cell_angle_alpha   66.40086274
_cell_angle_beta   88.67093177
_cell_angle_gamma   100.33916216
_symmetry_Int_Tables_number   1
_chemical_formula_structural   Na2PdW6S2(NO3)2
_chemical_formula_sum   'Na2 Pd1 W6 S2 N2 O6'
_cell_volume   367.30797822
_cell_formula_units_Z   1
loop_
 _symmetry_equiv_pos_site_id
 _symmetry_equiv_pos_as_xyz
  1  'x, y, z'
loop_
 _atom_site_type_symbol
 _atom_site_label
 _atom_site_symmetry_multiplicity
 _atom_site_fract_x
 _atom_site_fract_y
 _atom_site_fract_z
 _atom_site_occupancy
  Na  Na0  1  0.37555600  0.27945300  0.67068600  1
  Na  Na1  1  0.62444400  0.72054700  0.32931400  1
  Pd  Pd2  1  0.00000000  0.50000000  0.00000000  1
  W  W3  1  0.85980400  0.19409800  0.50209900  1
  W  W4  1  0.14019600  0.80590200  0.49790100  1
  W  W5  1  0.99221500  0.88816900  0.86433100  1
  W  W6  1  0.00778500  0.11183100  0.13566900  1
  W  W7  1  0.53518200  0.10046600  0.31117900  1
  W  W8  1  0.46481800  0.89953400  0.68882100  1
  S  S9  1  0.25201300  0.44985200  0.20518500  1
  S  S10  1  0.74798700  0.55014800  0.79481500  1
  N  N11  1  0.70195800  0.03947900  0.15532300  1
  N  N12  1  0.29804200  0.96052100  0.84467700  1
  O  O13  1  0.29099600  0.25702800  0.20921100  1
  O  O14  1  0.70900400  0.74297200  0.79078900  1
  O  O15  1  0.45966300  0.56830600  0.17083100  1
  O  O16  1  0.54033700  0.43169400  0.82916900  1
  O  O17  1  0.16924300  0.39558800  0.41664500  1
  O  O18  1  0.83075700  0.60441200  0.58335500  1
