# generated using pymatgen
data_Na3Be3B3P6O25
_symmetry_space_group_name_H-M   'P 1'
_cell_length_a   12.56505257
_cell_length_b   12.56505257
_cell_length_c   12.56505257
_cell_angle_alpha   90.00000000
_cell_angle_beta   90.00000000
_cell_angle_gamma   90.00000000
_symmetry_Int_Tables_number   1
_chemical_formula_structural   Na3Be3B3P6O25
_chemical_formula_sum   'Na12 Be12 B12 P24 O100'
_cell_volume   1983.77736136
_cell_formula_units_Z   4
loop_
 _symmetry_equiv_pos_site_id
 _symmetry_equiv_pos_as_xyz
  1  'x, y, z'
loop_
 _atom_site_type_symbol
 _atom_site_label
 _atom_site_symmetry_multiplicity
 _atom_site_fract_x
 _atom_site_fract_y
 _atom_site_fract_z
 _atom_site_occupancy
  Na  Na0  1  0.37527183  0.37527183  0.37527183  1
  Na  Na1  1  0.12472817  0.62472817  0.87527183  1
  Na  Na2  1  0.62472817  0.87527183  0.12472817  1
  Na  Na3  1  0.87527183  0.12472817  0.62472817  1
  Na  Na4  1  0.65936846  0.65936846  0.65936846  1
  Na  Na5  1  0.84063154  0.34063154  0.15936846  1
  Na  Na6  1  0.34063154  0.15936846  0.84063154  1
  Na  Na7  1  0.15936846  0.84063154  0.34063154  1
  Na  Na8  1  0.09141566  0.09141566  0.09141566  1
  Na  Na9  1  0.40858434  0.90858434  0.59141566  1
  Na  Na10  1  0.90858434  0.59141566  0.40858434  1
  Na  Na11  1  0.59141566  0.40858434  0.90858434  1
  Be  Be12  1  0.18513814  0.56504624  0.37447787  1
  Be  Be13  1  0.31486186  0.43495376  0.87447787  1
  Be  Be14  1  0.81486186  0.06504624  0.12552213  1
  Be  Be15  1  0.37447787  0.18513814  0.56504624  1
  Be  Be16  1  0.68513814  0.93495376  0.62552213  1
  Be  Be17  1  0.87447787  0.31486186  0.43495376  1
  Be  Be18  1  0.12552213  0.81486186  0.06504624  1
  Be  Be19  1  0.62552213  0.68513814  0.93495376  1
  Be  Be20  1  0.56504624  0.37447787  0.18513814  1
  Be  Be21  1  0.06504624  0.12552213  0.81486186  1
  Be  Be22  1  0.93495376  0.62552213  0.68513814  1
  Be  Be23  1  0.43495376  0.87447787  0.31486186  1
  B  B24  1  0.12494276  0.13661407  0.38620868  1
  B  B25  1  0.37505724  0.86338593  0.88620868  1
  B  B26  1  0.87505724  0.63661407  0.11379132  1
  B  B27  1  0.38620868  0.12494276  0.13661407  1
  B  B28  1  0.62494276  0.36338593  0.61379132  1
  B  B29  1  0.88620868  0.37505724  0.86338593  1
  B  B30  1  0.11379132  0.87505724  0.63661407  1
  B  B31  1  0.61379132  0.62494276  0.36338593  1
  B  B32  1  0.13661407  0.38620868  0.12494276  1
  B  B33  1  0.63661407  0.11379132  0.87505724  1
  B  B34  1  0.36338593  0.61379132  0.62494276  1
  B  B35  1  0.86338593  0.88620868  0.37505724  1
  P  P36  1  0.08897250  0.35544002  0.33796034  1
  P  P37  1  0.41102750  0.64455998  0.83796034  1
  P  P38  1  0.91102750  0.85544002  0.16203966  1
  P  P39  1  0.33796034  0.08897250  0.35544002  1
  P  P40  1  0.58897250  0.14455998  0.66203966  1
  P  P41  1  0.83796034  0.41102750  0.64455998  1
  P  P42  1  0.16203966  0.91102750  0.85544002  1
  P  P43  1  0.66203966  0.58897250  0.14455998  1
  P  P44  1  0.35544002  0.33796034  0.08897250  1
  P  P45  1  0.85544002  0.16203966  0.91102750  1
  P  P46  1  0.14455998  0.66203966  0.58897250  1
  P  P47  1  0.64455998  0.83796034  0.41102750  1
  P  P48  1  0.08820551  0.60545197  0.16047864  1
  P  P49  1  0.41179449  0.39454803  0.66047864  1
  P  P50  1  0.91179449  0.10545197  0.33952136  1
  P  P51  1  0.16047864  0.08820551  0.60545197  1
  P  P52  1  0.58820551  0.89454803  0.83952136  1
  P  P53  1  0.66047864  0.41179449  0.39454803  1
  P  P54  1  0.33952136  0.91179449  0.10545197  1
  P  P55  1  0.83952136  0.58820551  0.89454803  1
  P  P56  1  0.60545197  0.16047864  0.08820551  1
  P  P57  1  0.10545197  0.33952136  0.91179449  1
  P  P58  1  0.89454803  0.83952136  0.58820551  1
  P  P59  1  0.39454803  0.66047864  0.41179449  1
  O  O60  1  0.07751893  0.11542905  0.68881656  1
  O  O61  1  0.42248107  0.88457095  0.18881656  1
  O  O62  1  0.92248107  0.61542905  0.81118344  1
  O  O63  1  0.68881656  0.07751893  0.11542905  1
  O  O64  1  0.57751893  0.38457095  0.31118344  1
  O  O65  1  0.18881656  0.42248107  0.88457095  1
  O  O66  1  0.81118344  0.92248107  0.61542905  1
  O  O67  1  0.31118344  0.57751893  0.38457095  1
  O  O68  1  0.11542905  0.68881656  0.07751893  1
  O  O69  1  0.61542905  0.81118344  0.92248107  1
  O  O70  1  0.38457095  0.31118344  0.57751893  1
  O  O71  1  0.88457095  0.18881656  0.42248107  1
  O  O72  1  0.13670814  0.62713878  0.26994505  1
  O  O73  1  0.36329186  0.37286122  0.76994505  1
  O  O74  1  0.86329186  0.12713878  0.23005495  1
  O  O75  1  0.26994505  0.13670814  0.62713878  1
  O  O76  1  0.63670814  0.87286122  0.73005495  1
  O  O77  1  0.76994505  0.36329186  0.37286122  1
  O  O78  1  0.23005495  0.86329186  0.12713878  1
  O  O79  1  0.73005495  0.63670814  0.87286122  1
  O  O80  1  0.62713878  0.26994505  0.13670814  1
  O  O81  1  0.12713878  0.23005495  0.86329186  1
  O  O82  1  0.87286122  0.73005495  0.63670814  1
  O  O83  1  0.37286122  0.76994505  0.36329186  1
  O  O84  1  0.17124240  0.43923964  0.36511123  1
  O  O85  1  0.32875760  0.56076036  0.86511123  1
  O  O86  1  0.82875760  0.93923964  0.13488877  1
  O  O87  1  0.36511123  0.17124240  0.43923964  1
  O  O88  1  0.67124240  0.06076036  0.63488877  1
  O  O89  1  0.86511123  0.32875760  0.56076036  1
  O  O90  1  0.13488877  0.82875760  0.93923964  1
  O  O91  1  0.63488877  0.67124240  0.06076036  1
  O  O92  1  0.43923964  0.36511123  0.17124240  1
  O  O93  1  0.93923964  0.13488877  0.82875760  1
  O  O94  1  0.06076036  0.63488877  0.67124240  1
  O  O95  1  0.56076036  0.86511123  0.32875760  1
  O  O96  1  0.03579274  0.10058966  0.31839186  1
  O  O97  1  0.46420726  0.89941034  0.81839186  1
  O  O98  1  0.96420726  0.60058966  0.18160814  1
  O  O99  1  0.31839186  0.03579274  0.10058966  1
  O  O100  1  0.53579274  0.39941034  0.68160814  1
  O  O101  1  0.81839186  0.46420726  0.89941034  1
  O  O102  1  0.18160814  0.96420726  0.60058966  1
  O  O103  1  0.68160814  0.53579274  0.39941034  1
  O  O104  1  0.10058966  0.31839186  0.03579274  1
  O  O105  1  0.60058966  0.18160814  0.96420726  1
  O  O106  1  0.39941034  0.68160814  0.53579274  1
  O  O107  1  0.89941034  0.81839186  0.46420726  1
  O  O108  1  0.14492626  0.25019847  0.37129231  1
  O  O109  1  0.35507374  0.74980153  0.87129231  1
  O  O110  1  0.85507374  0.75019847  0.12870769  1
  O  O111  1  0.37129231  0.14492626  0.25019847  1
  O  O112  1  0.64492626  0.24980153  0.62870769  1
  O  O113  1  0.87129231  0.35507374  0.74980153  1
  O  O114  1  0.12870769  0.85507374  0.75019847  1
  O  O115  1  0.62870769  0.64492626  0.24980153  1
  O  O116  1  0.25019847  0.37129231  0.14492626  1
  O  O117  1  0.75019847  0.12870769  0.85507374  1
  O  O118  1  0.24980153  0.62870769  0.64492626  1
  O  O119  1  0.74980153  0.87129231  0.35507374  1
  O  O120  1  0.87397636  0.87397636  0.87397636  1
  O  O121  1  0.62602364  0.12602364  0.37397636  1
  O  O122  1  0.12602364  0.37397636  0.62602364  1
  O  O123  1  0.37397636  0.62602364  0.12602364  1
  O  O124  1  0.12332640  0.61495265  0.47891092  1
  O  O125  1  0.37667360  0.38504735  0.97891092  1
  O  O126  1  0.87667360  0.11495265  0.02108908  1
  O  O127  1  0.47891092  0.12332640  0.61495265  1
  O  O128  1  0.62332640  0.88504735  0.52108908  1
  O  O129  1  0.97891092  0.37667360  0.38504735  1
  O  O130  1  0.02108908  0.87667360  0.11495265  1
  O  O131  1  0.52108908  0.62332640  0.88504735  1
  O  O132  1  0.61495265  0.47891092  0.12332640  1
  O  O133  1  0.11495265  0.02108908  0.87667360  1
  O  O134  1  0.88504735  0.52108908  0.62332640  1
  O  O135  1  0.38504735  0.97891092  0.37667360  1
  O  O136  1  0.06916858  0.34899470  0.21377508  1
  O  O137  1  0.43083142  0.65100530  0.71377508  1
  O  O138  1  0.93083142  0.84899470  0.28622492  1
  O  O139  1  0.21377508  0.06916858  0.34899470  1
  O  O140  1  0.56916858  0.15100530  0.78622492  1
  O  O141  1  0.71377508  0.43083142  0.65100530  1
  O  O142  1  0.28622492  0.93083142  0.84899470  1
  O  O143  1  0.78622492  0.56916858  0.15100530  1
  O  O144  1  0.34899470  0.21377508  0.06916858  1
  O  O145  1  0.84899470  0.28622492  0.93083142  1
  O  O146  1  0.15100530  0.78622492  0.56916858  1
  O  O147  1  0.65100530  0.71377508  0.43083142  1
  O  O148  1  0.10511030  0.12002700  0.49967810  1
  O  O149  1  0.39488970  0.87997300  0.99967810  1
  O  O150  1  0.89488970  0.62002700  0.00032190  1
  O  O151  1  0.49967810  0.10511030  0.12002700  1
  O  O152  1  0.60511030  0.37997300  0.50032190  1
  O  O153  1  0.99967810  0.39488970  0.87997300  1
  O  O154  1  0.00032190  0.89488970  0.62002700  1
  O  O155  1  0.50032190  0.60511030  0.37997300  1
  O  O156  1  0.12002700  0.49967810  0.10511030  1
  O  O157  1  0.62002700  0.00032190  0.89488970  1
  O  O158  1  0.37997300  0.50032190  0.60511030  1
  O  O159  1  0.87997300  0.99967810  0.39488970  1
