# generated using pymatgen
data_KHg5Cl11
_symmetry_space_group_name_H-M   'P 1'
_cell_length_a   9.65537780
_cell_length_b   9.65537780
_cell_length_c   6.65513239
_cell_angle_alpha   71.80390736
_cell_angle_beta   71.80390736
_cell_angle_gamma   100.26595713
_symmetry_Int_Tables_number   1
_chemical_formula_structural   KHg5Cl11
_chemical_formula_sum   'K1 Hg5 Cl11'
_cell_volume   533.16009528
_cell_formula_units_Z   1
loop_
 _symmetry_equiv_pos_site_id
 _symmetry_equiv_pos_as_xyz
  1  'x, y, z'
loop_
 _atom_site_type_symbol
 _atom_site_label
 _atom_site_symmetry_multiplicity
 _atom_site_fract_x
 _atom_site_fract_y
 _atom_site_fract_z
 _atom_site_occupancy
  K  K0  1  0.00000000  0.00000000  0.00000000  1
  Hg  Hg1  1  0.35285700  0.01558700  0.31324800  1
  Hg  Hg2  1  0.64714300  0.98441300  0.68675200  1
  Hg  Hg3  1  0.98441300  0.64714300  0.68675200  1
  Hg  Hg4  1  0.01558700  0.35285700  0.31324800  1
  Hg  Hg5  1  0.50000000  0.50000000  0.00000000  1
  Cl  Cl6  1  0.64933000  0.64933000  0.61001900  1
  Cl  Cl7  1  0.35067000  0.35067000  0.38998100  1
  Cl  Cl8  1  0.70238000  0.13971200  0.30468400  1
  Cl  Cl9  1  0.29762000  0.86028800  0.69531600  1
  Cl  Cl10  1  0.86028800  0.29762000  0.69531600  1
  Cl  Cl11  1  0.13971200  0.70238000  0.30468400  1
  Cl  Cl12  1  0.00000000  0.00000000  0.50000000  1
  Cl  Cl13  1  0.58261200  0.83194400  0.07101300  1
  Cl  Cl14  1  0.41738800  0.16805600  0.92898700  1
  Cl  Cl15  1  0.16805600  0.41738800  0.92898700  1
  Cl  Cl16  1  0.83194400  0.58261200  0.07101300  1
