# generated using pymatgen
data_LaMn4(CuO4)3
_symmetry_space_group_name_H-M   'P 1'
_cell_length_a   6.47541221
_cell_length_b   6.47545031
_cell_length_c   10.57930042
_cell_angle_alpha   89.98727763
_cell_angle_beta   90.01260987
_cell_angle_gamma   109.53758186
_symmetry_Int_Tables_number   1
_chemical_formula_structural   LaMn4(CuO4)3
_chemical_formula_sum   'La2 Mn8 Cu6 O24'
_cell_volume   418.06123565
_cell_formula_units_Z   2
loop_
 _symmetry_equiv_pos_site_id
 _symmetry_equiv_pos_as_xyz
  1  'x, y, z'
loop_
 _atom_site_type_symbol
 _atom_site_label
 _atom_site_symmetry_multiplicity
 _atom_site_fract_x
 _atom_site_fract_y
 _atom_site_fract_z
 _atom_site_occupancy
  La  La0  1  0.00001600  0.00001000  0.00000800  1
  La  La1  1  0.49998700  0.50000000  0.49999000  1
  Mn  Mn2  1  0.25000200  0.24997300  0.24998800  1
  Mn  Mn3  1  0.74999900  0.75002600  0.75001200  1
  Mn  Mn4  1  0.50000000  0.00000400  0.99999400  1
  Mn  Mn5  1  0.00000000  0.49999500  0.50000300  1
  Mn  Mn6  1  0.99999800  0.50000100  0.99999700  1
  Mn  Mn7  1  0.50000200  0.99999800  0.50000400  1
  Mn  Mn8  1  0.75002700  0.75000000  0.24998700  1
  Mn  Mn9  1  0.24997700  0.25000200  0.75001000  1
  Cu  Cu10  1  0.00000100  0.99999600  0.50000400  1
  Cu  Cu11  1  0.74999800  0.25000400  0.25000700  1
  Cu  Cu12  1  0.25000300  0.74999400  0.74999400  1
  Cu  Cu13  1  0.49999400  0.50000500  0.99999600  1
  Cu  Cu14  1  0.24999400  0.75000600  0.25000100  1
  Cu  Cu15  1  0.75000400  0.24999400  0.75000100  1
  O  O16  1  0.56853000  0.43146800  0.26024700  1
  O  O17  1  0.06853400  0.93146500  0.76024700  1
  O  O18  1  0.93146900  0.06852700  0.23975100  1
  O  O19  1  0.43146600  0.56853300  0.73975100  1
  O  O20  1  0.73971400  0.26028300  0.43151200  1
  O  O21  1  0.23970900  0.76028900  0.93151300  1
  O  O22  1  0.76028600  0.23971100  0.06848000  1
  O  O23  1  0.26028600  0.73971700  0.56849600  1
  O  O24  1  0.27773400  0.10611500  0.41428200  1
  O  O25  1  0.77771500  0.60612400  0.91427000  1
  O  O26  1  0.22229200  0.39387600  0.08573600  1
  O  O27  1  0.72226000  0.89388600  0.58571400  1
  O  O28  1  0.60613000  0.77771200  0.08573500  1
  O  O29  1  0.10611300  0.27774000  0.58571200  1
  O  O30  1  0.89388200  0.72226600  0.41428200  1
  O  O31  1  0.39387900  0.22228300  0.91426900  1
  O  O32  1  0.17452700  0.48294800  0.34582700  1
  O  O33  1  0.67454000  0.98291000  0.84581900  1
  O  O34  1  0.32545300  0.01708300  0.15419400  1
  O  O35  1  0.82547700  0.51705500  0.65416200  1
  O  O36  1  0.98291600  0.67454300  0.15419400  1
  O  O37  1  0.48294500  0.17452300  0.65415800  1
  O  O38  1  0.51705100  0.82546800  0.34583100  1
  O  O39  1  0.01708700  0.32546600  0.84581900  1
