# generated using pymatgen
data_Na2Ti2Si2H2O9
_symmetry_space_group_name_H-M   'P 1'
_cell_length_a   8.95787388
_cell_length_b   8.86545242
_cell_length_c   12.32544775
_cell_angle_alpha   98.16214444
_cell_angle_beta   90.77968678
_cell_angle_gamma   105.08266605
_symmetry_Int_Tables_number   1
_chemical_formula_structural   Na2Ti2Si2H2O9
_chemical_formula_sum   'Na8 Ti8 Si8 H8 O36'
_cell_volume   934.23023295
_cell_formula_units_Z   4
loop_
 _symmetry_equiv_pos_site_id
 _symmetry_equiv_pos_as_xyz
  1  'x, y, z'
loop_
 _atom_site_type_symbol
 _atom_site_label
 _atom_site_symmetry_multiplicity
 _atom_site_fract_x
 _atom_site_fract_y
 _atom_site_fract_z
 _atom_site_occupancy
  Na  Na0  1  0.73223000  0.51901100  0.99939800  1
  Na  Na1  1  0.74082200  0.87870500  0.58902300  1
  Na  Na2  1  0.79717300  0.37245000  0.28451100  1
  Na  Na3  1  0.23979000  0.00784000  0.00313300  1
  Na  Na4  1  0.17148900  0.52008100  0.30975500  1
  Na  Na5  1  0.24362900  0.37683900  0.59554200  1
  Na  Na6  1  0.67411500  0.01496900  0.31036800  1
  Na  Na7  1  0.29652200  0.87468700  0.28968300  1
  Ti  Ti8  1  0.97772400  0.62585100  0.53727900  1
  Ti  Ti9  1  0.49491800  0.77022800  0.05992300  1
  Ti  Ti10  1  0.99804400  0.27041200  0.05979000  1
  Ti  Ti11  1  0.07341700  0.14497100  0.30298600  1
  Ti  Ti12  1  0.56998100  0.64017100  0.30170400  1
  Ti  Ti13  1  0.48808300  0.11522100  0.53830000  1
  Ti  Ti14  1  0.40598700  0.24544400  0.29530700  1
  Ti  Ti15  1  0.90257000  0.74779200  0.29285400  1
  Si  Si16  1  0.88769100  0.89064100  0.06560900  1
  Si  Si17  1  0.59426800  0.16394100  0.07556400  1
  Si  Si18  1  0.38324000  0.72273700  0.52098600  1
  Si  Si19  1  0.88990600  0.22914900  0.52061000  1
  Si  Si20  1  0.38947700  0.38911900  0.06556400  1
  Si  Si21  1  0.58717900  0.49580600  0.53128600  1
  Si  Si22  1  0.09308000  0.66473400  0.07370600  1
  Si  Si23  1  0.09295800  0.00071800  0.53000200  1
  H  H24  1  0.23842500  0.94045100  0.77261100  1
  H  H25  1  0.51778200  0.13655500  0.74268200  1
  H  H26  1  0.75591700  0.41626600  0.77726800  1
  H  H27  1  0.61189400  0.84054400  0.83130700  1
  H  H28  1  0.01622700  0.65443100  0.74614300  1
  H  H29  1  0.98000500  0.21011400  0.84234500  1
  H  H30  1  0.29043400  0.48875400  0.82595600  1
  H  H31  1  0.53606100  0.80600100  0.79849900  1
  O  O32  1  0.46962500  0.60538200  0.57615000  1
  O  O33  1  0.49598200  0.26927000  0.01822900  1
  O  O34  1  0.51679600  0.77970600  0.20589900  1
  O  O35  1  0.39925600  0.69046900  0.38661900  1
  O  O36  1  0.00787300  0.14112300  0.57580200  1
  O  O37  1  0.21274400  0.29536900  0.02631200  1
  O  O38  1  0.20202900  0.66591600  0.54604000  1
  O  O39  1  0.01405000  0.48024900  0.02478800  1
  O  O40  1  0.96426000  0.41526600  0.56665000  1
  O  O41  1  0.41351600  0.42718300  0.20317200  1
  O  O42  1  0.24611000  0.09913600  0.21555200  1
  O  O43  1  0.06795800  0.96112700  0.39274400  1
  O  O44  1  0.51267400  0.98105500  0.02538500  1
  O  O45  1  0.00060100  0.84774300  0.58360900  1
  O  O46  1  0.91116400  0.92969900  0.20313900  1
  O  O47  1  0.46159700  0.10834900  0.39209400  1
  O  O48  1  0.02552500  0.28448300  0.20651600  1
  O  O49  1  0.27355900  0.07489100  0.57012900  1
  O  O50  1  0.48034800  0.90276900  0.56864200  1
  O  O51  1  0.27134400  0.74230600  0.04739300  1
  O  O52  1  0.96483600  0.04877900  0.01232100  1
  O  O53  1  0.71011500  0.79852900  0.02698900  1
  O  O54  1  0.98972100  0.76642100  0.01751400  1
  O  O55  1  0.51788300  0.33544000  0.58486400  1
  O  O56  1  0.76154600  0.59580800  0.57216600  1
  O  O57  1  0.23225500  0.28945200  0.38450700  1
  O  O58  1  0.95221600  0.61066700  0.39035200  1
  O  O59  1  0.46331800  0.54854300  0.01224600  1
  O  O60  1  0.07484000  0.69472200  0.20794600  1
  O  O61  1  0.57290200  0.19014400  0.20946300  1
  O  O62  1  0.56689100  0.45808500  0.39343900  1
  O  O63  1  0.71419800  0.14560000  0.54912200  1
  O  O64  1  0.74429600  0.59984600  0.21290900  1
  O  O65  1  0.77488500  0.24056500  0.05594400  1
  O  O66  1  0.90055500  0.19571100  0.38586700  1
  O  O67  1  0.72849000  0.78956200  0.38079400  1
