# generated using pymatgen
data_LaCrSe2O
_symmetry_space_group_name_H-M   'P 1'
_cell_length_a   3.89832600
_cell_length_b   8.78312000
_cell_length_c   11.70561000
_cell_angle_alpha   90.00068837
_cell_angle_beta   89.99871699
_cell_angle_gamma   90.00050427
_symmetry_Int_Tables_number   1
_chemical_formula_structural   LaCrSe2O
_chemical_formula_sum   'La4 Cr4 Se8 O4'
_cell_volume   400.79382449
_cell_formula_units_Z   4
loop_
 _symmetry_equiv_pos_site_id
 _symmetry_equiv_pos_as_xyz
  1  'x, y, z'
loop_
 _atom_site_type_symbol
 _atom_site_label
 _atom_site_symmetry_multiplicity
 _atom_site_fract_x
 _atom_site_fract_y
 _atom_site_fract_z
 _atom_site_occupancy
  La  La0  1  0.74999800  0.95386000  0.86173200  1
  La  La1  1  0.24998200  0.04612500  0.13827500  1
  La  La2  1  0.25000400  0.54612700  0.36170000  1
  La  La3  1  0.74999800  0.45387400  0.63829200  1
  Cr  Cr4  1  0.25001100  0.67525600  0.02640400  1
  Cr  Cr5  1  0.75003700  0.32476500  0.97359600  1
  Cr  Cr6  1  0.75001400  0.82470800  0.52641500  1
  Cr  Cr7  1  0.24999700  0.17526700  0.47358500  1
  Se  Se8  1  0.74999700  0.74639800  0.17102800  1
  Se  Se9  1  0.24999600  0.25360900  0.82898100  1
  Se  Se10  1  0.24999900  0.75360000  0.67103100  1
  Se  Se11  1  0.75000300  0.24639400  0.32896800  1
  Se  Se12  1  0.75000800  0.59582500  0.89345600  1
  Se  Se13  1  0.25001100  0.40416900  0.10654200  1
  Se  Se14  1  0.24999900  0.90417800  0.39346300  1
  Se  Se15  1  0.75000400  0.09583300  0.60654000  1
  O  O16  1  0.74998900  0.60950500  0.46435200  1
  O  O17  1  0.25000500  0.39049700  0.53564300  1
  O  O18  1  0.24997600  0.89050900  0.96434200  1
  O  O19  1  0.74996900  0.10950100  0.03565600  1
