# generated using pymatgen
data_La2TiCoO6
_symmetry_space_group_name_H-M   'P 1'
_cell_length_a   5.69624407
_cell_length_b   9.69693026
_cell_length_c   9.69649407
_cell_angle_alpha   70.25497700
_cell_angle_beta   90.03745550
_cell_angle_gamma   89.96435495
_symmetry_Int_Tables_number   1
_chemical_formula_structural   La2TiCoO6
_chemical_formula_sum   'La8 Ti4 Co4 O24'
_cell_volume   504.10583542
_cell_formula_units_Z   4
loop_
 _symmetry_equiv_pos_site_id
 _symmetry_equiv_pos_as_xyz
  1  'x, y, z'
loop_
 _atom_site_type_symbol
 _atom_site_label
 _atom_site_symmetry_multiplicity
 _atom_site_fract_x
 _atom_site_fract_y
 _atom_site_fract_z
 _atom_site_occupancy
  La  La0  1  0.45357400  0.12078700  0.13001800  1
  La  La1  1  0.45263400  0.61982000  0.63183600  1
  La  La2  1  0.54703800  0.87999300  0.86825200  1
  La  La3  1  0.54603500  0.37903200  0.37015500  1
  La  La4  1  0.95416700  0.87910700  0.37013700  1
  La  La5  1  0.95333300  0.38023500  0.86914200  1
  La  La6  1  0.04718100  0.11999000  0.63064200  1
  La  La7  1  0.04621500  0.62105500  0.12972600  1
  Ti  Ti8  1  0.99974800  0.00038300  0.00021300  1
  Ti  Ti9  1  0.99995600  0.49995500  0.49969000  1
  Ti  Ti10  1  0.50005700  0.99966400  0.49957300  1
  Ti  Ti11  1  0.50012800  0.49985100  0.00069600  1
  Co  Co12  1  0.99999200  0.75000700  0.75002700  1
  Co  Co13  1  0.49993900  0.75000500  0.24994600  1
  Co  Co14  1  0.99997500  0.25002500  0.25003800  1
  Co  Co15  1  0.49996700  0.24999600  0.74997800  1
  O  O16  1  0.71662000  0.92519900  0.12249100  1
  O  O17  1  0.71748500  0.42494000  0.62312900  1
  O  O18  1  0.28242900  0.07510000  0.87688300  1
  O  O19  1  0.28329500  0.57487000  0.37753500  1
  O  O20  1  0.21752900  0.07521400  0.37664700  1
  O  O21  1  0.21739100  0.57528100  0.87700100  1
  O  O22  1  0.78267000  0.92472800  0.62303600  1
  O  O23  1  0.78255000  0.42480400  0.12341800  1
  O  O24  1  0.02478100  0.66359400  0.57800200  1
  O  O25  1  0.02465000  0.16456400  0.07719500  1
  O  O26  1  0.97534000  0.33558800  0.42276700  1
  O  O27  1  0.97521200  0.83651800  0.92198600  1
  O  O28  1  0.52487900  0.83555000  0.42272400  1
  O  O29  1  0.52486100  0.33662800  0.92251600  1
  O  O30  1  0.47512500  0.16318000  0.57752500  1
  O  O31  1  0.47505300  0.66428600  0.07729400  1
  O  O32  1  0.19877800  0.88032000  0.16388300  1
  O  O33  1  0.20064500  0.38043300  0.66346300  1
  O  O34  1  0.79932000  0.11976300  0.83640800  1
  O  O35  1  0.80116000  0.61992800  0.33599400  1
  O  O36  1  0.70004300  0.11927800  0.33654100  1
  O  O37  1  0.70038400  0.61956700  0.83691000  1
  O  O38  1  0.29974500  0.88023700  0.66307000  1
  O  O39  1  0.30011700  0.38052700  0.16351400  1
