# generated using pymatgen
data_Sr3RhF12
_symmetry_space_group_name_H-M   'P 1'
_cell_length_a   7.26624294
_cell_length_b   8.12146096
_cell_length_c   8.28050445
_cell_angle_alpha   119.36664730
_cell_angle_beta   113.58251217
_cell_angle_gamma   35.33267836
_symmetry_Int_Tables_number   1
_chemical_formula_structural   Sr3RhF12
_chemical_formula_sum   'Sr3 Rh1 F12'
_cell_volume   246.28527536
_cell_formula_units_Z   1
loop_
 _symmetry_equiv_pos_site_id
 _symmetry_equiv_pos_as_xyz
  1  'x, y, z'
loop_
 _atom_site_type_symbol
 _atom_site_label
 _atom_site_symmetry_multiplicity
 _atom_site_fract_x
 _atom_site_fract_y
 _atom_site_fract_z
 _atom_site_occupancy
  Sr  Sr0  1  0.50000000  0.00000000  0.00000000  1
  Sr  Sr1  1  0.00000000  0.50000000  0.50000000  1
  Sr  Sr2  1  0.00000000  0.00000000  0.50000000  1
  Rh  Rh3  1  0.00000000  0.00000000  0.00000000  1
  F  F4  1  0.03810500  0.13680900  0.83865200  1
  F  F5  1  0.96189500  0.86319100  0.16134800  1
  F  F6  1  0.68552800  0.94424100  0.40588600  1
  F  F7  1  0.96189500  0.70184300  0.83865200  1
  F  F8  1  0.31447200  0.05575900  0.59411400  1
  F  F9  1  0.03810500  0.29815700  0.16134800  1
  F  F10  1  0.33778900  0.65948900  0.82342700  1
  F  F11  1  0.31447200  0.46164500  0.40588600  1
  F  F12  1  0.66221100  0.34051100  0.17657300  1
  F  F13  1  0.68552800  0.53835500  0.59411400  1
  F  F14  1  0.66221100  0.16393800  0.82342700  1
  F  F15  1  0.33778900  0.83606200  0.17657300  1
