# generated using pymatgen
data_KPr(MoO4)2
_symmetry_space_group_name_H-M   'P 1'
_cell_length_a   7.67351581
_cell_length_b   7.67351581
_cell_length_c   7.97439121
_cell_angle_alpha   61.60427051
_cell_angle_beta   61.60427051
_cell_angle_gamma   88.51751084
_symmetry_Int_Tables_number   1
_chemical_formula_structural   KPr(MoO4)2
_chemical_formula_sum   'K2 Pr2 Mo4 O16'
_cell_volume   350.98104076
_cell_formula_units_Z   2
loop_
 _symmetry_equiv_pos_site_id
 _symmetry_equiv_pos_as_xyz
  1  'x, y, z'
loop_
 _atom_site_type_symbol
 _atom_site_label
 _atom_site_symmetry_multiplicity
 _atom_site_fract_x
 _atom_site_fract_y
 _atom_site_fract_z
 _atom_site_occupancy
  K  K0  1  0.20041100  0.79958900  0.75000000  1
  K  K1  1  0.79958900  0.20041100  0.25000000  1
  Pr  Pr2  1  0.77031400  0.22968500  0.75000000  1
  Pr  Pr3  1  0.22968500  0.77031500  0.25000000  1
  Mo  Mo4  1  0.69189300  0.69632800  0.76054400  1
  Mo  Mo5  1  0.30810700  0.30367200  0.23945600  1
  Mo  Mo6  1  0.30367200  0.30810700  0.73945600  1
  Mo  Mo7  1  0.69632800  0.69189300  0.26054400  1
  O  O8  1  0.61442300  0.76650200  0.56395000  1
  O  O9  1  0.38557700  0.23349800  0.43605000  1
  O  O10  1  0.23349800  0.38557700  0.93605000  1
  O  O11  1  0.76650200  0.61442300  0.06395000  1
  O  O12  1  0.38510300  0.07452000  0.86762300  1
  O  O13  1  0.61489700  0.92548000  0.13237700  1
  O  O14  1  0.92548000  0.61489700  0.63237700  1
  O  O15  1  0.07452000  0.38510300  0.36762300  1
  O  O16  1  0.58118000  0.36935400  0.97581000  1
  O  O17  1  0.41882000  0.63064600  0.02419000  1
  O  O18  1  0.63064600  0.41882000  0.52419000  1
  O  O19  1  0.36935400  0.58118000  0.47581000  1
  O  O20  1  0.79395400  0.94572900  0.69033900  1
  O  O21  1  0.20604600  0.05427100  0.30966100  1
  O  O22  1  0.05427100  0.20604600  0.80966100  1
  O  O23  1  0.94572900  0.79395400  0.19033900  1
