# generated using pymatgen
data_KLaF4
_symmetry_space_group_name_H-M   'P 1'
_cell_length_a   3.86970600
_cell_length_b   6.38445000
_cell_length_c   15.92095300
_cell_angle_alpha   90.00000000
_cell_angle_beta   90.00000000
_cell_angle_gamma   90.00000000
_symmetry_Int_Tables_number   1
_chemical_formula_structural   KLaF4
_chemical_formula_sum   'K4 La4 F16'
_cell_volume   393.34218075
_cell_formula_units_Z   4
loop_
 _symmetry_equiv_pos_site_id
 _symmetry_equiv_pos_as_xyz
  1  'x, y, z'
loop_
 _atom_site_type_symbol
 _atom_site_label
 _atom_site_symmetry_multiplicity
 _atom_site_fract_x
 _atom_site_fract_y
 _atom_site_fract_z
 _atom_site_occupancy
  K  K0  1  0.25000000  0.72272500  0.70187000  1
  K  K1  1  0.75000000  0.27727500  0.29813000  1
  K  K2  1  0.75000000  0.77727500  0.20187000  1
  K  K3  1  0.25000000  0.22272500  0.79813000  1
  La  La4  1  0.25000000  0.25126000  0.06228800  1
  La  La5  1  0.75000000  0.74874000  0.93771200  1
  La  La6  1  0.75000000  0.24874000  0.56228800  1
  La  La7  1  0.25000000  0.75126000  0.43771200  1
  F  F8  1  0.25000000  0.60480400  0.86399000  1
  F  F9  1  0.75000000  0.39519600  0.13601000  1
  F  F10  1  0.75000000  0.89519600  0.36399000  1
  F  F11  1  0.25000000  0.10480400  0.63601000  1
  F  F12  1  0.25000000  0.63450600  0.03575800  1
  F  F13  1  0.75000000  0.36549400  0.96424200  1
  F  F14  1  0.75000000  0.86549400  0.53575800  1
  F  F15  1  0.25000000  0.13450600  0.46424200  1
  F  F16  1  0.25000000  0.50510300  0.55870700  1
  F  F17  1  0.75000000  0.49489700  0.44129300  1
  F  F18  1  0.75000000  0.99489700  0.05870700  1
  F  F19  1  0.25000000  0.00510300  0.94129300  1
  F  F20  1  0.25000000  0.58724200  0.30571100  1
  F  F21  1  0.75000000  0.41275800  0.69428900  1
  F  F22  1  0.75000000  0.91275800  0.80571100  1
  F  F23  1  0.25000000  0.08724200  0.19428900  1
