# generated using pymatgen
data_KTb(MoO4)2
_symmetry_space_group_name_H-M   'P 1'
_cell_length_a   7.52470914
_cell_length_b   7.52470914
_cell_length_c   7.78723544
_cell_angle_alpha   61.67583657
_cell_angle_beta   61.67583657
_cell_angle_gamma   88.10456021
_symmetry_Int_Tables_number   1
_chemical_formula_structural   KTb(MoO4)2
_chemical_formula_sum   'K2 Tb2 Mo4 O16'
_cell_volume   331.00773602
_cell_formula_units_Z   2
loop_
 _symmetry_equiv_pos_site_id
 _symmetry_equiv_pos_as_xyz
  1  'x, y, z'
loop_
 _atom_site_type_symbol
 _atom_site_label
 _atom_site_symmetry_multiplicity
 _atom_site_fract_x
 _atom_site_fract_y
 _atom_site_fract_z
 _atom_site_occupancy
  K  K0  1  0.20005700  0.79994300  0.75000000  1
  K  K1  1  0.79994300  0.20005700  0.25000000  1
  Tb  Tb2  1  0.77078800  0.22921200  0.75000000  1
  Tb  Tb3  1  0.22921200  0.77078800  0.25000000  1
  Mo  Mo4  1  0.69480800  0.69759900  0.76085100  1
  Mo  Mo5  1  0.30519200  0.30240100  0.23914900  1
  Mo  Mo6  1  0.30240100  0.30519200  0.73914900  1
  Mo  Mo7  1  0.69759900  0.69480800  0.26085100  1
  O  O8  1  0.61304200  0.76903800  0.56104200  1
  O  O9  1  0.38695800  0.23096200  0.43895800  1
  O  O10  1  0.23096200  0.38695800  0.93895800  1
  O  O11  1  0.76903800  0.61304200  0.06104200  1
  O  O12  1  0.38346500  0.06805300  0.87528800  1
  O  O13  1  0.61653500  0.93194700  0.12471200  1
  O  O14  1  0.93194700  0.61653500  0.62471200  1
  O  O15  1  0.06805300  0.38346500  0.37528800  1
  O  O16  1  0.58524000  0.36743700  0.97074400  1
  O  O17  1  0.41476000  0.63256300  0.02925600  1
  O  O18  1  0.63256300  0.41476000  0.52925600  1
  O  O19  1  0.36743700  0.58524000  0.47074400  1
  O  O20  1  0.79336300  0.95255100  0.69123000  1
  O  O21  1  0.20663700  0.04744900  0.30877000  1
  O  O22  1  0.04744900  0.20663700  0.80877000  1
  O  O23  1  0.95255100  0.79336300  0.19123000  1
