# generated using pymatgen
data_Mg3SO9
_symmetry_space_group_name_H-M   'P 1'
_cell_length_a   6.51655128
_cell_length_b   7.11815671
_cell_length_c   7.85797926
_cell_angle_alpha   85.46805509
_cell_angle_beta   109.73662683
_cell_angle_gamma   127.89009458
_symmetry_Int_Tables_number   1
_chemical_formula_structural   Mg3SO9
_chemical_formula_sum   'Mg3 S1 O9'
_cell_volume   266.68605677
_cell_formula_units_Z   1
loop_
 _symmetry_equiv_pos_site_id
 _symmetry_equiv_pos_as_xyz
  1  'x, y, z'
loop_
 _atom_site_type_symbol
 _atom_site_label
 _atom_site_symmetry_multiplicity
 _atom_site_fract_x
 _atom_site_fract_y
 _atom_site_fract_z
 _atom_site_occupancy
  Mg  Mg0  1  0.01120100  0.89601800  0.41404800  1
  Mg  Mg1  1  0.45157200  0.57780000  0.99526200  1
  Mg  Mg2  1  0.05777400  0.70459100  0.87106400  1
  S  S3  1  0.11526200  0.91047900  0.14491500  1
  O  O4  1  0.74221200  0.35457600  0.73007600  1
  O  O5  1  0.72769700  0.92224700  0.43767100  1
  O  O6  1  0.42351900  0.81664100  0.86003500  1
  O  O7  1  0.80066500  0.67943900  0.17674900  1
  O  O8  1  0.07437800  0.42920200  0.00232300  1
  O  O9  1  0.02823400  0.88983200  0.66956100  1
  O  O10  1  0.79750800  0.90690800  0.61770800  1
  O  O11  1  0.37333700  0.63987900  0.73941100  1
  O  O12  1  0.88089000  0.27238800  0.82542700  1
