# generated using pymatgen
data_KC2
_symmetry_space_group_name_H-M   'P 1'
_cell_length_a   4.65671740
_cell_length_b   4.65671740
_cell_length_c   4.65671740
_cell_angle_alpha   120.49359499
_cell_angle_beta   111.10184205
_cell_angle_gamma   97.61588286
_symmetry_Int_Tables_number   1
_chemical_formula_structural   KC2
_chemical_formula_sum   'K1 C2'
_cell_volume   74.67773758
_cell_formula_units_Z   1
loop_
 _symmetry_equiv_pos_site_id
 _symmetry_equiv_pos_as_xyz
  1  'x, y, z'
loop_
 _atom_site_type_symbol
 _atom_site_label
 _atom_site_symmetry_multiplicity
 _atom_site_fract_x
 _atom_site_fract_y
 _atom_site_fract_z
 _atom_site_occupancy
  K  K0  1  0.00000000  0.00000000  0.00000000  1
  C  C1  1  0.61992200  0.50000000  0.11992200  1
  C  C2  1  0.38007800  0.50000000  0.88007800  1
