# generated using pymatgen
data_KZr6CI14
_symmetry_space_group_name_H-M   'P 1'
_cell_length_a   11.00741115
_cell_length_b   11.00741115
_cell_length_c   13.05433400
_cell_angle_alpha   90.00000000
_cell_angle_beta   90.00000000
_cell_angle_gamma   94.45679405
_symmetry_Int_Tables_number   1
_chemical_formula_structural   KZr6CI14
_chemical_formula_sum   'K2 Zr12 C2 I28'
_cell_volume   1576.92084805
_cell_formula_units_Z   2
loop_
 _symmetry_equiv_pos_site_id
 _symmetry_equiv_pos_as_xyz
  1  'x, y, z'
loop_
 _atom_site_type_symbol
 _atom_site_label
 _atom_site_symmetry_multiplicity
 _atom_site_fract_x
 _atom_site_fract_y
 _atom_site_fract_z
 _atom_site_occupancy
  K  K0  1  0.50000000  0.50000000  0.00000000  1
  K  K1  1  0.00000000  0.00000000  0.50000000  1
  Zr  Zr2  1  0.37328800  0.37328800  0.40572000  1
  Zr  Zr3  1  0.62671200  0.62671200  0.59428000  1
  Zr  Zr4  1  0.12671200  0.12671200  0.90572000  1
  Zr  Zr5  1  0.87328800  0.87328800  0.09428000  1
  Zr  Zr6  1  0.95807300  0.16503000  0.10639600  1
  Zr  Zr7  1  0.04192700  0.83497000  0.89360400  1
  Zr  Zr8  1  0.54192700  0.33497000  0.60639600  1
  Zr  Zr9  1  0.66503000  0.45807300  0.39360400  1
  Zr  Zr10  1  0.45807300  0.66503000  0.39360400  1
  Zr  Zr11  1  0.33497000  0.54192700  0.60639600  1
  Zr  Zr12  1  0.83497000  0.04192700  0.89360400  1
  Zr  Zr13  1  0.16503000  0.95807300  0.10639600  1
  C  C14  1  0.00000000  0.00000000  0.00000000  1
  C  C15  1  0.50000000  0.50000000  0.50000000  1
  I  I16  1  0.11198900  0.35926500  0.00668000  1
  I  I17  1  0.88801100  0.64073500  0.99332000  1
  I  I18  1  0.38801100  0.14073500  0.50668000  1
  I  I19  1  0.85926500  0.61198900  0.49332000  1
  I  I20  1  0.61198900  0.85926500  0.49332000  1
  I  I21  1  0.14073500  0.38801100  0.50668000  1
  I  I22  1  0.64073500  0.88801100  0.99332000  1
  I  I23  1  0.35926500  0.11198900  0.00668000  1
  I  I24  1  0.75091200  0.24908800  0.00000000  1
  I  I25  1  0.24908800  0.75091200  0.00000000  1
  I  I26  1  0.74908800  0.25091200  0.50000000  1
  I  I27  1  0.25091200  0.74908800  0.50000000  1
  I  I28  1  0.89678700  0.39678700  0.25000000  1
  I  I29  1  0.10321300  0.60321300  0.75000000  1
  I  I30  1  0.60321300  0.10321300  0.75000000  1
  I  I31  1  0.39678700  0.89678700  0.25000000  1
  I  I32  1  0.15046800  0.15046800  0.26181500  1
  I  I33  1  0.84953200  0.84953200  0.73818500  1
  I  I34  1  0.34953200  0.34953200  0.76181500  1
  I  I35  1  0.65046800  0.65046800  0.23818500  1
  I  I36  1  0.29000600  0.53578600  0.25134900  1
  I  I37  1  0.70999400  0.46421400  0.74865100  1
  I  I38  1  0.20999400  0.96421400  0.75134900  1
  I  I39  1  0.03578500  0.79000600  0.24865100  1
  I  I40  1  0.79000600  0.03578600  0.24865100  1
  I  I41  1  0.96421500  0.20999400  0.75134900  1
  I  I42  1  0.46421500  0.70999400  0.74865100  1
  I  I43  1  0.53578600  0.29000600  0.25134900  1
