# generated using pymatgen
data_Mg2MnGe2
_symmetry_space_group_name_H-M   'P 1'
_cell_length_a   9.07582900
_cell_length_b   9.07582900
_cell_length_c   29.26424400
_cell_angle_alpha   90.00000000
_cell_angle_beta   90.00000000
_cell_angle_gamma   90.00000000
_symmetry_Int_Tables_number   1
_chemical_formula_structural   Mg2MnGe2
_chemical_formula_sum   'Mg2 Mn1 Ge2'
_cell_volume   2410.51544494
_cell_formula_units_Z   1
loop_
 _symmetry_equiv_pos_site_id
 _symmetry_equiv_pos_as_xyz
  1  'x, y, z'
loop_
 _atom_site_type_symbol
 _atom_site_label
 _atom_site_symmetry_multiplicity
 _atom_site_fract_x
 _atom_site_fract_y
 _atom_site_fract_z
 _atom_site_occupancy
  Mg  Mg0  1  0.50000000  0.50000000  0.66286000  1
  Mg  Mg1  1  0.50000000  0.50000000  0.33714000  1
  Mn  Mn2  1  0.50000000  0.50000000  0.00000000  1
  Ge  Ge3  1  0.50000000  0.50000000  0.24887800  1
  Ge  Ge4  1  0.50000000  0.50000000  0.75112200  1
