# generated using pymatgen
data_KSr2I5
_symmetry_space_group_name_H-M   'P 1'
_cell_length_a   9.15857500
_cell_length_b   10.07541600
_cell_length_c   14.42995980
_cell_angle_alpha   89.93321428
_cell_angle_beta   90.00000000
_cell_angle_gamma   90.00000000
_symmetry_Int_Tables_number   1
_chemical_formula_structural   KSr2I5
_chemical_formula_sum   'K4 Sr8 I20'
_cell_volume   1331.54460430
_cell_formula_units_Z   4
loop_
 _symmetry_equiv_pos_site_id
 _symmetry_equiv_pos_as_xyz
  1  'x, y, z'
loop_
 _atom_site_type_symbol
 _atom_site_label
 _atom_site_symmetry_multiplicity
 _atom_site_fract_x
 _atom_site_fract_y
 _atom_site_fract_z
 _atom_site_occupancy
  K  K0  1  0.01768900  0.49079100  0.32033200  1
  K  K1  1  0.98231100  0.50920900  0.67966800  1
  K  K2  1  0.51768900  0.50920900  0.17966800  1
  K  K3  1  0.48231100  0.49079100  0.82033200  1
  Sr  Sr4  1  0.02241500  0.00200400  0.31889700  1
  Sr  Sr5  1  0.97758500  0.99799600  0.68110300  1
  Sr  Sr6  1  0.52241500  0.99799600  0.18110300  1
  Sr  Sr7  1  0.47758500  0.00200400  0.81889700  1
  Sr  Sr8  1  0.07820400  0.24905500  0.00732100  1
  Sr  Sr9  1  0.92179600  0.75094500  0.99267900  1
  Sr  Sr10  1  0.57820400  0.75094500  0.49267900  1
  Sr  Sr11  1  0.42179600  0.24905500  0.50732100  1
  I  I12  1  0.16432900  0.53950000  0.08935800  1
  I  I13  1  0.83567100  0.46050000  0.91064200  1
  I  I14  1  0.66432900  0.46050000  0.41064200  1
  I  I15  1  0.33567100  0.53950000  0.58935800  1
  I  I16  1  0.83566900  0.22087100  0.18365400  1
  I  I17  1  0.16433100  0.77912900  0.81634600  1
  I  I18  1  0.33566900  0.77912900  0.31634600  1
  I  I19  1  0.66433100  0.22087100  0.68365400  1
  I  I20  1  0.30501500  0.23007400  0.28263400  1
  I  I21  1  0.69498500  0.76992600  0.71736600  1
  I  I22  1  0.80501500  0.76992600  0.21736600  1
  I  I23  1  0.19498500  0.23007400  0.78263400  1
  I  I24  1  0.45818200  0.21994200  0.00276400  1
  I  I25  1  0.54181800  0.78005800  0.99723600  1
  I  I26  1  0.95818200  0.78005800  0.49723600  1
  I  I27  1  0.04181800  0.21994200  0.50276400  1
  I  I28  1  0.66233600  0.04440200  0.40399600  1
  I  I29  1  0.33766400  0.95559800  0.59600400  1
  I  I30  1  0.16233600  0.95559800  0.09600400  1
  I  I31  1  0.83766400  0.04440200  0.90399600  1
