# generated using pymatgen
data_KYb(MoO4)2
_symmetry_space_group_name_H-M   'P 1'
_cell_length_a   5.11545200
_cell_length_b   8.08237200
_cell_length_c   18.83837700
_cell_angle_alpha   90.00000000
_cell_angle_beta   90.00000000
_cell_angle_gamma   90.00000000
_symmetry_Int_Tables_number   1
_chemical_formula_structural   KYb(MoO4)2
_chemical_formula_sum   'K4 Yb4 Mo8 O32'
_cell_volume   778.87243356
_cell_formula_units_Z   4
loop_
 _symmetry_equiv_pos_site_id
 _symmetry_equiv_pos_as_xyz
  1  'x, y, z'
loop_
 _atom_site_type_symbol
 _atom_site_label
 _atom_site_symmetry_multiplicity
 _atom_site_fract_x
 _atom_site_fract_y
 _atom_site_fract_z
 _atom_site_occupancy
  K  K0  1  0.00000000  0.75000000  0.77022100  1
  K  K1  1  0.00000000  0.25000000  0.22977900  1
  K  K2  1  0.50000000  0.25000000  0.72977900  1
  K  K3  1  0.50000000  0.75000000  0.27022100  1
  Yb  Yb4  1  0.00000000  0.75000000  0.00666200  1
  Yb  Yb5  1  0.00000000  0.25000000  0.99333800  1
  Yb  Yb6  1  0.50000000  0.25000000  0.49333800  1
  Yb  Yb7  1  0.50000000  0.75000000  0.50666200  1
  Mo  Mo8  1  0.01362300  0.51441200  0.39830300  1
  Mo  Mo9  1  0.98637700  0.48558800  0.60169700  1
  Mo  Mo10  1  0.48637700  0.01441200  0.10169700  1
  Mo  Mo11  1  0.98637700  0.98558800  0.39830300  1
  Mo  Mo12  1  0.51362300  0.98558800  0.89830300  1
  Mo  Mo13  1  0.01362300  0.01441200  0.60169700  1
  Mo  Mo14  1  0.51362300  0.48558800  0.10169700  1
  Mo  Mo15  1  0.48637700  0.51441200  0.89830300  1
  O  O16  1  0.11253600  0.97760100  0.31179600  1
  O  O17  1  0.88746400  0.02239900  0.68820400  1
  O  O18  1  0.38746400  0.47760100  0.18820400  1
  O  O19  1  0.88746400  0.52239900  0.31179600  1
  O  O20  1  0.61253600  0.52239900  0.81179600  1
  O  O21  1  0.11253600  0.47760100  0.68820400  1
  O  O22  1  0.61253600  0.02239900  0.18820400  1
  O  O23  1  0.38746400  0.97760100  0.81179600  1
  O  O24  1  0.27422500  0.83693300  0.10025200  1
  O  O25  1  0.72577500  0.16306700  0.89974800  1
  O  O26  1  0.22577500  0.33693300  0.39974800  1
  O  O27  1  0.72577500  0.66306700  0.10025200  1
  O  O28  1  0.77422500  0.66306700  0.60025200  1
  O  O29  1  0.27422500  0.33693300  0.89974800  1
  O  O30  1  0.77422500  0.16306700  0.39974800  1
  O  O31  1  0.22577500  0.83693300  0.60025200  1
  O  O32  1  0.25333100  0.50317800  0.03470800  1
  O  O33  1  0.74666900  0.49682200  0.96529200  1
  O  O34  1  0.24666900  0.00317800  0.46529200  1
  O  O35  1  0.74666900  0.99682200  0.03470800  1
  O  O36  1  0.75333100  0.99682200  0.53470800  1
  O  O37  1  0.25333100  0.00317800  0.96529200  1
  O  O38  1  0.75333100  0.49682200  0.46529200  1
  O  O39  1  0.24666900  0.50317800  0.53470800  1
  O  O40  1  0.23559300  0.69282400  0.40719900  1
  O  O41  1  0.76440700  0.30717600  0.59280100  1
  O  O42  1  0.26440700  0.19282400  0.09280100  1
  O  O43  1  0.76440700  0.80717600  0.40719900  1
  O  O44  1  0.73559300  0.80717600  0.90719900  1
  O  O45  1  0.23559300  0.19282400  0.59280100  1
  O  O46  1  0.73559300  0.30717600  0.09280100  1
  O  O47  1  0.26440700  0.69282400  0.90719900  1
