# generated using pymatgen
data_KDy(MoO4)2
_symmetry_space_group_name_H-M   'P 1'
_cell_length_a   5.31937600
_cell_length_b   6.98189753
_cell_length_c   10.77215841
_cell_angle_alpha   94.37054931
_cell_angle_beta   103.24555797
_cell_angle_gamma   112.04214633
_symmetry_Int_Tables_number   1
_chemical_formula_structural   KDy(MoO4)2
_chemical_formula_sum   'K2 Dy2 Mo4 O16'
_cell_volume   355.08335833
_cell_formula_units_Z   2
loop_
 _symmetry_equiv_pos_site_id
 _symmetry_equiv_pos_as_xyz
  1  'x, y, z'
loop_
 _atom_site_type_symbol
 _atom_site_label
 _atom_site_symmetry_multiplicity
 _atom_site_fract_x
 _atom_site_fract_y
 _atom_site_fract_z
 _atom_site_occupancy
  K  K0  1  0.18486900  0.30501000  0.05170200  1
  K  K1  1  0.81513100  0.69499000  0.94829800  1
  Dy  Dy2  1  0.69501200  0.81618900  0.56253500  1
  Dy  Dy3  1  0.30498800  0.18381100  0.43746500  1
  Mo  Mo4  1  0.57478500  0.94038400  0.21840400  1
  Mo  Mo5  1  0.42521500  0.05961600  0.78159600  1
  Mo  Mo6  1  0.96064800  0.57087300  0.33147200  1
  Mo  Mo7  1  0.03935200  0.42912700  0.66852800  1
  O  O8  1  0.82894600  0.94495000  0.37436100  1
  O  O9  1  0.17105400  0.05505000  0.62563900  1
  O  O10  1  0.28660000  0.48525200  0.56713500  1
  O  O11  1  0.71340000  0.51474800  0.43286500  1
  O  O12  1  0.74755100  0.00136500  0.09695800  1
  O  O13  1  0.25244900  0.99863500  0.90304200  1
  O  O14  1  0.58140000  0.87462600  0.74919900  1
  O  O15  1  0.41860000  0.12537400  0.25080100  1
  O  O16  1  0.06388800  0.35659400  0.30732700  1
  O  O17  1  0.93611200  0.64340600  0.69267300  1
  O  O18  1  0.29021200  0.69513900  0.15232600  1
  O  O19  1  0.70978800  0.30486100  0.84767400  1
  O  O20  1  0.27917500  0.81384000  0.41689100  1
  O  O21  1  0.72082500  0.18616000  0.58310900  1
  O  O22  1  0.76638300  0.58773500  0.18133300  1
  O  O23  1  0.23361700  0.41226500  0.81866700  1
