# generated using pymatgen
data_KMg2(PO4)2
_symmetry_space_group_name_H-M   'P 1'
_cell_length_a   9.90423048
_cell_length_b   9.90423048
_cell_length_c   9.62901908
_cell_angle_alpha   60.94179651
_cell_angle_beta   60.94179651
_cell_angle_gamma   32.65234680
_symmetry_Int_Tables_number   1
_chemical_formula_structural   KMg2(PO4)2
_chemical_formula_sum   'K2 Mg4 P4 O16'
_cell_volume   439.53366686
_cell_formula_units_Z   2
loop_
 _symmetry_equiv_pos_site_id
 _symmetry_equiv_pos_as_xyz
  1  'x, y, z'
loop_
 _atom_site_type_symbol
 _atom_site_label
 _atom_site_symmetry_multiplicity
 _atom_site_fract_x
 _atom_site_fract_y
 _atom_site_fract_z
 _atom_site_occupancy
  K  K0  1  0.75434900  0.24565100  0.75000000  1
  K  K1  1  0.24565100  0.75434900  0.25000000  1
  Mg  Mg2  1  0.55457500  0.14302900  0.56587000  1
  Mg  Mg3  1  0.44542500  0.85697100  0.43413000  1
  Mg  Mg4  1  0.85697100  0.44542500  0.93413000  1
  Mg  Mg5  1  0.14302900  0.55457500  0.06587000  1
  P  P6  1  0.34395800  0.93258800  0.77927500  1
  P  P7  1  0.65604200  0.06741200  0.22072500  1
  P  P8  1  0.06741200  0.65604200  0.72072500  1
  P  P9  1  0.93258800  0.34395800  0.27927500  1
  O  O10  1  0.36089900  0.84748600  0.66634600  1
  O  O11  1  0.63910100  0.15251400  0.33365400  1
  O  O12  1  0.15251400  0.63910100  0.83365400  1
  O  O13  1  0.84748600  0.36089900  0.16634600  1
  O  O14  1  0.85019000  0.93519800  0.64141000  1
  O  O15  1  0.14981000  0.06480200  0.35859000  1
  O  O16  1  0.06480200  0.14981000  0.85859000  1
  O  O17  1  0.93519800  0.85019000  0.14141000  1
  O  O18  1  0.50718100  0.70558800  0.91220100  1
  O  O19  1  0.49281900  0.29441200  0.08779900  1
  O  O20  1  0.29441200  0.49281900  0.58779900  1
  O  O21  1  0.70558800  0.50718100  0.41220100  1
  O  O22  1  0.44383000  0.01998300  0.68229400  1
  O  O23  1  0.55617000  0.98001700  0.31770600  1
  O  O24  1  0.98001700  0.55617000  0.81770600  1
  O  O25  1  0.01998300  0.44383000  0.18229400  1
