# generated using pymatgen
data_KVMoO6
_symmetry_space_group_name_H-M   'P 1'
_cell_length_a   3.76519800
_cell_length_b   10.64035400
_cell_length_c   13.79147300
_cell_angle_alpha   90.00000000
_cell_angle_beta   90.00000000
_cell_angle_gamma   90.00000000
_symmetry_Int_Tables_number   1
_chemical_formula_structural   KVMoO6
_chemical_formula_sum   'K4 V4 Mo4 O24'
_cell_volume   552.52832894
_cell_formula_units_Z   4
loop_
 _symmetry_equiv_pos_site_id
 _symmetry_equiv_pos_as_xyz
  1  'x, y, z'
loop_
 _atom_site_type_symbol
 _atom_site_label
 _atom_site_symmetry_multiplicity
 _atom_site_fract_x
 _atom_site_fract_y
 _atom_site_fract_z
 _atom_site_occupancy
  K  K0  1  0.25000000  0.61529600  0.86213900  1
  K  K1  1  0.75000000  0.38470400  0.13786100  1
  K  K2  1  0.75000000  0.88470400  0.36213900  1
  K  K3  1  0.25000000  0.11529600  0.63786100  1
  V  V4  1  0.25000000  0.01410700  0.10805600  1
  V  V5  1  0.75000000  0.98589300  0.89194400  1
  V  V6  1  0.75000000  0.48589300  0.60805600  1
  V  V7  1  0.25000000  0.51410700  0.39194400  1
  Mo  Mo8  1  0.25000000  0.73395900  0.57687600  1
  Mo  Mo9  1  0.75000000  0.26604100  0.42312400  1
  Mo  Mo10  1  0.75000000  0.76604100  0.07687600  1
  Mo  Mo11  1  0.25000000  0.23395900  0.92312400  1
  O  O12  1  0.25000000  0.17191800  0.08659000  1
  O  O13  1  0.75000000  0.82808200  0.91341000  1
  O  O14  1  0.75000000  0.32808200  0.58659000  1
  O  O15  1  0.25000000  0.67191800  0.41341000  1
  O  O16  1  0.25000000  0.88405800  0.52424400  1
  O  O17  1  0.75000000  0.11594200  0.47575600  1
  O  O18  1  0.75000000  0.61594200  0.02424400  1
  O  O19  1  0.25000000  0.38405800  0.97575600  1
  O  O20  1  0.25000000  0.99342300  0.22646200  1
  O  O21  1  0.75000000  0.00657700  0.77353800  1
  O  O22  1  0.75000000  0.50657700  0.72646200  1
  O  O23  1  0.25000000  0.49342300  0.27353800  1
  O  O24  1  0.25000000  0.76390300  0.70045700  1
  O  O25  1  0.75000000  0.23609700  0.29954300  1
  O  O26  1  0.75000000  0.73609700  0.20045700  1
  O  O27  1  0.25000000  0.26390300  0.79954300  1
  O  O28  1  0.25000000  0.52708200  0.57604700  1
  O  O29  1  0.75000000  0.47291800  0.42395300  1
  O  O30  1  0.75000000  0.97291800  0.07604700  1
  O  O31  1  0.25000000  0.02708200  0.92395300  1
  O  O32  1  0.25000000  0.81734900  0.06471500  1
  O  O33  1  0.75000000  0.18265100  0.93528500  1
  O  O34  1  0.75000000  0.68265100  0.56471500  1
  O  O35  1  0.25000000  0.31734900  0.43528500  1
