# generated using pymatgen
data_KSm2I5
_symmetry_space_group_name_H-M   'P 1'
_cell_length_a   8.68851000
_cell_length_b   9.69311500
_cell_length_c   14.20313336
_cell_angle_alpha   89.55657163
_cell_angle_beta   90.00000000
_cell_angle_gamma   90.00000000
_symmetry_Int_Tables_number   1
_chemical_formula_structural   KSm2I5
_chemical_formula_sum   'K4 Sm8 I20'
_cell_volume   1196.13398215
_cell_formula_units_Z   4
loop_
 _symmetry_equiv_pos_site_id
 _symmetry_equiv_pos_as_xyz
  1  'x, y, z'
loop_
 _atom_site_type_symbol
 _atom_site_label
 _atom_site_symmetry_multiplicity
 _atom_site_fract_x
 _atom_site_fract_y
 _atom_site_fract_z
 _atom_site_occupancy
  K  K0  1  0.45750600  0.50403500  0.82532100  1
  K  K1  1  0.54249400  0.49596500  0.17467900  1
  K  K2  1  0.95750600  0.49596500  0.67467900  1
  K  K3  1  0.04249400  0.50403500  0.32532100  1
  Sm  Sm4  1  0.44463800  0.99151800  0.82722200  1
  Sm  Sm5  1  0.55536200  0.00848200  0.17277800  1
  Sm  Sm6  1  0.94463800  0.00848200  0.67277800  1
  Sm  Sm7  1  0.05536200  0.99151800  0.32722200  1
  Sm  Sm8  1  0.41275500  0.76722000  0.49739600  1
  Sm  Sm9  1  0.58724500  0.23278000  0.50260400  1
  Sm  Sm10  1  0.91275500  0.23278000  0.00260400  1
  Sm  Sm11  1  0.08724500  0.76722000  0.99739600  1
  I  I12  1  0.33651100  0.46632300  0.58495800  1
  I  I13  1  0.66348900  0.53367700  0.41504200  1
  I  I14  1  0.83651100  0.53367700  0.91504200  1
  I  I15  1  0.16348900  0.46632300  0.08495800  1
  I  I16  1  0.65287300  0.78760600  0.67831300  1
  I  I17  1  0.34712700  0.21239400  0.32168700  1
  I  I18  1  0.15287300  0.21239400  0.82168700  1
  I  I19  1  0.84712700  0.78760600  0.17831300  1
  I  I20  1  0.18208300  0.76871200  0.78153200  1
  I  I21  1  0.81791700  0.23128800  0.21846800  1
  I  I22  1  0.68208300  0.23128800  0.71846800  1
  I  I23  1  0.31791700  0.76871200  0.28153200  1
  I  I24  1  0.03790100  0.78322100  0.50636200  1
  I  I25  1  0.96209900  0.21677900  0.49363800  1
  I  I26  1  0.53790100  0.21677900  0.99363800  1
  I  I27  1  0.46209900  0.78322100  0.00636200  1
  I  I28  1  0.83446200  0.95510900  0.89431500  1
  I  I29  1  0.16553800  0.04489100  0.10568500  1
  I  I30  1  0.33446200  0.04489100  0.60568500  1
  I  I31  1  0.66553800  0.95510900  0.39431500  1
