# generated using pymatgen
data_KPtBr3N
_symmetry_space_group_name_H-M   'P 1'
_cell_length_a   9.58838848
_cell_length_b   9.58838848
_cell_length_c   9.78754900
_cell_angle_alpha   90.00000000
_cell_angle_beta   90.00000000
_cell_angle_gamma   152.24681613
_symmetry_Int_Tables_number   1
_chemical_formula_structural   KPtBr3N
_chemical_formula_sum   'K2 Pt2 Br6 N2'
_cell_volume   419.02272252
_cell_formula_units_Z   2
loop_
 _symmetry_equiv_pos_site_id
 _symmetry_equiv_pos_as_xyz
  1  'x, y, z'
loop_
 _atom_site_type_symbol
 _atom_site_label
 _atom_site_symmetry_multiplicity
 _atom_site_fract_x
 _atom_site_fract_y
 _atom_site_fract_z
 _atom_site_occupancy
  K  K0  1  0.50000000  0.50000000  0.50000000  1
  K  K1  1  0.50000000  0.50000000  0.00000000  1
  Pt  Pt2  1  0.84192800  0.15807200  0.75000000  1
  Pt  Pt3  1  0.15807200  0.84192800  0.25000000  1
  Br  Br4  1  0.98424000  0.01576000  0.75000000  1
  Br  Br5  1  0.01576000  0.98424000  0.25000000  1
  Br  Br6  1  0.85443100  0.14556900  0.00244600  1
  Br  Br7  1  0.14556900  0.85443100  0.99755400  1
  Br  Br8  1  0.14556900  0.85443100  0.50244600  1
  Br  Br9  1  0.85443100  0.14556900  0.49755400  1
  N  N10  1  0.74832000  0.25168000  0.75000000  1
  N  N11  1  0.25168000  0.74832000  0.25000000  1
