# generated using pymatgen
data_KHgH2Cl3O
_symmetry_space_group_name_H-M   'P 1'
_cell_length_a   4.28996200
_cell_length_b   8.75665700
_cell_length_c   18.22914000
_cell_angle_alpha   90.00000000
_cell_angle_beta   90.00000000
_cell_angle_gamma   90.00000000
_symmetry_Int_Tables_number   1
_chemical_formula_structural   KHgH2Cl3O
_chemical_formula_sum   'K4 Hg4 H8 Cl12 O4'
_cell_volume   684.79087439
_cell_formula_units_Z   4
loop_
 _symmetry_equiv_pos_site_id
 _symmetry_equiv_pos_as_xyz
  1  'x, y, z'
loop_
 _atom_site_type_symbol
 _atom_site_label
 _atom_site_symmetry_multiplicity
 _atom_site_fract_x
 _atom_site_fract_y
 _atom_site_fract_z
 _atom_site_occupancy
  K  K0  1  0.25000000  0.90241600  0.19080400  1
  K  K1  1  0.75000000  0.09758400  0.80919600  1
  K  K2  1  0.75000000  0.59758400  0.69080400  1
  K  K3  1  0.25000000  0.40241600  0.30919600  1
  Hg  Hg4  1  0.25000000  0.54620700  0.90520800  1
  Hg  Hg5  1  0.75000000  0.45379300  0.09479200  1
  Hg  Hg6  1  0.75000000  0.95379300  0.40520800  1
  Hg  Hg7  1  0.25000000  0.04620700  0.59479200  1
  H  H8  1  0.25000000  0.60188600  0.54425300  1
  H  H9  1  0.75000000  0.39811400  0.45574700  1
  H  H10  1  0.75000000  0.89811400  0.04425300  1
  H  H11  1  0.25000000  0.10188600  0.95574700  1
  H  H12  1  0.25000000  0.93291100  0.92900800  1
  H  H13  1  0.75000000  0.06708900  0.07099200  1
  H  H14  1  0.75000000  0.56708900  0.42900800  1
  H  H15  1  0.25000000  0.43291100  0.57099200  1
  Cl  Cl16  1  0.25000000  0.65965600  0.03401300  1
  Cl  Cl17  1  0.75000000  0.34034400  0.96598700  1
  Cl  Cl18  1  0.75000000  0.84034400  0.53401300  1
  Cl  Cl19  1  0.25000000  0.15965600  0.46598700  1
  Cl  Cl20  1  0.25000000  0.89221500  0.70966900  1
  Cl  Cl21  1  0.75000000  0.10778500  0.29033100  1
  Cl  Cl22  1  0.75000000  0.60778500  0.20966900  1
  Cl  Cl23  1  0.25000000  0.39221500  0.79033100  1
  Cl  Cl24  1  0.25000000  0.77056800  0.36846800  1
  Cl  Cl25  1  0.75000000  0.22943200  0.63153200  1
  Cl  Cl26  1  0.75000000  0.72943200  0.86846800  1
  Cl  Cl27  1  0.25000000  0.27056800  0.13153200  1
  O  O28  1  0.25000000  0.53837400  0.58827600  1
  O  O29  1  0.75000000  0.46162600  0.41172400  1
  O  O30  1  0.75000000  0.96162600  0.08827600  1
  O  O31  1  0.25000000  0.03837400  0.91172400  1
