# generated using pymatgen
data_Mg2Cu2H2CO9
_symmetry_space_group_name_H-M   'P 1'
_cell_length_a   7.97441742
_cell_length_b   7.97441742
_cell_length_c   7.70492116
_cell_angle_alpha   73.71622939
_cell_angle_beta   73.71622939
_cell_angle_gamma   88.11408462
_symmetry_Int_Tables_number   1
_chemical_formula_structural   Mg2Cu2H2CO9
_chemical_formula_sum   'Mg4 Cu4 H4 C2 O18'
_cell_volume   450.88851615
_cell_formula_units_Z   2
loop_
 _symmetry_equiv_pos_site_id
 _symmetry_equiv_pos_as_xyz
  1  'x, y, z'
loop_
 _atom_site_type_symbol
 _atom_site_label
 _atom_site_symmetry_multiplicity
 _atom_site_fract_x
 _atom_site_fract_y
 _atom_site_fract_z
 _atom_site_occupancy
  Mg  Mg0  1  0.31682100  0.96418000  0.66299200  1
  Mg  Mg1  1  0.68317900  0.03582000  0.33700800  1
  Mg  Mg2  1  0.03582000  0.68317900  0.83700800  1
  Mg  Mg3  1  0.96418000  0.31682100  0.16299200  1
  Cu  Cu4  1  0.44507300  0.65835200  0.53180300  1
  Cu  Cu5  1  0.55492700  0.34164800  0.46819700  1
  Cu  Cu6  1  0.34164800  0.55492700  0.96819700  1
  Cu  Cu7  1  0.65835200  0.44507300  0.03180300  1
  H  H8  1  0.79709000  0.21173300  0.54958600  1
  H  H9  1  0.20291000  0.78826700  0.45041400  1
  H  H10  1  0.78826700  0.20291000  0.95041400  1
  H  H11  1  0.21173300  0.79709000  0.04958600  1
  C  C12  1  0.94754500  0.05245500  0.75000000  1
  C  C13  1  0.05245500  0.94754500  0.25000000  1
  O  O14  1  0.54532100  0.84861000  0.56094600  1
  O  O15  1  0.45467900  0.15139000  0.43905400  1
  O  O16  1  0.15139000  0.45467900  0.93905400  1
  O  O17  1  0.84861000  0.54532100  0.06094600  1
  O  O18  1  0.22770700  0.76607500  0.57628900  1
  O  O19  1  0.77229300  0.23392500  0.42371100  1
  O  O20  1  0.23392500  0.77229300  0.92371100  1
  O  O21  1  0.76607500  0.22770700  0.07628900  1
  O  O22  1  0.10321100  0.09503800  0.74500700  1
  O  O23  1  0.89678900  0.90496200  0.25499300  1
  O  O24  1  0.90496200  0.89678900  0.75499300  1
  O  O25  1  0.09503800  0.10321100  0.24500700  1
  O  O26  1  0.83052200  0.16947800  0.75000000  1
  O  O27  1  0.16947800  0.83052200  0.25000000  1
  O  O28  1  0.53615800  0.64119200  0.99798300  1
  O  O29  1  0.46384200  0.35880800  0.00201700  1
  O  O30  1  0.35880800  0.46384200  0.50201700  1
  O  O31  1  0.64119200  0.53615800  0.49798300  1
