# generated using pymatgen
data_La3BeGaS7
_symmetry_space_group_name_H-M   'P 1'
_cell_length_a   10.25714823
_cell_length_b   10.25714823
_cell_length_c   5.87923200
_cell_angle_alpha   90.00000000
_cell_angle_beta   90.00000000
_cell_angle_gamma   120.00000146
_symmetry_Int_Tables_number   1
_chemical_formula_structural   La3BeGaS7
_chemical_formula_sum   'La6 Be2 Ga2 S14'
_cell_volume   535.67883398
_cell_formula_units_Z   2
loop_
 _symmetry_equiv_pos_site_id
 _symmetry_equiv_pos_as_xyz
  1  'x, y, z'
loop_
 _atom_site_type_symbol
 _atom_site_label
 _atom_site_symmetry_multiplicity
 _atom_site_fract_x
 _atom_site_fract_y
 _atom_site_fract_z
 _atom_site_occupancy
  La  La0  1  0.36883200  0.12967600  0.73409400  1
  La  La1  1  0.87032400  0.23915600  0.73409400  1
  La  La2  1  0.63116800  0.87032400  0.23409400  1
  La  La3  1  0.76084400  0.63116800  0.73409400  1
  La  La4  1  0.12967600  0.76084400  0.23409400  1
  La  La5  1  0.23915600  0.36883200  0.23409400  1
  Be  Be6  1  0.00000000  0.00000000  0.50105300  1
  Be  Be7  1  0.00000000  0.00000000  0.00105300  1
  Ga  Ga8  1  0.33333300  0.66666700  0.65232000  1
  Ga  Ga9  1  0.66666700  0.33333300  0.15232000  1
  S  S10  1  0.33333300  0.66666700  0.03080600  1
  S  S11  1  0.66666700  0.33333300  0.53080600  1
  S  S12  1  0.09981700  0.51306600  0.50092800  1
  S  S13  1  0.48693400  0.58675100  0.50092800  1
  S  S14  1  0.90018300  0.48693400  0.00092800  1
  S  S15  1  0.41324900  0.90018300  0.50092800  1
  S  S16  1  0.51306600  0.41324900  0.00092800  1
  S  S17  1  0.58675100  0.09981700  0.00092800  1
  S  S18  1  0.14042400  0.21566000  0.74725200  1
  S  S19  1  0.78434000  0.92476400  0.74725200  1
  S  S20  1  0.85957600  0.78434000  0.24725200  1
  S  S21  1  0.07523600  0.85957600  0.74725200  1
  S  S22  1  0.21566000  0.07523600  0.24725200  1
  S  S23  1  0.92476400  0.14042400  0.24725200  1
