# generated using pymatgen
data_KH2OsNCl4
_symmetry_space_group_name_H-M   'P 1'
_cell_length_a   8.05953206
_cell_length_b   8.05953206
_cell_length_c   7.68694700
_cell_angle_alpha   90.00000000
_cell_angle_beta   90.00000000
_cell_angle_gamma   115.04626023
_symmetry_Int_Tables_number   1
_chemical_formula_structural   KH2OsNCl4
_chemical_formula_sum   'K2 H4 Os2 N2 Cl8'
_cell_volume   452.36143235
_cell_formula_units_Z   2
loop_
 _symmetry_equiv_pos_site_id
 _symmetry_equiv_pos_as_xyz
  1  'x, y, z'
loop_
 _atom_site_type_symbol
 _atom_site_label
 _atom_site_symmetry_multiplicity
 _atom_site_fract_x
 _atom_site_fract_y
 _atom_site_fract_z
 _atom_site_occupancy
  K  K0  1  0.35308700  0.64691300  0.65101400  1
  K  K1  1  0.64691300  0.35308700  0.15101400  1
  H  H2  1  0.57289200  0.42710800  0.50686700  1
  H  H3  1  0.42710800  0.57289200  0.00686700  1
  H  H4  1  0.85748500  0.14251500  0.06222400  1
  H  H5  1  0.14251500  0.85748500  0.56222400  1
  Os  Os6  1  0.84523700  0.15476300  0.71020400  1
  Os  Os7  1  0.15476300  0.84523700  0.21020400  1
  N  N8  1  0.83777400  0.16222600  0.49543900  1
  N  N9  1  0.16222600  0.83777400  0.99543900  1
  Cl  Cl10  1  0.91168100  0.45529400  0.79679500  1
  Cl  Cl11  1  0.08831900  0.54470600  0.29679500  1
  Cl  Cl12  1  0.45529400  0.91168100  0.29679500  1
  Cl  Cl13  1  0.54470600  0.08831900  0.79679500  1
  Cl  Cl14  1  0.15045600  0.21902800  0.77233100  1
  Cl  Cl15  1  0.84954400  0.78097200  0.27233100  1
  Cl  Cl16  1  0.21902800  0.15045600  0.27233100  1
  Cl  Cl17  1  0.78097200  0.84954400  0.77233100  1
