# generated using pymatgen
data_Sc4Ni
_symmetry_space_group_name_H-M   'P 1'
_cell_length_a   6.96831247
_cell_length_b   6.96831247
_cell_length_c   6.96831247
_cell_angle_alpha   60.00000000
_cell_angle_beta   60.00000000
_cell_angle_gamma   60.00000000
_symmetry_Int_Tables_number   1
_chemical_formula_structural   Sc4Ni
_chemical_formula_sum   'Sc8 Ni2'
_cell_volume   239.25876273
_cell_formula_units_Z   2
loop_
 _symmetry_equiv_pos_site_id
 _symmetry_equiv_pos_as_xyz
  1  'x, y, z'
loop_
 _atom_site_type_symbol
 _atom_site_label
 _atom_site_symmetry_multiplicity
 _atom_site_fract_x
 _atom_site_fract_y
 _atom_site_fract_z
 _atom_site_occupancy
  Sc  Sc0  1  0.61107200  0.61107200  0.61107200  1
  Sc  Sc1  1  0.16678400  0.61107200  0.61107200  1
  Sc  Sc2  1  0.61107200  0.16678400  0.61107200  1
  Sc  Sc3  1  0.58321600  0.13892800  0.13892800  1
  Sc  Sc4  1  0.13892800  0.13892800  0.13892800  1
  Sc  Sc5  1  0.61107200  0.61107200  0.16678400  1
  Sc  Sc6  1  0.13892800  0.58321600  0.13892800  1
  Sc  Sc7  1  0.13892800  0.13892800  0.58321600  1
  Ni  Ni8  1  0.00000000  0.00000000  0.00000000  1
  Ni  Ni9  1  0.75000000  0.75000000  0.75000000  1
