# generated using pymatgen
data_KCe(WO4)2
_symmetry_space_group_name_H-M   'P 1'
_cell_length_a   7.55850550
_cell_length_b   7.55850550
_cell_length_c   7.64245800
_cell_angle_alpha   66.24020897
_cell_angle_beta   66.24020897
_cell_angle_gamma   92.98440406
_symmetry_Int_Tables_number   1
_chemical_formula_structural   KCe(WO4)2
_chemical_formula_sum   'K2 Ce2 W4 O16'
_cell_volume   353.56198231
_cell_formula_units_Z   2
loop_
 _symmetry_equiv_pos_site_id
 _symmetry_equiv_pos_as_xyz
  1  'x, y, z'
loop_
 _atom_site_type_symbol
 _atom_site_label
 _atom_site_symmetry_multiplicity
 _atom_site_fract_x
 _atom_site_fract_y
 _atom_site_fract_z
 _atom_site_occupancy
  K  K0  1  0.68917600  0.68917600  0.47239600  1
  K  K1  1  0.31082400  0.31082400  0.52760400  1
  Ce  Ce2  1  0.70097700  0.29902300  0.00000000  1
  Ce  Ce3  1  0.29902300  0.70097700  0.00000000  1
  W  W4  1  0.20523800  0.20523800  0.05709100  1
  W  W5  1  0.79476200  0.79476200  0.94290900  1
  W  W6  1  0.83904700  0.16095300  0.50000000  1
  W  W7  1  0.16095300  0.83904700  0.50000000  1
  O  O8  1  0.34611600  0.09483100  0.25931400  1
  O  O9  1  0.65388400  0.90516900  0.74068600  1
  O  O10  1  0.90516900  0.65388400  0.74068600  1
  O  O11  1  0.09483100  0.34611600  0.25931400  1
  O  O12  1  0.69188200  0.21491200  0.35466500  1
  O  O13  1  0.30811800  0.78508800  0.64533500  1
  O  O14  1  0.78508800  0.30811800  0.64533500  1
  O  O15  1  0.21491200  0.69188200  0.35466500  1
  O  O16  1  0.70621000  0.96005700  0.06293400  1
  O  O17  1  0.29379000  0.03994300  0.93706600  1
  O  O18  1  0.03994300  0.29379000  0.93706600  1
  O  O19  1  0.96005700  0.70621000  0.06293400  1
  O  O20  1  0.98305200  0.98305200  0.34545000  1
  O  O21  1  0.01694800  0.01694800  0.65455000  1
  O  O22  1  0.57262800  0.57262800  0.11087100  1
  O  O23  1  0.42737200  0.42737200  0.88912900  1
