# generated using pymatgen
data_K2Y2(PO4)3
_symmetry_space_group_name_H-M   'P 1'
_cell_length_a   10.75518100
_cell_length_b   10.75518100
_cell_length_c   10.75518100
_cell_angle_alpha   90.00000000
_cell_angle_beta   90.00000000
_cell_angle_gamma   90.00000000
_symmetry_Int_Tables_number   1
_chemical_formula_structural   K2Y2(PO4)3
_chemical_formula_sum   'K8 Y8 P12 O48'
_cell_volume   1244.09392876
_cell_formula_units_Z   4
loop_
 _symmetry_equiv_pos_site_id
 _symmetry_equiv_pos_as_xyz
  1  'x, y, z'
loop_
 _atom_site_type_symbol
 _atom_site_label
 _atom_site_symmetry_multiplicity
 _atom_site_fract_x
 _atom_site_fract_y
 _atom_site_fract_z
 _atom_site_occupancy
  K  K0  1  0.81850700  0.81850700  0.81850700  1
  K  K1  1  0.68149300  0.18149300  0.31850700  1
  K  K2  1  0.18149300  0.31850700  0.68149300  1
  K  K3  1  0.31850700  0.68149300  0.18149300  1
  K  K4  1  0.04760000  0.04760000  0.04760000  1
  K  K5  1  0.45240000  0.95240000  0.54760000  1
  K  K6  1  0.95240000  0.54760000  0.45240000  1
  K  K7  1  0.54760000  0.45240000  0.95240000  1
  Y  Y8  1  0.33244600  0.33244600  0.33244600  1
  Y  Y9  1  0.16755400  0.66755400  0.83244600  1
  Y  Y10  1  0.66755400  0.83244600  0.16755400  1
  Y  Y11  1  0.83244600  0.16755400  0.66755400  1
  Y  Y12  1  0.60236600  0.60236600  0.60236600  1
  Y  Y13  1  0.89763400  0.39763400  0.10236600  1
  Y  Y14  1  0.39763400  0.10236600  0.89763400  1
  Y  Y15  1  0.10236600  0.89763400  0.39763400  1
  P  P16  1  0.01505900  0.21380800  0.37498200  1
  P  P17  1  0.48494100  0.78619200  0.87498200  1
  P  P18  1  0.98494100  0.71380800  0.12501800  1
  P  P19  1  0.37498200  0.01505900  0.21380800  1
  P  P20  1  0.51505900  0.28619200  0.62501800  1
  P  P21  1  0.87498200  0.48494100  0.78619200  1
  P  P22  1  0.12501800  0.98494100  0.71380800  1
  P  P23  1  0.62501800  0.51505900  0.28619200  1
  P  P24  1  0.21380800  0.37498200  0.01505900  1
  P  P25  1  0.71380800  0.12501800  0.98494100  1
  P  P26  1  0.28619200  0.62501800  0.51505900  1
  P  P27  1  0.78619200  0.87498200  0.48494100  1
  O  O28  1  0.27316600  0.50629500  0.43418700  1
  O  O29  1  0.22683400  0.49370500  0.93418700  1
  O  O30  1  0.72683400  0.00629500  0.06581300  1
  O  O31  1  0.43418700  0.27316600  0.50629500  1
  O  O32  1  0.77316600  0.99370500  0.56581300  1
  O  O33  1  0.93418700  0.22683400  0.49370500  1
  O  O34  1  0.06581300  0.72683400  0.00629500  1
  O  O35  1  0.56581300  0.77316600  0.99370500  1
  O  O36  1  0.50629500  0.43418700  0.27316600  1
  O  O37  1  0.00629500  0.06581300  0.72683400  1
  O  O38  1  0.99370500  0.56581300  0.77316600  1
  O  O39  1  0.49370500  0.93418700  0.22683400  1
  O  O40  1  0.01689000  0.07722400  0.32921100  1
  O  O41  1  0.48311000  0.92277600  0.82921100  1
  O  O42  1  0.98311000  0.57722400  0.17078900  1
  O  O43  1  0.32921100  0.01689000  0.07722400  1
  O  O44  1  0.51689000  0.42277600  0.67078900  1
  O  O45  1  0.82921100  0.48311000  0.92277600  1
  O  O46  1  0.17078900  0.98311000  0.57722400  1
  O  O47  1  0.67078900  0.51689000  0.42277600  1
  O  O48  1  0.07722400  0.32921100  0.01689000  1
  O  O49  1  0.57722400  0.17078900  0.98311000  1
  O  O50  1  0.42277600  0.67078900  0.51689000  1
  O  O51  1  0.92277600  0.82921100  0.48311000  1
  O  O52  1  0.04516700  0.79639600  0.22597900  1
  O  O53  1  0.45483300  0.20360400  0.72597900  1
  O  O54  1  0.95483300  0.29639600  0.27402100  1
  O  O55  1  0.22597900  0.04516700  0.79639600  1
  O  O56  1  0.54516700  0.70360400  0.77402100  1
  O  O57  1  0.72597900  0.45483300  0.20360400  1
  O  O58  1  0.27402100  0.95483300  0.29639600  1
  O  O59  1  0.77402100  0.54516700  0.70360400  1
  O  O60  1  0.79639600  0.22597900  0.04516700  1
  O  O61  1  0.29639600  0.27402100  0.95483300  1
  O  O62  1  0.70360400  0.77402100  0.54516700  1
  O  O63  1  0.20360400  0.72597900  0.45483300  1
  O  O64  1  0.14911200  0.25846200  0.40344200  1
  O  O65  1  0.35088800  0.74153800  0.90344200  1
  O  O66  1  0.85088800  0.75846200  0.09655800  1
  O  O67  1  0.40344200  0.14911200  0.25846200  1
  O  O68  1  0.64911200  0.24153800  0.59655800  1
  O  O69  1  0.90344200  0.35088800  0.74153800  1
  O  O70  1  0.09655800  0.85088800  0.75846200  1
  O  O71  1  0.59655800  0.64911200  0.24153800  1
  O  O72  1  0.25846200  0.40344200  0.14911200  1
  O  O73  1  0.75846200  0.09655800  0.85088800  1
  O  O74  1  0.24153800  0.59655800  0.64911200  1
  O  O75  1  0.74153800  0.90344200  0.35088800  1
