# generated using pymatgen
data_LaTi3(BiO4)3
_symmetry_space_group_name_H-M   'P 1'
_cell_length_a   5.44671200
_cell_length_b   5.46928000
_cell_length_c   16.98336185
_cell_angle_alpha   81.04144751
_cell_angle_beta   90.00000000
_cell_angle_gamma   90.00000000
_symmetry_Int_Tables_number   1
_chemical_formula_structural   LaTi3(BiO4)3
_chemical_formula_sum   'La2 Ti6 Bi6 O24'
_cell_volume   499.75575316
_cell_formula_units_Z   2
loop_
 _symmetry_equiv_pos_site_id
 _symmetry_equiv_pos_as_xyz
  1  'x, y, z'
loop_
 _atom_site_type_symbol
 _atom_site_label
 _atom_site_symmetry_multiplicity
 _atom_site_fract_x
 _atom_site_fract_y
 _atom_site_fract_z
 _atom_site_occupancy
  La  La0  1  0.25208500  0.76838600  0.88173700  1
  La  La1  1  0.74791500  0.26838600  0.88173700  1
  Ti  Ti2  1  0.74710100  0.57372600  0.27047000  1
  Ti  Ti3  1  0.25289900  0.07372600  0.27047000  1
  Ti  Ti4  1  0.75139600  0.69378700  0.01145100  1
  Ti  Ti5  1  0.24860400  0.19378700  0.01145100  1
  Ti  Ti6  1  0.75095000  0.83471300  0.75525800  1
  Ti  Ti7  1  0.24905000  0.33471300  0.75525800  1
  Bi  Bi8  1  0.77404300  0.37752500  0.59040700  1
  Bi  Bi9  1  0.22595700  0.87752500  0.59040700  1
  Bi  Bi10  1  0.24285000  0.58529500  0.14616500  1
  Bi  Bi11  1  0.75715000  0.08529500  0.14616500  1
  Bi  Bi12  1  0.72652700  0.95748000  0.43684400  1
  Bi  Bi13  1  0.27347300  0.45748000  0.43684400  1
  O  O14  1  0.45606600  0.91633300  0.02651200  1
  O  O15  1  0.54393400  0.41633300  0.02651200  1
  O  O16  1  0.48269200  0.59734800  0.77047400  1
  O  O17  1  0.51730800  0.09734800  0.77047400  1
  O  O18  1  0.98720800  0.56035700  0.78983200  1
  O  O19  1  0.01279200  0.06035700  0.78983200  1
  O  O20  1  0.49661400  0.68032300  0.51527000  1
  O  O21  1  0.50338600  0.18032300  0.51527000  1
  O  O22  1  0.80149500  0.89495500  0.64999100  1
  O  O23  1  0.19850500  0.39495500  0.64999100  1
  O  O24  1  0.82290600  0.68314200  0.12958200  1
  O  O25  1  0.17709400  0.18314200  0.12958200  1
  O  O26  1  0.99578600  0.68021500  0.51125700  1
  O  O27  1  0.00421400  0.18021500  0.51125700  1
  O  O28  1  0.69707300  0.76868600  0.89807300  1
  O  O29  1  0.30292700  0.26868600  0.89807300  1
  O  O30  1  0.47199200  0.83004700  0.23436300  1
  O  O31  1  0.52800800  0.33004700  0.23436300  1
  O  O32  1  0.95527700  0.01962000  0.99624000  1
  O  O33  1  0.04472300  0.51962000  0.99624000  1
  O  O34  1  0.95395200  0.89137900  0.26054100  1
  O  O35  1  0.04604800  0.39137900  0.26054100  1
  O  O36  1  0.68946700  0.52508300  0.37453300  1
  O  O37  1  0.31053300  0.02508300  0.37453300  1
