# generated using pymatgen
data_K3YbF6
_symmetry_space_group_name_H-M   'P 1'
_cell_length_a   6.64978500
_cell_length_b   6.38042700
_cell_length_c   11.09438244
_cell_angle_alpha   55.39654715
_cell_angle_beta   90.00000000
_cell_angle_gamma   90.00000000
_symmetry_Int_Tables_number   1
_chemical_formula_structural   K3YbF6
_chemical_formula_sum   'K6 Yb2 F12'
_cell_volume   387.44870616
_cell_formula_units_Z   2
loop_
 _symmetry_equiv_pos_site_id
 _symmetry_equiv_pos_as_xyz
  1  'x, y, z'
loop_
 _atom_site_type_symbol
 _atom_site_label
 _atom_site_symmetry_multiplicity
 _atom_site_fract_x
 _atom_site_fract_y
 _atom_site_fract_z
 _atom_site_occupancy
  K  K0  1  0.00000000  0.50000000  0.50000000  1
  K  K1  1  0.50000000  0.50000000  0.00000000  1
  K  K2  1  0.44536000  0.23982800  0.74623700  1
  K  K3  1  0.55464000  0.76017200  0.25376300  1
  K  K4  1  0.94536000  0.76017200  0.75376300  1
  K  K5  1  0.05464000  0.23982800  0.24623700  1
  Yb  Yb6  1  0.00000000  0.00000000  0.00000000  1
  Yb  Yb7  1  0.50000000  0.00000000  0.50000000  1
  F  F8  1  0.72352300  0.89491100  0.93117500  1
  F  F9  1  0.27647700  0.10508900  0.06882500  1
  F  F10  1  0.22352300  0.10508900  0.56882500  1
  F  F11  1  0.77647700  0.89491100  0.43117500  1
  F  F12  1  0.05788800  0.33835800  0.77435100  1
  F  F13  1  0.94211200  0.66164200  0.22564900  1
  F  F14  1  0.55788800  0.66164200  0.72564900  1
  F  F15  1  0.44211200  0.33835800  0.27435100  1
  F  F16  1  0.17781100  0.76877500  0.94885800  1
  F  F17  1  0.82218900  0.23122500  0.05114200  1
  F  F18  1  0.67781100  0.23122500  0.55114200  1
  F  F19  1  0.32218900  0.76877500  0.44885800  1
