# generated using pymatgen
data_KAs(HO2)2
_symmetry_space_group_name_H-M   'P 1'
_cell_length_a   6.55622069
_cell_length_b   6.55622069
_cell_length_c   6.55622069
_cell_angle_alpha   108.27210642
_cell_angle_beta   108.27210642
_cell_angle_gamma   111.89702398
_symmetry_Int_Tables_number   1
_chemical_formula_structural   KAs(HO2)2
_chemical_formula_sum   'K2 As2 H4 O8'
_cell_volume   216.64656763
_cell_formula_units_Z   2
loop_
 _symmetry_equiv_pos_site_id
 _symmetry_equiv_pos_as_xyz
  1  'x, y, z'
loop_
 _atom_site_type_symbol
 _atom_site_label
 _atom_site_symmetry_multiplicity
 _atom_site_fract_x
 _atom_site_fract_y
 _atom_site_fract_z
 _atom_site_occupancy
  K  K0  1  0.50000000  0.50000000  0.00000000  1
  K  K1  1  0.25000000  0.75000000  0.50000000  1
  As  As2  1  0.00000000  0.00000000  0.00000000  1
  As  As3  1  0.75000000  0.25000000  0.50000000  1
  H  H4  1  0.71889900  0.62500000  0.59389900  1
  H  H5  1  0.03110100  0.12500000  0.40610100  1
  H  H6  1  0.87500000  0.28110100  0.90610100  1
  H  H7  1  0.37500000  0.96889900  0.09389900  1
  O  O8  1  0.70568300  0.77268000  0.74873300  1
  O  O9  1  0.02394600  0.95695000  0.25126700  1
  O  O10  1  0.04305000  0.29431700  0.06699700  1
  O  O11  1  0.04431700  0.29305000  0.56699700  1
  O  O12  1  0.22732000  0.97605400  0.93300300  1
  O  O13  1  0.72605400  0.47732000  0.43300300  1
  O  O14  1  0.70695000  0.27394600  0.75126700  1
  O  O15  1  0.52268000  0.95568300  0.24873300  1
