# generated using pymatgen
data_KCr2Fe(HO4)2
_symmetry_space_group_name_H-M   'P 1'
_cell_length_a   6.11851878
_cell_length_b   6.11851878
_cell_length_c   7.79258017
_cell_angle_alpha   68.42016287
_cell_angle_beta   68.42016287
_cell_angle_gamma   53.87995937
_symmetry_Int_Tables_number   1
_chemical_formula_structural   KCr2Fe(HO4)2
_chemical_formula_sum   'K1 Cr2 Fe1 H2 O8'
_cell_volume   214.66059834
_cell_formula_units_Z   1
loop_
 _symmetry_equiv_pos_site_id
 _symmetry_equiv_pos_as_xyz
  1  'x, y, z'
loop_
 _atom_site_type_symbol
 _atom_site_label
 _atom_site_symmetry_multiplicity
 _atom_site_fract_x
 _atom_site_fract_y
 _atom_site_fract_z
 _atom_site_occupancy
  K  K0  1  0.00000000  0.00000000  0.50000000  1
  Cr  Cr1  1  0.39429600  0.39429600  0.28210200  1
  Cr  Cr2  1  0.60570400  0.60570400  0.71789800  1
  Fe  Fe3  1  0.00000000  0.00000000  0.00000000  1
  H  H4  1  0.82483100  0.82483100  0.07581000  1
  H  H5  1  0.17516900  0.17516900  0.92419000  1
  O  O6  1  0.74340700  0.22885600  0.18542900  1
  O  O7  1  0.25659300  0.77114400  0.81457100  1
  O  O8  1  0.77114400  0.25659300  0.81457100  1
  O  O9  1  0.22885600  0.74340700  0.18542900  1
  O  O10  1  0.64446000  0.64446000  0.49293000  1
  O  O11  1  0.35554000  0.35554000  0.50707000  1
  O  O12  1  0.25900100  0.25900100  0.24549000  1
  O  O13  1  0.74099900  0.74099900  0.75451000  1
