# generated using pymatgen
data_KPr(ClO)4
_symmetry_space_group_name_H-M   'P 1'
_cell_length_a   7.09434000
_cell_length_b   7.90115100
_cell_length_c   8.61786100
_cell_angle_alpha   90.00000000
_cell_angle_beta   90.00000000
_cell_angle_gamma   90.00000000
_symmetry_Int_Tables_number   1
_chemical_formula_structural   KPr(ClO)4
_chemical_formula_sum   'K2 Pr2 Cl8 O8'
_cell_volume   483.06085433
_cell_formula_units_Z   2
loop_
 _symmetry_equiv_pos_site_id
 _symmetry_equiv_pos_as_xyz
  1  'x, y, z'
loop_
 _atom_site_type_symbol
 _atom_site_label
 _atom_site_symmetry_multiplicity
 _atom_site_fract_x
 _atom_site_fract_y
 _atom_site_fract_z
 _atom_site_occupancy
  K  K0  1  0.00000000  0.09941000  0.00000000  1
  K  K1  1  0.50000000  0.90059000  0.50000000  1
  Pr  Pr2  1  0.00000000  0.42921600  0.50000000  1
  Pr  Pr3  1  0.50000000  0.57078400  0.00000000  1
  Cl  Cl4  1  0.17632600  0.61636900  0.21574000  1
  Cl  Cl5  1  0.82367400  0.61636900  0.78426000  1
  Cl  Cl6  1  0.32367400  0.38363100  0.71574000  1
  Cl  Cl7  1  0.67632600  0.38363100  0.28426000  1
  Cl  Cl8  1  0.14782900  0.17000300  0.33201700  1
  Cl  Cl9  1  0.85217100  0.17000300  0.66798300  1
  Cl  Cl10  1  0.35217100  0.82999700  0.83201700  1
  Cl  Cl11  1  0.64782900  0.82999700  0.16798300  1
  O  O12  1  0.43759900  0.17407900  0.05030300  1
  O  O13  1  0.56240100  0.17407900  0.94969700  1
  O  O14  1  0.06240100  0.82592100  0.55030300  1
  O  O15  1  0.93759900  0.82592100  0.44969700  1
  O  O16  1  0.26265300  0.58668700  0.39461600  1
  O  O17  1  0.73734700  0.58668700  0.60538400  1
  O  O18  1  0.23734700  0.41331300  0.89461600  1
  O  O19  1  0.76265300  0.41331300  0.10538400  1
