# generated using pymatgen
data_KGa(PH)2
_symmetry_space_group_name_H-M   'P 1'
_cell_length_a   8.11323300
_cell_length_b   10.64004600
_cell_length_c   6.97577200
_cell_angle_alpha   90.00000000
_cell_angle_beta   90.00000000
_cell_angle_gamma   90.00000000
_symmetry_Int_Tables_number   1
_chemical_formula_structural   KGa(PH)2
_chemical_formula_sum   'K4 Ga4 P8 H8'
_cell_volume   602.18472003
_cell_formula_units_Z   4
loop_
 _symmetry_equiv_pos_site_id
 _symmetry_equiv_pos_as_xyz
  1  'x, y, z'
loop_
 _atom_site_type_symbol
 _atom_site_label
 _atom_site_symmetry_multiplicity
 _atom_site_fract_x
 _atom_site_fract_y
 _atom_site_fract_z
 _atom_site_occupancy
  K  K0  1  0.75000000  0.77522600  0.29756900  1
  K  K1  1  0.25000000  0.22477400  0.70243100  1
  K  K2  1  0.25000000  0.72477400  0.79756900  1
  K  K3  1  0.75000000  0.27522600  0.20243100  1
  Ga  Ga4  1  0.75000000  0.96399600  0.79274100  1
  Ga  Ga5  1  0.25000000  0.03600400  0.20725900  1
  Ga  Ga6  1  0.25000000  0.53600400  0.29274100  1
  Ga  Ga7  1  0.75000000  0.46399600  0.70725900  1
  P  P8  1  0.00200200  0.94103600  0.61530300  1
  P  P9  1  0.99799800  0.05896400  0.38469700  1
  P  P10  1  0.99799800  0.55896400  0.11530300  1
  P  P11  1  0.50200200  0.05896400  0.38469700  1
  P  P12  1  0.00200200  0.44103600  0.88469700  1
  P  P13  1  0.49799800  0.94103600  0.61530300  1
  P  P14  1  0.49799800  0.44103600  0.88469700  1
  P  P15  1  0.50200200  0.55896400  0.11530300  1
  H  H16  1  0.75000000  0.59435000  0.59621100  1
  H  H17  1  0.25000000  0.40565000  0.40378900  1
  H  H18  1  0.25000000  0.90565000  0.09621100  1
  H  H19  1  0.75000000  0.09435000  0.90378900  1
  H  H20  1  0.75000000  0.84424600  0.93190600  1
  H  H21  1  0.25000000  0.15575400  0.06809400  1
  H  H22  1  0.25000000  0.65575400  0.43190600  1
  H  H23  1  0.75000000  0.34424600  0.56809400  1
