# generated using pymatgen
data_KAl2Si4(HO6)2
_symmetry_space_group_name_H-M   'P 1'
_cell_length_a   5.28205773
_cell_length_b   5.28205773
_cell_length_c   20.75477193
_cell_angle_alpha   86.98563958
_cell_angle_beta   86.98563958
_cell_angle_gamma   120.31976136
_symmetry_Int_Tables_number   1
_chemical_formula_structural   KAl2Si4(HO6)2
_chemical_formula_sum   'K2 Al4 Si8 H4 O24'
_cell_volume   497.05851858
_cell_formula_units_Z   2
loop_
 _symmetry_equiv_pos_site_id
 _symmetry_equiv_pos_as_xyz
  1  'x, y, z'
loop_
 _atom_site_type_symbol
 _atom_site_label
 _atom_site_symmetry_multiplicity
 _atom_site_fract_x
 _atom_site_fract_y
 _atom_site_fract_z
 _atom_site_occupancy
  K  K0  1  0.90333000  0.09667000  0.25000000  1
  K  K1  1  0.09667000  0.90333000  0.75000000  1
  Al  Al2  1  0.67087500  0.83605400  0.99963100  1
  Al  Al3  1  0.32912500  0.16394600  0.00036900  1
  Al  Al4  1  0.16394600  0.32912500  0.50036900  1
  Al  Al5  1  0.83605400  0.67087500  0.49963100  1
  Si  Si6  1  0.53108500  0.39458300  0.36823500  1
  Si  Si7  1  0.46891500  0.60541700  0.63176500  1
  Si  Si8  1  0.60541700  0.46891500  0.13176500  1
  Si  Si9  1  0.39458300  0.53108500  0.86823500  1
  Si  Si10  1  0.29257200  0.81184100  0.13221400  1
  Si  Si11  1  0.70742800  0.18815900  0.86778600  1
  Si  Si12  1  0.18815900  0.70742800  0.36778600  1
  Si  Si13  1  0.81184100  0.29257200  0.63221400  1
  H  H14  1  0.72861600  0.02318100  0.43699200  1
  H  H15  1  0.27138400  0.97681900  0.56300800  1
  H  H16  1  0.97681900  0.27138400  0.06300800  1
  H  H17  1  0.02318100  0.72861600  0.93699200  1
  O  O18  1  0.40184300  0.12507400  0.16566200  1
  O  O19  1  0.59815700  0.87492600  0.83433800  1
  O  O20  1  0.87492600  0.59815700  0.33433800  1
  O  O21  1  0.12507400  0.40184300  0.66566200  1
  O  O22  1  0.90079100  0.01908800  0.45102400  1
  O  O23  1  0.09920900  0.98091200  0.54897600  1
  O  O24  1  0.98091200  0.09920900  0.04897600  1
  O  O25  1  0.01908800  0.90079100  0.95102400  1
  O  O26  1  0.46772900  0.65760600  0.16514400  1
  O  O27  1  0.53227100  0.34239400  0.83485600  1
  O  O28  1  0.34239400  0.53227100  0.33485600  1
  O  O29  1  0.65760600  0.46772900  0.66514400  1
  O  O30  1  0.51711500  0.41174700  0.44727700  1
  O  O31  1  0.48288500  0.58825300  0.55272300  1
  O  O32  1  0.58825300  0.48288500  0.05272300  1
  O  O33  1  0.41174700  0.51711500  0.94727700  1
  O  O34  1  0.36970800  0.87365800  0.05300100  1
  O  O35  1  0.63029200  0.12634200  0.94699900  1
  O  O36  1  0.12634200  0.63029200  0.44699900  1
  O  O37  1  0.87365800  0.36970800  0.55300100  1
  O  O38  1  0.40847000  0.06134100  0.34466100  1
  O  O39  1  0.59153000  0.93865900  0.65533900  1
  O  O40  1  0.93865900  0.59153000  0.15533900  1
  O  O41  1  0.06134100  0.40847000  0.84466100  1
