# generated using pymatgen
data_IrN3
_symmetry_space_group_name_H-M   'P 1'
_cell_length_a   5.94678687
_cell_length_b   5.94678687
_cell_length_c   5.94678687
_cell_angle_alpha   109.47122063
_cell_angle_beta   109.47122063
_cell_angle_gamma   109.47122063
_symmetry_Int_Tables_number   1
_chemical_formula_structural   IrN3
_chemical_formula_sum   'Ir4 N12'
_cell_volume   161.89194127
_cell_formula_units_Z   4
loop_
 _symmetry_equiv_pos_site_id
 _symmetry_equiv_pos_as_xyz
  1  'x, y, z'
loop_
 _atom_site_type_symbol
 _atom_site_label
 _atom_site_symmetry_multiplicity
 _atom_site_fract_x
 _atom_site_fract_y
 _atom_site_fract_z
 _atom_site_occupancy
  Ir  Ir0  1  0.50000000  0.50000000  0.50000000  1
  Ir  Ir1  1  0.50000000  0.00000000  0.00000000  1
  Ir  Ir2  1  0.00000000  0.50000000  0.00000000  1
  Ir  Ir3  1  0.00000000  0.00000000  0.50000000  1
  N  N4  1  0.90859900  0.69265500  0.60125400  1
  N  N5  1  0.09140100  0.30734500  0.39874600  1
  N  N6  1  0.09140100  0.69265500  0.78405600  1
  N  N7  1  0.90859900  0.30734500  0.21594400  1
  N  N8  1  0.69265500  0.60125400  0.90859900  1
  N  N9  1  0.30734500  0.39874600  0.09140100  1
  N  N10  1  0.69265500  0.78405600  0.09140100  1
  N  N11  1  0.30734500  0.21594400  0.90859900  1
  N  N12  1  0.60125400  0.90859900  0.69265500  1
  N  N13  1  0.39874600  0.09140100  0.30734500  1
  N  N14  1  0.21594400  0.90859900  0.30734500  1
  N  N15  1  0.78405600  0.09140100  0.69265500  1
