# generated using pymatgen
data_K2GaOF5
_symmetry_space_group_name_H-M   'P 1'
_cell_length_a   6.29924498
_cell_length_b   6.29924498
_cell_length_c   8.05938604
_cell_angle_alpha   86.46113031
_cell_angle_beta   86.46113031
_cell_angle_gamma   75.60422047
_symmetry_Int_Tables_number   1
_chemical_formula_structural   K2GaOF5
_chemical_formula_sum   'K4 Ga2 O2 F10'
_cell_volume   308.81245574
_cell_formula_units_Z   2
loop_
 _symmetry_equiv_pos_site_id
 _symmetry_equiv_pos_as_xyz
  1  'x, y, z'
loop_
 _atom_site_type_symbol
 _atom_site_label
 _atom_site_symmetry_multiplicity
 _atom_site_fract_x
 _atom_site_fract_y
 _atom_site_fract_z
 _atom_site_occupancy
  K  K0  1  0.19341900  0.20366100  0.96678100  1
  K  K1  1  0.80658100  0.79633900  0.03321900  1
  K  K2  1  0.79633900  0.80658100  0.53321900  1
  K  K3  1  0.20366100  0.19341900  0.46678100  1
  Ga  Ga4  1  0.29534700  0.70465300  0.75000000  1
  Ga  Ga5  1  0.70465300  0.29534700  0.25000000  1
  O  O6  1  0.56920400  0.43079600  0.75000000  1
  O  O7  1  0.43079600  0.56920400  0.25000000  1
  F  F8  1  0.49734200  0.86540300  0.81077400  1
  F  F9  1  0.50265800  0.13459700  0.18922600  1
  F  F10  1  0.13459700  0.50265800  0.68922600  1
  F  F11  1  0.86540300  0.49734200  0.31077400  1
  F  F12  1  0.05027800  0.94972200  0.75000000  1
  F  F13  1  0.94972200  0.05027800  0.25000000  1
  F  F14  1  0.37955100  0.76003200  0.52342100  1
  F  F15  1  0.62044900  0.23996800  0.47657900  1
  F  F16  1  0.23996800  0.62044900  0.97657900  1
  F  F17  1  0.76003200  0.37955100  0.02342100  1
