# generated using pymatgen
data_K2Si5BO12
_symmetry_space_group_name_H-M   'P 1'
_cell_length_a   4.78184100
_cell_length_b   13.39154500
_cell_length_c   9.19858300
_cell_angle_alpha   90.00000000
_cell_angle_beta   90.00000000
_cell_angle_gamma   90.00000000
_symmetry_Int_Tables_number   1
_chemical_formula_structural   K2Si5BO12
_chemical_formula_sum   'K4 Si10 B2 O24'
_cell_volume   589.04265885
_cell_formula_units_Z   2
loop_
 _symmetry_equiv_pos_site_id
 _symmetry_equiv_pos_as_xyz
  1  'x, y, z'
loop_
 _atom_site_type_symbol
 _atom_site_label
 _atom_site_symmetry_multiplicity
 _atom_site_fract_x
 _atom_site_fract_y
 _atom_site_fract_z
 _atom_site_occupancy
  K  K0  1  0.94742600  0.00000000  0.94152200  1
  K  K1  1  0.05257400  0.50000000  0.44152200  1
  K  K2  1  0.46550000  0.00000000  0.26909800  1
  K  K3  1  0.53450000  0.50000000  0.76909800  1
  Si  Si4  1  0.85556000  0.71010300  0.94458200  1
  Si  Si5  1  0.14444000  0.78989700  0.44458200  1
  Si  Si6  1  0.14444000  0.21010300  0.44458200  1
  Si  Si7  1  0.85556000  0.28989700  0.94458200  1
  Si  Si8  1  0.35780800  0.79928300  0.77663100  1
  Si  Si9  1  0.64219200  0.70071700  0.27663100  1
  Si  Si10  1  0.64219200  0.29928300  0.27663100  1
  Si  Si11  1  0.35780800  0.20071700  0.77663100  1
  Si  Si12  1  0.93771700  0.00000000  0.53067600  1
  Si  Si13  1  0.06228300  0.50000000  0.03067600  1
  B  B14  1  0.43743400  0.00000000  0.70079300  1
  B  B15  1  0.56256600  0.50000000  0.20079300  1
  O  O16  1  0.98647300  0.59720200  0.92681900  1
  O  O17  1  0.01352700  0.90279800  0.42681900  1
  O  O18  1  0.01352700  0.09720200  0.42681900  1
  O  O19  1  0.98647300  0.40279800  0.92681900  1
  O  O20  1  0.13350200  0.00000000  0.67221000  1
  O  O21  1  0.86649800  0.50000000  0.17221000  1
  O  O22  1  0.60494000  0.00000000  0.56522700  1
  O  O23  1  0.39506000  0.50000000  0.06522700  1
  O  O24  1  0.90771700  0.70848900  0.39258300  1
  O  O25  1  0.09228300  0.79151100  0.89258300  1
  O  O26  1  0.09228300  0.20848900  0.89258300  1
  O  O27  1  0.90771700  0.29151100  0.39258300  1
  O  O28  1  0.24783400  0.76923100  0.61206400  1
  O  O29  1  0.75216600  0.73076900  0.11206400  1
  O  O30  1  0.75216600  0.26923100  0.11206400  1
  O  O31  1  0.24783400  0.23076900  0.61206400  1
  O  O32  1  0.59066100  0.71618900  0.83066800  1
  O  O33  1  0.40933900  0.78381100  0.33066800  1
  O  O34  1  0.40933900  0.21618900  0.33066800  1
  O  O35  1  0.59066100  0.28381100  0.83066800  1
  O  O36  1  0.50013700  0.90935800  0.78779000  1
  O  O37  1  0.49986300  0.59064200  0.28779000  1
  O  O38  1  0.49986300  0.40935800  0.28779000  1
  O  O39  1  0.50013700  0.09064200  0.78779000  1
