# generated using pymatgen
data_K3Nb6SBr17
_symmetry_space_group_name_H-M   'P 1'
_cell_length_a   13.05562917
_cell_length_b   13.05562917
_cell_length_c   9.55820192
_cell_angle_alpha   89.29182999
_cell_angle_beta   89.29182999
_cell_angle_gamma   94.34480161
_symmetry_Int_Tables_number   1
_chemical_formula_structural   K3Nb6SBr17
_chemical_formula_sum   'K6 Nb12 S2 Br34'
_cell_volume   1624.23979877
_cell_formula_units_Z   2
loop_
 _symmetry_equiv_pos_site_id
 _symmetry_equiv_pos_as_xyz
  1  'x, y, z'
loop_
 _atom_site_type_symbol
 _atom_site_label
 _atom_site_symmetry_multiplicity
 _atom_site_fract_x
 _atom_site_fract_y
 _atom_site_fract_z
 _atom_site_occupancy
  K  K0  1  0.27762200  0.17640100  0.84310500  1
  K  K1  1  0.72237800  0.82359900  0.15689500  1
  K  K2  1  0.82359900  0.72237800  0.65689500  1
  K  K3  1  0.17640100  0.27762200  0.34310500  1
  K  K4  1  0.46068900  0.53931100  0.75000000  1
  K  K5  1  0.53931100  0.46068900  0.25000000  1
  Nb  Nb6  1  0.80353000  0.16418300  0.51876000  1
  Nb  Nb7  1  0.19647000  0.83581700  0.48124000  1
  Nb  Nb8  1  0.83581700  0.19647000  0.98124000  1
  Nb  Nb9  1  0.16418300  0.80353000  0.01876000  1
  Nb  Nb10  1  0.61574900  0.24163100  0.64288100  1
  Nb  Nb11  1  0.38425100  0.75836900  0.35711900  1
  Nb  Nb12  1  0.75836900  0.38425100  0.85711900  1
  Nb  Nb13  1  0.24163100  0.61574900  0.14288100  1
  Nb  Nb14  1  0.69779300  0.05214100  0.76171900  1
  Nb  Nb15  1  0.30220700  0.94785900  0.23828100  1
  Nb  Nb16  1  0.94785900  0.30220700  0.73828100  1
  Nb  Nb17  1  0.05214100  0.69779300  0.26171900  1
  S  S18  1  0.77724600  0.22275400  0.75000000  1
  S  S19  1  0.22275400  0.77724600  0.25000000  1
  Br  Br20  1  0.87342200  0.00845500  0.88961300  1
  Br  Br21  1  0.12657800  0.99154500  0.11038700  1
  Br  Br22  1  0.99154500  0.12657800  0.61038700  1
  Br  Br23  1  0.00845500  0.87342200  0.38961300  1
  Br  Br24  1  0.36096800  0.79761100  0.62065700  1
  Br  Br25  1  0.63903200  0.20238900  0.37934300  1
  Br  Br26  1  0.20238900  0.63903200  0.87934300  1
  Br  Br27  1  0.79761100  0.36096800  0.12065700  1
  Br  Br28  1  0.64910900  0.09915900  0.02655000  1
  Br  Br29  1  0.35089100  0.90084100  0.97345000  1
  Br  Br30  1  0.90084100  0.35089100  0.47345000  1
  Br  Br31  1  0.09915900  0.64910900  0.52655000  1
  Br  Br32  1  0.55884900  0.31304500  0.89581800  1
  Br  Br33  1  0.44115100  0.68695500  0.10418200  1
  Br  Br34  1  0.68695500  0.44115100  0.60418200  1
  Br  Br35  1  0.31304500  0.55884900  0.39581800  1
  Br  Br36  1  0.43248900  0.31418500  0.56058000  1
  Br  Br37  1  0.56751100  0.68581500  0.43942000  1
  Br  Br38  1  0.68581500  0.56751100  0.93942000  1
  Br  Br39  1  0.31418500  0.43248900  0.06058000  1
  Br  Br40  1  0.11793400  0.88206600  0.75000000  1
  Br  Br41  1  0.88206600  0.11793400  0.25000000  1
  Br  Br42  1  0.50781600  0.06567800  0.68337200  1
  Br  Br43  1  0.49218400  0.93432200  0.31662800  1
  Br  Br44  1  0.93432200  0.49218400  0.81662800  1
  Br  Br45  1  0.06567800  0.50781600  0.18337200  1
  Br  Br46  1  0.63775300  0.85328600  0.83456700  1
  Br  Br47  1  0.36224700  0.14671400  0.16543300  1
  Br  Br48  1  0.14671400  0.36224700  0.66543300  1
  Br  Br49  1  0.85328600  0.63775300  0.33456700  1
  Br  Br50  1  0.74451600  0.96724000  0.52215300  1
  Br  Br51  1  0.25548400  0.03276000  0.47784700  1
  Br  Br52  1  0.03276000  0.25548400  0.97784700  1
  Br  Br53  1  0.96724000  0.74451600  0.02215300  1
