# generated using pymatgen
data_K2LiS2
_symmetry_space_group_name_H-M   'P 1'
_cell_length_a   4.22294500
_cell_length_b   4.22294500
_cell_length_c   14.87645700
_cell_angle_alpha   90.00000000
_cell_angle_beta   90.00000000
_cell_angle_gamma   90.00000000
_symmetry_Int_Tables_number   1
_chemical_formula_structural   K2LiS2
_chemical_formula_sum   'K2 Li1 S2'
_cell_volume   265.29579210
_cell_formula_units_Z   1
loop_
 _symmetry_equiv_pos_site_id
 _symmetry_equiv_pos_as_xyz
  1  'x, y, z'
loop_
 _atom_site_type_symbol
 _atom_site_label
 _atom_site_symmetry_multiplicity
 _atom_site_fract_x
 _atom_site_fract_y
 _atom_site_fract_z
 _atom_site_occupancy
  K  K0  1  0.50000000  0.50000000  0.65737200  1
  K  K1  1  0.50000000  0.50000000  0.34262800  1
  Li  Li2  1  0.50000000  0.50000000  0.00000000  1
  S  S3  1  0.50000000  0.50000000  0.15386500  1
  S  S4  1  0.50000000  0.50000000  0.84613500  1
