data_image0
_chemical_formula_structural       Cu2Li3O4
_chemical_formula_sum              "Cu2 Li3 O4"
_cell_length_a       2.75725
_cell_length_b       5.12739
_cell_length_c       6.597
_cell_angle_alpha    98.965
_cell_angle_beta     102.062
_cell_angle_gamma    105.597

_space_group_name_H-M_alt    "P 1"
_space_group_IT_number       1

loop_
  _space_group_symop_operation_xyz
  'x, y, z'

loop_
  _atom_site_type_symbol
  _atom_site_label
  _atom_site_symmetry_multiplicity
  _atom_site_fract_x
  _atom_site_fract_y
  _atom_site_fract_z
  _atom_site_occupancy
  Cu  Cu1       1.0  0.11000  0.94900  0.27100  1.0000
  Cu  Cu2       1.0  0.89000  0.05130  0.72900  1.0000
  Li  Li1       1.0  0.76900  0.40800  0.13000  1.0000
  Li  Li2       1.0  0.50000  0.50000  0.50000  1.0000
  Li  Li3       1.0  0.23100  0.59200  0.87000  1.0000
  O   O1        1.0  0.43600  0.69200  0.17900  1.0000
  O   O2        1.0  0.77900  0.21200  0.34600  1.0000
  O   O3        1.0  0.22100  0.78800  0.65400  1.0000
  O   O4        1.0  0.56400  0.30800  0.82100  1.0000
