# generated using pymatgen
data_K2HfO3
_symmetry_space_group_name_H-M   'P 1'
_cell_length_a   5.87979626
_cell_length_b   5.87979626
_cell_length_c   12.49245000
_cell_angle_alpha   90.00000000
_cell_angle_beta   90.00000000
_cell_angle_gamma   120.00000287
_symmetry_Int_Tables_number   1
_chemical_formula_structural   K2HfO3
_chemical_formula_sum   'K8 Hf4 O12'
_cell_volume   374.02686201
_cell_formula_units_Z   4
loop_
 _symmetry_equiv_pos_site_id
 _symmetry_equiv_pos_as_xyz
  1  'x, y, z'
loop_
 _atom_site_type_symbol
 _atom_site_label
 _atom_site_symmetry_multiplicity
 _atom_site_fract_x
 _atom_site_fract_y
 _atom_site_fract_z
 _atom_site_occupancy
  K  K0  1  0.68628300  0.68628300  0.75000000  1
  K  K1  1  0.31371700  0.31371700  0.25000000  1
  K  K2  1  0.00000000  0.31371700  0.75000000  1
  K  K3  1  0.00000000  0.68628300  0.25000000  1
  K  K4  1  0.31371700  0.00000000  0.75000000  1
  K  K5  1  0.68628300  0.00000000  0.25000000  1
  K  K6  1  0.00000000  0.00000000  0.00000000  1
  K  K7  1  0.00000000  0.00000000  0.50000000  1
  Hf  Hf8  1  0.66666700  0.33333300  0.00000000  1
  Hf  Hf9  1  0.33333300  0.66666700  0.00000000  1
  Hf  Hf10  1  0.33333300  0.66666700  0.50000000  1
  Hf  Hf11  1  0.66666700  0.33333300  0.50000000  1
  O  O12  1  0.40046400  0.40046400  0.90645600  1
  O  O13  1  0.59953600  0.59953600  0.09354400  1
  O  O14  1  0.00000000  0.59953600  0.90645600  1
  O  O15  1  0.59953600  0.59953600  0.40645600  1
  O  O16  1  0.00000000  0.59953600  0.59354400  1
  O  O17  1  0.00000000  0.40046400  0.09354400  1
  O  O18  1  0.40046400  0.40046400  0.59354400  1
  O  O19  1  0.00000000  0.40046400  0.40645600  1
  O  O20  1  0.59953600  0.00000000  0.90645600  1
  O  O21  1  0.40046400  0.00000000  0.09354400  1
  O  O22  1  0.40046400  0.00000000  0.40645600  1
  O  O23  1  0.59953600  0.00000000  0.59354400  1
