# generated using pymatgen
data_La3TaGa5O14
_symmetry_space_group_name_H-M   'P 1'
_cell_length_a   8.38329437
_cell_length_b   8.38329437
_cell_length_c   5.26949300
_cell_angle_alpha   90.00000000
_cell_angle_beta   90.00000000
_cell_angle_gamma   120.00000293
_symmetry_Int_Tables_number   1
_chemical_formula_structural   La3TaGa5O14
_chemical_formula_sum   'La3 Ta1 Ga5 O14'
_cell_volume   320.72209736
_cell_formula_units_Z   1
loop_
 _symmetry_equiv_pos_site_id
 _symmetry_equiv_pos_as_xyz
  1  'x, y, z'
loop_
 _atom_site_type_symbol
 _atom_site_label
 _atom_site_symmetry_multiplicity
 _atom_site_fract_x
 _atom_site_fract_y
 _atom_site_fract_z
 _atom_site_occupancy
  La  La0  1  0.57262500  0.00000000  0.00000000  1
  La  La1  1  0.00000000  0.57262500  0.00000000  1
  La  La2  1  0.42737500  0.42737500  0.00000000  1
  Ta  Ta3  1  0.00000000  0.00000000  0.00000000  1
  Ga  Ga4  1  0.33333300  0.66666700  0.53016100  1
  Ga  Ga5  1  0.66666700  0.33333300  0.46983900  1
  Ga  Ga6  1  0.24353600  0.00000000  0.50000000  1
  Ga  Ga7  1  0.00000000  0.24353600  0.50000000  1
  Ga  Ga8  1  0.75646400  0.75646400  0.50000000  1
  O  O9  1  0.14226500  0.22011900  0.23390000  1
  O  O10  1  0.77988100  0.92214600  0.23390000  1
  O  O11  1  0.22011900  0.14226500  0.76610000  1
  O  O12  1  0.07785400  0.85773500  0.23390000  1
  O  O13  1  0.92214600  0.77988100  0.76610000  1
  O  O14  1  0.85773500  0.07785400  0.76610000  1
  O  O15  1  0.33333300  0.66666700  0.18131800  1
  O  O16  1  0.66666700  0.33333300  0.81868200  1
  O  O17  1  0.45750700  0.14680400  0.30311200  1
  O  O18  1  0.85319600  0.31070400  0.30311200  1
  O  O19  1  0.14680400  0.45750700  0.69688800  1
  O  O20  1  0.68929600  0.54249300  0.30311200  1
  O  O21  1  0.31070400  0.85319600  0.69688800  1
  O  O22  1  0.54249300  0.68929600  0.69688800  1
