# generated using pymatgen
data_La3Yb2(GaO4)3
_symmetry_space_group_name_H-M   'P 1'
_cell_length_a   11.42766420
_cell_length_b   11.42766420
_cell_length_c   11.42766420
_cell_angle_alpha   109.47122063
_cell_angle_beta   109.47122063
_cell_angle_gamma   109.47122063
_symmetry_Int_Tables_number   1
_chemical_formula_structural   La3Yb2(GaO4)3
_chemical_formula_sum   'La12 Yb8 Ga12 O48'
_cell_volume   1148.81611638
_cell_formula_units_Z   4
loop_
 _symmetry_equiv_pos_site_id
 _symmetry_equiv_pos_as_xyz
  1  'x, y, z'
loop_
 _atom_site_type_symbol
 _atom_site_label
 _atom_site_symmetry_multiplicity
 _atom_site_fract_x
 _atom_site_fract_y
 _atom_site_fract_z
 _atom_site_occupancy
  La  La0  1  0.25000000  0.37500000  0.12500000  1
  La  La1  1  0.75000000  0.62500000  0.87500000  1
  La  La2  1  0.75000000  0.12500000  0.37500000  1
  La  La3  1  0.12500000  0.25000000  0.37500000  1
  La  La4  1  0.37500000  0.75000000  0.12500000  1
  La  La5  1  0.25000000  0.87500000  0.62500000  1
  La  La6  1  0.87500000  0.75000000  0.62500000  1
  La  La7  1  0.62500000  0.25000000  0.87500000  1
  La  La8  1  0.37500000  0.12500000  0.25000000  1
  La  La9  1  0.62500000  0.87500000  0.75000000  1
  La  La10  1  0.12500000  0.37500000  0.75000000  1
  La  La11  1  0.87500000  0.62500000  0.25000000  1
  Yb  Yb12  1  0.00000000  0.00000000  0.00000000  1
  Yb  Yb13  1  0.50000000  0.00000000  0.50000000  1
  Yb  Yb14  1  0.00000000  0.50000000  0.50000000  1
  Yb  Yb15  1  0.50000000  0.00000000  0.00000000  1
  Yb  Yb16  1  0.50000000  0.50000000  0.00000000  1
  Yb  Yb17  1  0.50000000  0.50000000  0.50000000  1
  Yb  Yb18  1  0.00000000  0.00000000  0.50000000  1
  Yb  Yb19  1  0.00000000  0.50000000  0.00000000  1
  Ga  Ga20  1  0.25000000  0.62500000  0.37500000  1
  Ga  Ga21  1  0.75000000  0.37500000  0.62500000  1
  Ga  Ga22  1  0.75000000  0.87500000  0.12500000  1
  Ga  Ga23  1  0.37500000  0.25000000  0.62500000  1
  Ga  Ga24  1  0.62500000  0.75000000  0.37500000  1
  Ga  Ga25  1  0.25000000  0.12500000  0.87500000  1
  Ga  Ga26  1  0.12500000  0.75000000  0.87500000  1
  Ga  Ga27  1  0.87500000  0.25000000  0.12500000  1
  Ga  Ga28  1  0.62500000  0.37500000  0.25000000  1
  Ga  Ga29  1  0.37500000  0.62500000  0.75000000  1
  Ga  Ga30  1  0.87500000  0.12500000  0.75000000  1
  Ga  Ga31  1  0.12500000  0.87500000  0.25000000  1
  O  O32  1  0.47140100  0.37167100  0.27984500  1
  O  O33  1  0.52859900  0.62832900  0.72015500  1
  O  O34  1  0.59182600  0.19155600  0.22015500  1
  O  O35  1  0.90817400  0.12832900  0.59973000  1
  O  O36  1  0.27984500  0.47140100  0.37167100  1
  O  O37  1  0.30844400  0.90817400  0.27984500  1
  O  O38  1  0.40817400  0.80844400  0.77984500  1
  O  O39  1  0.09182600  0.87167100  0.40027000  1
  O  O40  1  0.72015500  0.52859900  0.62832900  1
  O  O41  1  0.69155600  0.09182600  0.72015500  1
  O  O42  1  0.02859900  0.30844400  0.90027000  1
  O  O43  1  0.22015500  0.59182600  0.19155600  1
  O  O44  1  0.12832900  0.02859900  0.22015500  1
  O  O45  1  0.97140100  0.69155600  0.09973000  1
  O  O46  1  0.77984500  0.40817400  0.80844400  1
  O  O47  1  0.87167100  0.97140100  0.77984500  1
  O  O48  1  0.59973000  0.90817400  0.12832900  1
  O  O49  1  0.19155600  0.47140100  0.59973000  1
  O  O50  1  0.40027000  0.09182600  0.87167100  1
  O  O51  1  0.80844400  0.52859900  0.40027000  1
  O  O52  1  0.90027000  0.02859900  0.30844400  1
  O  O53  1  0.37167100  0.59182600  0.90027000  1
  O  O54  1  0.09973000  0.97140100  0.69155600  1
  O  O55  1  0.62832900  0.40817400  0.09973000  1
  O  O56  1  0.37167100  0.27984500  0.47140100  1
  O  O57  1  0.59182600  0.90027000  0.37167100  1
  O  O58  1  0.62832900  0.72015500  0.52859900  1
  O  O59  1  0.40817400  0.09973000  0.62832900  1
  O  O60  1  0.12832900  0.59973000  0.90817400  1
  O  O61  1  0.02859900  0.22015500  0.12832900  1
  O  O62  1  0.87167100  0.40027000  0.09182600  1
  O  O63  1  0.97140100  0.77984500  0.87167100  1
  O  O64  1  0.30844400  0.90027000  0.02859900  1
  O  O65  1  0.90817400  0.27984500  0.30844400  1
  O  O66  1  0.69155600  0.09973000  0.97140100  1
  O  O67  1  0.09182600  0.72015500  0.69155600  1
  O  O68  1  0.19155600  0.22015500  0.59182600  1
  O  O69  1  0.47140100  0.59973000  0.19155600  1
  O  O70  1  0.80844400  0.77984500  0.40817400  1
  O  O71  1  0.52859900  0.40027000  0.80844400  1
  O  O72  1  0.27984500  0.30844400  0.90817400  1
  O  O73  1  0.72015500  0.69155600  0.09182600  1
  O  O74  1  0.22015500  0.12832900  0.02859900  1
  O  O75  1  0.77984500  0.87167100  0.97140100  1
  O  O76  1  0.90027000  0.37167100  0.59182600  1
  O  O77  1  0.09973000  0.62832900  0.40817400  1
  O  O78  1  0.59973000  0.19155600  0.47140100  1
  O  O79  1  0.40027000  0.80844400  0.52859900  1
