# generated using pymatgen
data_KNb3VCl11
_symmetry_space_group_name_H-M   'P 1'
_cell_length_a   6.88226700
_cell_length_b   13.18747200
_cell_length_c   17.24811900
_cell_angle_alpha   90.00000000
_cell_angle_beta   90.00000000
_cell_angle_gamma   90.00000000
_symmetry_Int_Tables_number   1
_chemical_formula_structural   KNb3VCl11
_chemical_formula_sum   'K4 Nb12 V4 Cl44'
_cell_volume   1565.43416394
_cell_formula_units_Z   4
loop_
 _symmetry_equiv_pos_site_id
 _symmetry_equiv_pos_as_xyz
  1  'x, y, z'
loop_
 _atom_site_type_symbol
 _atom_site_label
 _atom_site_symmetry_multiplicity
 _atom_site_fract_x
 _atom_site_fract_y
 _atom_site_fract_z
 _atom_site_occupancy
  K  K0  1  0.25000000  0.99351800  0.26181700  1
  K  K1  1  0.75000000  0.00648200  0.73818300  1
  K  K2  1  0.75000000  0.50648200  0.76181700  1
  K  K3  1  0.25000000  0.49351800  0.23818300  1
  Nb  Nb4  1  0.04358800  0.74825600  0.51220000  1
  Nb  Nb5  1  0.95641200  0.25174400  0.48780000  1
  Nb  Nb6  1  0.95641200  0.75174400  0.01220000  1
  Nb  Nb7  1  0.54358800  0.25174400  0.48780000  1
  Nb  Nb8  1  0.04358800  0.24825600  0.98780000  1
  Nb  Nb9  1  0.45641200  0.74825600  0.51220000  1
  Nb  Nb10  1  0.45641200  0.24825600  0.98780000  1
  Nb  Nb11  1  0.54358800  0.75174400  0.01220000  1
  Nb  Nb12  1  0.25000000  0.68949600  0.64788900  1
  Nb  Nb13  1  0.75000000  0.31050400  0.35211100  1
  Nb  Nb14  1  0.75000000  0.81050400  0.14788900  1
  Nb  Nb15  1  0.25000000  0.18949600  0.85211100  1
  V  V16  1  0.25000000  0.67934800  0.83533000  1
  V  V17  1  0.75000000  0.32065200  0.16467000  1
  V  V18  1  0.75000000  0.82065200  0.33533000  1
  V  V19  1  0.25000000  0.17934800  0.66467000  1
  Cl  Cl20  1  0.25000000  0.82467800  0.92790800  1
  Cl  Cl21  1  0.75000000  0.17532200  0.07209200  1
  Cl  Cl22  1  0.75000000  0.67532200  0.42790800  1
  Cl  Cl23  1  0.25000000  0.32467800  0.57209200  1
  Cl  Cl24  1  0.25000000  0.86105400  0.59014400  1
  Cl  Cl25  1  0.75000000  0.13894600  0.40985600  1
  Cl  Cl26  1  0.75000000  0.63894600  0.09014400  1
  Cl  Cl27  1  0.25000000  0.36105400  0.90985600  1
  Cl  Cl28  1  0.00858500  0.75539200  0.74674800  1
  Cl  Cl29  1  0.99141500  0.24460800  0.25325200  1
  Cl  Cl30  1  0.99141500  0.74460800  0.24674800  1
  Cl  Cl31  1  0.50858500  0.24460800  0.25325200  1
  Cl  Cl32  1  0.00858500  0.25539200  0.75325200  1
  Cl  Cl33  1  0.49141500  0.75539200  0.74674800  1
  Cl  Cl34  1  0.49141500  0.25539200  0.75325200  1
  Cl  Cl35  1  0.50858500  0.74460800  0.24674800  1
  Cl  Cl36  1  0.50314100  0.60474100  0.91837700  1
  Cl  Cl37  1  0.49685900  0.39525900  0.08162300  1
  Cl  Cl38  1  0.49685900  0.89525900  0.41837700  1
  Cl  Cl39  1  0.00314100  0.39525900  0.08162300  1
  Cl  Cl40  1  0.50314100  0.10474100  0.58162300  1
  Cl  Cl41  1  0.99685900  0.60474100  0.91837700  1
  Cl  Cl42  1  0.99685900  0.10474100  0.58162300  1
  Cl  Cl43  1  0.00314100  0.89525900  0.41837700  1
  Cl  Cl44  1  0.25000000  0.53506500  0.74567900  1
  Cl  Cl45  1  0.75000000  0.46493500  0.25432100  1
  Cl  Cl46  1  0.75000000  0.96493500  0.24567900  1
  Cl  Cl47  1  0.25000000  0.03506500  0.75432100  1
  Cl  Cl48  1  0.00344300  0.58633000  0.58213900  1
  Cl  Cl49  1  0.99655700  0.41367000  0.41786100  1
  Cl  Cl50  1  0.99655700  0.91367000  0.08213900  1
  Cl  Cl51  1  0.50344300  0.41367000  0.41786100  1
  Cl  Cl52  1  0.00344300  0.08633000  0.91786100  1
  Cl  Cl53  1  0.49655700  0.58633000  0.58213900  1
  Cl  Cl54  1  0.49655700  0.08633000  0.91786100  1
  Cl  Cl55  1  0.50344300  0.91367000  0.08213900  1
  Cl  Cl56  1  0.25000000  0.15708100  0.08115300  1
  Cl  Cl57  1  0.75000000  0.84291900  0.91884700  1
  Cl  Cl58  1  0.75000000  0.34291900  0.58115300  1
  Cl  Cl59  1  0.25000000  0.65708100  0.41884700  1
  Cl  Cl60  1  0.25000000  0.67375900  0.08363400  1
  Cl  Cl61  1  0.75000000  0.32624100  0.91636600  1
  Cl  Cl62  1  0.75000000  0.82624100  0.58363400  1
  Cl  Cl63  1  0.25000000  0.17375900  0.41636600  1
