# generated using pymatgen
data_La4MgSi4(C2O11)2
_symmetry_space_group_name_H-M   'P 1'
_cell_length_a   5.55057600
_cell_length_b   11.91918600
_cell_length_c   14.33689935
_cell_angle_alpha   64.56085792
_cell_angle_beta   90.00000000
_cell_angle_gamma   90.00000000
_symmetry_Int_Tables_number   1
_chemical_formula_structural   La4MgSi4(C2O11)2
_chemical_formula_sum   'La8 Mg2 Si8 C8 O44'
_cell_volume   856.54041831
_cell_formula_units_Z   2
loop_
 _symmetry_equiv_pos_site_id
 _symmetry_equiv_pos_as_xyz
  1  'x, y, z'
loop_
 _atom_site_type_symbol
 _atom_site_label
 _atom_site_symmetry_multiplicity
 _atom_site_fract_x
 _atom_site_fract_y
 _atom_site_fract_z
 _atom_site_occupancy
  La  La0  1  0.03448600  0.75794700  0.54994500  1
  La  La1  1  0.96551400  0.24205300  0.45005500  1
  La  La2  1  0.53448600  0.24205300  0.95005500  1
  La  La3  1  0.46551400  0.75794700  0.04994500  1
  La  La4  1  0.00860000  0.23483300  0.73747200  1
  La  La5  1  0.99140000  0.76516700  0.26252800  1
  La  La6  1  0.50860000  0.76516700  0.76252800  1
  La  La7  1  0.49140000  0.23483300  0.23747200  1
  Mg  Mg8  1  0.50000000  0.00000000  0.50000000  1
  Mg  Mg9  1  0.00000000  0.00000000  0.00000000  1
  Si  Si10  1  0.99441900  0.94760300  0.66259500  1
  Si  Si11  1  0.00558100  0.05239700  0.33740500  1
  Si  Si12  1  0.49441900  0.05239700  0.83740500  1
  Si  Si13  1  0.50558100  0.94760300  0.16259500  1
  Si  Si14  1  0.99913100  0.76111300  0.90978000  1
  Si  Si15  1  0.00086900  0.23888700  0.09022000  1
  Si  Si16  1  0.49913100  0.23888700  0.59022000  1
  Si  Si17  1  0.50086900  0.76111300  0.40978000  1
  C  C18  1  0.33694000  0.46160200  0.01147400  1
  C  C19  1  0.66306000  0.53839800  0.98852600  1
  C  C20  1  0.83694000  0.53839800  0.48852600  1
  C  C21  1  0.16306000  0.46160200  0.51147400  1
  C  C22  1  0.01467500  0.40830100  0.83575300  1
  C  C23  1  0.98532500  0.59169900  0.16424700  1
  C  C24  1  0.51467500  0.59169900  0.66424700  1
  C  C25  1  0.48532500  0.40830100  0.33575300  1
  O  O26  1  0.99132000  0.83297900  0.98165100  1
  O  O27  1  0.00868000  0.16702100  0.01834900  1
  O  O28  1  0.49132000  0.16702100  0.51834900  1
  O  O29  1  0.50868000  0.83297900  0.48165100  1
  O  O30  1  0.23617500  0.33905500  0.55720700  1
  O  O31  1  0.76382500  0.66094500  0.44279300  1
  O  O32  1  0.73617500  0.66094500  0.94279300  1
  O  O33  1  0.26382500  0.33905500  0.05720700  1
  O  O34  1  0.77676400  0.91317600  0.60225800  1
  O  O35  1  0.22323600  0.08682400  0.39774200  1
  O  O36  1  0.27676400  0.08682400  0.89774200  1
  O  O37  1  0.72323600  0.91317600  0.10225800  1
  O  O38  1  0.93303900  0.84405900  0.78577000  1
  O  O39  1  0.06696100  0.15594100  0.21423000  1
  O  O40  1  0.43303900  0.15594100  0.71423000  1
  O  O41  1  0.56696100  0.84405900  0.28577000  1
  O  O42  1  0.25448700  0.69751200  0.91624500  1
  O  O43  1  0.74551300  0.30248800  0.08375500  1
  O  O44  1  0.75448700  0.30248800  0.58375500  1
  O  O45  1  0.24551300  0.69751200  0.41624500  1
  O  O46  1  0.24427500  0.89988900  0.62818800  1
  O  O47  1  0.75572500  0.10011100  0.37181200  1
  O  O48  1  0.74427500  0.10011100  0.87181200  1
  O  O49  1  0.25572500  0.89988900  0.12818800  1
  O  O50  1  0.21779500  0.35748100  0.82120300  1
  O  O51  1  0.78220500  0.64251900  0.17879700  1
  O  O52  1  0.71779500  0.64251900  0.67879700  1
  O  O53  1  0.28220500  0.35748100  0.32120300  1
  O  O54  1  0.49979000  0.90999800  0.85616700  1
  O  O55  1  0.50021000  0.09000200  0.14383300  1
  O  O56  1  0.99979000  0.09000200  0.64383300  1
  O  O57  1  0.00021000  0.90999800  0.35616700  1
  O  O58  1  0.50547800  0.51168900  0.63177300  1
  O  O59  1  0.49452200  0.48831100  0.36822700  1
  O  O60  1  0.00547800  0.48831100  0.86822700  1
  O  O61  1  0.99452200  0.51168900  0.13177300  1
  O  O62  1  0.00963300  0.50403300  0.56859100  1
  O  O63  1  0.99036700  0.49596700  0.43140900  1
  O  O64  1  0.50963300  0.49596700  0.93140900  1
  O  O65  1  0.49036700  0.50403300  0.06859100  1
  O  O66  1  0.31462700  0.63993300  0.68676200  1
  O  O67  1  0.68537300  0.36006700  0.31323800  1
  O  O68  1  0.81462700  0.36006700  0.81323800  1
  O  O69  1  0.18537300  0.63993300  0.18676200  1
