# generated using pymatgen
data_Na5Te2AuO28
_symmetry_space_group_name_H-M   'P 1'
_cell_length_a   4.97725377
_cell_length_b   8.85046421
_cell_length_c   13.83758660
_cell_angle_alpha   93.38593611
_cell_angle_beta   105.52851847
_cell_angle_gamma   72.41601072
_symmetry_Int_Tables_number   1
_chemical_formula_structural   Na5Te2AuO28
_chemical_formula_sum   'Na5 Te2 Au1 O28'
_cell_volume   559.70914150
_cell_formula_units_Z   1
loop_
 _symmetry_equiv_pos_site_id
 _symmetry_equiv_pos_as_xyz
  1  'x, y, z'
loop_
 _atom_site_type_symbol
 _atom_site_label
 _atom_site_symmetry_multiplicity
 _atom_site_fract_x
 _atom_site_fract_y
 _atom_site_fract_z
 _atom_site_occupancy
  Na  Na0  1  0.35155600  0.23109900  0.69068100  1
  Na  Na1  1  0.64844400  0.76890100  0.30931900  1
  Na  Na2  1  0.68276700  0.64017600  0.04555800  1
  Na  Na3  1  0.31723300  0.35982400  0.95444200  1
  Na  Na4  1  0.00000000  0.00000000  0.50000000  1
  Te  Te5  1  0.20142700  0.22478300  0.20288700  1
  Te  Te6  1  0.79857300  0.77521700  0.79711300  1
  Au  Au7  1  0.00000000  0.00000000  0.00000000  1
  O  O8  1  0.44502100  0.16336500  0.35674200  1
  O  O9  1  0.55497900  0.83663500  0.64325800  1
  O  O10  1  0.52895600  0.01111900  0.39260300  1
  O  O11  1  0.47104400  0.98888100  0.60739700  1
  O  O12  1  0.81898300  0.22183100  0.23755900  1
  O  O13  1  0.18101700  0.77816900  0.76244100  1
  O  O14  1  0.27562600  0.95119300  0.14765800  1
  O  O15  1  0.72437400  0.04880700  0.85234200  1
  O  O16  1  0.12294200  0.82127000  0.35748400  1
  O  O17  1  0.87705800  0.17873000  0.64251600  1
  O  O18  1  0.56059500  0.24325700  0.15363300  1
  O  O19  1  0.43940500  0.75674300  0.84636700  1
  O  O20  1  0.32240500  0.68971900  0.38138900  1
  O  O21  1  0.67759500  0.31028100  0.61861100  1
  O  O22  1  0.03435200  0.29050200  0.46991900  1
  O  O23  1  0.96564800  0.70949800  0.53008100  1
  O  O24  1  0.19893600  0.63052300  0.02010600  1
  O  O25  1  0.80106400  0.36947700  0.97989400  1
  O  O26  1  0.19138900  0.59746900  0.55883100  1
  O  O27  1  0.80861100  0.40253100  0.44116900  1
  O  O28  1  0.09820000  0.47175400  0.22149300  1
  O  O29  1  0.90180000  0.52824600  0.77850700  1
  O  O30  1  0.44587100  0.12972900  0.85490900  1
  O  O31  1  0.55412900  0.87027100  0.14509100  1
  O  O32  1  0.02796700  0.24118400  0.02791400  1
  O  O33  1  0.97203300  0.75881600  0.97208600  1
  O  O34  1  0.18318200  0.45044800  0.77885200  1
  O  O35  1  0.81681800  0.54955200  0.22114800  1
