# generated using pymatgen
data_K10CoMo7O27
_symmetry_space_group_name_H-M   'P 1'
_cell_length_a   8.03323100
_cell_length_b   10.75643500
_cell_length_c   18.62914600
_cell_angle_alpha   90.00000000
_cell_angle_beta   90.00000000
_cell_angle_gamma   90.00000000
_symmetry_Int_Tables_number   1
_chemical_formula_structural   K10CoMo7O27
_chemical_formula_sum   'K20 Co2 Mo14 O54'
_cell_volume   1609.72451849
_cell_formula_units_Z   2
loop_
 _symmetry_equiv_pos_site_id
 _symmetry_equiv_pos_as_xyz
  1  'x, y, z'
loop_
 _atom_site_type_symbol
 _atom_site_label
 _atom_site_symmetry_multiplicity
 _atom_site_fract_x
 _atom_site_fract_y
 _atom_site_fract_z
 _atom_site_occupancy
  K  K0  1  0.87881500  0.09705600  0.00000000  1
  K  K1  1  0.12118500  0.59705600  0.50000000  1
  K  K2  1  0.23399000  0.86125700  0.15355100  1
  K  K3  1  0.76601000  0.36125700  0.34644900  1
  K  K4  1  0.76601000  0.36125700  0.65355100  1
  K  K5  1  0.23399000  0.86125700  0.84644900  1
  K  K6  1  0.55610700  0.17469500  0.17945800  1
  K  K7  1  0.44389300  0.67469500  0.32054200  1
  K  K8  1  0.44389300  0.67469500  0.67945800  1
  K  K9  1  0.55610700  0.17469500  0.82054200  1
  K  K10  1  0.59737200  0.74639800  0.00000000  1
  K  K11  1  0.40262800  0.24639800  0.50000000  1
  K  K12  1  0.11939600  0.00352700  0.35840700  1
  K  K13  1  0.88060400  0.50352700  0.14159300  1
  K  K14  1  0.88060400  0.50352700  0.85840700  1
  K  K15  1  0.11939600  0.00352700  0.64159300  1
  K  K16  1  0.24114200  0.34617300  0.31654000  1
  K  K17  1  0.75885800  0.84617300  0.18346000  1
  K  K18  1  0.75885800  0.84617300  0.81654000  1
  K  K19  1  0.24114200  0.34617300  0.68346000  1
  Co  Co20  1  0.21727800  0.35503700  0.00000000  1
  Co  Co21  1  0.78272200  0.85503700  0.50000000  1
  Mo  Mo22  1  0.05935700  0.68207000  0.00000000  1
  Mo  Mo23  1  0.94064300  0.18207000  0.50000000  1
  Mo  Mo24  1  0.40677500  0.51945700  0.15355800  1
  Mo  Mo25  1  0.59322500  0.01945700  0.34644200  1
  Mo  Mo26  1  0.59322500  0.01945700  0.65355800  1
  Mo  Mo27  1  0.40677500  0.51945700  0.84644200  1
  Mo  Mo28  1  0.61010300  0.36656200  0.00000000  1
  Mo  Mo29  1  0.38989700  0.86656200  0.50000000  1
  Mo  Mo30  1  0.03775400  0.19075100  0.16550500  1
  Mo  Mo31  1  0.96224600  0.69075100  0.33449500  1
  Mo  Mo32  1  0.96224600  0.69075100  0.66550500  1
  Mo  Mo33  1  0.03775400  0.19075100  0.83449500  1
  Mo  Mo34  1  0.39962300  0.04508200  0.00000000  1
  Mo  Mo35  1  0.60037700  0.54508200  0.50000000  1
  O  O36  1  0.04997500  0.23648100  0.42123000  1
  O  O37  1  0.95002500  0.73648100  0.07877000  1
  O  O38  1  0.95002500  0.73648100  0.92123000  1
  O  O39  1  0.04997500  0.23648100  0.57877000  1
  O  O40  1  0.09641900  0.56148000  0.35410900  1
  O  O41  1  0.90358100  0.06148000  0.14589100  1
  O  O42  1  0.90358100  0.06148000  0.85410900  1
  O  O43  1  0.09641900  0.56148000  0.64589100  1
  O  O44  1  0.39683200  0.42831900  0.06879900  1
  O  O45  1  0.60316800  0.92831900  0.43120100  1
  O  O46  1  0.60316800  0.92831900  0.56879900  1
  O  O47  1  0.39683200  0.42831900  0.93120100  1
  O  O48  1  0.49737800  0.48245300  0.42216500  1
  O  O49  1  0.50262200  0.98245300  0.07783500  1
  O  O50  1  0.50262200  0.98245300  0.92216500  1
  O  O51  1  0.49737800  0.48245300  0.57783500  1
  O  O52  1  0.26698800  0.74030500  0.00000000  1
  O  O53  1  0.73301200  0.24030500  0.50000000  1
  O  O54  1  0.22022800  0.13303800  0.21014500  1
  O  O55  1  0.77977200  0.63303800  0.28985500  1
  O  O56  1  0.77977200  0.63303800  0.71014500  1
  O  O57  1  0.22022800  0.13303800  0.78985500  1
  O  O58  1  0.09438500  0.26884100  0.08246200  1
  O  O59  1  0.90561500  0.76884100  0.41753800  1
  O  O60  1  0.90561500  0.76884100  0.58246200  1
  O  O61  1  0.09438500  0.26884100  0.91753800  1
  O  O62  1  0.49681000  0.42587000  0.22330000  1
  O  O63  1  0.50319000  0.92587000  0.27670000  1
  O  O64  1  0.50319000  0.92587000  0.72330000  1
  O  O65  1  0.49681000  0.42587000  0.77670000  1
  O  O66  1  0.47303700  0.15915300  0.35461200  1
  O  O67  1  0.52696300  0.65915300  0.14538800  1
  O  O68  1  0.52696300  0.65915300  0.85461200  1
  O  O69  1  0.47303700  0.15915300  0.64538800  1
  O  O70  1  0.41455100  0.21614100  0.00000000  1
  O  O71  1  0.58544900  0.71614100  0.50000000  1
  O  O72  1  0.06181200  0.79879600  0.27473300  1
  O  O73  1  0.93818800  0.29879600  0.22526700  1
  O  O74  1  0.93818800  0.29879600  0.77473300  1
  O  O75  1  0.06181200  0.79879600  0.72526700  1
  O  O76  1  0.20487300  0.56069500  0.18138900  1
  O  O77  1  0.79512700  0.06069500  0.31861100  1
  O  O78  1  0.79512700  0.06069500  0.68138900  1
  O  O79  1  0.20487300  0.56069500  0.81861100  1
  O  O80  1  0.18812800  0.00252400  0.00000000  1
  O  O81  1  0.81187200  0.50252400  0.50000000  1
  O  O82  1  0.06848400  0.51383200  0.00000000  1
  O  O83  1  0.93151600  0.01383200  0.50000000  1
  O  O84  1  0.70631000  0.29451200  0.07523600  1
  O  O85  1  0.29369000  0.79451200  0.42476400  1
  O  O86  1  0.29369000  0.79451200  0.57523600  1
  O  O87  1  0.70631000  0.29451200  0.92476400  1
  O  O88  1  0.69690800  0.51793300  0.00000000  1
  O  O89  1  0.30309200  0.01793300  0.50000000  1
