# generated using pymatgen
data_La(ClO)3
_symmetry_space_group_name_H-M   'P 1'
_cell_length_a   4.94758100
_cell_length_b   9.07784300
_cell_length_c   15.11329800
_cell_angle_alpha   90.00000000
_cell_angle_beta   90.00000000
_cell_angle_gamma   90.00000000
_symmetry_Int_Tables_number   1
_chemical_formula_structural   La(ClO)3
_chemical_formula_sum   'La4 Cl12 O12'
_cell_volume   678.78904748
_cell_formula_units_Z   4
loop_
 _symmetry_equiv_pos_site_id
 _symmetry_equiv_pos_as_xyz
  1  'x, y, z'
loop_
 _atom_site_type_symbol
 _atom_site_label
 _atom_site_symmetry_multiplicity
 _atom_site_fract_x
 _atom_site_fract_y
 _atom_site_fract_z
 _atom_site_occupancy
  La  La0  1  0.59121900  0.75000000  0.01075800  1
  La  La1  1  0.40878100  0.25000000  0.98924200  1
  La  La2  1  0.09121900  0.25000000  0.48924200  1
  La  La3  1  0.90878100  0.75000000  0.51075800  1
  Cl  Cl4  1  0.76167500  0.03507200  0.58423700  1
  Cl  Cl5  1  0.23832500  0.96492800  0.41576300  1
  Cl  Cl6  1  0.26167500  0.96492800  0.91576300  1
  Cl  Cl7  1  0.23832500  0.53507200  0.41576300  1
  Cl  Cl8  1  0.73832500  0.03507200  0.08423700  1
  Cl  Cl9  1  0.76167500  0.46492800  0.58423700  1
  Cl  Cl10  1  0.73832500  0.46492800  0.08423700  1
  Cl  Cl11  1  0.26167500  0.53507200  0.91576300  1
  Cl  Cl12  1  0.17561400  0.75000000  0.66774100  1
  Cl  Cl13  1  0.82438600  0.25000000  0.33225900  1
  Cl  Cl14  1  0.67561400  0.25000000  0.83225900  1
  Cl  Cl15  1  0.32438600  0.75000000  0.16774100  1
  O  O16  1  0.75367400  0.68184300  0.81444300  1
  O  O17  1  0.24632600  0.31815700  0.18555700  1
  O  O18  1  0.25367400  0.31815700  0.68555700  1
  O  O19  1  0.24632600  0.18184300  0.18555700  1
  O  O20  1  0.74632600  0.68184300  0.31444300  1
  O  O21  1  0.75367400  0.81815700  0.81444300  1
  O  O22  1  0.74632600  0.81815700  0.31444300  1
  O  O23  1  0.25367400  0.18184300  0.68555700  1
  O  O24  1  0.39521500  0.75000000  0.51363400  1
  O  O25  1  0.60478500  0.25000000  0.48636600  1
  O  O26  1  0.89521500  0.25000000  0.98636600  1
  O  O27  1  0.10478500  0.75000000  0.01363400  1
