# generated using pymatgen
data_HoMoO5
_symmetry_space_group_name_H-M   'P 1'
_cell_length_a   12.45555200
_cell_length_b   5.33913700
_cell_length_c   6.89531482
_cell_angle_alpha   64.37033929
_cell_angle_beta   90.00000000
_cell_angle_gamma   90.00000000
_symmetry_Int_Tables_number   1
_chemical_formula_structural   HoMoO5
_chemical_formula_sum   'Ho4 Mo4 O20'
_cell_volume   413.43405698
_cell_formula_units_Z   4
loop_
 _symmetry_equiv_pos_site_id
 _symmetry_equiv_pos_as_xyz
  1  'x, y, z'
loop_
 _atom_site_type_symbol
 _atom_site_label
 _atom_site_symmetry_multiplicity
 _atom_site_fract_x
 _atom_site_fract_y
 _atom_site_fract_z
 _atom_site_occupancy
  Ho  Ho0  1  0.05339300  0.64384400  0.71146400  1
  Ho  Ho1  1  0.94660700  0.35615600  0.28853600  1
  Ho  Ho2  1  0.55339300  0.35615600  0.78853600  1
  Ho  Ho3  1  0.44660700  0.64384400  0.21146400  1
  Mo  Mo4  1  0.36040500  0.91185100  0.64315600  1
  Mo  Mo5  1  0.63959500  0.08814900  0.35684400  1
  Mo  Mo6  1  0.86040500  0.08814900  0.85684400  1
  Mo  Mo7  1  0.13959500  0.91185100  0.14315600  1
  O  O8  1  0.41855600  0.49367400  0.95368100  1
  O  O9  1  0.58144400  0.50632600  0.04631900  1
  O  O10  1  0.91855600  0.50632600  0.54631900  1
  O  O11  1  0.08144400  0.49367400  0.45368100  1
  O  O12  1  0.92743500  0.98901000  0.65759300  1
  O  O13  1  0.07256500  0.01099000  0.34240700  1
  O  O14  1  0.42743500  0.01099000  0.84240700  1
  O  O15  1  0.57256500  0.98901000  0.15759300  1
  O  O16  1  0.43694300  0.70456500  0.53321100  1
  O  O17  1  0.56305700  0.29543500  0.46678900  1
  O  O18  1  0.93694300  0.29543500  0.96678900  1
  O  O19  1  0.06305700  0.70456500  0.03321100  1
  O  O20  1  0.22639000  0.79468500  0.71063500  1
  O  O21  1  0.77361000  0.20531500  0.28936500  1
  O  O22  1  0.72639000  0.20531500  0.78936500  1
  O  O23  1  0.27361000  0.79468500  0.21063500  1
  O  O24  1  0.65329500  0.76234800  0.58221300  1
  O  O25  1  0.34670500  0.23765200  0.41778700  1
  O  O26  1  0.15329500  0.23765200  0.91778700  1
  O  O27  1  0.84670500  0.76234800  0.08221300  1
