# generated using pymatgen
data_KCoH2CN4O7
_symmetry_space_group_name_H-M   'P 1'
_cell_length_a   8.38923100
_cell_length_b   9.45583900
_cell_length_c   13.88126388
_cell_angle_alpha   84.25764518
_cell_angle_beta   90.00000000
_cell_angle_gamma   90.00000000
_symmetry_Int_Tables_number   1
_chemical_formula_structural   KCoH2CN4O7
_chemical_formula_sum   'K4 Co4 H8 C4 N16 O28'
_cell_volume   1095.63627553
_cell_formula_units_Z   4
loop_
 _symmetry_equiv_pos_site_id
 _symmetry_equiv_pos_as_xyz
  1  'x, y, z'
loop_
 _atom_site_type_symbol
 _atom_site_label
 _atom_site_symmetry_multiplicity
 _atom_site_fract_x
 _atom_site_fract_y
 _atom_site_fract_z
 _atom_site_occupancy
  K  K0  1  0.24191700  0.44924900  0.80511600  1
  K  K1  1  0.75808300  0.55075100  0.19488400  1
  K  K2  1  0.74191700  0.55075100  0.69488400  1
  K  K3  1  0.25808300  0.44924900  0.30511600  1
  Co  Co4  1  0.23860900  0.92099500  0.64758300  1
  Co  Co5  1  0.76139100  0.07900500  0.35241700  1
  Co  Co6  1  0.73860900  0.07900500  0.85241700  1
  Co  Co7  1  0.26139100  0.92099500  0.14758300  1
  H  H8  1  0.40817700  0.64685800  0.93812300  1
  H  H9  1  0.59182300  0.35314200  0.06187700  1
  H  H10  1  0.90817700  0.35314200  0.56187700  1
  H  H11  1  0.09182300  0.64685800  0.43812300  1
  H  H12  1  0.00203700  0.58701100  0.91512000  1
  H  H13  1  0.99796300  0.41298900  0.08488000  1
  H  H14  1  0.50203700  0.41298900  0.58488000  1
  H  H15  1  0.49796300  0.58701100  0.41512000  1
  C  C16  1  0.74625300  0.82914200  0.84949200  1
  C  C17  1  0.25374700  0.17085800  0.15050800  1
  C  C18  1  0.24625300  0.17085800  0.65050800  1
  C  C19  1  0.75374700  0.82914200  0.34949200  1
  N  N20  1  0.05043200  0.78396500  0.65235500  1
  N  N21  1  0.94956800  0.21603500  0.34764500  1
  N  N22  1  0.55043200  0.21603500  0.84764500  1
  N  N23  1  0.44956800  0.78396500  0.15235500  1
  N  N24  1  0.25688500  0.87921700  0.77194600  1
  N  N25  1  0.74311500  0.12078300  0.22805400  1
  N  N26  1  0.75688500  0.12078300  0.72805400  1
  N  N27  1  0.24311500  0.87921700  0.27194600  1
  N  N28  1  0.25049000  0.92343500  0.52299600  1
  N  N29  1  0.74951000  0.07656500  0.47700400  1
  N  N30  1  0.75049000  0.07656500  0.97700400  1
  N  N31  1  0.24951000  0.92343500  0.02299600  1
  N  N32  1  0.41160600  0.76483000  0.64055100  1
  N  N33  1  0.58839400  0.23517000  0.35944900  1
  N  N34  1  0.91160600  0.23517000  0.85944900  1
  N  N35  1  0.08839400  0.76483000  0.14055100  1
  O  O36  1  0.92731900  0.82507000  0.61103200  1
  O  O37  1  0.07268100  0.17493000  0.38896800  1
  O  O38  1  0.42731900  0.17493000  0.88896800  1
  O  O39  1  0.57268100  0.82507000  0.11103200  1
  O  O40  1  0.41875700  0.66321800  0.70452100  1
  O  O41  1  0.58124300  0.33678200  0.29547900  1
  O  O42  1  0.91875700  0.33678200  0.79547900  1
  O  O43  1  0.08124300  0.66321800  0.20452100  1
  O  O44  1  0.50651400  0.78112100  0.57292100  1
  O  O45  1  0.49348600  0.21887900  0.42707900  1
  O  O46  1  0.00651400  0.21887900  0.92707900  1
  O  O47  1  0.99348600  0.78112100  0.07292100  1
  O  O48  1  0.61526600  0.90699200  0.85185200  1
  O  O49  1  0.38473400  0.09300800  0.14814800  1
  O  O50  1  0.11526600  0.09300800  0.64814800  1
  O  O51  1  0.88473400  0.90699200  0.35185200  1
  O  O52  1  0.87525000  0.90919900  0.84961900  1
  O  O53  1  0.12475000  0.09080100  0.15038100  1
  O  O54  1  0.37525000  0.09080100  0.65038100  1
  O  O55  1  0.62475000  0.90919900  0.34961900  1
  O  O56  1  0.06511200  0.66479800  0.69830000  1
  O  O57  1  0.93488800  0.33520200  0.30170000  1
  O  O58  1  0.56511200  0.33520200  0.80170000  1
  O  O59  1  0.43488800  0.66479800  0.19830000  1
  O  O60  1  0.24665800  0.30192900  0.65350100  1
  O  O61  1  0.75334200  0.69807100  0.34649900  1
  O  O62  1  0.74665800  0.69807100  0.84649900  1
  O  O63  1  0.25334200  0.30192900  0.15350100  1
