# generated using pymatgen
data_K3AuF12
_symmetry_space_group_name_H-M   'P 1'
_cell_length_a   7.13444659
_cell_length_b   7.85029285
_cell_length_c   8.10363911
_cell_angle_alpha   118.97109292
_cell_angle_beta   108.13875650
_cell_angle_gamma   50.00412176
_symmetry_Int_Tables_number   1
_chemical_formula_structural   K3AuF12
_chemical_formula_sum   'K3 Au1 F12'
_cell_volume   304.19149228
_cell_formula_units_Z   1
loop_
 _symmetry_equiv_pos_site_id
 _symmetry_equiv_pos_as_xyz
  1  'x, y, z'
loop_
 _atom_site_type_symbol
 _atom_site_label
 _atom_site_symmetry_multiplicity
 _atom_site_fract_x
 _atom_site_fract_y
 _atom_site_fract_z
 _atom_site_occupancy
  K  K0  1  0.50000000  0.00000000  0.00000000  1
  K  K1  1  0.00000000  0.50000000  0.50000000  1
  K  K2  1  0.00000000  0.00000000  0.50000000  1
  Au  Au3  1  0.00000000  0.00000000  0.00000000  1
  F  F4  1  0.70742300  0.51768600  0.89049600  1
  F  F5  1  0.29257700  0.48231400  0.10950400  1
  F  F6  1  0.64634500  0.89633100  0.41690300  1
  F  F7  1  0.29257700  0.37281000  0.89049600  1
  F  F8  1  0.35365500  0.10366900  0.58309700  1
  F  F9  1  0.70742300  0.62719000  0.10950400  1
  F  F10  1  0.18712600  0.90667900  0.80264600  1
  F  F11  1  0.35365500  0.52057100  0.41690300  1
  F  F12  1  0.81287400  0.09332100  0.19735400  1
  F  F13  1  0.64634500  0.47942900  0.58309700  1
  F  F14  1  0.81287400  0.89596800  0.80264600  1
  F  F15  1  0.18712600  0.10403200  0.19735400  1
