# generated using pymatgen
data_KAl4Fe3(HO6)2
_symmetry_space_group_name_H-M   'P 1'
_cell_length_a   5.43039580
_cell_length_b   5.43039580
_cell_length_c   10.51548948
_cell_angle_alpha   84.88735829
_cell_angle_beta   84.88735829
_cell_angle_gamma   120.05625146
_symmetry_Int_Tables_number   1
_chemical_formula_structural   KAl4Fe3(HO6)2
_chemical_formula_sum   'K1 Al4 Fe3 H2 O12'
_cell_volume   264.09175521
_cell_formula_units_Z   1
loop_
 _symmetry_equiv_pos_site_id
 _symmetry_equiv_pos_as_xyz
  1  'x, y, z'
loop_
 _atom_site_type_symbol
 _atom_site_label
 _atom_site_symmetry_multiplicity
 _atom_site_fract_x
 _atom_site_fract_y
 _atom_site_fract_z
 _atom_site_occupancy
  K  K0  1  0.00000000  0.00000000  0.00000000  1
  Al  Al1  1  0.59236600  0.25924700  0.21884900  1
  Al  Al2  1  0.40763400  0.74075300  0.78115100  1
  Al  Al3  1  0.74075300  0.40763400  0.78115100  1
  Al  Al4  1  0.25924700  0.59236600  0.21884900  1
  Fe  Fe5  1  0.50000000  0.50000000  0.50000000  1
  Fe  Fe6  1  0.82630500  0.17369500  0.50000000  1
  Fe  Fe7  1  0.17369500  0.82630500  0.50000000  1
  H  H8  1  0.91570300  0.91570300  0.30671400  1
  H  H9  1  0.08429700  0.08429700  0.69328600  1
  O  O10  1  0.52837900  0.19893800  0.40418000  1
  O  O11  1  0.47162100  0.80106200  0.59582000  1
  O  O12  1  0.80106200  0.47162100  0.59582000  1
  O  O13  1  0.19893800  0.52837900  0.40418000  1
  O  O14  1  0.87392000  0.87392000  0.40207600  1
  O  O15  1  0.12608000  0.12608000  0.59792400  1
  O  O16  1  0.55915300  0.55915300  0.18526800  1
  O  O17  1  0.44084700  0.44084700  0.81473200  1
  O  O18  1  0.31557100  0.93758100  0.18382000  1
  O  O19  1  0.68442900  0.06241900  0.81618000  1
  O  O20  1  0.06241900  0.68442900  0.81618000  1
  O  O21  1  0.93758100  0.31557100  0.18382000  1
