# generated using pymatgen
data_In2Hg5Te8
_symmetry_space_group_name_H-M   'P 1'
_cell_length_a   9.22567745
_cell_length_b   9.22567745
_cell_length_c   9.22567745
_cell_angle_alpha   119.33005818
_cell_angle_beta   119.33005818
_cell_angle_gamma   91.16434364
_symmetry_Int_Tables_number   1
_chemical_formula_structural   In2Hg5Te8
_chemical_formula_sum   'In2 Hg5 Te8'
_cell_volume   560.73590981
_cell_formula_units_Z   1
loop_
 _symmetry_equiv_pos_site_id
 _symmetry_equiv_pos_as_xyz
  1  'x, y, z'
loop_
 _atom_site_type_symbol
 _atom_site_label
 _atom_site_symmetry_multiplicity
 _atom_site_fract_x
 _atom_site_fract_y
 _atom_site_fract_z
 _atom_site_occupancy
  In  In0  1  0.23620900  0.23620900  0.00000000  1
  In  In1  1  0.76379100  0.76379100  0.00000000  1
  Hg  Hg2  1  0.25000000  0.75000000  0.50000000  1
  Hg  Hg3  1  0.23393100  0.76606900  0.00000000  1
  Hg  Hg4  1  0.76606900  0.23393100  0.00000000  1
  Hg  Hg5  1  0.23393100  0.23393100  0.46786200  1
  Hg  Hg6  1  0.76606900  0.76606900  0.53213800  1
  Te  Te7  1  0.40958100  0.13770100  0.27188000  1
  Te  Te8  1  0.86582100  0.13770100  0.72812000  1
  Te  Te9  1  0.86229900  0.13417900  0.27188000  1
  Te  Te10  1  0.86229900  0.59041900  0.72812000  1
  Te  Te11  1  0.86871900  0.62478800  0.24393200  1
  Te  Te12  1  0.38085600  0.62478800  0.75606800  1
  Te  Te13  1  0.37521200  0.61914400  0.24393200  1
  Te  Te14  1  0.37521200  0.13128100  0.75606800  1
