# generated using pymatgen
data_Na(SiO2)6
_symmetry_space_group_name_H-M   'P 1'
_cell_length_a   16.19252138
_cell_length_b   16.19252138
_cell_length_c   16.19252138
_cell_angle_alpha   109.47122063
_cell_angle_beta   109.47122063
_cell_angle_gamma   109.47122063
_symmetry_Int_Tables_number   1
_chemical_formula_structural   Na(SiO2)6
_chemical_formula_sum   'Na8 Si48 O96'
_cell_volume   3268.29723884
_cell_formula_units_Z   8
loop_
 _symmetry_equiv_pos_site_id
 _symmetry_equiv_pos_as_xyz
  1  'x, y, z'
loop_
 _atom_site_type_symbol
 _atom_site_label
 _atom_site_symmetry_multiplicity
 _atom_site_fract_x
 _atom_site_fract_y
 _atom_site_fract_z
 _atom_site_occupancy
  Na  Na0  1  0.74509868  0.74509868  0.74509868  1
  Na  Na1  1  0.25490132  0.25490132  0.25490132  1
  Na  Na2  1  0.25490132  0.00000000  0.00000000  1
  Na  Na3  1  -0.00000000  0.25490132  -0.00000000  1
  Na  Na4  1  0.74509868  -0.00000000  -0.00000000  1
  Na  Na5  1  -0.00000000  0.74509868  0.00000000  1
  Na  Na6  1  -0.00000000  -0.00000000  0.25490132  1
  Na  Na7  1  0.00000000  0.00000000  0.74509868  1
  Si  Si8  1  0.71357833  0.59531815  0.47700606  1
  Si  Si9  1  0.28642167  0.40468185  0.52299394  1
  Si  Si10  1  0.28642167  0.76342773  0.88173982  1
  Si  Si11  1  0.88168791  0.40468185  0.11826018  1
  Si  Si12  1  0.59531815  0.47700606  0.71357833  1
  Si  Si13  1  0.71357833  0.11826018  0.23657227  1
  Si  Si14  1  0.71357833  0.23657227  0.11826018  1
  Si  Si15  1  0.11831209  0.59531815  0.88173982  1
  Si  Si16  1  0.40468185  0.52299394  0.28642167  1
  Si  Si17  1  0.28642167  0.88173982  0.76342773  1
  Si  Si18  1  0.11831209  0.23657227  0.52299394  1
  Si  Si19  1  0.76342773  0.88173982  0.28642167  1
  Si  Si20  1  0.28642167  0.52299394  0.40468185  1
  Si  Si21  1  0.88168791  0.76342773  0.47700606  1
  Si  Si22  1  0.23657227  0.11826018  0.71357833  1
  Si  Si23  1  0.71357833  0.47700606  0.59531815  1
  Si  Si24  1  0.40468185  0.11826018  0.88168791  1
  Si  Si25  1  0.88168791  0.47700606  0.76342773  1
  Si  Si26  1  0.59531815  0.88173982  0.11831209  1
  Si  Si27  1  0.11831209  0.52299394  0.23657227  1
  Si  Si28  1  0.23657227  0.52299394  0.11831209  1
  Si  Si29  1  0.11831209  0.88173982  0.59531815  1
  Si  Si30  1  0.76342773  0.47700606  0.88168791  1
  Si  Si31  1  0.88168791  0.11826018  0.40468185  1
  Si  Si32  1  0.47700606  0.71357833  0.59531815  1
  Si  Si33  1  0.59531815  0.11831209  0.88173982  1
  Si  Si34  1  0.52299394  0.28642167  0.40468185  1
  Si  Si35  1  0.40468185  0.88168791  0.11826018  1
  Si  Si36  1  0.11826018  0.88168791  0.40468185  1
  Si  Si37  1  0.40468185  0.28642167  0.52299394  1
  Si  Si38  1  0.88173982  0.11831209  0.59531815  1
  Si  Si39  1  0.59531815  0.71357833  0.47700606  1
  Si  Si40  1  0.52299394  0.11831209  0.23657227  1
  Si  Si41  1  0.23657227  0.71357833  0.11826018  1
  Si  Si42  1  0.47700606  0.88168791  0.76342773  1
  Si  Si43  1  0.76342773  0.28642167  0.88173982  1
  Si  Si44  1  0.88173982  0.28642167  0.76342773  1
  Si  Si45  1  0.76342773  0.88168791  0.47700606  1
  Si  Si46  1  0.11826018  0.71357833  0.23657227  1
  Si  Si47  1  0.23657227  0.11831209  0.52299394  1
  Si  Si48  1  0.11826018  0.23657227  0.71357833  1
  Si  Si49  1  0.88173982  0.76342773  0.28642167  1
  Si  Si50  1  0.52299394  0.40468185  0.28642167  1
  Si  Si51  1  0.47700606  0.59531815  0.71357833  1
  Si  Si52  1  0.88173982  0.59531815  0.11831209  1
  Si  Si53  1  0.11826018  0.40468185  0.88168791  1
  Si  Si54  1  0.47700606  0.76342773  0.88168791  1
  Si  Si55  1  0.52299394  0.23657227  0.11831209  1
  O  O56  1  0.50870143  0.65604783  0.65604783  1
  O  O57  1  0.49129857  0.34395217  0.34395217  1
  O  O58  1  0.49129857  0.14734640  0.14734640  1
  O  O59  1  -0.00000000  0.34395217  0.85265360  1
  O  O60  1  0.65604783  0.65604783  0.50870143  1
  O  O61  1  0.50870143  0.85265360  0.85265360  1
  O  O62  1  0.00000000  0.65604783  0.14734640  1
  O  O63  1  0.34395217  0.34395217  0.49129857  1
  O  O64  1  0.00000000  0.85265360  0.34395217  1
  O  O65  1  0.14734640  0.14734640  0.49129857  1
  O  O66  1  -0.00000000  0.14734640  0.65604783  1
  O  O67  1  0.85265360  0.85265360  0.50870143  1
  O  O68  1  0.34395217  0.85265360  0.00000000  1
  O  O69  1  0.65604783  0.14734640  -0.00000000  1
  O  O70  1  0.85265360  0.34395217  -0.00000000  1
  O  O71  1  0.14734640  0.65604783  0.00000000  1
  O  O72  1  0.65604783  0.50870143  0.65604783  1
  O  O73  1  0.65604783  -0.00000000  0.14734640  1
  O  O74  1  0.34395217  0.49129857  0.34395217  1
  O  O75  1  0.34395217  0.00000000  0.85265360  1
  O  O76  1  0.85265360  0.00000000  0.34395217  1
  O  O77  1  0.14734640  -0.00000000  0.65604783  1
  O  O78  1  0.85265360  0.50870143  0.85265360  1
  O  O79  1  0.14734640  0.49129857  0.14734640  1
  O  O80  1  0.63850291  0.36149709  0.50000000  1
  O  O81  1  0.36149709  0.63850291  0.50000000  1
  O  O82  1  0.36149709  0.86149709  0.72299418  1
  O  O83  1  0.13850291  0.63850291  0.27700582  1
  O  O84  1  0.36149709  0.50000000  0.63850291  1
  O  O85  1  0.63850291  0.27700582  0.13850291  1
  O  O86  1  0.63850291  0.13850291  0.27700582  1
  O  O87  1  0.86149709  0.36149709  0.72299418  1
  O  O88  1  0.63850291  0.50000000  0.36149709  1
  O  O89  1  0.36149709  0.72299418  0.86149709  1
  O  O90  1  0.86149709  0.13850291  0.50000000  1
  O  O91  1  0.86149709  0.72299418  0.36149709  1
  O  O92  1  0.13850291  0.86149709  0.50000000  1
  O  O93  1  0.13850291  0.27700582  0.63850291  1
  O  O94  1  0.13850291  0.50000000  0.86149709  1
  O  O95  1  0.86149709  0.50000000  0.13850291  1
  O  O96  1  0.50000000  0.63850291  0.36149709  1
  O  O97  1  0.50000000  0.36149709  0.63850291  1
  O  O98  1  0.27700582  0.13850291  0.63850291  1
  O  O99  1  0.72299418  0.86149709  0.36149709  1
  O  O100  1  0.50000000  0.86149709  0.13850291  1
  O  O101  1  0.50000000  0.13850291  0.86149709  1
  O  O102  1  0.72299418  0.36149709  0.86149709  1
  O  O103  1  0.27700582  0.63850291  0.13850291  1
  O  O104  1  0.74571913  0.55638425  0.55638425  1
  O  O105  1  0.25428087  0.44361575  0.44361575  1
  O  O106  1  0.25428087  0.81066512  0.81066512  1
  O  O107  1  -0.00000000  0.44361575  0.18933488  1
  O  O108  1  0.55638425  0.55638425  0.74571913  1
  O  O109  1  0.74571913  0.18933488  0.18933488  1
  O  O110  1  0.00000000  0.55638425  0.81066512  1
  O  O111  1  0.44361575  0.44361575  0.25428087  1
  O  O112  1  -0.00000000  0.18933488  0.44361575  1
  O  O113  1  0.81066512  0.81066512  0.25428087  1
  O  O114  1  0.00000000  0.81066512  0.55638425  1
  O  O115  1  0.18933488  0.18933488  0.74571913  1
  O  O116  1  0.44361575  0.18933488  0.00000000  1
  O  O117  1  0.55638425  0.81066512  -0.00000000  1
  O  O118  1  0.18933488  0.44361575  0.00000000  1
  O  O119  1  0.81066512  0.55638425  -0.00000000  1
  O  O120  1  0.55638425  0.74571913  0.55638425  1
  O  O121  1  0.55638425  -0.00000000  0.81066512  1
  O  O122  1  0.44361575  0.25428087  0.44361575  1
  O  O123  1  0.44361575  0.00000000  0.18933488  1
  O  O124  1  0.18933488  0.00000000  0.44361575  1
  O  O125  1  0.81066512  -0.00000000  0.55638425  1
  O  O126  1  0.18933488  0.74571913  0.18933488  1
  O  O127  1  0.81066512  0.25428087  0.81066512  1
  O  O128  1  0.81476509  0.66847998  0.48324506  1
  O  O129  1  0.18523491  0.33152002  0.51675494  1
  O  O130  1  0.18523491  0.66847998  0.85371489  1
  O  O131  1  0.81476509  0.33152002  0.14628511  1
  O  O132  1  0.66847998  0.48324506  0.81476509  1
  O  O133  1  0.81476509  0.14628511  0.33152002  1
  O  O134  1  0.33152002  0.51675494  0.18523491  1
  O  O135  1  0.18523491  0.85371489  0.66847998  1
  O  O136  1  0.66847998  0.85371489  0.18523491  1
  O  O137  1  0.18523491  0.51675494  0.33152002  1
  O  O138  1  0.33152002  0.14628511  0.81476509  1
  O  O139  1  0.81476509  0.48324506  0.66847998  1
  O  O140  1  0.48324506  0.81476509  0.66847998  1
  O  O141  1  0.66847998  0.18523491  0.85371489  1
  O  O142  1  0.51675494  0.18523491  0.33152002  1
  O  O143  1  0.33152002  0.81476509  0.14628511  1
  O  O144  1  0.14628511  0.81476509  0.33152002  1
  O  O145  1  0.33152002  0.18523491  0.51675494  1
  O  O146  1  0.85371489  0.18523491  0.66847998  1
  O  O147  1  0.66847998  0.81476509  0.48324506  1
  O  O148  1  0.14628511  0.33152002  0.81476509  1
  O  O149  1  0.85371489  0.66847998  0.18523491  1
  O  O150  1  0.51675494  0.33152002  0.18523491  1
  O  O151  1  0.48324506  0.66847998  0.81476509  1
