# generated using pymatgen
data_La7(BrO6)3
_symmetry_space_group_name_H-M   'P 1'
_cell_length_a   15.95719367
_cell_length_b   15.95719367
_cell_length_c   4.46201100
_cell_angle_alpha   90.00000000
_cell_angle_beta   90.00000000
_cell_angle_gamma   119.99999865
_symmetry_Int_Tables_number   1
_chemical_formula_structural   La7(BrO6)3
_chemical_formula_sum   'La14 Br6 O36'
_cell_volume   983.95289189
_cell_formula_units_Z   2
loop_
 _symmetry_equiv_pos_site_id
 _symmetry_equiv_pos_as_xyz
  1  'x, y, z'
loop_
 _atom_site_type_symbol
 _atom_site_label
 _atom_site_symmetry_multiplicity
 _atom_site_fract_x
 _atom_site_fract_y
 _atom_site_fract_z
 _atom_site_occupancy
  La  La0  1  0.53531800  0.87618700  0.75000000  1
  La  La1  1  0.46468200  0.12381300  0.25000000  1
  La  La2  1  0.34086900  0.46468200  0.75000000  1
  La  La3  1  0.65913100  0.53531800  0.25000000  1
  La  La4  1  0.12381300  0.65913100  0.75000000  1
  La  La5  1  0.87618700  0.34086900  0.25000000  1
  La  La6  1  0.91760700  0.15273300  0.75000000  1
  La  La7  1  0.08239300  0.84726700  0.25000000  1
  La  La8  1  0.23512700  0.08239300  0.75000000  1
  La  La9  1  0.76487300  0.91760700  0.25000000  1
  La  La10  1  0.84726700  0.76487300  0.75000000  1
  La  La11  1  0.15273300  0.23512700  0.25000000  1
  La  La12  1  0.66666700  0.33333300  0.75000000  1
  La  La13  1  0.33333300  0.66666700  0.25000000  1
  Br  Br14  1  0.56125900  0.62140600  0.75000000  1
  Br  Br15  1  0.43874100  0.37859400  0.25000000  1
  Br  Br16  1  0.06014700  0.43874100  0.75000000  1
  Br  Br17  1  0.93985300  0.56125900  0.25000000  1
  Br  Br18  1  0.37859400  0.93985300  0.75000000  1
  Br  Br19  1  0.62140600  0.06014700  0.25000000  1
  O  O20  1  0.83313200  0.35870300  0.75000000  1
  O  O21  1  0.16686800  0.64129700  0.25000000  1
  O  O22  1  0.52557000  0.16686800  0.75000000  1
  O  O23  1  0.47443000  0.83313200  0.25000000  1
  O  O24  1  0.64129700  0.47443000  0.75000000  1
  O  O25  1  0.35870300  0.52557000  0.25000000  1
  O  O26  1  0.70999800  0.95236500  0.75000000  1
  O  O27  1  0.29000200  0.04763500  0.25000000  1
  O  O28  1  0.24236700  0.29000200  0.75000000  1
  O  O29  1  0.75763300  0.70999800  0.25000000  1
  O  O30  1  0.04763500  0.75763300  0.75000000  1
  O  O31  1  0.95236500  0.24236700  0.25000000  1
  O  O32  1  0.85569100  0.97635300  0.75000000  1
  O  O33  1  0.14430900  0.02364700  0.25000000  1
  O  O34  1  0.12066200  0.14430900  0.75000000  1
  O  O35  1  0.87933800  0.85569100  0.25000000  1
  O  O36  1  0.02364700  0.87933800  0.75000000  1
  O  O37  1  0.97635300  0.12066200  0.25000000  1
  O  O38  1  0.82380300  0.26142700  0.75000000  1
  O  O39  1  0.17619700  0.73857300  0.25000000  1
  O  O40  1  0.43762400  0.17619700  0.75000000  1
  O  O41  1  0.56237600  0.82380300  0.25000000  1
  O  O42  1  0.73857300  0.56237600  0.75000000  1
  O  O43  1  0.26142700  0.43762400  0.25000000  1
  O  O44  1  0.72770100  0.82460100  0.75000000  1
  O  O45  1  0.27229900  0.17539900  0.25000000  1
  O  O46  1  0.09690100  0.27229900  0.75000000  1
  O  O47  1  0.90309900  0.72770100  0.25000000  1
  O  O48  1  0.17539900  0.90309900  0.75000000  1
  O  O49  1  0.82460100  0.09690100  0.25000000  1
  O  O50  1  0.42650800  0.69588300  0.75000000  1
  O  O51  1  0.57349200  0.30411700  0.25000000  1
  O  O52  1  0.26937500  0.57349200  0.75000000  1
  O  O53  1  0.73062500  0.42650800  0.25000000  1
  O  O54  1  0.30411700  0.73062500  0.75000000  1
  O  O55  1  0.69588300  0.26937500  0.25000000  1
