# generated using pymatgen
data_KThN5O17
_symmetry_space_group_name_H-M   'P 1'
_cell_length_a   13.18861600
_cell_length_b   10.07443600
_cell_length_c   13.35947390
_cell_angle_alpha   52.63662464
_cell_angle_beta   90.00000000
_cell_angle_gamma   90.00000000
_symmetry_Int_Tables_number   1
_chemical_formula_structural   KThN5O17
_chemical_formula_sum   'K4 Th4 N20 O68'
_cell_volume   1410.81041923
_cell_formula_units_Z   4
loop_
 _symmetry_equiv_pos_site_id
 _symmetry_equiv_pos_as_xyz
  1  'x, y, z'
loop_
 _atom_site_type_symbol
 _atom_site_label
 _atom_site_symmetry_multiplicity
 _atom_site_fract_x
 _atom_site_fract_y
 _atom_site_fract_z
 _atom_site_occupancy
  K  K0  1  0.40442200  0.92762100  0.19783300  1
  K  K1  1  0.59557800  0.07237900  0.80216700  1
  K  K2  1  0.90442200  0.07237900  0.30216700  1
  K  K3  1  0.09557800  0.92762100  0.69783300  1
  Th  Th4  1  0.83636400  0.64764300  0.24730400  1
  Th  Th5  1  0.16363600  0.35235700  0.75269600  1
  Th  Th6  1  0.33636400  0.35235700  0.25269600  1
  Th  Th7  1  0.66363600  0.64764300  0.74730400  1
  N  N8  1  0.44990500  0.68819500  0.10060800  1
  N  N9  1  0.55009500  0.31180500  0.89939200  1
  N  N10  1  0.94990500  0.31180500  0.39939200  1
  N  N11  1  0.05009500  0.68819500  0.60060800  1
  N  N12  1  0.73745200  0.42829700  0.01936700  1
  N  N13  1  0.26254800  0.57170300  0.98063300  1
  N  N14  1  0.23745200  0.57170300  0.48063300  1
  N  N15  1  0.76254800  0.42829700  0.51936700  1
  N  N16  1  0.68209800  0.99356500  0.48780200  1
  N  N17  1  0.31790200  0.00643500  0.51219800  1
  N  N18  1  0.18209800  0.00643500  0.01219800  1
  N  N19  1  0.81790200  0.99356500  0.98780200  1
  N  N20  1  0.67819000  0.86184600  0.25999300  1
  N  N21  1  0.32181000  0.13815400  0.74000700  1
  N  N22  1  0.17819000  0.13815400  0.24000700  1
  N  N23  1  0.82181000  0.86184600  0.75999300  1
  N  N24  1  0.97623100  0.66727800  0.05557300  1
  N  N25  1  0.02376900  0.33272200  0.94442700  1
  N  N26  1  0.47623100  0.33272200  0.44442700  1
  N  N27  1  0.52376900  0.66727800  0.55557300  1
  O  O28  1  0.65313300  0.72716000  0.27573100  1
  O  O29  1  0.34686700  0.27284000  0.72426900  1
  O  O30  1  0.15313300  0.27284000  0.22426900  1
  O  O31  1  0.84686700  0.72716000  0.77573100  1
  O  O32  1  0.74133100  0.89334400  0.03994400  1
  O  O33  1  0.25866900  0.10665600  0.96005600  1
  O  O34  1  0.24133100  0.10665600  0.46005600  1
  O  O35  1  0.75866900  0.89334400  0.53994400  1
  O  O36  1  0.74953900  0.38902600  0.44455900  1
  O  O37  1  0.25046100  0.61097400  0.55544100  1
  O  O38  1  0.24953900  0.61097400  0.05544100  1
  O  O39  1  0.75046100  0.38902600  0.94455900  1
  O  O40  1  0.48844700  0.82895400  0.03820200  1
  O  O41  1  0.51155300  0.17104600  0.96179800  1
  O  O42  1  0.98844700  0.17104600  0.46179800  1
  O  O43  1  0.01155300  0.82895400  0.53820200  1
  O  O44  1  0.77444900  0.89155400  0.25240700  1
  O  O45  1  0.22555100  0.10844600  0.74759300  1
  O  O46  1  0.27444900  0.10844600  0.24759300  1
  O  O47  1  0.72555100  0.89155400  0.75240700  1
  O  O48  1  0.69070300  0.54388300  0.18813900  1
  O  O49  1  0.30929700  0.45611700  0.81186100  1
  O  O50  1  0.19070300  0.45611700  0.31186100  1
  O  O51  1  0.80929700  0.54388300  0.68813900  1
  O  O52  1  0.97230700  0.32131900  0.02589200  1
  O  O53  1  0.02769300  0.67868100  0.97410800  1
  O  O54  1  0.47230700  0.67868100  0.47410800  1
  O  O55  1  0.52769300  0.32131900  0.52589200  1
  O  O56  1  0.89306500  0.36236200  0.30345400  1
  O  O57  1  0.10693500  0.63763800  0.69654600  1
  O  O58  1  0.39306500  0.63763800  0.19654600  1
  O  O59  1  0.60693500  0.36236200  0.80345400  1
  O  O60  1  0.61520400  0.95872300  0.25070300  1
  O  O61  1  0.38479600  0.04127700  0.74929700  1
  O  O62  1  0.11520400  0.04127700  0.24929700  1
  O  O63  1  0.88479600  0.95872300  0.75070300  1
  O  O64  1  0.80767500  0.56738300  0.47230300  1
  O  O65  1  0.19232500  0.43261700  0.52769700  1
  O  O66  1  0.30767500  0.43261700  0.02769700  1
  O  O67  1  0.69232500  0.56738300  0.97230300  1
  O  O68  1  0.46271600  0.58673100  0.07472800  1
  O  O69  1  0.53728400  0.41326900  0.92527200  1
  O  O70  1  0.96271600  0.41326900  0.42527200  1
  O  O71  1  0.03728400  0.58673100  0.57472800  1
  O  O72  1  0.96675000  0.75676300  0.29737100  1
  O  O73  1  0.03325000  0.24323700  0.70262900  1
  O  O74  1  0.46675000  0.24323700  0.20262900  1
  O  O75  1  0.53325000  0.75676300  0.79737100  1
  O  O76  1  0.87822000  0.67397000  0.04946700  1
  O  O77  1  0.12178000  0.32603000  0.95053300  1
  O  O78  1  0.37822000  0.32603000  0.45053300  1
  O  O79  1  0.62178000  0.67397000  0.54946700  1
  O  O80  1  0.89824000  0.95028100  0.05572900  1
  O  O81  1  0.10176000  0.04971900  0.94427100  1
  O  O82  1  0.39824000  0.04971900  0.44427100  1
  O  O83  1  0.60176000  0.95028100  0.55572900  1
  O  O84  1  0.51523000  0.35157100  0.34872800  1
  O  O85  1  0.48477000  0.64842900  0.65127200  1
  O  O86  1  0.01523000  0.64842900  0.15127200  1
  O  O87  1  0.98477000  0.35157100  0.84872800  1
  O  O88  1  0.76640300  0.33723300  0.12971600  1
  O  O89  1  0.23359700  0.66276700  0.87028400  1
  O  O90  1  0.26640300  0.66276700  0.37028400  1
  O  O91  1  0.73359700  0.33723300  0.62971600  1
  O  O92  1  0.18602100  0.87863100  0.12090900  1
  O  O93  1  0.81397900  0.12136900  0.87909100  1
  O  O94  1  0.68602100  0.12136900  0.37909100  1
  O  O95  1  0.31397900  0.87863100  0.62090900  1
