# generated using pymatgen
data_InRhO3
_symmetry_space_group_name_H-M   'P 1'
_cell_length_a   5.34112900
_cell_length_b   5.52984700
_cell_length_c   8.24457900
_cell_angle_alpha   90.00000000
_cell_angle_beta   90.00000000
_cell_angle_gamma   90.00000000
_symmetry_Int_Tables_number   1
_chemical_formula_structural   InRhO3
_chemical_formula_sum   'In4 Rh4 O12'
_cell_volume   243.50880333
_cell_formula_units_Z   4
loop_
 _symmetry_equiv_pos_site_id
 _symmetry_equiv_pos_as_xyz
  1  'x, y, z'
loop_
 _atom_site_type_symbol
 _atom_site_label
 _atom_site_symmetry_multiplicity
 _atom_site_fract_x
 _atom_site_fract_y
 _atom_site_fract_z
 _atom_site_occupancy
  In  In0  1  0.00000000  0.00000000  0.00000000  1
  In  In1  1  0.50000000  0.50000000  0.00000000  1
  In  In2  1  0.00000000  0.00000000  0.50000000  1
  In  In3  1  0.50000000  0.50000000  0.50000000  1
  Rh  Rh4  1  0.00639500  0.44905300  0.25000000  1
  Rh  Rh5  1  0.99360500  0.55094700  0.75000000  1
  Rh  Rh6  1  0.50639500  0.05094700  0.75000000  1
  Rh  Rh7  1  0.49360500  0.94905300  0.25000000  1
  O  O8  1  0.32681800  0.18123000  0.09734400  1
  O  O9  1  0.67318200  0.81877000  0.90265600  1
  O  O10  1  0.82681800  0.31877000  0.90265600  1
  O  O11  1  0.67318200  0.81877000  0.59734400  1
  O  O12  1  0.17318200  0.68123000  0.09734400  1
  O  O13  1  0.32681800  0.18123000  0.40265600  1
  O  O14  1  0.17318200  0.68123000  0.40265600  1
  O  O15  1  0.82681800  0.31877000  0.59734400  1
  O  O16  1  0.66606400  0.61794100  0.25000000  1
  O  O17  1  0.33393600  0.38205900  0.75000000  1
  O  O18  1  0.16606400  0.88205900  0.75000000  1
  O  O19  1  0.83393600  0.11794100  0.25000000  1
