# generated using pymatgen
data_Ta12Al4CoC
_symmetry_space_group_name_H-M   'P 1'
_cell_length_a   21.57404017
_cell_length_b   21.57404017
_cell_length_c   21.57404017
_cell_angle_alpha   60.00000000
_cell_angle_beta   60.00000000
_cell_angle_gamma   60.00000000
_symmetry_Int_Tables_number   1
_chemical_formula_structural   Ta12Al4CoC
_chemical_formula_sum   'Ta24 Al8 Co2 C2'
_cell_volume   7100.34499796
_cell_formula_units_Z   2
loop_
 _symmetry_equiv_pos_site_id
 _symmetry_equiv_pos_as_xyz
  1  'x, y, z'
loop_
 _atom_site_type_symbol
 _atom_site_label
 _atom_site_symmetry_multiplicity
 _atom_site_fract_x
 _atom_site_fract_y
 _atom_site_fract_z
 _atom_site_occupancy
  Ta  Ta0  1  0.56671955  0.56671955  0.18675676  1
  Ta  Ta1  1  0.67980414  0.18675676  0.56671955  1
  Ta  Ta2  1  0.18675676  0.67980414  0.56671955  1
  Ta  Ta3  1  0.56671955  0.18675676  0.56671955  1
  Ta  Ta4  1  0.07019586  0.18328045  0.56324324  1
  Ta  Ta5  1  0.18328045  0.18328045  0.56324324  1
  Ta  Ta6  1  0.56671955  0.56671955  0.67980414  1
  Ta  Ta7  1  0.18675676  0.56671955  0.67980414  1
  Ta  Ta8  1  0.18328045  0.56324324  0.18328045  1
  Ta  Ta9  1  0.07019586  0.56324324  0.18328045  1
  Ta  Ta10  1  0.67980414  0.56671955  0.18675676  1
  Ta  Ta11  1  0.18328045  0.07019586  0.18328045  1
  Ta  Ta12  1  0.56324324  0.07019586  0.18328045  1
  Ta  Ta13  1  0.56671955  0.67980414  0.56671955  1
  Ta  Ta14  1  0.56324324  0.18328045  0.07019586  1
  Ta  Ta15  1  0.18328045  0.18328045  0.07019586  1
  Ta  Ta16  1  0.18675676  0.56671955  0.56671955  1
  Ta  Ta17  1  0.56671955  0.18675676  0.67980414  1
  Ta  Ta18  1  0.67980414  0.56671955  0.56671955  1
  Ta  Ta19  1  0.56671955  0.67980414  0.18675676  1
  Ta  Ta20  1  0.18328045  0.56324324  0.07019586  1
  Ta  Ta21  1  0.56324324  0.18328045  0.18328045  1
  Ta  Ta22  1  0.18328045  0.07019586  0.56324324  1
  Ta  Ta23  1  0.07019586  0.18328045  0.18328045  1
  Al  Al24  1  0.79142488  0.79142488  0.79142488  1
  Al  Al25  1  0.62572535  0.79142488  0.79142488  1
  Al  Al26  1  0.79142488  0.62572535  0.79142488  1
  Al  Al27  1  0.12427465  0.95857512  0.95857512  1
  Al  Al28  1  0.95857512  0.95857512  0.95857512  1
  Al  Al29  1  0.79142488  0.79142488  0.62572535  1
  Al  Al30  1  0.95857512  0.12427465  0.95857512  1
  Al  Al31  1  0.95857512  0.95857512  0.12427465  1
  Co  Co32  1  0.00000000  -0.00000000  -0.00000000  1
  Co  Co33  1  0.75000000  0.75000000  0.75000000  1
  C  C34  1  0.50000000  0.50000000  0.50000000  1
  C  C35  1  0.25000000  0.25000000  0.25000000  1
