# generated using pymatgen
data_GdCrTeO6
_symmetry_space_group_name_H-M   'P 1'
_cell_length_a   5.45550259
_cell_length_b   5.45550259
_cell_length_c   8.64898700
_cell_angle_alpha   90.00000000
_cell_angle_beta   90.00000000
_cell_angle_gamma   120.00000712
_symmetry_Int_Tables_number   1
_chemical_formula_structural   GdCrTeO6
_chemical_formula_sum   'Gd2 Cr2 Te2 O12'
_cell_volume   222.92838868
_cell_formula_units_Z   2
loop_
 _symmetry_equiv_pos_site_id
 _symmetry_equiv_pos_as_xyz
  1  'x, y, z'
loop_
 _atom_site_type_symbol
 _atom_site_label
 _atom_site_symmetry_multiplicity
 _atom_site_fract_x
 _atom_site_fract_y
 _atom_site_fract_z
 _atom_site_occupancy
  Gd  Gd0  1  0.33333300  0.66666700  0.75000000  1
  Gd  Gd1  1  0.66666700  0.33333300  0.25000000  1
  Cr  Cr2  1  0.00000000  0.00000000  0.00000000  1
  Cr  Cr3  1  0.00000000  0.00000000  0.50000000  1
  Te  Te4  1  0.66666700  0.33333300  0.75000000  1
  Te  Te5  1  0.33333300  0.66666700  0.25000000  1
  O  O6  1  0.95249500  0.30639100  0.87696100  1
  O  O7  1  0.04750500  0.69360900  0.12303900  1
  O  O8  1  0.35389600  0.04750500  0.87696100  1
  O  O9  1  0.35389600  0.30639100  0.62303900  1
  O  O10  1  0.64610400  0.95249500  0.12303900  1
  O  O11  1  0.64610400  0.69360900  0.37696100  1
  O  O12  1  0.69360900  0.64610400  0.87696100  1
  O  O13  1  0.69360900  0.04750500  0.62303900  1
  O  O14  1  0.30639100  0.35389600  0.12303900  1
  O  O15  1  0.30639100  0.95249500  0.37696100  1
  O  O16  1  0.95249500  0.64610400  0.62303900  1
  O  O17  1  0.04750500  0.35389600  0.37696100  1
