# generated using pymatgen
data_KYbP4(H2O3)6
_symmetry_space_group_name_H-M   'P 1'
_cell_length_a   7.67516025
_cell_length_b   7.67516025
_cell_length_c   15.25671519
_cell_angle_alpha   90.37088737
_cell_angle_beta   90.37088737
_cell_angle_gamma   111.15082679
_symmetry_Int_Tables_number   1
_chemical_formula_structural   KYbP4(H2O3)6
_chemical_formula_sum   'K2 Yb2 P8 H24 O36'
_cell_volume   838.14397861
_cell_formula_units_Z   2
loop_
 _symmetry_equiv_pos_site_id
 _symmetry_equiv_pos_as_xyz
  1  'x, y, z'
loop_
 _atom_site_type_symbol
 _atom_site_label
 _atom_site_symmetry_multiplicity
 _atom_site_fract_x
 _atom_site_fract_y
 _atom_site_fract_z
 _atom_site_occupancy
  K  K0  1  0.52357900  0.47642100  0.75000000  1
  K  K1  1  0.47642100  0.52357900  0.25000000  1
  Yb  Yb2  1  0.88485700  0.11514300  0.75000000  1
  Yb  Yb3  1  0.11514300  0.88485700  0.25000000  1
  P  P4  1  0.20650600  0.03197300  0.91414800  1
  P  P5  1  0.79349400  0.96802700  0.08585200  1
  P  P6  1  0.96802700  0.79349400  0.58585200  1
  P  P7  1  0.03197300  0.20650600  0.41414800  1
  P  P8  1  0.75851900  0.82055500  0.42347900  1
  P  P9  1  0.24148100  0.17944500  0.57652100  1
  P  P10  1  0.17944500  0.24148100  0.07652100  1
  P  P11  1  0.82055500  0.75851900  0.92347900  1
  H  H12  1  0.45678400  0.95256400  0.76514900  1
  H  H13  1  0.54321600  0.04743600  0.23485100  1
  H  H14  1  0.04743600  0.54321600  0.73485100  1
  H  H15  1  0.95256400  0.45678400  0.26514900  1
  H  H16  1  0.48619200  0.84786900  0.67839200  1
  H  H17  1  0.51380800  0.15213100  0.32160800  1
  H  H18  1  0.15213100  0.51380800  0.82160800  1
  H  H19  1  0.84786900  0.48619200  0.17839200  1
  H  H20  1  0.36652200  0.74401900  0.89293900  1
  H  H21  1  0.63347800  0.25598100  0.10706100  1
  H  H22  1  0.25598100  0.63347800  0.60706100  1
  H  H23  1  0.74401900  0.36652200  0.39293900  1
  H  H24  1  0.31633800  0.55750600  0.94713700  1
  H  H25  1  0.68366200  0.44249400  0.05286300  1
  H  H26  1  0.44249400  0.68366200  0.55286300  1
  H  H27  1  0.55750600  0.31633800  0.44713700  1
  H  H28  1  0.59763800  0.13534600  0.88163600  1
  H  H29  1  0.40236200  0.86465400  0.11836400  1
  H  H30  1  0.86465400  0.40236200  0.61836400  1
  H  H31  1  0.13534600  0.59763800  0.38163600  1
  H  H32  1  0.66428400  0.23830000  0.61345900  1
  H  H33  1  0.33571600  0.76170000  0.38654100  1
  H  H34  1  0.76170000  0.33571600  0.88654100  1
  H  H35  1  0.23830000  0.66428400  0.11345900  1
  O  O36  1  0.36566800  0.97352900  0.88638300  1
  O  O37  1  0.63433200  0.02647100  0.11361700  1
  O  O38  1  0.02647100  0.63433200  0.61361700  1
  O  O39  1  0.97352900  0.36566800  0.38638300  1
  O  O40  1  0.34572700  0.60919600  0.88769700  1
  O  O41  1  0.65427300  0.39080400  0.11230300  1
  O  O42  1  0.39080400  0.65427300  0.61230300  1
  O  O43  1  0.60919600  0.34572700  0.38769700  1
  O  O44  1  0.84860500  0.04104900  0.44942900  1
  O  O45  1  0.15139500  0.95895100  0.55057100  1
  O  O46  1  0.95895100  0.15139500  0.05057100  1
  O  O47  1  0.04104900  0.84860500  0.94942900  1
  O  O48  1  0.72521600  0.84990200  0.99614200  1
  O  O49  1  0.27478400  0.15009800  0.00385800  1
  O  O50  1  0.15009800  0.27478400  0.50385800  1
  O  O51  1  0.84990200  0.72521600  0.49614200  1
  O  O52  1  0.72301400  0.21033900  0.85971000  1
  O  O53  1  0.27698600  0.78966100  0.14029000  1
  O  O54  1  0.78966100  0.27698600  0.64029000  1
  O  O55  1  0.21033900  0.72301400  0.35971000  1
  O  O56  1  0.44743600  0.24454000  0.55998300  1
  O  O57  1  0.55256400  0.75546000  0.44001700  1
  O  O58  1  0.75546000  0.55256400  0.94001700  1
  O  O59  1  0.24454000  0.44743600  0.05998300  1
  O  O60  1  0.85879200  0.86187600  0.64945500  1
  O  O61  1  0.14120800  0.13812400  0.35054500  1
  O  O62  1  0.13812400  0.14120800  0.85054500  1
  O  O63  1  0.86187600  0.85879200  0.14945500  1
  O  O64  1  0.54536400  0.95772300  0.71837200  1
  O  O65  1  0.45463600  0.04227700  0.28162800  1
  O  O66  1  0.04227700  0.45463600  0.78162800  1
  O  O67  1  0.95772300  0.54536400  0.21837200  1
  O  O68  1  0.78609000  0.82568400  0.83532800  1
  O  O69  1  0.21391000  0.17431600  0.16467200  1
  O  O70  1  0.17431600  0.21391000  0.66467200  1
  O  O71  1  0.82568400  0.78609000  0.33532800  1
