# generated using pymatgen
data_HoH12C2O4F
_symmetry_space_group_name_H-M   'P 1'
_cell_length_a   8.45735753
_cell_length_b   8.45735753
_cell_length_c   8.39150287
_cell_angle_alpha   61.92900070
_cell_angle_beta   61.92900070
_cell_angle_gamma   85.22194165
_symmetry_Int_Tables_number   1
_chemical_formula_structural   HoH12C2O4F
_chemical_formula_sum   'Ho2 H24 C4 O8 F2'
_cell_volume   459.89682640
_cell_formula_units_Z   2
loop_
 _symmetry_equiv_pos_site_id
 _symmetry_equiv_pos_as_xyz
  1  'x, y, z'
loop_
 _atom_site_type_symbol
 _atom_site_label
 _atom_site_symmetry_multiplicity
 _atom_site_fract_x
 _atom_site_fract_y
 _atom_site_fract_z
 _atom_site_occupancy
  Ho  Ho0  1  0.08130700  0.91869300  0.25000000  1
  Ho  Ho1  1  0.91869300  0.08130700  0.75000000  1
  H  H2  1  0.71796600  0.90911800  0.40796000  1
  H  H3  1  0.28203400  0.09088200  0.59204000  1
  H  H4  1  0.09088200  0.28203400  0.09204000  1
  H  H5  1  0.90911800  0.71796600  0.90796000  1
  H  H6  1  0.25416100  0.05251100  0.70687900  1
  H  H7  1  0.74583900  0.94748900  0.29312100  1
  H  H8  1  0.94748900  0.74583900  0.79312100  1
  H  H9  1  0.05251100  0.25416100  0.20687900  1
  H  H10  1  0.52805100  0.31668600  0.06395400  1
  H  H11  1  0.47194900  0.68331400  0.93604600  1
  H  H12  1  0.68331400  0.47194900  0.43604600  1
  H  H13  1  0.31668600  0.52805100  0.56395400  1
  H  H14  1  0.63899800  0.79460300  0.65205700  1
  H  H15  1  0.36100200  0.20539700  0.34794300  1
  H  H16  1  0.20539700  0.36100200  0.84794300  1
  H  H17  1  0.79460300  0.63899800  0.15205700  1
  H  H18  1  0.54946000  0.37286500  0.28093300  1
  H  H19  1  0.45054000  0.62713500  0.71906700  1
  H  H20  1  0.62713500  0.45054000  0.21906700  1
  H  H21  1  0.37286500  0.54946000  0.78093300  1
  H  H22  1  0.62696800  0.32048200  0.99483800  1
  H  H23  1  0.37303200  0.67951800  0.00516200  1
  H  H24  1  0.67951800  0.37303200  0.50516200  1
  H  H25  1  0.32048200  0.62696800  0.49483800  1
  C  C26  1  0.49879200  0.04841700  0.89758600  1
  C  C27  1  0.50120800  0.95158300  0.10241400  1
  C  C28  1  0.95158300  0.50120800  0.60241400  1
  C  C29  1  0.04841700  0.49879200  0.39758600  1
  O  O30  1  0.34394400  0.06796900  0.91222200  1
  O  O31  1  0.65605600  0.93203100  0.08777800  1
  O  O32  1  0.93203100  0.65605600  0.58777800  1
  O  O33  1  0.06796900  0.34394400  0.41222200  1
  O  O34  1  0.34678000  0.90144500  0.26537500  1
  O  O35  1  0.65322000  0.09855500  0.73462500  1
  O  O36  1  0.09855500  0.65322000  0.23462500  1
  O  O37  1  0.90144500  0.34678000  0.76537500  1
  F  F38  1  0.00000000  0.00000000  0.00000000  1
  F  F39  1  0.00000000  0.00000000  0.50000000  1
