# generated using pymatgen
data_Ho3CrS6
_symmetry_space_group_name_H-M   'P 1'
_cell_length_a   3.76377900
_cell_length_b   13.22101600
_cell_length_c   15.96071800
_cell_angle_alpha   90.00000000
_cell_angle_beta   90.00000000
_cell_angle_gamma   90.00000000
_symmetry_Int_Tables_number   1
_chemical_formula_structural   Ho3CrS6
_chemical_formula_sum   'Ho12 Cr4 S24'
_cell_volume   794.22100716
_cell_formula_units_Z   4
loop_
 _symmetry_equiv_pos_site_id
 _symmetry_equiv_pos_as_xyz
  1  'x, y, z'
loop_
 _atom_site_type_symbol
 _atom_site_label
 _atom_site_symmetry_multiplicity
 _atom_site_fract_x
 _atom_site_fract_y
 _atom_site_fract_z
 _atom_site_occupancy
  Ho  Ho0  1  0.00000000  0.54989900  0.28057600  1
  Ho  Ho1  1  0.00000000  0.45010100  0.71942400  1
  Ho  Ho2  1  0.50000000  0.95010100  0.78057600  1
  Ho  Ho3  1  0.50000000  0.04989900  0.21942400  1
  Ho  Ho4  1  0.00000000  0.75379100  0.09762500  1
  Ho  Ho5  1  0.00000000  0.24620900  0.90237500  1
  Ho  Ho6  1  0.50000000  0.74620900  0.59762500  1
  Ho  Ho7  1  0.50000000  0.25379100  0.40237500  1
  Ho  Ho8  1  0.00000000  0.31971800  0.14857300  1
  Ho  Ho9  1  0.00000000  0.68028200  0.85142700  1
  Ho  Ho10  1  0.50000000  0.18028200  0.64857300  1
  Ho  Ho11  1  0.50000000  0.81971800  0.35142700  1
  Cr  Cr12  1  0.00000000  0.00000000  0.50000000  1
  Cr  Cr13  1  0.50000000  0.50000000  0.00000000  1
  Cr  Cr14  1  0.00000000  0.00000000  0.00000000  1
  Cr  Cr15  1  0.50000000  0.50000000  0.50000000  1
  S  S16  1  0.00000000  0.12078100  0.10801400  1
  S  S17  1  0.00000000  0.87921900  0.89198600  1
  S  S18  1  0.50000000  0.37921900  0.60801400  1
  S  S19  1  0.50000000  0.62078100  0.39198600  1
  S  S20  1  0.00000000  0.18765200  0.28936900  1
  S  S21  1  0.00000000  0.81234800  0.71063100  1
  S  S22  1  0.50000000  0.31234800  0.78936900  1
  S  S23  1  0.50000000  0.68765200  0.21063100  1
  S  S24  1  0.00000000  0.18032600  0.52168300  1
  S  S25  1  0.00000000  0.81967400  0.47831700  1
  S  S26  1  0.50000000  0.31967400  0.02168300  1
  S  S27  1  0.50000000  0.68032600  0.97831700  1
  S  S28  1  0.00000000  0.52376400  0.09745600  1
  S  S29  1  0.00000000  0.47623600  0.90254400  1
  S  S30  1  0.50000000  0.97623600  0.59745600  1
  S  S31  1  0.50000000  0.02376400  0.40254400  1
  S  S32  1  0.00000000  0.10359700  0.75429800  1
  S  S33  1  0.00000000  0.89640300  0.24570200  1
  S  S34  1  0.50000000  0.39640300  0.25429800  1
  S  S35  1  0.50000000  0.60359700  0.74570200  1
  S  S36  1  0.00000000  0.41682700  0.42490400  1
  S  S37  1  0.00000000  0.58317300  0.57509600  1
  S  S38  1  0.50000000  0.08317300  0.92490400  1
  S  S39  1  0.50000000  0.91682700  0.07509600  1
