# generated using pymatgen
data_KH2C4N3O4
_symmetry_space_group_name_H-M   'P 1'
_cell_length_a   14.73864700
_cell_length_b   7.67006000
_cell_length_c   11.06765952
_cell_angle_alpha   72.12818560
_cell_angle_beta   90.00000000
_cell_angle_gamma   90.00000000
_symmetry_Int_Tables_number   1
_chemical_formula_structural   KH2C4N3O4
_chemical_formula_sum   'K4 H8 C16 N12 O16'
_cell_volume   1190.78401217
_cell_formula_units_Z   4
loop_
 _symmetry_equiv_pos_site_id
 _symmetry_equiv_pos_as_xyz
  1  'x, y, z'
loop_
 _atom_site_type_symbol
 _atom_site_label
 _atom_site_symmetry_multiplicity
 _atom_site_fract_x
 _atom_site_fract_y
 _atom_site_fract_z
 _atom_site_occupancy
  K  K0  1  0.46591800  0.82673500  0.72198500  1
  K  K1  1  0.53408200  0.17326500  0.27801500  1
  K  K2  1  0.96591800  0.67326500  0.27801500  1
  K  K3  1  0.03408200  0.32673500  0.72198500  1
  H  H4  1  0.32208200  0.01828600  0.87069300  1
  H  H5  1  0.67791800  0.98171400  0.12930700  1
  H  H6  1  0.82208200  0.48171400  0.12930700  1
  H  H7  1  0.17791800  0.51828600  0.87069300  1
  H  H8  1  0.01532400  0.82824600  0.89210300  1
  H  H9  1  0.98467600  0.17175400  0.10789700  1
  H  H10  1  0.51532400  0.67175400  0.10789700  1
  H  H11  1  0.48467600  0.32824600  0.89210300  1
  C  C12  1  0.30122800  0.25084400  0.41251200  1
  C  C13  1  0.69877200  0.74915600  0.58748800  1
  C  C14  1  0.80122800  0.24915600  0.58748800  1
  C  C15  1  0.19877200  0.75084400  0.41251200  1
  C  C16  1  0.70776000  0.20481600  0.67629600  1
  C  C17  1  0.29224000  0.79518400  0.32370400  1
  C  C18  1  0.20776000  0.29518400  0.32370400  1
  C  C19  1  0.79224000  0.70481600  0.67629600  1
  C  C20  1  0.19810300  0.20701000  0.58792400  1
  C  C21  1  0.80189700  0.79299000  0.41207600  1
  C  C22  1  0.69810300  0.29299000  0.41207600  1
  C  C23  1  0.30189700  0.70701000  0.58792400  1
  C  C24  1  0.11447000  0.30426300  0.39244400  1
  C  C25  1  0.88553000  0.69573700  0.60755600  1
  C  C26  1  0.61447000  0.19573700  0.60755600  1
  C  C27  1  0.38553000  0.80426300  0.39244400  1
  N  N28  1  0.28191500  0.20594800  0.53229900  1
  N  N29  1  0.71808500  0.79405200  0.46770100  1
  N  N30  1  0.78191500  0.29405200  0.46770100  1
  N  N31  1  0.21808500  0.70594800  0.53229900  1
  N  N32  1  0.71774300  0.17869300  0.78967400  1
  N  N33  1  0.28225700  0.82130700  0.21032600  1
  N  N34  1  0.21774300  0.32130700  0.21032600  1
  N  N35  1  0.78225700  0.67869300  0.78967400  1
  N  N36  1  0.12034300  0.25870600  0.51676200  1
  N  N37  1  0.87965700  0.74129400  0.48323800  1
  N  N38  1  0.62034300  0.24129400  0.48323800  1
  N  N39  1  0.37965700  0.75870600  0.51676200  1
  O  O40  1  0.25862100  0.84215100  0.10324700  1
  O  O41  1  0.74137900  0.15784900  0.89675300  1
  O  O42  1  0.75862100  0.65784900  0.89675300  1
  O  O43  1  0.24137900  0.34215100  0.10324700  1
  O  O44  1  0.37181300  0.26516100  0.35137400  1
  O  O45  1  0.62818700  0.73483900  0.64862600  1
  O  O46  1  0.87181300  0.23483900  0.64862600  1
  O  O47  1  0.12818700  0.76516100  0.35137400  1
  O  O48  1  0.19301400  0.16412800  0.70579100  1
  O  O49  1  0.80698600  0.83587200  0.29420900  1
  O  O50  1  0.69301400  0.33587200  0.29420900  1
  O  O51  1  0.30698600  0.66412800  0.70579100  1
  O  O52  1  0.54803400  0.14556000  0.67779500  1
  O  O53  1  0.45196600  0.85444000  0.32220500  1
  O  O54  1  0.04803400  0.35444000  0.32220500  1
  O  O55  1  0.95196600  0.64556000  0.67779500  1
