# generated using pymatgen
data_Na3GdV2O8
_symmetry_space_group_name_H-M   'P 1'
_cell_length_a   5.62747700
_cell_length_b   14.35592058
_cell_length_c   14.92606288
_cell_angle_alpha   91.40532064
_cell_angle_beta   100.86594344
_cell_angle_gamma   90.00000000
_symmetry_Int_Tables_number   1
_chemical_formula_structural   Na3GdV2O8
_chemical_formula_sum   'Na18 Gd6 V12 O48'
_cell_volume   1183.85207095
_cell_formula_units_Z   6
loop_
 _symmetry_equiv_pos_site_id
 _symmetry_equiv_pos_as_xyz
  1  'x, y, z'
loop_
 _atom_site_type_symbol
 _atom_site_label
 _atom_site_symmetry_multiplicity
 _atom_site_fract_x
 _atom_site_fract_y
 _atom_site_fract_z
 _atom_site_occupancy
  Na  Na0  1  0.70694500  0.41760900  0.42047900  1
  Na  Na1  1  0.71353400  0.91760900  0.42047900  1
  Na  Na2  1  0.81860700  0.32778100  0.67490300  1
  Na  Na3  1  0.85629600  0.82778100  0.67490300  1
  Na  Na4  1  0.66560900  0.07498700  0.22192100  1
  Na  Na5  1  0.55631200  0.57498700  0.22192100  1
  Na  Na6  1  0.45530200  0.23510100  0.00664600  1
  Na  Na7  1  0.55134500  0.73510100  0.00664600  1
  Na  Na8  1  0.94997700  0.00864700  0.87823400  1
  Na  Na9  1  0.92825600  0.50864700  0.87823400  1
  Na  Na10  1  0.39596900  0.39062600  0.80302000  1
  Na  Na11  1  0.40705100  0.89062600  0.80302000  1
  Na  Na12  1  0.06822500  0.15452800  0.11743600  1
  Na  Na13  1  0.04921000  0.65452800  0.11743600  1
  Na  Na14  1  0.28720400  0.47561400  0.55684700  1
  Na  Na15  1  0.26964300  0.97561400  0.55684700  1
  Na  Na16  1  0.19463100  0.29484300  0.35914800  1
  Na  Na17  1  0.16451700  0.79484300  0.35914800  1
  Gd  Gd18  1  0.41845300  0.63438300  0.76127400  1
  Gd  Gd19  1  0.34282100  0.13438300  0.76127400  1
  Gd  Gd20  1  0.95850800  0.40057600  0.11540800  1
  Gd  Gd21  1  0.15690000  0.90057600  0.11540800  1
  Gd  Gd22  1  0.77064100  0.16992700  0.46572000  1
  Gd  Gd23  1  0.69507900  0.66992700  0.46572000  1
  V  V24  1  0.29928500  0.25079100  0.57151900  1
  V  V25  1  0.27223400  0.75079100  0.57151900  1
  V  V26  1  0.91537100  0.25816200  0.89054700  1
  V  V27  1  0.97517600  0.75816200  0.89054700  1
  V  V28  1  0.81914100  0.04994200  0.65306400  1
  V  V29  1  0.83392400  0.54994200  0.65306400  1
  V  V30  1  0.20000200  0.04828300  0.33599900  1
  V  V31  1  0.13599700  0.54828300  0.33599900  1
  V  V32  1  0.57107700  0.30828200  0.22858500  1
  V  V33  1  0.65750800  0.80828200  0.22858500  1
  V  V34  1  0.54857300  0.00210900  0.00011200  1
  V  V35  1  0.45153900  0.50210900  0.00011200  1
  O  O36  1  0.07473400  0.16219700  0.85672800  1
  O  O37  1  0.78199400  0.66219700  0.85672800  1
  O  O38  1  0.57899100  0.01855700  0.70498300  1
  O  O39  1  0.12599200  0.51855700  0.70498300  1
  O  O40  1  0.59325500  0.39389300  0.00692700  1
  O  O41  1  0.41367300  0.89389300  0.00692700  1
  O  O42  1  0.54011300  0.28776900  0.52225800  1
  O  O43  1  0.98214500  0.78776900  0.52225800  1
  O  O44  1  0.68779600  0.41894400  0.21867400  1
  O  O45  1  0.53087800  0.91894400  0.21867400  1
  O  O46  1  0.98407500  0.35438900  0.83349500  1
  O  O47  1  0.84942000  0.85438900  0.83349500  1
  O  O48  1  0.86786900  0.16817600  0.65668900  1
  O  O49  1  0.78882100  0.66817600  0.65668900  1
  O  O50  1  0.41529800  0.07606400  0.06883100  1
  O  O51  1  0.65353300  0.57606400  0.06883100  1
  O  O52  1  0.12675500  0.52538800  0.21931400  1
  O  O53  1  0.09255900  0.02538800  0.21931400  1
  O  O54  1  0.64782400  0.27666500  0.34244500  1
  O  O55  1  0.69462200  0.77666500  0.34244500  1
  O  O56  1  0.33502100  0.64230400  0.36683400  1
  O  O57  1  0.03181300  0.14230400  0.36683400  1
  O  O58  1  0.25145200  0.30468400  0.19751500  1
  O  O59  1  0.94606300  0.80468400  0.19751500  1
  O  O60  1  0.50873700  0.07959000  0.35926500  1
  O  O61  1  0.85052800  0.57959000  0.35926500  1
  O  O62  1  0.27366800  0.13194300  0.56533200  1
  O  O63  1  0.29166400  0.63194300  0.56533200  1
  O  O64  1  0.03609700  0.29967600  0.51043700  1
  O  O65  1  0.47434000  0.79967600  0.51043700  1
  O  O66  1  0.76535000  0.01959100  0.53713200  1
  O  O67  1  0.77178200  0.51959100  0.53713200  1
  O  O68  1  0.48020800  0.03537700  0.88598900  1
  O  O69  1  0.40578100  0.53537700  0.88598900  1
  O  O70  1  0.60246600  0.23500800  0.86175400  1
  O  O71  1  0.25928800  0.73500800  0.86175400  1
  O  O72  1  0.24862300  0.45303400  0.39779800  1
  O  O73  1  0.14917400  0.95303400  0.39779800  1
  O  O74  1  0.62833600  0.49698800  0.71118300  1
  O  O75  1  0.08284700  0.99698800  0.71118300  1
  O  O76  1  0.01336900  0.27608300  0.00847000  1
  O  O77  1  0.99510100  0.77608300  0.00847000  1
  O  O78  1  0.71355700  0.23918000  0.15845200  1
  O  O79  1  0.44489500  0.73918000  0.15845200  1
  O  O80  1  0.16527400  0.49753400  0.03281200  1
  O  O81  1  0.86753800  0.99753400  0.03281200  1
  O  O82  1  0.34328000  0.78157700  0.68768400  1
  O  O83  1  0.34440400  0.28157700  0.68768400  1
