# generated using pymatgen
data_PdRuBr4N5Cl
_symmetry_space_group_name_H-M   'P 1'
_cell_length_a   9.11495900
_cell_length_b   11.36078800
_cell_length_c   14.17056300
_cell_angle_alpha   90.00000000
_cell_angle_beta   90.00000000
_cell_angle_gamma   90.00000000
_symmetry_Int_Tables_number   1
_chemical_formula_structural   PdRuBr4N5Cl
_chemical_formula_sum   'Pd4 Ru4 Br16 N20 Cl4'
_cell_volume   1467.40596585
_cell_formula_units_Z   4
loop_
 _symmetry_equiv_pos_site_id
 _symmetry_equiv_pos_as_xyz
  1  'x, y, z'
loop_
 _atom_site_type_symbol
 _atom_site_label
 _atom_site_symmetry_multiplicity
 _atom_site_fract_x
 _atom_site_fract_y
 _atom_site_fract_z
 _atom_site_occupancy
  Pd  Pd0  1  0.25000000  0.67948600  0.14230900  1
  Pd  Pd1  1  0.75000000  0.32051400  0.85769100  1
  Pd  Pd2  1  0.75000000  0.17948600  0.35769100  1
  Pd  Pd3  1  0.25000000  0.82051400  0.64230900  1
  Ru  Ru4  1  0.25000000  0.32764400  0.03756200  1
  Ru  Ru5  1  0.75000000  0.67235600  0.96243800  1
  Ru  Ru6  1  0.75000000  0.82764400  0.46243800  1
  Ru  Ru7  1  0.25000000  0.17235600  0.53756200  1
  Br  Br8  1  0.25000000  0.53807300  0.99531900  1
  Br  Br9  1  0.75000000  0.46192700  0.00468100  1
  Br  Br10  1  0.75000000  0.03807300  0.50468100  1
  Br  Br11  1  0.25000000  0.96192700  0.49531900  1
  Br  Br12  1  0.02518700  0.20561700  0.36359200  1
  Br  Br13  1  0.97481300  0.79438300  0.63640800  1
  Br  Br14  1  0.97481300  0.70561700  0.13640800  1
  Br  Br15  1  0.52518700  0.79438300  0.63640800  1
  Br  Br16  1  0.02518700  0.29438300  0.86359200  1
  Br  Br17  1  0.47481300  0.20561700  0.36359200  1
  Br  Br18  1  0.47481300  0.29438300  0.86359200  1
  Br  Br19  1  0.52518700  0.70561700  0.13640800  1
  Br  Br20  1  0.25000000  0.71387700  0.31274400  1
  Br  Br21  1  0.75000000  0.28612300  0.68725600  1
  Br  Br22  1  0.75000000  0.21387700  0.18725600  1
  Br  Br23  1  0.25000000  0.78612300  0.81274400  1
  N  N24  1  0.18889600  0.00805300  0.17814100  1
  N  N25  1  0.81110400  0.99194700  0.82185900  1
  N  N26  1  0.81110400  0.50805300  0.32185900  1
  N  N27  1  0.68889600  0.99194700  0.82185900  1
  N  N28  1  0.18889600  0.49194700  0.67814100  1
  N  N29  1  0.31110400  0.00805300  0.17814100  1
  N  N30  1  0.31110400  0.49194700  0.67814100  1
  N  N31  1  0.68889600  0.50805300  0.32185900  1
  N  N32  1  0.07444600  0.27235300  0.98950000  1
  N  N33  1  0.92555400  0.72764700  0.01050000  1
  N  N34  1  0.92555400  0.77235300  0.51050000  1
  N  N35  1  0.57444600  0.72764700  0.01050000  1
  N  N36  1  0.07444600  0.22764700  0.48950000  1
  N  N37  1  0.42555400  0.27235300  0.98950000  1
  N  N38  1  0.42555400  0.22764700  0.48950000  1
  N  N39  1  0.57444600  0.77235300  0.51050000  1
  N  N40  1  0.25000000  0.29921900  0.15262800  1
  N  N41  1  0.75000000  0.70078100  0.84737200  1
  N  N42  1  0.75000000  0.79921900  0.34737200  1
  N  N43  1  0.25000000  0.20078100  0.65262800  1
  Cl  Cl44  1  0.25000000  0.57220800  0.43787500  1
  Cl  Cl45  1  0.75000000  0.42779200  0.56212500  1
  Cl  Cl46  1  0.75000000  0.07220800  0.06212500  1
  Cl  Cl47  1  0.25000000  0.92779200  0.93787500  1
