# generated using pymatgen
data_Mg4Si6H6O17
_symmetry_space_group_name_H-M   'P 1'
_cell_length_a   5.28365331
_cell_length_b   13.62339635
_cell_length_c   27.99561145
_cell_angle_alpha   90.00000000
_cell_angle_beta   90.00000000
_cell_angle_gamma   90.00000000
_symmetry_Int_Tables_number   1
_chemical_formula_structural   Mg4Si6H6O17
_chemical_formula_sum   'Mg16 Si24 H24 O68'
_cell_volume   2015.16059656
_cell_formula_units_Z   4
loop_
 _symmetry_equiv_pos_site_id
 _symmetry_equiv_pos_as_xyz
  1  'x, y, z'
loop_
 _atom_site_type_symbol
 _atom_site_label
 _atom_site_symmetry_multiplicity
 _atom_site_fract_x
 _atom_site_fract_y
 _atom_site_fract_z
 _atom_site_occupancy
  Mg  Mg0  1  0.25000000  -0.00000000  0.84739093  1
  Mg  Mg1  1  0.75000000  -0.00000000  0.15260907  1
  Mg  Mg2  1  0.25000000  0.50000000  0.65260907  1
  Mg  Mg3  1  0.75000000  0.50000000  0.34739093  1
  Mg  Mg4  1  0.25000000  -0.00000000  0.08551066  1
  Mg  Mg5  1  0.75000000  -0.00000000  0.91448934  1
  Mg  Mg6  1  0.25000000  0.50000000  0.41448934  1
  Mg  Mg7  1  0.75000000  0.50000000  0.58551066  1
  Mg  Mg8  1  0.25000000  -0.00000000  0.19311691  1
  Mg  Mg9  1  0.75000000  -0.00000000  0.80688309  1
  Mg  Mg10  1  0.25000000  0.50000000  0.30688309  1
  Mg  Mg11  1  0.75000000  0.50000000  0.69311691  1
  Mg  Mg12  1  0.25000000  -0.00000000  0.97760574  1
  Mg  Mg13  1  0.75000000  -0.00000000  0.02239426  1
  Mg  Mg14  1  0.25000000  0.50000000  0.52239426  1
  Mg  Mg15  1  0.75000000  0.50000000  0.47760574  1
  Si  Si16  1  0.56097643  0.20527792  0.19615426  1
  Si  Si17  1  0.43902357  0.79472208  0.80384574  1
  Si  Si18  1  0.93902357  0.79472208  0.19615426  1
  Si  Si19  1  0.93902357  0.70527792  0.30384574  1
  Si  Si20  1  0.06097643  0.20527792  0.80384574  1
  Si  Si21  1  0.06097643  0.29472208  0.69615426  1
  Si  Si22  1  0.56097643  0.29472208  0.30384574  1
  Si  Si23  1  0.43902357  0.70527792  0.69615426  1
  Si  Si24  1  0.06896544  0.20429185  0.13959039  1
  Si  Si25  1  0.93103456  0.79570815  0.86040961  1
  Si  Si26  1  0.43103456  0.79570815  0.13959039  1
  Si  Si27  1  0.43103456  0.70429185  0.36040961  1
  Si  Si28  1  0.56896544  0.20429185  0.86040961  1
  Si  Si29  1  0.56896544  0.29570815  0.63959039  1
  Si  Si30  1  0.06896544  0.29570815  0.36040961  1
  Si  Si31  1  0.93103456  0.70429185  0.63959039  1
  Si  Si32  1  0.07446942  0.20413848  0.02839800  1
  Si  Si33  1  0.92553058  0.79586152  0.97160200  1
  Si  Si34  1  0.42553058  0.79586152  0.02839800  1
  Si  Si35  1  0.42553058  0.70413848  0.47160200  1
  Si  Si36  1  0.57446942  0.20413848  0.97160200  1
  Si  Si37  1  0.57446942  0.29586152  0.52839800  1
  Si  Si38  1  0.07446942  0.29586152  0.47160200  1
  Si  Si39  1  0.92553058  0.70413848  0.52839800  1
  H  H40  1  0.25000000  -0.00000000  0.32865919  1
  H  H41  1  0.75000000  -0.00000000  0.67134081  1
  H  H42  1  0.25000000  0.50000000  0.17134081  1
  H  H43  1  0.75000000  0.50000000  0.82865919  1
  H  H44  1  0.99655071  0.08626790  0.24961661  1
  H  H45  1  0.00344929  0.91373210  0.75038339  1
  H  H46  1  0.50344929  0.91373210  0.24961661  1
  H  H47  1  0.50344929  0.58626790  0.25038339  1
  H  H48  1  0.49655071  0.08626790  0.75038339  1
  H  H49  1  0.49655071  0.41373210  0.74961661  1
  H  H50  1  0.99655071  0.41373210  0.25038339  1
  H  H51  1  0.00344929  0.58626790  0.74961661  1
  H  H52  1  0.25000000  -0.00000000  0.51583592  1
  H  H53  1  0.75000000  -0.00000000  0.48416408  1
  H  H54  1  0.25000000  0.50000000  0.98416408  1
  H  H55  1  0.75000000  0.50000000  0.01583592  1
  H  H56  1  0.07695978  0.58771842  0.08342279  1
  H  H57  1  0.92304022  0.41228158  0.91657721  1
  H  H58  1  0.42304022  0.41228158  0.08342279  1
  H  H59  1  0.42304022  0.08771842  0.41657721  1
  H  H60  1  0.57695978  0.58771842  0.91657721  1
  H  H61  1  0.57695978  0.91228158  0.58342279  1
  H  H62  1  0.07695978  0.91228158  0.41657721  1
  H  H63  1  0.92304022  0.08771842  0.58342279  1
  O  O64  1  0.65892724  0.04640371  0.08672883  1
  O  O65  1  0.34107276  0.95359629  0.91327117  1
  O  O66  1  0.84107276  0.95359629  0.08672883  1
  O  O67  1  0.84107276  0.54640371  0.41327117  1
  O  O68  1  0.15892724  0.04640371  0.91327117  1
  O  O69  1  0.15892724  0.45359629  0.58672883  1
  O  O70  1  0.65892724  0.45359629  0.41327117  1
  O  O71  1  0.34107276  0.54640371  0.58672883  1
  O  O72  1  0.08905048  0.08409987  0.14243385  1
  O  O73  1  0.91094952  0.91590013  0.85756615  1
  O  O74  1  0.41094952  0.91590013  0.14243385  1
  O  O75  1  0.41094952  0.58409987  0.35756615  1
  O  O76  1  0.58905048  0.08409987  0.85756615  1
  O  O77  1  0.58905048  0.41590013  0.64243385  1
  O  O78  1  0.08905048  0.41590013  0.35756615  1
  O  O79  1  0.91094952  0.58409987  0.64243385  1
  O  O80  1  0.32390569  0.24461710  0.99974527  1
  O  O81  1  0.67609431  0.75538290  0.00025473  1
  O  O82  1  0.17609431  0.75538290  0.99974527  1
  O  O83  1  0.17609431  0.74461710  0.50025473  1
  O  O84  1  0.82390569  0.24461710  0.00025473  1
  O  O85  1  0.82390569  0.25538290  0.49974527  1
  O  O86  1  0.32390569  0.25538290  0.50025473  1
  O  O87  1  0.67609431  0.74461710  0.49974527  1
  O  O88  1  0.31309175  0.24981764  0.16809751  1
  O  O89  1  0.68690825  0.75018236  0.83190249  1
  O  O90  1  0.18690825  0.75018236  0.16809751  1
  O  O91  1  0.18690825  0.74981764  0.33190249  1
  O  O92  1  0.81309175  0.24981764  0.83190249  1
  O  O93  1  0.81309175  0.25018236  0.66809751  1
  O  O94  1  0.31309175  0.25018236  0.33190249  1
  O  O95  1  0.68690825  0.74981764  0.66809751  1
  O  O96  1  0.07059019  0.24145141  0.08399372  1
  O  O97  1  0.92940981  0.75854859  0.91600628  1
  O  O98  1  0.42940981  0.75854859  0.08399372  1
  O  O99  1  0.42940981  0.74145141  0.41600628  1
  O  O100  1  0.57059019  0.24145141  0.91600628  1
  O  O101  1  0.57059019  0.25854859  0.58399372  1
  O  O102  1  0.07059019  0.25854859  0.41600628  1
  O  O103  1  0.92940981  0.74145141  0.58399372  1
  O  O104  1  0.09152288  0.08343394  0.02802821  1
  O  O105  1  0.90847712  0.91656606  0.97197179  1
  O  O106  1  0.40847712  0.91656606  0.02802821  1
  O  O107  1  0.40847712  0.58343394  0.47197179  1
  O  O108  1  0.59152288  0.08343394  0.97197179  1
  O  O109  1  0.59152288  0.41656606  0.52802821  1
  O  O110  1  0.09152288  0.41656606  0.47197179  1
  O  O111  1  0.90847712  0.58343394  0.52802821  1
  O  O112  1  0.55155311  0.08553586  0.19789166  1
  O  O113  1  0.44844689  0.91446414  0.80210834  1
  O  O114  1  0.94844689  0.91446414  0.19789166  1
  O  O115  1  0.94844689  0.58553586  0.30210834  1
  O  O116  1  0.05155311  0.08553586  0.80210834  1
  O  O117  1  0.05155311  0.41446414  0.69789166  1
  O  O118  1  0.55155311  0.41446414  0.30210834  1
  O  O119  1  0.44844689  0.58553586  0.69789166  1
  O  O120  1  0.56619380  0.25000000  0.25000000  1
  O  O121  1  0.43380620  0.75000000  0.75000000  1
  O  O122  1  0.93380620  0.75000000  0.25000000  1
  O  O123  1  0.06619380  0.25000000  0.75000000  1
  O  O124  1  0.31334700  0.25812270  0.66712775  1
  O  O125  1  0.68665300  0.74187730  0.33287225  1
  O  O126  1  0.18665300  0.74187730  0.66712775  1
  O  O127  1  0.18665300  0.75812270  0.83287225  1
  O  O128  1  0.81334700  0.25812270  0.33287225  1
  O  O129  1  0.81334700  0.24187730  0.16712775  1
  O  O130  1  0.31334700  0.24187730  0.83287225  1
  O  O131  1  0.68665300  0.75812270  0.16712775  1
