# generated using pymatgen
data_La8Sb2Se15
_symmetry_space_group_name_H-M   'P 1'
_cell_length_a   15.78541511
_cell_length_b   15.78541511
_cell_length_c   15.78541511
_cell_angle_alpha   96.57757150
_cell_angle_beta   116.27793134
_cell_angle_gamma   116.27793134
_symmetry_Int_Tables_number   1
_chemical_formula_structural   La8Sb2Se15
_chemical_formula_sum   'La32 Sb8 Se60'
_cell_volume   2916.98605378
_cell_formula_units_Z   4
loop_
 _symmetry_equiv_pos_site_id
 _symmetry_equiv_pos_as_xyz
  1  'x, y, z'
loop_
 _atom_site_type_symbol
 _atom_site_label
 _atom_site_symmetry_multiplicity
 _atom_site_fract_x
 _atom_site_fract_y
 _atom_site_fract_z
 _atom_site_occupancy
  La  La0  1  0.63149151  0.46897922  0.79946751  1
  La  La1  1  0.36850849  0.16797600  0.83748771  1
  La  La2  1  0.16951170  0.58748771  0.71897922  1
  La  La3  1  0.66951170  0.96897922  0.33748771  1
  La  La4  1  0.83048830  0.54946751  0.41797600  1
  La  La5  1  0.33048830  0.66797600  0.29946751  1
  La  La6  1  0.86850849  0.08748771  0.91797600  1
  La  La7  1  0.13149151  0.04946751  0.21897922  1
  La  La8  1  0.82604736  0.78218821  0.91751324  1
  La  La9  1  0.17395264  0.09146589  0.95614085  1
  La  La10  1  0.36467497  0.70614085  0.03218821  1
  La  La11  1  0.86467497  0.28218821  0.45614085  1
  La  La12  1  0.63532503  0.66751324  0.34146589  1
  La  La13  1  0.13532503  0.59146589  0.41751324  1
  La  La14  1  0.67395264  0.20614085  0.84146589  1
  La  La15  1  0.32604736  0.16751324  0.53218821  1
  La  La16  1  0.34568412  0.45808562  0.52844928  1
  La  La17  1  0.65431588  0.18276516  0.11240150  1
  La  La18  1  0.42963634  0.86240150  0.70808562  1
  La  La19  1  0.92963634  0.95808562  0.61240150  1
  La  La20  1  0.57036366  0.27844928  0.43276516  1
  La  La21  1  0.07036366  0.68276516  0.02844928  1
  La  La22  1  0.15431588  0.36240150  0.93276516  1
  La  La23  1  0.84568412  0.77844928  0.20808562  1
  La  La24  1  0.70771909  0.60172051  0.60847848  1
  La  La25  1  0.29228091  0.90075939  0.89400141  1
  La  La26  1  0.49324202  0.64400141  0.85172051  1
  La  La27  1  0.99324202  0.10172051  0.39400141  1
  La  La28  1  0.50675798  0.35847848  0.15075939  1
  La  La29  1  0.00675798  0.40075939  0.10847848  1
  La  La30  1  0.79228091  0.14400141  0.65075939  1
  La  La31  1  0.20771909  0.85847848  0.35172051  1
  Sb  Sb32  1  0.61242371  0.79924075  0.61891400  1
  Sb  Sb33  1  0.38757629  0.00649029  0.18681704  1
  Sb  Sb34  1  0.68032675  0.93681704  0.04924075  1
  Sb  Sb35  1  0.18032675  0.29924075  0.68681704  1
  Sb  Sb36  1  0.31967325  0.36891400  0.25649029  1
  Sb  Sb37  1  0.81967325  0.50649029  0.11891400  1
  Sb  Sb38  1  0.88757629  0.43681704  0.75649029  1
  Sb  Sb39  1  0.11242371  0.86891400  0.54924075  1
  Se  Se40  1  0.58765349  0.62339803  0.71808380  1
  Se  Se41  1  0.41234651  0.13043031  0.03574454  1
  Se  Se42  1  0.40531423  0.78574454  0.87339803  1
  Se  Se43  1  0.90531423  0.12339803  0.53574454  1
  Se  Se44  1  0.59468577  0.46808380  0.38043031  1
  Se  Se45  1  0.09468577  0.63043031  0.21808380  1
  Se  Se46  1  0.91234651  0.28574454  0.88043031  1
  Se  Se47  1  0.08765349  0.96808380  0.37339803  1
  Se  Se48  1  0.51202683  0.62743691  0.46184650  1
  Se  Se49  1  0.48797317  0.94981967  0.11541008  1
  Se  Se50  1  0.66559041  0.86541008  0.87743691  1
  Se  Se51  1  0.16559041  0.12743691  0.61541008  1
  Se  Se52  1  0.33440959  0.21184650  0.19981967  1
  Se  Se53  1  0.83440959  0.44981967  0.96184650  1
  Se  Se54  1  0.98797317  0.36541008  0.69981967  1
  Se  Se55  1  0.01202683  0.71184650  0.37743691  1
  Se  Se56  1  0.20057122  0.47343677  0.32828430  1
  Se  Se57  1  0.79942878  0.12771308  0.27286555  1
  Se  Se58  1  0.64515247  0.02286555  0.72343677  1
  Se  Se59  1  0.14515247  0.97343677  0.77286555  1
  Se  Se60  1  0.35484753  0.07828430  0.37771308  1
  Se  Se61  1  0.85484753  0.62771308  0.82828430  1
  Se  Se62  1  0.29942878  0.52286555  0.87771308  1
  Se  Se63  1  0.70057122  0.57828430  0.22343677  1
  Se  Se64  1  0.81715463  0.83532001  0.72662002  1
  Se  Se65  1  0.18284537  0.90946540  0.01816538  1
  Se  Se66  1  0.60869998  0.76816538  0.08532001  1
  Se  Se67  1  0.10869998  0.33532001  0.51816538  1
  Se  Se68  1  0.39130002  0.47662002  0.15946540  1
  Se  Se69  1  0.89130002  0.40946540  0.22662002  1
  Se  Se70  1  0.68284537  0.26816538  0.65946540  1
  Se  Se71  1  0.31715463  0.97662002  0.58532001  1
  Se  Se72  1  0.00000000  0.99979333  0.99979333  1
  Se  Se73  1  0.50000000  0.74979333  0.24979333  1
  Se  Se74  1  0.00000000  0.49979333  0.49979333  1
  Se  Se75  1  0.50000000  0.24979333  0.74979333  1
  Se  Se76  1  0.81015502  0.47623331  0.58903229  1
  Se  Se77  1  0.18984498  0.77887728  0.66607829  1
  Se  Se78  1  0.38720102  0.41607829  0.72623331  1
  Se  Se79  1  0.88720102  0.97623331  0.16607829  1
  Se  Se80  1  0.61279898  0.33903229  0.02887728  1
  Se  Se81  1  0.11279898  0.27887728  0.08903229  1
  Se  Se82  1  0.68984498  0.91607829  0.52887728  1
  Se  Se83  1  0.31015502  0.83903229  0.22623331  1
  Se  Se84  1  0.51037819  0.38353433  0.56038383  1
  Se  Se85  1  0.48962181  0.05000564  0.87315613  1
  Se  Se86  1  0.32315050  0.62315613  0.63353433  1
  Se  Se87  1  0.82315050  0.88353433  0.37315613  1
  Se  Se88  1  0.67684950  0.31038383  0.30000564  1
  Se  Se89  1  0.17684950  0.55000564  0.06038383  1
  Se  Se90  1  0.98962181  0.12315613  0.80000564  1
  Se  Se91  1  0.01037819  0.81038383  0.13353433  1
  Se  Se92  1  0.35326691  0.78521088  0.48132094  1
  Se  Se93  1  0.64673309  0.12805402  0.43194397  1
  Se  Se94  1  0.80388995  0.18194397  0.03521088  1
  Se  Se95  1  0.30388995  0.28521088  0.93194397  1
  Se  Se96  1  0.19611005  0.23132094  0.37805402  1
  Se  Se97  1  0.69611005  0.62805402  0.98132094  1
  Se  Se98  1  0.14673309  0.68194397  0.87805402  1
  Se  Se99  1  0.85326691  0.73132094  0.53521088  1
