# generated using pymatgen
data_Ho3Co2Si7
_symmetry_space_group_name_H-M   'P 1'
_cell_length_a   12.41576029
_cell_length_b   12.41576029
_cell_length_c   4.03269700
_cell_angle_alpha   90.00000000
_cell_angle_beta   90.00000000
_cell_angle_gamma   161.57172099
_symmetry_Int_Tables_number   1
_chemical_formula_structural   Ho3Co2Si7
_chemical_formula_sum   'Ho3 Co2 Si7'
_cell_volume   196.51265910
_cell_formula_units_Z   1
loop_
 _symmetry_equiv_pos_site_id
 _symmetry_equiv_pos_as_xyz
  1  'x, y, z'
loop_
 _atom_site_type_symbol
 _atom_site_label
 _atom_site_symmetry_multiplicity
 _atom_site_fract_x
 _atom_site_fract_y
 _atom_site_fract_z
 _atom_site_occupancy
  Ho  Ho0  1  0.90230300  0.09769700  0.50000000  1
  Ho  Ho1  1  0.53402800  0.46597200  0.50000000  1
  Ho  Ho2  1  0.21900300  0.78099700  0.00000000  1
  Co  Co3  1  0.34720400  0.65279600  0.00000000  1
  Co  Co4  1  0.08874000  0.91126000  0.00000000  1
  Si  Si5  1  0.62890500  0.37109500  0.00000000  1
  Si  Si6  1  0.43901200  0.56098800  0.00000000  1
  Si  Si7  1  0.12917500  0.87082500  0.50000000  1
  Si  Si8  1  0.99658700  0.00341300  0.00000000  1
  Si  Si9  1  0.80670300  0.19329700  0.00000000  1
  Si  Si10  1  0.70484400  0.29515600  0.50000000  1
  Si  Si11  1  0.30679400  0.69320600  0.50000000  1
