# generated using pymatgen
data_K2Be2Zn(O3F4)2
_symmetry_space_group_name_H-M   'P 1'
_cell_length_a   11.36216600
_cell_length_b   5.85093100
_cell_length_c   8.67168275
_cell_angle_alpha   74.52552153
_cell_angle_beta   90.00000000
_cell_angle_gamma   90.00000000
_symmetry_Int_Tables_number   1
_chemical_formula_structural   K2Be2Zn(O3F4)2
_chemical_formula_sum   'K4 Be4 Zn2 O12 F16'
_cell_volume   555.58895788
_cell_formula_units_Z   2
loop_
 _symmetry_equiv_pos_site_id
 _symmetry_equiv_pos_as_xyz
  1  'x, y, z'
loop_
 _atom_site_type_symbol
 _atom_site_label
 _atom_site_symmetry_multiplicity
 _atom_site_fract_x
 _atom_site_fract_y
 _atom_site_fract_z
 _atom_site_occupancy
  K  K0  1  0.64311100  0.86214700  0.89031400  1
  K  K1  1  0.35688900  0.13785300  0.10968600  1
  K  K2  1  0.14311100  0.13785300  0.60968600  1
  K  K3  1  0.85688900  0.86214700  0.39031400  1
  Be  Be4  1  0.34270000  0.75630700  0.90257200  1
  Be  Be5  1  0.65730000  0.24369300  0.09742800  1
  Be  Be6  1  0.84270000  0.24369300  0.59742800  1
  Be  Be7  1  0.15730000  0.75630700  0.40257200  1
  Zn  Zn8  1  0.50000000  0.50000000  0.50000000  1
  Zn  Zn9  1  0.00000000  0.50000000  0.00000000  1
  O  O10  1  0.38052300  0.31061600  0.63184500  1
  O  O11  1  0.61947700  0.68938400  0.36815500  1
  O  O12  1  0.88052300  0.68938400  0.86815500  1
  O  O13  1  0.11947700  0.31061600  0.13184500  1
  O  O14  1  0.11947600  0.44134400  0.84860600  1
  O  O15  1  0.88052400  0.55865600  0.15139400  1
  O  O16  1  0.61947600  0.55865600  0.65139400  1
  O  O17  1  0.38052400  0.44134400  0.34860600  1
  O  O18  1  0.44138500  0.84776800  0.51990400  1
  O  O19  1  0.55861500  0.15223200  0.48009600  1
  O  O20  1  0.94138500  0.15223200  0.98009600  1
  O  O21  1  0.05861500  0.84776800  0.01990400  1
  F  F22  1  0.29852600  0.51392600  0.87992400  1
  F  F23  1  0.70147400  0.48607400  0.12007600  1
  F  F24  1  0.79852600  0.48607400  0.62007600  1
  F  F25  1  0.20147400  0.51392600  0.37992400  1
  F  F26  1  0.08088400  0.72257500  0.55225100  1
  F  F27  1  0.91911600  0.27742500  0.44774900  1
  F  F28  1  0.58088400  0.27742500  0.94774900  1
  F  F29  1  0.41911600  0.72257500  0.05225100  1
  F  F30  1  0.43077000  0.87646500  0.75743300  1
  F  F31  1  0.56923000  0.12353500  0.24256700  1
  F  F32  1  0.93077000  0.12353500  0.74256700  1
  F  F33  1  0.06923000  0.87646500  0.25743300  1
  F  F34  1  0.23911800  0.93195500  0.89758400  1
  F  F35  1  0.76088200  0.06804500  0.10241600  1
  F  F36  1  0.73911800  0.06804500  0.60241600  1
  F  F37  1  0.26088200  0.93195500  0.39758400  1
