# generated using pymatgen
data_Mg(BO4)4
_symmetry_space_group_name_H-M   'P 1'
_cell_length_a   13.41962400
_cell_length_b   6.33384500
_cell_length_c   12.09972919
_cell_angle_alpha   79.70168152
_cell_angle_beta   90.00000000
_cell_angle_gamma   90.00000000
_symmetry_Int_Tables_number   1
_chemical_formula_structural   Mg(BO4)4
_chemical_formula_sum   'Mg4 B16 O64'
_cell_volume   1011.88253817
_cell_formula_units_Z   4
loop_
 _symmetry_equiv_pos_site_id
 _symmetry_equiv_pos_as_xyz
  1  'x, y, z'
loop_
 _atom_site_type_symbol
 _atom_site_label
 _atom_site_symmetry_multiplicity
 _atom_site_fract_x
 _atom_site_fract_y
 _atom_site_fract_z
 _atom_site_occupancy
  Mg  Mg0  1  0.28408000  0.82107200  0.56678100  1
  Mg  Mg1  1  0.71592000  0.17892800  0.43321900  1
  Mg  Mg2  1  0.78408000  0.17892800  0.93321900  1
  Mg  Mg3  1  0.21592000  0.82107200  0.06678100  1
  B  B4  1  0.35100300  0.35662100  0.82501200  1
  B  B5  1  0.64899700  0.64337900  0.17498800  1
  B  B6  1  0.85100300  0.64337900  0.67498800  1
  B  B7  1  0.14899700  0.35662100  0.32501200  1
  B  B8  1  0.16500400  0.43818100  0.80755700  1
  B  B9  1  0.83499600  0.56181900  0.19244300  1
  B  B10  1  0.66500400  0.56181900  0.69244300  1
  B  B11  1  0.33499600  0.43818100  0.30755700  1
  B  B12  1  0.97230000  0.38172900  0.81019200  1
  B  B13  1  0.02770000  0.61827100  0.18980800  1
  B  B14  1  0.47230000  0.61827100  0.68980800  1
  B  B15  1  0.52770000  0.38172900  0.31019200  1
  B  B16  1  0.95705600  0.78372900  0.81177400  1
  B  B17  1  0.04294400  0.21627100  0.18822600  1
  B  B18  1  0.45705600  0.21627100  0.68822600  1
  B  B19  1  0.54294400  0.78372900  0.31177400  1
  O  O20  1  0.06542900  0.66061400  0.56132100  1
  O  O21  1  0.93457100  0.33938600  0.43867900  1
  O  O22  1  0.56542900  0.33938600  0.93867900  1
  O  O23  1  0.43457100  0.66061400  0.06132100  1
  O  O24  1  0.21534500  0.12548600  0.97507700  1
  O  O25  1  0.78465500  0.87451400  0.02492300  1
  O  O26  1  0.71534500  0.87451400  0.52492300  1
  O  O27  1  0.28465500  0.12548600  0.47507700  1
  O  O28  1  0.11493000  0.81329600  0.58388600  1
  O  O29  1  0.88507000  0.18670400  0.41611400  1
  O  O30  1  0.61493000  0.18670400  0.91611400  1
  O  O31  1  0.38507000  0.81329600  0.08388600  1
  O  O32  1  0.16208700  0.62210400  0.85596800  1
  O  O33  1  0.83791300  0.37789600  0.14403200  1
  O  O34  1  0.66208700  0.37789600  0.64403200  1
  O  O35  1  0.33791300  0.62210400  0.35596800  1
  O  O36  1  0.49923200  0.79452500  0.86172500  1
  O  O37  1  0.50076800  0.20547500  0.13827500  1
  O  O38  1  0.99923200  0.20547500  0.63827500  1
  O  O39  1  0.00076800  0.79452500  0.36172500  1
  O  O40  1  0.24508200  0.56188100  0.49030400  1
  O  O41  1  0.75491800  0.43811900  0.50969600  1
  O  O42  1  0.74508200  0.43811900  0.00969600  1
  O  O43  1  0.25491800  0.56188100  0.99030400  1
  O  O44  1  0.07461200  0.35625200  0.78054200  1
  O  O45  1  0.92538800  0.64374800  0.21945800  1
  O  O46  1  0.57461200  0.64374800  0.71945800  1
  O  O47  1  0.42538800  0.35625200  0.28054200  1
  O  O48  1  0.84931100  0.69085600  0.55102600  1
  O  O49  1  0.15068900  0.30914400  0.44897400  1
  O  O50  1  0.34931100  0.30914400  0.94897400  1
  O  O51  1  0.65068900  0.69085600  0.05102600  1
  O  O52  1  0.28028700  0.82363600  0.73994300  1
  O  O53  1  0.71971300  0.17636400  0.26005700  1
  O  O54  1  0.78028700  0.17636400  0.76005700  1
  O  O55  1  0.21971300  0.82363600  0.23994300  1
  O  O56  1  0.45482700  0.42993400  0.63213800  1
  O  O57  1  0.54517300  0.57006600  0.36786200  1
  O  O58  1  0.95482700  0.57006600  0.86786200  1
  O  O59  1  0.04517300  0.42993400  0.13213800  1
  O  O60  1  0.91144500  0.81762900  0.71077100  1
  O  O61  1  0.08855500  0.18237100  0.28922900  1
  O  O62  1  0.41144500  0.18237100  0.78922900  1
  O  O63  1  0.58855500  0.81762900  0.21077100  1
  O  O64  1  0.25303800  0.35965700  0.77357300  1
  O  O65  1  0.74696200  0.64034300  0.22642700  1
  O  O66  1  0.75303800  0.64034300  0.72642700  1
  O  O67  1  0.24696200  0.35965700  0.27357300  1
  O  O68  1  0.40452300  0.57400300  0.78725000  1
  O  O69  1  0.59547700  0.42599700  0.21275000  1
  O  O70  1  0.90452300  0.42599700  0.71275000  1
  O  O71  1  0.09547700  0.57400300  0.28725000  1
  O  O72  1  0.50000000  0.50000000  0.50000000  1
  O  O73  1  0.00000000  0.50000000  0.00000000  1
  O  O74  1  0.50000000  0.00000000  0.50000000  1
  O  O75  1  0.00000000  0.00000000  0.00000000  1
  O  O76  1  0.01363500  0.93252400  0.85660500  1
  O  O77  1  0.98636500  0.06747600  0.14339500  1
  O  O78  1  0.51363500  0.06747600  0.64339500  1
  O  O79  1  0.48636500  0.93252400  0.35660500  1
  O  O80  1  0.43014700  0.80195300  0.60760700  1
  O  O81  1  0.56985300  0.19804700  0.39239300  1
  O  O82  1  0.93014700  0.19804700  0.89239300  1
  O  O83  1  0.06985300  0.80195300  0.10760700  1
