# generated using pymatgen
data_K3UH5C5O12
_symmetry_space_group_name_H-M   'P 1'
_cell_length_a   9.93862100
_cell_length_b   10.39358583
_cell_length_c   10.77975886
_cell_angle_alpha   111.45324792
_cell_angle_beta   86.35892596
_cell_angle_gamma   118.37970970
_symmetry_Int_Tables_number   1
_chemical_formula_structural   K3UH5C5O12
_chemical_formula_sum   'K6 U2 H10 C10 O24'
_cell_volume   903.50704024
_cell_formula_units_Z   2
loop_
 _symmetry_equiv_pos_site_id
 _symmetry_equiv_pos_as_xyz
  1  'x, y, z'
loop_
 _atom_site_type_symbol
 _atom_site_label
 _atom_site_symmetry_multiplicity
 _atom_site_fract_x
 _atom_site_fract_y
 _atom_site_fract_z
 _atom_site_occupancy
  K  K0  1  0.76997000  0.81073500  0.92664200  1
  K  K1  1  0.23003000  0.18926500  0.07335800  1
  K  K2  1  0.46895600  0.94253800  0.15564700  1
  K  K3  1  0.53104400  0.05746200  0.84435300  1
  K  K4  1  0.85636800  0.65226400  0.45693200  1
  K  K5  1  0.14363200  0.34773600  0.54306800  1
  U  U6  1  0.82770400  0.46192600  0.75772000  1
  U  U7  1  0.17229600  0.53807400  0.24228000  1
  H  H8  1  0.40290900  0.35067800  0.63501900  1
  H  H9  1  0.59709100  0.64932200  0.36498100  1
  H  H10  1  0.09665900  0.07498600  0.77196900  1
  H  H11  1  0.90334100  0.92501400  0.22803100  1
  H  H12  1  0.43723100  0.29782600  0.31738400  1
  H  H13  1  0.56276900  0.70217400  0.68261600  1
  H  H14  1  0.90355300  0.84724600  0.20214900  1
  H  H15  1  0.09644700  0.15275400  0.79785100  1
  H  H16  1  0.82046800  0.97714200  0.58632800  1
  H  H17  1  0.17953200  0.02285800  0.41367200  1
  C  C18  1  0.42312400  0.82076800  0.50353700  1
  C  C19  1  0.57687600  0.17923200  0.49646300  1
  C  C20  1  0.53300900  0.44480400  0.95576600  1
  C  C21  1  0.46699100  0.55519600  0.04423400  1
  C  C22  1  0.26817600  0.81798000  0.54635300  1
  C  C23  1  0.73182400  0.18202000  0.45364700  1
  C  C24  1  0.14280000  0.78865700  0.94116000  1
  C  C25  1  0.85720000  0.21134300  0.05884000  1
  C  C26  1  0.20646900  0.68610800  0.83947500  1
  C  C27  1  0.79353100  0.31389200  0.16052500  1
  O  O28  1  0.34710500  0.73566100  0.84160500  1
  O  O29  1  0.65289500  0.26433900  0.15839500  1
  O  O30  1  0.65167700  0.51307800  0.90059800  1
  O  O31  1  0.34832300  0.48692200  0.09940200  1
  O  O32  1  0.46946000  0.30447900  0.94368000  1
  O  O33  1  0.53054000  0.69552100  0.05632000  1
  O  O34  1  0.54378700  0.90427400  0.58382400  1
  O  O35  1  0.45621300  0.09572600  0.41617600  1
  O  O36  1  0.59358200  0.27454100  0.61962800  1
  O  O37  1  0.40641800  0.72545900  0.38037200  1
  O  O38  1  0.09810400  0.55186200  0.75608800  1
  O  O39  1  0.90189600  0.44813800  0.24391200  1
  O  O40  1  0.82119100  0.33301400  0.83812100  1
  O  O41  1  0.17880900  0.66698600  0.16187900  1
  O  O42  1  0.83006900  0.59635000  0.68160800  1
  O  O43  1  0.16993100  0.40365000  0.31839200  1
  O  O44  1  0.23484400  0.92690600  0.01717000  1
  O  O45  1  0.76515600  0.07309400  0.98283000  1
  O  O46  1  0.26408600  0.90683100  0.65816200  1
  O  O47  1  0.73591400  0.09316900  0.34183800  1
  O  O48  1  0.15089100  0.71154900  0.45276700  1
  O  O49  1  0.84910900  0.28845100  0.54723300  1
  O  O50  1  0.99472500  0.71973600  0.93421200  1
  O  O51  1  0.00527500  0.28026400  0.06578800  1
