# generated using pymatgen
data_K4Re2H3(C4O9)2
_symmetry_space_group_name_H-M   'P 1'
_cell_length_a   9.00661300
_cell_length_b   10.09664662
_cell_length_c   13.07651240
_cell_angle_alpha   86.83648138
_cell_angle_beta   88.34428613
_cell_angle_gamma   69.77195855
_symmetry_Int_Tables_number   1
_chemical_formula_structural   K4Re2H3(C4O9)2
_chemical_formula_sum   'K8 Re4 H6 C16 O36'
_cell_volume   1114.03087755
_cell_formula_units_Z   2
loop_
 _symmetry_equiv_pos_site_id
 _symmetry_equiv_pos_as_xyz
  1  'x, y, z'
loop_
 _atom_site_type_symbol
 _atom_site_label
 _atom_site_symmetry_multiplicity
 _atom_site_fract_x
 _atom_site_fract_y
 _atom_site_fract_z
 _atom_site_occupancy
  K  K0  1  0.67787900  0.01747500  0.64134700  1
  K  K1  1  0.32212100  0.98252500  0.35865300  1
  K  K2  1  0.07360200  0.61432300  0.63552800  1
  K  K3  1  0.92639800  0.38567700  0.36447200  1
  K  K4  1  0.38129500  0.72753300  0.05672100  1
  K  K5  1  0.61870500  0.27246700  0.94327900  1
  K  K6  1  0.08961600  0.35074200  0.90662200  1
  K  K7  1  0.91038400  0.64925800  0.09337800  1
  Re  Re8  1  0.51639000  0.24443600  0.28887000  1
  Re  Re9  1  0.48361000  0.75556400  0.71113000  1
  Re  Re10  1  0.77020200  0.07422600  0.26132600  1
  Re  Re11  1  0.22979800  0.92577400  0.73867400  1
  H  H12  1  0.38402700  0.11872900  0.94336900  1
  H  H13  1  0.61597300  0.88127100  0.05663100  1
  H  H14  1  0.26381700  0.73203400  0.26320900  1
  H  H15  1  0.73618300  0.26796600  0.73679100  1
  H  H16  1  0.65567200  0.57321400  0.21661500  1
  H  H17  1  0.34432800  0.42678600  0.78338500  1
  C  C18  1  0.43288600  0.29767800  0.50205500  1
  C  C19  1  0.56711400  0.70232200  0.49794500  1
  C  C20  1  0.37264600  0.44595000  0.44535500  1
  C  C21  1  0.62735400  0.55405000  0.55464500  1
  C  C22  1  0.14396000  0.14328600  0.57484200  1
  C  C23  1  0.85604000  0.85671400  0.42515800  1
  C  C24  1  0.21096500  0.34233700  0.18258500  1
  C  C25  1  0.78903500  0.65766300  0.81741500  1
  C  C26  1  0.32762300  0.38823800  0.11310300  1
  C  C27  1  0.67237700  0.61176200  0.88689700  1
  C  C28  1  0.93004400  0.12941100  0.07540900  1
  C  C29  1  0.06995600  0.87058900  0.92459100  1
  C  C30  1  0.06492500  0.06933800  0.15427900  1
  C  C31  1  0.93507500  0.93066200  0.84572100  1
  C  C32  1  0.10219600  0.22696400  0.67393300  1
  C  C33  1  0.89780400  0.77303600  0.32606700  1
  O  O34  1  0.42526500  0.27918400  0.59568400  1
  O  O35  1  0.57473500  0.72081600  0.40431600  1
  O  O36  1  0.27446600  0.26625200  0.26353700  1
  O  O37  1  0.72553400  0.73374800  0.73646300  1
  O  O38  1  0.12946700  0.20107400  0.48811100  1
  O  O39  1  0.87053300  0.79892600  0.51188900  1
  O  O40  1  0.56626300  0.04901100  0.24860800  1
  O  O41  1  0.43373700  0.95098900  0.75139200  1
  O  O42  1  0.41027100  0.44325800  0.34784000  1
  O  O43  1  0.58972900  0.55674200  0.65216000  1
  O  O44  1  0.01259400  0.05943700  0.24773000  1
  O  O45  1  0.98740600  0.94056300  0.75227000  1
  O  O46  1  0.47419400  0.34109100  0.14403400  1
  O  O47  1  0.52580600  0.65890900  0.85596600  1
  O  O48  1  0.19552800  0.00561900  0.59120700  1
  O  O49  1  0.80447200  0.99438100  0.40879300  1
  O  O50  1  0.20641800  0.03332500  0.12893900  1
  O  O51  1  0.79358200  0.96667500  0.87106100  1
  O  O52  1  0.72107800  0.26875600  0.30036200  1
  O  O53  1  0.27892200  0.73124400  0.69963800  1
  O  O54  1  0.13101100  0.14624600  0.75797300  1
  O  O55  1  0.86898900  0.85375400  0.24202700  1
  O  O56  1  0.79291200  0.12457700  0.10830600  1
  O  O57  1  0.20708800  0.87542300  0.89169400  1
  O  O58  1  0.05094600  0.82281100  0.01153200  1
  O  O59  1  0.94905400  0.17718900  0.98846800  1
  O  O60  1  0.06949000  0.37693400  0.15795400  1
  O  O61  1  0.93051000  0.62306600  0.84204600  1
  O  O62  1  0.49252800  0.19272700  0.43959500  1
  O  O63  1  0.50747200  0.80727300  0.56040500  1
  O  O64  1  0.04633800  0.35742800  0.67223600  1
  O  O65  1  0.95366200  0.64257200  0.32776400  1
  O  O66  1  0.29690300  0.55264700  0.49064300  1
  O  O67  1  0.70309700  0.44735300  0.50935700  1
  O  O68  1  0.28441600  0.46159200  0.03181800  1
  O  O69  1  0.71558400  0.53840800  0.96818200  1
