# generated using pymatgen
data_Ho4Ni
_symmetry_space_group_name_H-M   'P 1'
_cell_length_a   7.45864294
_cell_length_b   7.45864294
_cell_length_c   7.45864294
_cell_angle_alpha   60.00000000
_cell_angle_beta   60.00000000
_cell_angle_gamma   60.00000000
_symmetry_Int_Tables_number   1
_chemical_formula_structural   Ho4Ni
_chemical_formula_sum   'Ho8 Ni2'
_cell_volume   293.40293451
_cell_formula_units_Z   2
loop_
 _symmetry_equiv_pos_site_id
 _symmetry_equiv_pos_as_xyz
  1  'x, y, z'
loop_
 _atom_site_type_symbol
 _atom_site_label
 _atom_site_symmetry_multiplicity
 _atom_site_fract_x
 _atom_site_fract_y
 _atom_site_fract_z
 _atom_site_occupancy
  Ho  Ho0  1  0.38757000  0.38757000  0.38757000  1
  Ho  Ho1  1  0.38757000  0.38757000  0.83729000  1
  Ho  Ho2  1  0.38757000  0.83729000  0.38757000  1
  Ho  Ho3  1  0.86243000  0.86243000  0.41271000  1
  Ho  Ho4  1  0.86243000  0.86243000  0.86243000  1
  Ho  Ho5  1  0.83729000  0.38757000  0.38757000  1
  Ho  Ho6  1  0.86243000  0.41271000  0.86243000  1
  Ho  Ho7  1  0.41271000  0.86243000  0.86243000  1
  Ni  Ni8  1  0.00000000  0.00000000  0.00000000  1
  Ni  Ni9  1  0.25000000  0.25000000  0.25000000  1
