# generated using pymatgen
data_Ho6Al43Mo4
_symmetry_space_group_name_H-M   'P 1'
_cell_length_a   11.04934708
_cell_length_b   11.04934708
_cell_length_c   17.60188200
_cell_angle_alpha   90.00000000
_cell_angle_beta   90.00000000
_cell_angle_gamma   119.99999449
_symmetry_Int_Tables_number   1
_chemical_formula_structural   Ho6Al43Mo4
_chemical_formula_sum   'Ho12 Al86 Mo8'
_cell_volume   1861.07121729
_cell_formula_units_Z   2
loop_
 _symmetry_equiv_pos_site_id
 _symmetry_equiv_pos_as_xyz
  1  'x, y, z'
loop_
 _atom_site_type_symbol
 _atom_site_label
 _atom_site_symmetry_multiplicity
 _atom_site_fract_x
 _atom_site_fract_y
 _atom_site_fract_z
 _atom_site_occupancy
  Ho  Ho0  1  0.53088400  0.00000000  0.59532000  1
  Ho  Ho1  1  0.46911600  0.00000000  0.40468000  1
  Ho  Ho2  1  0.00000000  0.53088400  0.59532000  1
  Ho  Ho3  1  0.46911600  0.00000000  0.09532000  1
  Ho  Ho4  1  0.00000000  0.53088400  0.90468000  1
  Ho  Ho5  1  0.00000000  0.46911600  0.40468000  1
  Ho  Ho6  1  0.53088400  0.00000000  0.90468000  1
  Ho  Ho7  1  0.00000000  0.46911600  0.09532000  1
  Ho  Ho8  1  0.46911600  0.46911600  0.59532000  1
  Ho  Ho9  1  0.53088400  0.53088400  0.40468000  1
  Ho  Ho10  1  0.53088400  0.53088400  0.09532000  1
  Ho  Ho11  1  0.46911600  0.46911600  0.90468000  1
  Al  Al12  1  0.14718900  0.59586200  0.75000000  1
  Al  Al13  1  0.85281100  0.40413800  0.25000000  1
  Al  Al14  1  0.40413800  0.55132700  0.75000000  1
  Al  Al15  1  0.59586200  0.14718900  0.75000000  1
  Al  Al16  1  0.59586200  0.44867300  0.25000000  1
  Al  Al17  1  0.40413800  0.85281100  0.25000000  1
  Al  Al18  1  0.44867300  0.85281100  0.75000000  1
  Al  Al19  1  0.55132700  0.40413800  0.75000000  1
  Al  Al20  1  0.55132700  0.14718900  0.25000000  1
  Al  Al21  1  0.44867300  0.59586200  0.25000000  1
  Al  Al22  1  0.85281100  0.44867300  0.75000000  1
  Al  Al23  1  0.14718900  0.55132700  0.25000000  1
  Al  Al24  1  0.15898800  0.00000000  0.11473700  1
  Al  Al25  1  0.84101200  0.00000000  0.88526300  1
  Al  Al26  1  0.00000000  0.15898800  0.11473700  1
  Al  Al27  1  0.84101200  0.00000000  0.61473700  1
  Al  Al28  1  0.00000000  0.15898800  0.38526300  1
  Al  Al29  1  0.00000000  0.84101200  0.88526300  1
  Al  Al30  1  0.15898800  0.00000000  0.38526300  1
  Al  Al31  1  0.00000000  0.84101200  0.61473700  1
  Al  Al32  1  0.84101200  0.84101200  0.11473700  1
  Al  Al33  1  0.15898800  0.15898800  0.88526300  1
  Al  Al34  1  0.15898800  0.15898800  0.61473700  1
  Al  Al35  1  0.84101200  0.84101200  0.38526300  1
  Al  Al36  1  0.24712000  0.49423900  0.50000000  1
  Al  Al37  1  0.75288000  0.50576100  0.50000000  1
  Al  Al38  1  0.50576100  0.75288000  0.50000000  1
  Al  Al39  1  0.75288000  0.50576100  0.00000000  1
  Al  Al40  1  0.49423900  0.24712000  0.00000000  1
  Al  Al41  1  0.49423900  0.24712000  0.50000000  1
  Al  Al42  1  0.24712000  0.49423900  0.00000000  1
  Al  Al43  1  0.50576100  0.75288000  0.00000000  1
  Al  Al44  1  0.24712000  0.75288000  0.50000000  1
  Al  Al45  1  0.75288000  0.24712000  0.50000000  1
  Al  Al46  1  0.75288000  0.24712000  0.00000000  1
  Al  Al47  1  0.24712000  0.75288000  0.00000000  1
  Al  Al48  1  0.14711000  0.00000000  0.75000000  1
  Al  Al49  1  0.85289000  0.00000000  0.25000000  1
  Al  Al50  1  0.00000000  0.14711000  0.75000000  1
  Al  Al51  1  0.00000000  0.85289000  0.25000000  1
  Al  Al52  1  0.85289000  0.85289000  0.75000000  1
  Al  Al53  1  0.14711000  0.14711000  0.25000000  1
  Al  Al54  1  0.33333300  0.66666700  0.62626200  1
  Al  Al55  1  0.66666700  0.33333300  0.37373800  1
  Al  Al56  1  0.66666700  0.33333300  0.12626200  1
  Al  Al57  1  0.66666700  0.33333300  0.87373800  1
  Al  Al58  1  0.33333300  0.66666700  0.87373800  1
  Al  Al59  1  0.33333300  0.66666700  0.12626200  1
  Al  Al60  1  0.33333300  0.66666700  0.37373800  1
  Al  Al61  1  0.66666700  0.33333300  0.62626200  1
  Al  Al62  1  0.25423100  0.00000000  0.53050400  1
  Al  Al63  1  0.74576900  0.00000000  0.46949600  1
  Al  Al64  1  0.00000000  0.25423100  0.53050400  1
  Al  Al65  1  0.74576900  0.00000000  0.03050400  1
  Al  Al66  1  0.00000000  0.25423100  0.96949600  1
  Al  Al67  1  0.00000000  0.74576900  0.46949600  1
  Al  Al68  1  0.25423100  0.00000000  0.96949600  1
  Al  Al69  1  0.00000000  0.74576900  0.03050400  1
  Al  Al70  1  0.74576900  0.74576900  0.53050400  1
  Al  Al71  1  0.25423100  0.25423100  0.46949600  1
  Al  Al72  1  0.25423100  0.25423100  0.03050400  1
  Al  Al73  1  0.74576900  0.74576900  0.96949600  1
  Al  Al74  1  0.15825800  0.39458700  0.66361500  1
  Al  Al75  1  0.84174200  0.60541300  0.33638500  1
  Al  Al76  1  0.60541300  0.76367000  0.66361500  1
  Al  Al77  1  0.84174200  0.60541300  0.16361500  1
  Al  Al78  1  0.39458700  0.15825800  0.83638500  1
  Al  Al79  1  0.39458700  0.23633000  0.33638500  1
  Al  Al80  1  0.15825800  0.39458700  0.83638500  1
  Al  Al81  1  0.60541300  0.84174200  0.16361500  1
  Al  Al82  1  0.23633000  0.84174200  0.66361500  1
  Al  Al83  1  0.39458700  0.23633000  0.16361500  1
  Al  Al84  1  0.76367000  0.60541300  0.83638500  1
  Al  Al85  1  0.76367000  0.15825800  0.33638500  1
  Al  Al86  1  0.60541300  0.76367000  0.83638500  1
  Al  Al87  1  0.23633000  0.39458700  0.16361500  1
  Al  Al88  1  0.60541300  0.84174200  0.33638500  1
  Al  Al89  1  0.39458700  0.15825800  0.66361500  1
  Al  Al90  1  0.76367000  0.15825800  0.16361500  1
  Al  Al91  1  0.23633000  0.39458700  0.33638500  1
  Al  Al92  1  0.23633000  0.84174200  0.83638500  1
  Al  Al93  1  0.76367000  0.60541300  0.66361500  1
  Al  Al94  1  0.84174200  0.23633000  0.83638500  1
  Al  Al95  1  0.15825800  0.76367000  0.16361500  1
  Al  Al96  1  0.15825800  0.76367000  0.33638500  1
  Al  Al97  1  0.84174200  0.23633000  0.66361500  1
  Mo  Mo98  1  0.00000000  0.00000000  0.50000000  1
  Mo  Mo99  1  0.00000000  0.00000000  0.00000000  1
  Mo  Mo100  1  0.72916900  0.00000000  0.75000000  1
  Mo  Mo101  1  0.27083100  0.00000000  0.25000000  1
  Mo  Mo102  1  0.00000000  0.72916900  0.75000000  1
  Mo  Mo103  1  0.00000000  0.27083100  0.25000000  1
  Mo  Mo104  1  0.27083100  0.27083100  0.75000000  1
  Mo  Mo105  1  0.72916900  0.72916900  0.25000000  1
