# generated using pymatgen
data_K2C7N4O
_symmetry_space_group_name_H-M   'P 1'
_cell_length_a   7.81958841
_cell_length_b   8.44550599
_cell_length_c   16.33250100
_cell_angle_alpha   90.00000000
_cell_angle_beta   90.00000000
_cell_angle_gamma   112.04814013
_symmetry_Int_Tables_number   1
_chemical_formula_structural   K2C7N4O
_chemical_formula_sum   'K8 C28 N16 O4'
_cell_volume   999.72491726
_cell_formula_units_Z   4
loop_
 _symmetry_equiv_pos_site_id
 _symmetry_equiv_pos_as_xyz
  1  'x, y, z'
loop_
 _atom_site_type_symbol
 _atom_site_label
 _atom_site_symmetry_multiplicity
 _atom_site_fract_x
 _atom_site_fract_y
 _atom_site_fract_z
 _atom_site_occupancy
  K  K0  1  0.35232500  0.11063300  0.68226900  1
  K  K1  1  0.64767500  0.88936700  0.31773100  1
  K  K2  1  0.14767500  0.88936700  0.18226900  1
  K  K3  1  0.85232500  0.11063300  0.81773100  1
  K  K4  1  0.31125300  0.09522800  0.93223900  1
  K  K5  1  0.68874700  0.90477200  0.06776100  1
  K  K6  1  0.18874700  0.90477200  0.43223900  1
  K  K7  1  0.81125300  0.09522800  0.56776100  1
  C  C8  1  0.02999400  0.26273100  0.20019100  1
  C  C9  1  0.97000600  0.73726900  0.79980900  1
  C  C10  1  0.47000600  0.73726900  0.70019100  1
  C  C11  1  0.52999400  0.26273100  0.29980900  1
  C  C12  1  0.02510000  0.23765700  0.34826700  1
  C  C13  1  0.97490000  0.76234300  0.65173300  1
  C  C14  1  0.47490000  0.76234300  0.84826700  1
  C  C15  1  0.52510000  0.23765700  0.15173300  1
  C  C16  1  0.17588600  0.51864900  0.29445000  1
  C  C17  1  0.82411400  0.48135100  0.70555000  1
  C  C18  1  0.32411400  0.48135100  0.79445000  1
  C  C19  1  0.67588600  0.51864900  0.20555000  1
  C  C20  1  0.09453600  0.35804800  0.12516700  1
  C  C21  1  0.90546400  0.64195200  0.87483300  1
  C  C22  1  0.40546400  0.64195200  0.62516700  1
  C  C23  1  0.59453600  0.35804800  0.37483300  1
  C  C24  1  0.08133100  0.34424400  0.27977700  1
  C  C25  1  0.91866900  0.65575600  0.72022300  1
  C  C26  1  0.41866900  0.65575600  0.77977700  1
  C  C27  1  0.58133100  0.34424400  0.22022300  1
  C  C28  1  0.03588500  0.27104800  0.05094600  1
  C  C29  1  0.96411500  0.72895200  0.94905400  1
  C  C30  1  0.46411500  0.72895200  0.55094600  1
  C  C31  1  0.53588500  0.27104800  0.44905400  1
  C  C32  1  0.22421200  0.52553100  0.11934500  1
  C  C33  1  0.77578800  0.47446900  0.88065500  1
  C  C34  1  0.27578800  0.47446900  0.61934500  1
  C  C35  1  0.72421200  0.52553100  0.38065500  1
  N  N36  1  0.16559500  0.33469800  0.61221400  1
  N  N37  1  0.83440500  0.66530200  0.38778600  1
  N  N38  1  0.33440500  0.66530200  0.11221400  1
  N  N39  1  0.66559500  0.33469800  0.88778600  1
  N  N40  1  0.25289900  0.66518100  0.30859300  1
  N  N41  1  0.74710100  0.33481900  0.69140700  1
  N  N42  1  0.24710100  0.33481900  0.80859300  1
  N  N43  1  0.75289900  0.66518100  0.19140700  1
  N  N44  1  0.48955100  0.19709900  0.51132500  1
  N  N45  1  0.51044900  0.80290100  0.48867500  1
  N  N46  1  0.01044900  0.80290100  0.01132500  1
  N  N47  1  0.98955100  0.19709900  0.98867500  1
  N  N48  1  0.47597200  0.14466000  0.09529100  1
  N  N49  1  0.52402800  0.85534000  0.90470900  1
  N  N50  1  0.02402800  0.85534000  0.59529100  1
  N  N51  1  0.97597200  0.14466000  0.40470900  1
  O  O52  1  0.42815500  0.10380500  0.30325300  1
  O  O53  1  0.57184500  0.89619500  0.69674700  1
  O  O54  1  0.07184500  0.89619500  0.80325300  1
  O  O55  1  0.92815500  0.10380500  0.19674700  1
