# generated using pymatgen
data_Ho4MgGe4
_symmetry_space_group_name_H-M   'P 1'
_cell_length_a   7.21219700
_cell_length_b   7.76002800
_cell_length_c   14.54427700
_cell_angle_alpha   90.00000000
_cell_angle_beta   90.00000000
_cell_angle_gamma   90.00000000
_symmetry_Int_Tables_number   1
_chemical_formula_structural   Ho4MgGe4
_chemical_formula_sum   'Ho16 Mg4 Ge16'
_cell_volume   813.99737884
_cell_formula_units_Z   4
loop_
 _symmetry_equiv_pos_site_id
 _symmetry_equiv_pos_as_xyz
  1  'x, y, z'
loop_
 _atom_site_type_symbol
 _atom_site_label
 _atom_site_symmetry_multiplicity
 _atom_site_fract_x
 _atom_site_fract_y
 _atom_site_fract_z
 _atom_site_occupancy
  Ho  Ho0  1  0.00998800  0.18271400  0.09475500  1
  Ho  Ho1  1  0.99001200  0.81728600  0.90524500  1
  Ho  Ho2  1  0.49001200  0.68271400  0.90524500  1
  Ho  Ho3  1  0.99001200  0.81728600  0.59475500  1
  Ho  Ho4  1  0.50998800  0.31728600  0.09475500  1
  Ho  Ho5  1  0.00998800  0.18271400  0.40524500  1
  Ho  Ho6  1  0.50998800  0.31728600  0.40524500  1
  Ho  Ho7  1  0.49001200  0.68271400  0.59475500  1
  Ho  Ho8  1  0.33092000  0.17759400  0.62691000  1
  Ho  Ho9  1  0.66908000  0.82240600  0.37309000  1
  Ho  Ho10  1  0.16908000  0.67759400  0.37309000  1
  Ho  Ho11  1  0.66908000  0.82240600  0.12691000  1
  Ho  Ho12  1  0.83092000  0.32240600  0.62691000  1
  Ho  Ho13  1  0.33092000  0.17759400  0.87309000  1
  Ho  Ho14  1  0.83092000  0.32240600  0.87309000  1
  Ho  Ho15  1  0.16908000  0.67759400  0.12691000  1
  Mg  Mg16  1  0.16048100  0.51744400  0.75000000  1
  Mg  Mg17  1  0.83951900  0.48255600  0.25000000  1
  Mg  Mg18  1  0.33951900  0.01744400  0.25000000  1
  Mg  Mg19  1  0.66048100  0.98255600  0.75000000  1
  Ge  Ge20  1  0.02425200  0.08968100  0.75000000  1
  Ge  Ge21  1  0.97574800  0.91031900  0.25000000  1
  Ge  Ge22  1  0.47574800  0.58968100  0.25000000  1
  Ge  Ge23  1  0.52425200  0.41031900  0.75000000  1
  Ge  Ge24  1  0.28847200  0.86155400  0.75000000  1
  Ge  Ge25  1  0.71152800  0.13844600  0.25000000  1
  Ge  Ge26  1  0.21152800  0.36155400  0.25000000  1
  Ge  Ge27  1  0.78847200  0.63844600  0.75000000  1
  Ge  Ge28  1  0.17124000  0.46600100  0.53596600  1
  Ge  Ge29  1  0.82876000  0.53399900  0.46403400  1
  Ge  Ge30  1  0.32876000  0.96600100  0.46403400  1
  Ge  Ge31  1  0.82876000  0.53399900  0.03596600  1
  Ge  Ge32  1  0.67124000  0.03399900  0.53596600  1
  Ge  Ge33  1  0.17124000  0.46600100  0.96403400  1
  Ge  Ge34  1  0.67124000  0.03399900  0.96403400  1
  Ge  Ge35  1  0.32876000  0.96600100  0.03596600  1
