# generated using pymatgen
data_NaGaGeO4
_symmetry_space_group_name_H-M   'P 1'
_cell_length_a   8.46701600
_cell_length_b   8.97357600
_cell_length_c   18.20131948
_cell_angle_alpha   60.65550948
_cell_angle_beta   90.00000000
_cell_angle_gamma   90.00000000
_symmetry_Int_Tables_number   1
_chemical_formula_structural   NaGaGeO4
_chemical_formula_sum   'Na12 Ga12 Ge12 O48'
_cell_volume   1205.48098622
_cell_formula_units_Z   12
loop_
 _symmetry_equiv_pos_site_id
 _symmetry_equiv_pos_as_xyz
  1  'x, y, z'
loop_
 _atom_site_type_symbol
 _atom_site_label
 _atom_site_symmetry_multiplicity
 _atom_site_fract_x
 _atom_site_fract_y
 _atom_site_fract_z
 _atom_site_occupancy
  Na  Na0  1  0.02228400  0.78956300  0.93261800  1
  Na  Na1  1  0.97771600  0.21043700  0.06738200  1
  Na  Na2  1  0.52228500  0.21043700  0.56738200  1
  Na  Na3  1  0.47771600  0.78956300  0.43261800  1
  Na  Na4  1  0.97221700  0.49642000  0.75288700  1
  Na  Na5  1  0.02778300  0.50358000  0.24711300  1
  Na  Na6  1  0.47221700  0.50358000  0.74711300  1
  Na  Na7  1  0.52778300  0.49642000  0.25288700  1
  Na  Na8  1  0.45047500  0.85121000  0.90807900  1
  Na  Na9  1  0.54952500  0.14879000  0.09192100  1
  Na  Na10  1  0.95047500  0.14879000  0.59192100  1
  Na  Na11  1  0.04952500  0.85121000  0.40807900  1
  Ga  Ga12  1  0.28071100  0.46814700  0.92073600  1
  Ga  Ga13  1  0.71928900  0.53185300  0.07926400  1
  Ga  Ga14  1  0.78071100  0.53185300  0.57926400  1
  Ga  Ga15  1  0.21928900  0.46814700  0.42073600  1
  Ga  Ga16  1  0.27676800  0.84580800  0.59145000  1
  Ga  Ga17  1  0.72323200  0.15419200  0.40855000  1
  Ga  Ga18  1  0.77676800  0.15419200  0.90855000  1
  Ga  Ga19  1  0.22323200  0.84580800  0.09145000  1
  Ga  Ga20  1  0.78114100  0.81586200  0.76598300  1
  Ga  Ga21  1  0.21885900  0.18413800  0.23401700  1
  Ga  Ga22  1  0.28114100  0.18413800  0.73401700  1
  Ga  Ga23  1  0.71885900  0.81586200  0.26598300  1
  Ge  Ge24  1  0.16824900  0.81349500  0.76248200  1
  Ge  Ge25  1  0.83175100  0.18650500  0.23751800  1
  Ge  Ge26  1  0.66824900  0.18650500  0.73751800  1
  Ge  Ge27  1  0.33175100  0.81349500  0.26248200  1
  Ge  Ge28  1  0.16806900  0.52190400  0.57782800  1
  Ge  Ge29  1  0.83193100  0.47809600  0.42217200  1
  Ge  Ge30  1  0.66806900  0.47809600  0.92217200  1
  Ge  Ge31  1  0.33193100  0.52190400  0.07782800  1
  Ge  Ge32  1  0.66214000  0.85131200  0.59206500  1
  Ge  Ge33  1  0.33786000  0.14868800  0.40793500  1
  Ge  Ge34  1  0.16214000  0.14868800  0.90793500  1
  Ge  Ge35  1  0.83786000  0.85131200  0.09206500  1
  O  O36  1  0.27466600  0.61853400  0.80494800  1
  O  O37  1  0.72533400  0.38146600  0.19505200  1
  O  O38  1  0.77466600  0.38146600  0.69505200  1
  O  O39  1  0.22533400  0.61853400  0.30494800  1
  O  O40  1  0.14250800  0.28667900  0.95127400  1
  O  O41  1  0.85749200  0.71332100  0.04872600  1
  O  O42  1  0.64250800  0.71332100  0.54872600  1
  O  O43  1  0.35749200  0.28667900  0.45127400  1
  O  O44  1  0.98143100  0.62370500  0.54949700  1
  O  O45  1  0.01856900  0.37629500  0.45050300  1
  O  O46  1  0.48143100  0.37629500  0.95050300  1
  O  O47  1  0.51856900  0.62370500  0.04949700  1
  O  O48  1  0.98136300  0.75538800  0.81261000  1
  O  O49  1  0.01863700  0.24461200  0.18739000  1
  O  O50  1  0.48136300  0.24461200  0.68739000  1
  O  O51  1  0.51863700  0.75538800  0.31261000  1
  O  O52  1  0.25785400  0.94959900  0.79513500  1
  O  O53  1  0.74214600  0.05040100  0.20486500  1
  O  O54  1  0.75785400  0.05040100  0.70486500  1
  O  O55  1  0.24214600  0.94959900  0.29513500  1
  O  O56  1  0.26655900  0.61007400  0.63377100  1
  O  O57  1  0.73344100  0.38992600  0.36622900  1
  O  O58  1  0.76655900  0.38992600  0.86622900  1
  O  O59  1  0.23344100  0.61007400  0.13377100  1
  O  O60  1  0.23212400  0.58050400  0.98111800  1
  O  O61  1  0.76787600  0.41949600  0.01888200  1
  O  O62  1  0.73212400  0.41949600  0.51888200  1
  O  O63  1  0.26787600  0.58050400  0.48111800  1
  O  O64  1  0.76231600  0.73676600  0.68916500  1
  O  O65  1  0.23768400  0.26323400  0.31083500  1
  O  O66  1  0.26231600  0.26323400  0.81083500  1
  O  O67  1  0.73768400  0.73676600  0.18916500  1
  O  O68  1  0.14233300  0.90914600  0.65220900  1
  O  O69  1  0.85766700  0.09085400  0.34779100  1
  O  O70  1  0.64233300  0.09085400  0.84779100  1
  O  O71  1  0.35766700  0.90914600  0.15220900  1
  O  O72  1  0.25869300  0.95264000  0.97601100  1
  O  O73  1  0.74130700  0.04736000  0.02398900  1
  O  O74  1  0.75869300  0.04736000  0.52398900  1
  O  O75  1  0.24130700  0.95264000  0.47601100  1
  O  O76  1  0.47359000  0.90869700  0.61216600  1
  O  O77  1  0.52641000  0.09130300  0.38783400  1
  O  O78  1  0.97359000  0.09130300  0.88783400  1
  O  O79  1  0.02641000  0.90869700  0.11216600  1
  O  O80  1  0.14797400  0.29777300  0.64197300  1
  O  O81  1  0.85202600  0.70222700  0.35802700  1
  O  O82  1  0.64797400  0.70222700  0.85802700  1
  O  O83  1  0.35202600  0.29777300  0.14197300  1
