# generated using pymatgen
data_MnPO7
_symmetry_space_group_name_H-M   'P 1'
_cell_length_a   9.50935500
_cell_length_b   10.05304300
_cell_length_c   11.38320900
_cell_angle_alpha   90.00000000
_cell_angle_beta   90.00000000
_cell_angle_gamma   90.00000000
_symmetry_Int_Tables_number   1
_chemical_formula_structural   MnPO7
_chemical_formula_sum   'Mn8 P8 O56'
_cell_volume   1088.21149852
_cell_formula_units_Z   8
loop_
 _symmetry_equiv_pos_site_id
 _symmetry_equiv_pos_as_xyz
  1  'x, y, z'
loop_
 _atom_site_type_symbol
 _atom_site_label
 _atom_site_symmetry_multiplicity
 _atom_site_fract_x
 _atom_site_fract_y
 _atom_site_fract_z
 _atom_site_occupancy
  Mn  Mn0  1  0.75858300  0.57205400  0.26113300  1
  Mn  Mn1  1  0.24141700  0.42794600  0.73886700  1
  Mn  Mn2  1  0.24141700  0.92794600  0.76113300  1
  Mn  Mn3  1  0.25858300  0.42794600  0.23886700  1
  Mn  Mn4  1  0.75858300  0.07205400  0.23886700  1
  Mn  Mn5  1  0.74141700  0.57205400  0.76113300  1
  Mn  Mn6  1  0.74141700  0.07205400  0.73886700  1
  Mn  Mn7  1  0.25858300  0.92794600  0.26113300  1
  P  P8  1  0.95305800  0.83009400  0.34319600  1
  P  P9  1  0.04694200  0.16990600  0.65680400  1
  P  P10  1  0.04694200  0.66990600  0.84319600  1
  P  P11  1  0.45305800  0.16990600  0.15680400  1
  P  P12  1  0.95305800  0.33009400  0.15680400  1
  P  P13  1  0.54694200  0.83009400  0.84319600  1
  P  P14  1  0.54694200  0.33009400  0.65680400  1
  P  P15  1  0.45305800  0.66990600  0.34319600  1
  O  O16  1  0.88180100  0.72998800  0.26261600  1
  O  O17  1  0.11819900  0.27001200  0.73738400  1
  O  O18  1  0.11819900  0.77001200  0.76261600  1
  O  O19  1  0.38180100  0.27001200  0.23738400  1
  O  O20  1  0.88180100  0.22998800  0.23738400  1
  O  O21  1  0.61819900  0.72998800  0.76261600  1
  O  O22  1  0.61819900  0.22998800  0.73738400  1
  O  O23  1  0.38180100  0.77001200  0.26261600  1
  O  O24  1  0.67015000  0.65216500  0.00958700  1
  O  O25  1  0.32985000  0.34783500  0.99041300  1
  O  O26  1  0.32985000  0.84783500  0.50958700  1
  O  O27  1  0.17015000  0.34783500  0.49041300  1
  O  O28  1  0.67015000  0.15216500  0.49041300  1
  O  O29  1  0.82985000  0.65216500  0.50958700  1
  O  O30  1  0.82985000  0.15216500  0.99041300  1
  O  O31  1  0.17015000  0.84783500  0.00958700  1
  O  O32  1  0.90774000  0.97529500  0.31918200  1
  O  O33  1  0.09226000  0.02470500  0.68081800  1
  O  O34  1  0.09226000  0.52470500  0.81918200  1
  O  O35  1  0.40774000  0.02470500  0.18081800  1
  O  O36  1  0.90774000  0.47529500  0.18081800  1
  O  O37  1  0.59226000  0.97529500  0.81918200  1
  O  O38  1  0.59226000  0.47529500  0.68081800  1
  O  O39  1  0.40774000  0.52470500  0.31918200  1
  O  O40  1  0.85220800  0.05601000  0.05682400  1
  O  O41  1  0.14779200  0.94399000  0.94317600  1
  O  O42  1  0.14779200  0.44399000  0.55682400  1
  O  O43  1  0.35220800  0.94399000  0.44317600  1
  O  O44  1  0.85220800  0.55601000  0.44317600  1
  O  O45  1  0.64779200  0.05601000  0.55682400  1
  O  O46  1  0.64779200  0.55601000  0.94317600  1
  O  O47  1  0.35220800  0.44399000  0.05682400  1
  O  O48  1  0.63791200  0.94591800  0.26929900  1
  O  O49  1  0.36208800  0.05408200  0.73070100  1
  O  O50  1  0.36208800  0.55408200  0.76929900  1
  O  O51  1  0.13791200  0.05408200  0.23070100  1
  O  O52  1  0.63791200  0.44591800  0.23070100  1
  O  O53  1  0.86208800  0.94591800  0.76929900  1
  O  O54  1  0.86208800  0.44591800  0.73070100  1
  O  O55  1  0.13791200  0.55408200  0.26929900  1
  O  O56  1  0.61500200  0.67754000  0.33473400  1
  O  O57  1  0.38499800  0.32246000  0.66526600  1
  O  O58  1  0.38499800  0.82246000  0.83473400  1
  O  O59  1  0.11500200  0.32246000  0.16526600  1
  O  O60  1  0.61500200  0.17754000  0.16526600  1
  O  O61  1  0.88499800  0.67754000  0.83473400  1
  O  O62  1  0.88499800  0.17754000  0.66526600  1
  O  O63  1  0.11500200  0.82246000  0.33473400  1
  O  O64  1  0.58351700  0.80169700  0.97877100  1
  O  O65  1  0.41648300  0.19830300  0.02122900  1
  O  O66  1  0.41648300  0.69830300  0.47877100  1
  O  O67  1  0.08351700  0.19830300  0.52122900  1
  O  O68  1  0.58351700  0.30169700  0.52122900  1
  O  O69  1  0.91648300  0.80169700  0.47877100  1
  O  O70  1  0.91648300  0.30169700  0.02122900  1
  O  O71  1  0.08351700  0.69830300  0.97877100  1
