# generated using pymatgen
data_H7C2SBrN4
_symmetry_space_group_name_H-M   'P 1'
_cell_length_a   5.49984641
_cell_length_b   7.47200765
_cell_length_c   10.53042695
_cell_angle_alpha   93.86128849
_cell_angle_beta   82.79518609
_cell_angle_gamma   101.18095405
_symmetry_Int_Tables_number   1
_chemical_formula_structural   H7C2SBrN4
_chemical_formula_sum   'H14 C4 S2 Br2 N8'
_cell_volume   420.76938310
_cell_formula_units_Z   2
loop_
 _symmetry_equiv_pos_site_id
 _symmetry_equiv_pos_as_xyz
  1  'x, y, z'
loop_
 _atom_site_type_symbol
 _atom_site_label
 _atom_site_symmetry_multiplicity
 _atom_site_fract_x
 _atom_site_fract_y
 _atom_site_fract_z
 _atom_site_occupancy
  H  H0  1  0.94678400  0.08033200  0.31129600  1
  H  H1  1  0.05321600  0.91966800  0.68870400  1
  H  H2  1  0.28729600  0.52031800  0.61071700  1
  H  H3  1  0.71270400  0.47968200  0.38928300  1
  H  H4  1  0.24834000  0.93476000  0.27692400  1
  H  H5  1  0.75166000  0.06524000  0.72307600  1
  H  H6  1  0.14898500  0.46635100  0.11917900  1
  H  H7  1  0.85101500  0.53364900  0.88082100  1
  H  H8  1  0.56487300  0.05581700  0.87164500  1
  H  H9  1  0.43512700  0.94418300  0.12835500  1
  H  H10  1  0.70125300  0.25452100  0.43246000  1
  H  H11  1  0.29874700  0.74547900  0.56754000  1
  H  H12  1  0.03923800  0.39485000  0.77897700  1
  H  H13  1  0.96076200  0.60515000  0.22102300  1
  C  C14  1  0.22307400  0.14199500  0.16148700  1
  C  C15  1  0.77692600  0.85800500  0.83851300  1
  C  C16  1  0.05777600  0.65545800  0.72801300  1
  C  C17  1  0.94222400  0.34454200  0.27198700  1
  S  S18  1  0.33253800  0.25145000  0.02560900  1
  S  S19  1  0.66746200  0.74855000  0.97439100  1
  Br  Br20  1  0.25590800  0.19771200  0.62247600  1
  Br  Br21  1  0.74409200  0.80228800  0.37752400  1
  N  N22  1  0.02674300  0.48612700  0.19897800  1
  N  N23  1  0.97325700  0.51387300  0.80102200  1
  N  N24  1  0.23634700  0.64542100  0.63105700  1
  N  N25  1  0.76365300  0.35457900  0.36894300  1
  N  N26  1  0.03385700  0.18643000  0.25192100  1
  N  N27  1  0.96614300  0.81357000  0.74807900  1
  N  N28  1  0.68986400  0.00243200  0.80743800  1
  N  N29  1  0.31013600  0.99756800  0.19256200  1
