# generated using pymatgen
data_Rb2Ni3Se2
_symmetry_space_group_name_H-M   'P 1'
_cell_length_a   10.86511400
_cell_length_b   7.81875143
_cell_length_c   16.84711138
_cell_angle_alpha   77.05295524
_cell_angle_beta   71.18810472
_cell_angle_gamma   45.98781623
_symmetry_Int_Tables_number   1
_chemical_formula_structural   Rb2Ni3Se2
_chemical_formula_sum   'Rb8 Ni12 Se8'
_cell_volume   974.31732207
_cell_formula_units_Z   4
loop_
 _symmetry_equiv_pos_site_id
 _symmetry_equiv_pos_as_xyz
  1  'x, y, z'
loop_
 _atom_site_type_symbol
 _atom_site_label
 _atom_site_symmetry_multiplicity
 _atom_site_fract_x
 _atom_site_fract_y
 _atom_site_fract_z
 _atom_site_occupancy
  Rb  Rb0  1  0.60036900  0.13124800  0.11377700  1
  Rb  Rb1  1  0.28585400  0.86875200  0.11377700  1
  Rb  Rb2  1  0.26838200  0.13124800  0.88622300  1
  Rb  Rb3  1  0.14963100  0.36875200  0.38622300  1
  Rb  Rb4  1  0.84539400  0.86875200  0.88622300  1
  Rb  Rb5  1  0.46414600  0.63124800  0.38622300  1
  Rb  Rb6  1  0.48161800  0.36875200  0.61377700  1
  Rb  Rb7  1  0.90460600  0.63124800  0.61377700  1
  Ni  Ni8  1  0.61415500  0.32789500  0.75962900  1
  Ni  Ni9  1  0.62621600  0.67210500  0.75962900  1
  Ni  Ni10  1  0.05794900  0.32789500  0.24037100  1
  Ni  Ni11  1  0.13584500  0.17210500  0.74037100  1
  Ni  Ni12  1  0.70168000  0.67210500  0.24037100  1
  Ni  Ni13  1  0.12378400  0.82789500  0.74037100  1
  Ni  Ni14  1  0.69205100  0.17210500  0.25962900  1
  Ni  Ni15  1  0.04832000  0.82789500  0.25962900  1
  Ni  Ni16  1  0.87500000  0.25000000  0.25000000  1
  Ni  Ni17  1  0.87500000  0.75000000  0.25000000  1
  Ni  Ni18  1  0.87500000  0.25000000  0.75000000  1
  Ni  Ni19  1  0.37500000  0.75000000  0.75000000  1
  Se  Se20  1  0.65892800  0.48159000  0.17983800  1
  Se  Se21  1  0.16123400  0.51841000  0.17983800  1
  Se  Se22  1  0.85948200  0.48159000  0.82016200  1
  Se  Se23  1  0.09107200  0.01841000  0.32016200  1
  Se  Se24  1  0.32035600  0.51841000  0.82016200  1
  Se  Se25  1  0.58876600  0.98159000  0.32016200  1
  Se  Se26  1  0.89051800  0.01841000  0.67983800  1
  Se  Se27  1  0.42964400  0.98159000  0.67983800  1
