# generated using pymatgen
data_H5SeNO4
_symmetry_space_group_name_H-M   'P 1'
_cell_length_a   10.80098785
_cell_length_b   10.80098785
_cell_length_c   4.64401956
_cell_angle_alpha   77.76504589
_cell_angle_beta   77.76504589
_cell_angle_gamma   41.32590929
_symmetry_Int_Tables_number   1
_chemical_formula_structural   H5SeNO4
_chemical_formula_sum   'H15 Se3 N3 O12'
_cell_volume   348.46115856
_cell_formula_units_Z   3
loop_
 _symmetry_equiv_pos_site_id
 _symmetry_equiv_pos_as_xyz
  1  'x, y, z'
loop_
 _atom_site_type_symbol
 _atom_site_label
 _atom_site_symmetry_multiplicity
 _atom_site_fract_x
 _atom_site_fract_y
 _atom_site_fract_z
 _atom_site_occupancy
  H  H0  1  0.88407400  0.79082600  0.75553200  1
  H  H1  1  0.20917400  0.11592600  0.24446800  1
  H  H2  1  0.08023800  0.34144300  0.25224400  1
  H  H3  1  0.65855700  0.91976200  0.74775600  1
  H  H4  1  0.13324600  0.55192400  0.17913900  1
  H  H5  1  0.44807600  0.86675400  0.82086100  1
  H  H6  1  0.01216100  0.28370600  0.06536700  1
  H  H7  1  0.71629400  0.98783900  0.93463300  1
  H  H8  1  0.64087400  0.42157700  0.84966300  1
  H  H9  1  0.57842300  0.35912600  0.15033700  1
  H  H10  1  0.42455900  0.51588000  0.89352100  1
  H  H11  1  0.48412000  0.57544100  0.10647900  1
  H  H12  1  0.99420500  0.26189500  0.43519200  1
  H  H13  1  0.73810500  0.00579500  0.56480800  1
  H  H14  1  0.12435700  0.87564300  0.50000000  1
  Se  Se15  1  0.00137900  0.99862100  0.00000000  1
  Se  Se16  1  0.25628100  0.40921800  0.63714400  1
  Se  Se17  1  0.59078200  0.74371900  0.36285600  1
  N  N18  1  0.07293400  0.25195000  0.24897800  1
  N  N19  1  0.74805000  0.92706600  0.75102200  1
  N  N20  1  0.52882500  0.47117500  0.00000000  1
  O  O21  1  0.41315600  0.84794000  0.65586900  1
  O  O22  1  0.15206000  0.58684400  0.34413100  1
  O  O23  1  0.65409300  0.55372300  0.31698300  1
  O  O24  1  0.44627700  0.34590700  0.68301700  1
  O  O25  1  0.75934300  0.70303000  0.44889700  1
  O  O26  1  0.29697000  0.24065700  0.55110300  1
  O  O27  1  0.10740300  0.83583700  0.75960200  1
  O  O28  1  0.16416300  0.89259700  0.24039800  1
  O  O29  1  0.94320700  0.18582900  0.82498700  1
  O  O30  1  0.81417100  0.05679300  0.17501300  1
  O  O31  1  0.09076200  0.52351800  0.92091200  1
  O  O32  1  0.47648200  0.90923800  0.07908800  1
