# generated using pymatgen
data_H4CN4O
_symmetry_space_group_name_H-M   'P 1'
_cell_length_a   4.84472174
_cell_length_b   8.37598068
_cell_length_c   11.27337700
_cell_angle_alpha   104.95600564
_cell_angle_beta   91.32514163
_cell_angle_gamma   110.21534482
_symmetry_Int_Tables_number   1
_chemical_formula_structural   H4CN4O
_chemical_formula_sum   'H16 C4 N16 O4'
_cell_volume   411.54935761
_cell_formula_units_Z   4
loop_
 _symmetry_equiv_pos_site_id
 _symmetry_equiv_pos_as_xyz
  1  'x, y, z'
loop_
 _atom_site_type_symbol
 _atom_site_label
 _atom_site_symmetry_multiplicity
 _atom_site_fract_x
 _atom_site_fract_y
 _atom_site_fract_z
 _atom_site_occupancy
  H  H0  1  0.76133000  0.63990400  0.06625600  1
  H  H1  1  0.23867000  0.36009600  0.93374400  1
  H  H2  1  0.30147400  0.22549100  0.68707100  1
  H  H3  1  0.69852600  0.77450900  0.31292900  1
  H  H4  1  0.57472300  0.15352700  0.08700300  1
  H  H5  1  0.42527700  0.84647300  0.91299700  1
  H  H6  1  0.84195200  0.30669700  0.05996900  1
  H  H7  1  0.15804800  0.69330300  0.94003100  1
  H  H8  1  0.98979300  0.44752800  0.31650400  1
  H  H9  1  0.01020700  0.55247200  0.68349600  1
  H  H10  1  0.54746100  0.76735300  0.07165300  1
  H  H11  1  0.45253900  0.23264700  0.92834700  1
  H  H12  1  0.31240200  0.61991200  0.40487500  1
  H  H13  1  0.68759800  0.38008800  0.59512500  1
  H  H14  1  0.09898200  0.14898800  0.83743800  1
  H  H15  1  0.90101800  0.85101200  0.16256200  1
  C  C16  1  0.30422800  0.56438100  0.21491600  1
  C  C17  1  0.69577200  0.43561900  0.78508400  1
  C  C18  1  0.21662300  0.07075100  0.38690100  1
  C  C19  1  0.78337700  0.92924900  0.61309900  1
  N  N20  1  0.20416200  0.01933500  0.26218800  1
  N  N21  1  0.79583800  0.98066500  0.73781200  1
  N  N22  1  0.40849800  0.31669100  0.77033200  1
  N  N23  1  0.59150200  0.68330900  0.22966800  1
  N  N24  1  0.60606000  0.24821300  0.34223700  1
  N  N25  1  0.39394000  0.75178700  0.65776300  1
  N  N26  1  0.29636800  0.26273200  0.87454800  1
  N  N27  1  0.70363200  0.73726800  0.12545200  1
  N  N28  1  0.46559000  0.21334200  0.43798900  1
  N  N29  1  0.53441000  0.78665800  0.56201100  1
  N  N30  1  0.01232700  0.02485800  0.55882000  1
  N  N31  1  0.98767300  0.97514200  0.44118000  1
  N  N32  1  0.44886000  0.13101900  0.23665600  1
  N  N33  1  0.55114000  0.86898100  0.76334400  1
  N  N34  1  0.19149900  0.54437900  0.32022000  1
  N  N35  1  0.80850100  0.45562100  0.67978000  1
  O  O36  1  0.16931900  0.48199600  0.10767300  1
  O  O37  1  0.83068100  0.51800400  0.89232700  1
  O  O38  1  0.66849700  0.19752900  0.01826800  1
  O  O39  1  0.33150300  0.80247000  0.98173200  1
