# generated using pymatgen
data_H4C2SN4
_symmetry_space_group_name_H-M   'P 1'
_cell_length_a   10.90150800
_cell_length_b   4.00872200
_cell_length_c   11.40264879
_cell_angle_alpha   73.06870335
_cell_angle_beta   90.00000000
_cell_angle_gamma   90.00000000
_symmetry_Int_Tables_number   1
_chemical_formula_structural   H4C2SN4
_chemical_formula_sum   'H16 C8 S4 N16'
_cell_volume   476.70911125
_cell_formula_units_Z   4
loop_
 _symmetry_equiv_pos_site_id
 _symmetry_equiv_pos_as_xyz
  1  'x, y, z'
loop_
 _atom_site_type_symbol
 _atom_site_label
 _atom_site_symmetry_multiplicity
 _atom_site_fract_x
 _atom_site_fract_y
 _atom_site_fract_z
 _atom_site_occupancy
  H  H0  1  0.08552200  0.86145500  0.94001500  1
  H  H1  1  0.91447800  0.13854500  0.05998500  1
  H  H2  1  0.58552200  0.13854500  0.55998500  1
  H  H3  1  0.41447800  0.86145500  0.44001500  1
  H  H4  1  0.76121900  0.82628200  0.52218200  1
  H  H5  1  0.23878100  0.17371800  0.47781800  1
  H  H6  1  0.26121900  0.17371800  0.97781800  1
  H  H7  1  0.73878100  0.82628200  0.02218200  1
  H  H8  1  0.12905900  0.86443500  0.79348700  1
  H  H9  1  0.87094100  0.13556500  0.20651300  1
  H  H10  1  0.62905900  0.13556500  0.70651300  1
  H  H11  1  0.37094100  0.86443500  0.29348700  1
  H  H12  1  0.10394800  0.31350100  0.53680300  1
  H  H13  1  0.89605200  0.68649900  0.46319700  1
  H  H14  1  0.60394800  0.68649900  0.96319700  1
  H  H15  1  0.39605200  0.31350100  0.03680300  1
  C  C16  1  0.48820300  0.81187300  0.69984200  1
  C  C17  1  0.51179700  0.18812700  0.30015800  1
  C  C18  1  0.98820300  0.18812700  0.80015800  1
  C  C19  1  0.01179700  0.81187300  0.19984200  1
  C  C20  1  0.37551500  0.48985500  0.85096100  1
  C  C21  1  0.62448500  0.51014500  0.14903900  1
  C  C22  1  0.87551500  0.51014500  0.64903900  1
  C  C23  1  0.12448500  0.48985500  0.35096100  1
  S  S24  1  0.29610200  0.49106200  0.71749000  1
  S  S25  1  0.70389800  0.50893800  0.28251000  1
  S  S26  1  0.79610200  0.50893800  0.78251000  1
  S  S27  1  0.20389800  0.49106200  0.21749000  1
  N  N28  1  0.47859100  0.67496400  0.82494600  1
  N  N29  1  0.52140900  0.32503600  0.17505400  1
  N  N30  1  0.97859100  0.32503600  0.67505400  1
  N  N31  1  0.02140900  0.67496400  0.32494600  1
  N  N32  1  0.40147800  0.74667300  0.62743000  1
  N  N33  1  0.59852200  0.25332700  0.37257000  1
  N  N34  1  0.90147800  0.25332700  0.87257000  1
  N  N35  1  0.09852200  0.74667300  0.12743000  1
  N  N36  1  0.83752100  0.67349500  0.53527100  1
  N  N37  1  0.16247900  0.32650500  0.46472900  1
  N  N38  1  0.33752100  0.32650500  0.96472900  1
  N  N39  1  0.66247900  0.67349500  0.03527100  1
  N  N40  1  0.09009200  0.99564300  0.84823700  1
  N  N41  1  0.90990800  0.00435700  0.15176300  1
  N  N42  1  0.59009200  0.00435700  0.65176300  1
  N  N43  1  0.40990800  0.99564300  0.34823700  1
