# generated using pymatgen
data_H5C2(NO)3
_symmetry_space_group_name_H-M   'P 1'
_cell_length_a   4.00044300
_cell_length_b   5.14252124
_cell_length_c   12.84235567
_cell_angle_alpha   95.99377705
_cell_angle_beta   90.00000000
_cell_angle_gamma   112.88964506
_symmetry_Int_Tables_number   1
_chemical_formula_structural   H5C2(NO)3
_chemical_formula_sum   'H10 C4 N6 O6'
_cell_volume   241.82502796
_cell_formula_units_Z   2
loop_
 _symmetry_equiv_pos_site_id
 _symmetry_equiv_pos_as_xyz
  1  'x, y, z'
loop_
 _atom_site_type_symbol
 _atom_site_label
 _atom_site_symmetry_multiplicity
 _atom_site_fract_x
 _atom_site_fract_y
 _atom_site_fract_z
 _atom_site_occupancy
  H  H0  1  0.66597600  0.82464200  0.65938200  1
  H  H1  1  0.15866600  0.82464200  0.15938200  1
  H  H2  1  0.49921700  0.38566700  0.98657100  1
  H  H3  1  0.88645000  0.38566700  0.48657100  1
  H  H4  1  0.08705100  0.57141900  0.67426600  1
  H  H5  1  0.48436800  0.57141900  0.17426600  1
  H  H6  1  0.41706700  0.13433800  0.33284400  1
  H  H7  1  0.71727100  0.13433800  0.83284400  1
  H  H8  1  0.26547300  0.35412400  0.61886000  1
  H  H9  1  0.08865100  0.35412400  0.11886000  1
  C  C10  1  0.69615800  0.73688700  0.86030300  1
  C  C11  1  0.04072900  0.73688700  0.36030300  1
  C  C12  1  0.53905600  0.78612300  0.96667400  1
  C  C13  1  0.24706700  0.78612300  0.46667400  1
  N  N14  1  0.76147300  0.95625600  0.80514900  1
  N  N15  1  0.19478300  0.95625600  0.30514900  1
  N  N16  1  0.10847700  0.55770300  0.51891400  1
  N  N17  1  0.44922600  0.55770300  0.01891400  1
  N  N18  1  0.25903200  0.55117000  0.61706700  1
  N  N19  1  0.29213800  0.55117000  0.11706700  1
  O  O20  1  0.50103800  0.01016000  0.99706400  1
  O  O21  1  0.50912200  0.01016000  0.49706400  1
  O  O22  1  0.89104400  0.95405400  0.70555400  1
  O  O23  1  0.06301000  0.95405400  0.20555400  1
  O  O24  1  0.74678100  0.51625900  0.83045200  1
  O  O25  1  0.76947800  0.51625900  0.33045200  1
