# generated using pymatgen
data_Rb8NO3
_symmetry_space_group_name_H-M   'P 1'
_cell_length_a   6.93573000
_cell_length_b   6.93573000
_cell_length_c   6.93573000
_cell_angle_alpha   90.00000000
_cell_angle_beta   90.00000000
_cell_angle_gamma   90.00000000
_symmetry_Int_Tables_number   1
_chemical_formula_structural   Rb8NO3
_chemical_formula_sum   'Rb8 N1 O3'
_cell_volume   333.63878782
_cell_formula_units_Z   1
loop_
 _symmetry_equiv_pos_site_id
 _symmetry_equiv_pos_as_xyz
  1  'x, y, z'
loop_
 _atom_site_type_symbol
 _atom_site_label
 _atom_site_symmetry_multiplicity
 _atom_site_fract_x
 _atom_site_fract_y
 _atom_site_fract_z
 _atom_site_occupancy
  Rb  Rb0  1  0.25315400  0.25315400  0.25315400  1
  Rb  Rb1  1  0.74684600  0.74684600  0.25315400  1
  Rb  Rb2  1  0.74684600  0.25315400  0.74684600  1
  Rb  Rb3  1  0.25315400  0.74684600  0.74684600  1
  Rb  Rb4  1  0.25315400  0.25315400  0.74684600  1
  Rb  Rb5  1  0.74684600  0.74684600  0.74684600  1
  Rb  Rb6  1  0.74684600  0.25315400  0.25315400  1
  Rb  Rb7  1  0.25315400  0.74684600  0.25315400  1
  N  N8  1  0.00000000  0.00000000  0.00000000  1
  O  O9  1  0.00000000  0.50000000  0.50000000  1
  O  O10  1  0.50000000  0.50000000  0.00000000  1
  O  O11  1  0.50000000  0.00000000  0.50000000  1
