# generated using pymatgen
data_K2HfO6
_symmetry_space_group_name_H-M   'P 1'
_cell_length_a   10.61343643
_cell_length_b   10.61343643
_cell_length_c   5.87013000
_cell_angle_alpha   90.00000000
_cell_angle_beta   90.00000000
_cell_angle_gamma   112.74623605
_symmetry_Int_Tables_number   1
_chemical_formula_structural   K2HfO6
_chemical_formula_sum   'K8 Hf4 O24'
_cell_volume   609.81387792
_cell_formula_units_Z   4
loop_
 _symmetry_equiv_pos_site_id
 _symmetry_equiv_pos_as_xyz
  1  'x, y, z'
loop_
 _atom_site_type_symbol
 _atom_site_label
 _atom_site_symmetry_multiplicity
 _atom_site_fract_x
 _atom_site_fract_y
 _atom_site_fract_z
 _atom_site_occupancy
  K  K0  1  0.62976000  0.87024000  0.50000000  1
  K  K1  1  0.37024000  0.12976000  0.50000000  1
  K  K2  1  0.87024000  0.62976000  0.50000000  1
  K  K3  1  0.12976000  0.37024000  0.50000000  1
  K  K4  1  0.88105700  0.11894300  0.00988100  1
  K  K5  1  0.11894300  0.88105700  0.99011900  1
  K  K6  1  0.61894300  0.38105700  0.00988100  1
  K  K7  1  0.38105700  0.61894300  0.99011900  1
  Hf  Hf8  1  0.50000000  0.00000000  0.00000000  1
  Hf  Hf9  1  0.00000000  0.50000000  0.00000000  1
  Hf  Hf10  1  0.25000000  0.75000000  0.50294900  1
  Hf  Hf11  1  0.75000000  0.25000000  0.49705100  1
  O  O12  1  0.64434400  0.70029400  0.15596500  1
  O  O13  1  0.35565600  0.29970600  0.84403500  1
  O  O14  1  0.85565600  0.79970600  0.15596500  1
  O  O15  1  0.79970600  0.85565600  0.84403500  1
  O  O16  1  0.14434400  0.20029400  0.84403500  1
  O  O17  1  0.20029400  0.14434400  0.15596500  1
  O  O18  1  0.70029400  0.64434400  0.84403500  1
  O  O19  1  0.29970600  0.35565600  0.15596500  1
  O  O20  1  0.37496700  0.87496700  0.25015400  1
  O  O21  1  0.62503300  0.12503300  0.74984600  1
  O  O22  1  0.12503300  0.62503300  0.25015400  1
  O  O23  1  0.87496700  0.37496700  0.74984600  1
  O  O24  1  0.62394300  0.12394300  0.24891500  1
  O  O25  1  0.37605700  0.87605700  0.75108500  1
  O  O26  1  0.87605700  0.37605700  0.24891500  1
  O  O27  1  0.12394300  0.62394300  0.75108500  1
  O  O28  1  0.61768600  0.88231400  0.00000000  1
  O  O29  1  0.38231400  0.11768600  0.00000000  1
  O  O30  1  0.88231400  0.61768600  0.00000000  1
  O  O31  1  0.11768600  0.38231400  0.00000000  1
  O  O32  1  0.36366700  0.63633300  0.50357600  1
  O  O33  1  0.63633300  0.36366700  0.49642400  1
  O  O34  1  0.13633300  0.86366700  0.50357600  1
  O  O35  1  0.86366700  0.13633300  0.49642400  1
