# generated using pymatgen
data_Sm2(N4O9)3
_symmetry_space_group_name_H-M   'P 1'
_cell_length_a   13.42276218
_cell_length_b   13.42276218
_cell_length_c   13.42276218
_cell_angle_alpha   90.00000000
_cell_angle_beta   90.00000000
_cell_angle_gamma   90.00000000
_symmetry_Int_Tables_number   1
_chemical_formula_structural   Sm2(N4O9)3
_chemical_formula_sum   'Sm8 N48 O108'
_cell_volume   2418.38637121
_cell_formula_units_Z   4
loop_
 _symmetry_equiv_pos_site_id
 _symmetry_equiv_pos_as_xyz
  1  'x, y, z'
loop_
 _atom_site_type_symbol
 _atom_site_label
 _atom_site_symmetry_multiplicity
 _atom_site_fract_x
 _atom_site_fract_y
 _atom_site_fract_z
 _atom_site_occupancy
  Sm  Sm0  1  0.04938651  0.04938651  0.04938651  1
  Sm  Sm1  1  0.45061349  0.95061349  0.54938651  1
  Sm  Sm2  1  0.95061349  0.54938651  0.45061349  1
  Sm  Sm3  1  0.79938651  0.29938651  0.20061349  1
  Sm  Sm4  1  0.54938651  0.45061349  0.95061349  1
  Sm  Sm5  1  0.70061349  0.70061349  0.70061349  1
  Sm  Sm6  1  0.29938651  0.20061349  0.79938651  1
  Sm  Sm7  1  0.20061349  0.79938651  0.29938651  1
  N  N8  1  0.08896009  0.38615871  0.38548659  1
  N  N9  1  0.41103991  0.61384129  0.88548659  1
  N  N10  1  0.91103991  0.88615871  0.11451341  1
  N  N11  1  0.38548659  0.08896009  0.38615871  1
  N  N12  1  0.13615871  0.33896009  0.86451341  1
  N  N13  1  0.58896009  0.11384129  0.61451341  1
  N  N14  1  0.88548659  0.41103991  0.61384129  1
  N  N15  1  0.36384129  0.66103991  0.36451341  1
  N  N16  1  0.11451341  0.91103991  0.88615871  1
  N  N17  1  0.63615871  0.16103991  0.13548659  1
  N  N18  1  0.61451341  0.58896009  0.11384129  1
  N  N19  1  0.86384129  0.83896009  0.63548659  1
  N  N20  1  0.38615871  0.38548659  0.08896009  1
  N  N21  1  0.83896009  0.63548659  0.86384129  1
  N  N22  1  0.88615871  0.11451341  0.91103991  1
  N  N23  1  0.66103991  0.36451341  0.36384129  1
  N  N24  1  0.11384129  0.61451341  0.58896009  1
  N  N25  1  0.33896009  0.86451341  0.13615871  1
  N  N26  1  0.61384129  0.88548659  0.41103991  1
  N  N27  1  0.16103991  0.13548659  0.63615871  1
  N  N28  1  0.86451341  0.13615871  0.33896009  1
  N  N29  1  0.36451341  0.36384129  0.66103991  1
  N  N30  1  0.63548659  0.86384129  0.83896009  1
  N  N31  1  0.13548659  0.63615871  0.16103991  1
  N  N32  1  0.12500000  0.21069925  0.46069925  1
  N  N33  1  0.37500000  0.78930075  0.96069925  1
  N  N34  1  0.87500000  0.71069925  0.03930075  1
  N  N35  1  0.46069925  0.12500000  0.21069925  1
  N  N36  1  0.96069925  0.37500000  0.78930075  1
  N  N37  1  0.62500000  0.28930075  0.53930075  1
  N  N38  1  0.53930075  0.62500000  0.28930075  1
  N  N39  1  0.03930075  0.87500000  0.71069925  1
  N  N40  1  0.21069925  0.46069925  0.12500000  1
  N  N41  1  0.71069925  0.03930075  0.87500000  1
  N  N42  1  0.28930075  0.53930075  0.62500000  1
  N  N43  1  0.78930075  0.96069925  0.37500000  1
  N  N44  1  0.12500000  0.00828363  0.25828363  1
  N  N45  1  0.37500000  0.99171637  0.75828363  1
  N  N46  1  0.87500000  0.50828363  0.24171637  1
  N  N47  1  0.25828363  0.12500000  0.00828363  1
  N  N48  1  0.75828363  0.37500000  0.99171637  1
  N  N49  1  0.62500000  0.49171637  0.74171637  1
  N  N50  1  0.74171637  0.62500000  0.49171637  1
  N  N51  1  0.24171637  0.87500000  0.50828363  1
  N  N52  1  0.00828363  0.25828363  0.12500000  1
  N  N53  1  0.50828363  0.24171637  0.87500000  1
  N  N54  1  0.49171637  0.74171637  0.62500000  1
  N  N55  1  0.99171637  0.75828363  0.37500000  1
  O  O56  1  0.12500000  0.93947454  0.18947454  1
  O  O57  1  0.37500000  0.06052546  0.68947454  1
  O  O58  1  0.87500000  0.43947454  0.31052546  1
  O  O59  1  0.18947454  0.12500000  0.93947454  1
  O  O60  1  0.68947454  0.37500000  0.06052546  1
  O  O61  1  0.62500000  0.56052546  0.81052546  1
  O  O62  1  0.81052546  0.62500000  0.56052546  1
  O  O63  1  0.31052546  0.87500000  0.43947454  1
  O  O64  1  0.93947454  0.18947454  0.12500000  1
  O  O65  1  0.43947454  0.31052546  0.87500000  1
  O  O66  1  0.56052546  0.81052546  0.62500000  1
  O  O67  1  0.06052546  0.68947454  0.37500000  1
  O  O68  1  0.02545771  0.37741209  0.45473497  1
  O  O69  1  0.47454229  0.62258791  0.95473497  1
  O  O70  1  0.97454229  0.87741209  0.04526503  1
  O  O71  1  0.45473497  0.02545771  0.37741209  1
  O  O72  1  0.12741209  0.27545771  0.79526503  1
  O  O73  1  0.52545771  0.12258791  0.54526503  1
  O  O74  1  0.95473497  0.47454229  0.62258791  1
  O  O75  1  0.37258791  0.72454229  0.29526503  1
  O  O76  1  0.04526503  0.97454229  0.87741209  1
  O  O77  1  0.62741209  0.22454229  0.20473497  1
  O  O78  1  0.54526503  0.52545771  0.12258791  1
  O  O79  1  0.87258791  0.77545771  0.70473497  1
  O  O80  1  0.37741209  0.45473497  0.02545771  1
  O  O81  1  0.77545771  0.70473497  0.87258791  1
  O  O82  1  0.87741209  0.04526503  0.97454229  1
  O  O83  1  0.72454229  0.29526503  0.37258791  1
  O  O84  1  0.12258791  0.54526503  0.52545771  1
  O  O85  1  0.27545771  0.79526503  0.12741209  1
  O  O86  1  0.62258791  0.95473497  0.47454229  1
  O  O87  1  0.22454229  0.20473497  0.62741209  1
  O  O88  1  0.79526503  0.12741209  0.27545771  1
  O  O89  1  0.29526503  0.37258791  0.72454229  1
  O  O90  1  0.70473497  0.87258791  0.77545771  1
  O  O91  1  0.20473497  0.62741209  0.22454229  1
  O  O92  1  0.09248179  0.46526086  0.33566117  1
  O  O93  1  0.40751821  0.53473914  0.83566117  1
  O  O94  1  0.90751821  0.96526086  0.16433883  1
  O  O95  1  0.33566117  0.09248179  0.46526086  1
  O  O96  1  0.21526086  0.34248179  0.91433883  1
  O  O97  1  0.59248179  0.03473914  0.66433883  1
  O  O98  1  0.83566117  0.40751821  0.53473914  1
  O  O99  1  0.28473914  0.65751821  0.41433883  1
  O  O100  1  0.16433883  0.90751821  0.96526086  1
  O  O101  1  0.71526086  0.15751821  0.08566117  1
  O  O102  1  0.66433883  0.59248179  0.03473914  1
  O  O103  1  0.78473914  0.84248179  0.58566117  1
  O  O104  1  0.46526086  0.33566117  0.09248179  1
  O  O105  1  0.84248179  0.58566117  0.78473914  1
  O  O106  1  0.96526086  0.16433883  0.90751821  1
  O  O107  1  0.65751821  0.41433883  0.28473914  1
  O  O108  1  0.03473914  0.66433883  0.59248179  1
  O  O109  1  0.34248179  0.91433883  0.21526086  1
  O  O110  1  0.53473914  0.83566117  0.40751821  1
  O  O111  1  0.15751821  0.08566117  0.71526086  1
  O  O112  1  0.91433883  0.21526086  0.34248179  1
  O  O113  1  0.41433883  0.28473914  0.65751821  1
  O  O114  1  0.58566117  0.78473914  0.84248179  1
  O  O115  1  0.08566117  0.71526086  0.15751821  1
  O  O116  1  0.14958724  0.31463838  0.36633700  1
  O  O117  1  0.35041276  0.68536162  0.86633700  1
  O  O118  1  0.85041276  0.81463838  0.13366300  1
  O  O119  1  0.36633700  0.14958724  0.31463838  1
  O  O120  1  0.06463838  0.39958724  0.88366300  1
  O  O121  1  0.64958724  0.18536162  0.63366300  1
  O  O122  1  0.86633700  0.35041276  0.68536162  1
  O  O123  1  0.43536162  0.60041276  0.38366300  1
  O  O124  1  0.13366300  0.85041276  0.81463838  1
  O  O125  1  0.56463838  0.10041276  0.11633700  1
  O  O126  1  0.63366300  0.64958724  0.18536162  1
  O  O127  1  0.93536162  0.89958724  0.61633700  1
  O  O128  1  0.31463838  0.36633700  0.14958724  1
  O  O129  1  0.89958724  0.61633700  0.93536162  1
  O  O130  1  0.81463838  0.13366300  0.85041276  1
  O  O131  1  0.60041276  0.38366300  0.43536162  1
  O  O132  1  0.18536162  0.63366300  0.64958724  1
  O  O133  1  0.39958724  0.88366300  0.06463838  1
  O  O134  1  0.68536162  0.86633700  0.35041276  1
  O  O135  1  0.10041276  0.11633700  0.56463838  1
  O  O136  1  0.88366300  0.06463838  0.39958724  1
  O  O137  1  0.38366300  0.43536162  0.60041276  1
  O  O138  1  0.61633700  0.93536162  0.89958724  1
  O  O139  1  0.11633700  0.56463838  0.10041276  1
  O  O140  1  0.08593625  0.09008536  0.23781352  1
  O  O141  1  0.41406375  0.90991464  0.73781352  1
  O  O142  1  0.91406375  0.59008536  0.26218648  1
  O  O143  1  0.23781352  0.08593625  0.09008536  1
  O  O144  1  0.84008536  0.33593625  0.01218648  1
  O  O145  1  0.58593625  0.40991464  0.76218648  1
  O  O146  1  0.73781352  0.41406375  0.90991464  1
  O  O147  1  0.65991464  0.66406375  0.51218648  1
  O  O148  1  0.26218648  0.91406375  0.59008536  1
  O  O149  1  0.34008536  0.16406375  0.98781352  1
  O  O150  1  0.76218648  0.58593625  0.40991464  1
  O  O151  1  0.15991464  0.83593625  0.48781352  1
  O  O152  1  0.09008536  0.23781352  0.08593625  1
  O  O153  1  0.83593625  0.48781352  0.15991464  1
  O  O154  1  0.59008536  0.26218648  0.91406375  1
  O  O155  1  0.66406375  0.51218648  0.65991464  1
  O  O156  1  0.40991464  0.76218648  0.58593625  1
  O  O157  1  0.33593625  0.01218648  0.84008536  1
  O  O158  1  0.90991464  0.73781352  0.41406375  1
  O  O159  1  0.16406375  0.98781352  0.34008536  1
  O  O160  1  0.01218648  0.84008536  0.33593625  1
  O  O161  1  0.51218648  0.65991464  0.66406375  1
  O  O162  1  0.48781352  0.15991464  0.83593625  1
  O  O163  1  0.98781352  0.34008536  0.16406375  1
