# generated using pymatgen
data_KH6F12
_symmetry_space_group_name_H-M   'P 1'
_cell_length_a   9.70699186
_cell_length_b   10.21458761
_cell_length_c   11.63238999
_cell_angle_alpha   88.27591383
_cell_angle_beta   93.63036854
_cell_angle_gamma   118.36933327
_symmetry_Int_Tables_number   1
_chemical_formula_structural   KH6F12
_chemical_formula_sum   'K2 H12 F24'
_cell_volume   1012.83078559
_cell_formula_units_Z   2
loop_
 _symmetry_equiv_pos_site_id
 _symmetry_equiv_pos_as_xyz
  1  'x, y, z'
loop_
 _atom_site_type_symbol
 _atom_site_label
 _atom_site_symmetry_multiplicity
 _atom_site_fract_x
 _atom_site_fract_y
 _atom_site_fract_z
 _atom_site_occupancy
  K  K0  1  0.00000000  0.00000000  0.00000000  1
  K  K1  1  0.50000000  0.00000000  0.50000000  1
  H  H2  1  0.85505500  0.81937100  0.75916300  1
  H  H3  1  0.14494500  0.18062900  0.24083700  1
  H  H4  1  0.61945300  0.92229300  0.99336500  1
  H  H5  1  0.46431600  0.81937100  0.74083700  1
  H  H6  1  0.38054700  0.07770700  0.00663500  1
  H  H7  1  0.53568400  0.18062900  0.25916300  1
  H  H8  1  0.99730000  0.25293900  0.76489800  1
  H  H9  1  0.80284000  0.92229300  0.50663500  1
  H  H10  1  0.00270000  0.74706100  0.23510200  1
  H  H11  1  0.19716000  0.07770700  0.49336500  1
  H  H12  1  0.75563900  0.25293900  0.73510200  1
  H  H13  1  0.24436100  0.74706100  0.26489800  1
  F  F14  1  0.79295800  0.69942000  0.73726200  1
  F  F15  1  0.20704200  0.30058000  0.26273800  1
  F  F16  1  0.72725200  0.98642900  0.00783800  1
  F  F17  1  0.40646200  0.69942000  0.76273800  1
  F  F18  1  0.27274800  0.01357100  0.99216200  1
  F  F19  1  0.59353800  0.30058000  0.23726200  1
  F  F20  1  0.99482900  0.25265800  0.68382100  1
  F  F21  1  0.75917700  0.98642900  0.49216200  1
  F  F22  1  0.00517100  0.74734200  0.31617900  1
  F  F23  1  0.24082300  0.01357100  0.50783800  1
  F  F24  1  0.75783000  0.25265800  0.81617900  1
  F  F25  1  0.24217000  0.74734200  0.18382100  1
  F  F26  1  0.92939600  0.94664700  0.78344400  1
  F  F27  1  0.07060400  0.05335300  0.21655600  1
  F  F28  1  0.71834900  0.66154800  0.00263000  1
  F  F29  1  0.51725200  0.94664700  0.71655600  1
  F  F30  1  0.28165100  0.33845200  0.99737000  1
  F  F31  1  0.48274800  0.05335300  0.28344400  1
  F  F32  1  0.13833700  0.34591500  0.99111900  1
  F  F33  1  0.44319900  0.66154800  0.49737000  1
  F  F34  1  0.86166300  0.65408500  0.00888100  1
  F  F35  1  0.55680100  0.33845200  0.50263000  1
  F  F36  1  0.70757900  0.34591500  0.50888100  1
  F  F37  1  0.29242100  0.65408500  0.49111900  1
