# generated using pymatgen
data_K2YbGe4O11
_symmetry_space_group_name_H-M   'P 1'
_cell_length_a   8.77996800
_cell_length_b   12.16861200
_cell_length_c   12.43848383
_cell_angle_alpha   67.26834038
_cell_angle_beta   90.00000000
_cell_angle_gamma   90.00000000
_symmetry_Int_Tables_number   1
_chemical_formula_structural   K2YbGe4O11
_chemical_formula_sum   'K8 Yb4 Ge16 O44'
_cell_volume   1225.70305057
_cell_formula_units_Z   4
loop_
 _symmetry_equiv_pos_site_id
 _symmetry_equiv_pos_as_xyz
  1  'x, y, z'
loop_
 _atom_site_type_symbol
 _atom_site_label
 _atom_site_symmetry_multiplicity
 _atom_site_fract_x
 _atom_site_fract_y
 _atom_site_fract_z
 _atom_site_occupancy
  K  K0  1  0.25000000  0.40984700  0.08114400  1
  K  K1  1  0.75000000  0.59015300  0.91885600  1
  K  K2  1  0.25000000  0.92964600  0.43340200  1
  K  K3  1  0.75000000  0.07035400  0.56659800  1
  K  K4  1  0.25000000  0.01446700  0.04632700  1
  K  K5  1  0.75000000  0.98553300  0.95367300  1
  K  K6  1  0.25000000  0.49351100  0.47948300  1
  K  K7  1  0.75000000  0.50648900  0.52051700  1
  Yb  Yb8  1  0.00737000  0.78640100  0.28619300  1
  Yb  Yb9  1  0.99263000  0.21359900  0.71380700  1
  Yb  Yb10  1  0.50737000  0.21359900  0.71380700  1
  Yb  Yb11  1  0.49263000  0.78640100  0.28619300  1
  Ge  Ge12  1  0.93025800  0.50301100  0.25215300  1
  Ge  Ge13  1  0.06974200  0.49698900  0.74784700  1
  Ge  Ge14  1  0.43025800  0.49698900  0.74784700  1
  Ge  Ge15  1  0.56974200  0.50301100  0.25215300  1
  Ge  Ge16  1  0.43553200  0.71692000  0.03389000  1
  Ge  Ge17  1  0.56446800  0.28308000  0.96611000  1
  Ge  Ge18  1  0.93553200  0.28308000  0.96611000  1
  Ge  Ge19  1  0.06446800  0.71692000  0.03389000  1
  Ge  Ge20  1  0.44050200  0.89362500  0.77120600  1
  Ge  Ge21  1  0.55949800  0.10637500  0.22879400  1
  Ge  Ge22  1  0.94050200  0.10637500  0.22879400  1
  Ge  Ge23  1  0.05949800  0.89362500  0.77120600  1
  Ge  Ge24  1  0.43632200  0.23923800  0.39042900  1
  Ge  Ge25  1  0.56367800  0.76076200  0.60957100  1
  Ge  Ge26  1  0.93632200  0.76076200  0.60957100  1
  Ge  Ge27  1  0.06367800  0.23923800  0.39042900  1
  O  O28  1  0.25000000  0.18125200  0.38308100  1
  O  O29  1  0.75000000  0.81874800  0.61691900  1
  O  O30  1  0.49093700  0.23727200  0.11127400  1
  O  O31  1  0.50906300  0.76272800  0.88872600  1
  O  O32  1  0.99093700  0.76272800  0.88872600  1
  O  O33  1  0.00906300  0.23727200  0.11127400  1
  O  O34  1  0.98498500  0.76502400  0.47375600  1
  O  O35  1  0.01501500  0.23497600  0.52624400  1
  O  O36  1  0.48498500  0.23497600  0.52624400  1
  O  O37  1  0.51501500  0.76502400  0.47375600  1
  O  O38  1  0.44998400  0.98383500  0.24463100  1
  O  O39  1  0.55001600  0.01616500  0.75536900  1
  O  O40  1  0.94998400  0.01616500  0.75536900  1
  O  O41  1  0.05001600  0.98383500  0.24463100  1
  O  O42  1  0.25000000  0.65304100  0.04143200  1
  O  O43  1  0.75000000  0.34695900  0.95856800  1
  O  O44  1  0.43300500  0.38589300  0.27907400  1
  O  O45  1  0.56699500  0.61410700  0.72092600  1
  O  O46  1  0.93300500  0.61410700  0.72092600  1
  O  O47  1  0.06699500  0.38589300  0.27907400  1
  O  O48  1  0.25000000  0.91587200  0.80804700  1
  O  O49  1  0.75000000  0.08412800  0.19195300  1
  O  O50  1  0.96188600  0.58555900  0.33609700  1
  O  O51  1  0.03811400  0.41444100  0.66390300  1
  O  O52  1  0.46188600  0.41444100  0.66390300  1
  O  O53  1  0.53811400  0.58555900  0.33609700  1
  O  O54  1  0.25000000  0.56993000  0.72492200  1
  O  O55  1  0.75000000  0.43007000  0.27507800  1
  O  O56  1  0.25000000  0.21076100  0.75763900  1
  O  O57  1  0.75000000  0.78923900  0.24236100  1
  O  O58  1  0.94749100  0.58679200  0.09875900  1
  O  O59  1  0.05250900  0.41320800  0.90124100  1
  O  O60  1  0.44749100  0.41320800  0.90124100  1
  O  O61  1  0.55250900  0.58679200  0.09875900  1
  O  O62  1  0.45010400  0.82335100  0.09318600  1
  O  O63  1  0.54989600  0.17664900  0.90681400  1
  O  O64  1  0.95010400  0.17664900  0.90681400  1
  O  O65  1  0.04989600  0.82335100  0.09318600  1
  O  O66  1  0.43967600  0.85941300  0.64319200  1
  O  O67  1  0.56032400  0.14058700  0.35680800  1
  O  O68  1  0.93967600  0.14058700  0.35680800  1
  O  O69  1  0.06032400  0.85941300  0.64319200  1
  O  O70  1  0.25000000  0.72732500  0.35818500  1
  O  O71  1  0.75000000  0.27267500  0.64181500  1
