# generated using pymatgen
data_NaSi2W2O5
_symmetry_space_group_name_H-M   'P 1'
_cell_length_a   18.71657800
_cell_length_b   8.63367100
_cell_length_c   9.56138574
_cell_angle_alpha   89.49340073
_cell_angle_beta   90.00000000
_cell_angle_gamma   90.00000000
_symmetry_Int_Tables_number   1
_chemical_formula_structural   NaSi2W2O5
_chemical_formula_sum   'Na8 Si16 W16 O40'
_cell_volume   1544.99047712
_cell_formula_units_Z   8
loop_
 _symmetry_equiv_pos_site_id
 _symmetry_equiv_pos_as_xyz
  1  'x, y, z'
loop_
 _atom_site_type_symbol
 _atom_site_label
 _atom_site_symmetry_multiplicity
 _atom_site_fract_x
 _atom_site_fract_y
 _atom_site_fract_z
 _atom_site_occupancy
  Na  Na0  1  0.00000000  0.50000000  0.00000000  1
  Na  Na1  1  0.50000000  0.50000000  0.50000000  1
  Na  Na2  1  0.54112800  0.30056000  0.13842200  1
  Na  Na3  1  0.45887200  0.69944000  0.86157800  1
  Na  Na4  1  0.04112800  0.69944000  0.36157800  1
  Na  Na5  1  0.95887200  0.30056000  0.63842200  1
  Na  Na6  1  0.00000000  0.00000000  0.00000000  1
  Na  Na7  1  0.50000000  0.00000000  0.50000000  1
  Si  Si8  1  0.20603600  0.17648200  0.31976500  1
  Si  Si9  1  0.79396400  0.82351800  0.68023500  1
  Si  Si10  1  0.70603600  0.82351800  0.18023500  1
  Si  Si11  1  0.29396400  0.17648200  0.81976500  1
  Si  Si12  1  0.33229000  0.30723000  0.12475800  1
  Si  Si13  1  0.66771000  0.69277000  0.87524200  1
  Si  Si14  1  0.83229000  0.69277000  0.37524200  1
  Si  Si15  1  0.16771000  0.30723000  0.62475800  1
  Si  Si16  1  0.71692000  0.19695800  0.17281300  1
  Si  Si17  1  0.28308000  0.80304200  0.82718700  1
  Si  Si18  1  0.21692000  0.80304200  0.32718700  1
  Si  Si19  1  0.78308000  0.19695800  0.67281300  1
  Si  Si20  1  0.33177900  0.68128900  0.12034900  1
  Si  Si21  1  0.66822100  0.31871100  0.87965100  1
  Si  Si22  1  0.83177900  0.31871100  0.37965100  1
  Si  Si23  1  0.16822100  0.68128900  0.62034900  1
  W  W24  1  0.61879400  0.24243400  0.46766100  1
  W  W25  1  0.38120600  0.75756600  0.53233900  1
  W  W26  1  0.11879400  0.75756600  0.03233900  1
  W  W27  1  0.88120600  0.24243400  0.96766100  1
  W  W28  1  0.36402600  0.22563900  0.49955000  1
  W  W29  1  0.63597400  0.77436100  0.50045000  1
  W  W30  1  0.86402600  0.77436100  0.00045000  1
  W  W31  1  0.13597400  0.22563900  0.99955000  1
  W  W32  1  0.92714900  0.00160600  0.34547200  1
  W  W33  1  0.07285100  0.99839400  0.65452800  1
  W  W34  1  0.42714900  0.99839400  0.15452800  1
  W  W35  1  0.57285100  0.00160600  0.84547200  1
  W  W36  1  0.02549200  0.26028300  0.29593100  1
  W  W37  1  0.97450800  0.73971700  0.70406900  1
  W  W38  1  0.52549200  0.73971700  0.20406900  1
  W  W39  1  0.47450800  0.26028300  0.79593100  1
  O  O40  1  0.20144000  0.24258300  0.47884700  1
  O  O41  1  0.79856000  0.75741700  0.52115300  1
  O  O42  1  0.70144000  0.75741700  0.02115300  1
  O  O43  1  0.29856000  0.24258300  0.97884700  1
  O  O44  1  0.27784500  0.25822600  0.25262200  1
  O  O45  1  0.72215500  0.74177400  0.74737800  1
  O  O46  1  0.77784500  0.74177400  0.24737800  1
  O  O47  1  0.22215500  0.25822600  0.75262200  1
  O  O48  1  0.29359200  0.73953600  0.26419500  1
  O  O49  1  0.70640800  0.26046400  0.73580500  1
  O  O50  1  0.79359200  0.26046400  0.23580500  1
  O  O51  1  0.20640800  0.73953600  0.76419500  1
  O  O52  1  0.71826200  0.25692000  0.00883400  1
  O  O53  1  0.28173800  0.74308000  0.99116600  1
  O  O54  1  0.21826200  0.74308000  0.49116600  1
  O  O55  1  0.78173800  0.25692000  0.50883400  1
  O  O56  1  0.13474800  0.22183800  0.22990500  1
  O  O57  1  0.86525200  0.77816200  0.77009500  1
  O  O58  1  0.63474800  0.77816200  0.27009500  1
  O  O59  1  0.36525200  0.22183800  0.72990500  1
  O  O60  1  0.22167300  0.99198200  0.32862800  1
  O  O61  1  0.77832700  0.00801800  0.67137200  1
  O  O62  1  0.72167300  0.00801800  0.17137200  1
  O  O63  1  0.27832700  0.99198200  0.82862800  1
  O  O64  1  0.41053900  0.23367000  0.15494600  1
  O  O65  1  0.58946100  0.76633000  0.84505400  1
  O  O66  1  0.91053900  0.76633000  0.34505400  1
  O  O67  1  0.08946100  0.23367000  0.65494600  1
  O  O68  1  0.14723500  0.74055600  0.24854700  1
  O  O69  1  0.85276500  0.25944400  0.75145300  1
  O  O70  1  0.64723500  0.25944400  0.25145300  1
  O  O71  1  0.35276500  0.74055600  0.74854700  1
  O  O72  1  0.33685700  0.49429800  0.11660200  1
  O  O73  1  0.66314300  0.50570200  0.88339800  1
  O  O74  1  0.83685700  0.50570200  0.38339800  1
  O  O75  1  0.16314300  0.49429800  0.61660200  1
  O  O76  1  0.41307200  0.75215000  0.10707000  1
  O  O77  1  0.58692800  0.24785000  0.89293000  1
  O  O78  1  0.91307200  0.24785000  0.39293000  1
  O  O79  1  0.08692800  0.75215000  0.60707000  1
