# generated using pymatgen
data_EuTm2O4
_symmetry_space_group_name_H-M   'P 1'
_cell_length_a   3.36124500
_cell_length_b   9.96898400
_cell_length_c   11.83355400
_cell_angle_alpha   90.00000000
_cell_angle_beta   90.00000000
_cell_angle_gamma   90.00000000
_symmetry_Int_Tables_number   1
_chemical_formula_structural   EuTm2O4
_chemical_formula_sum   'Eu4 Tm8 O16'
_cell_volume   396.52106604
_cell_formula_units_Z   4
loop_
 _symmetry_equiv_pos_site_id
 _symmetry_equiv_pos_as_xyz
  1  'x, y, z'
loop_
 _atom_site_type_symbol
 _atom_site_label
 _atom_site_symmetry_multiplicity
 _atom_site_fract_x
 _atom_site_fract_y
 _atom_site_fract_z
 _atom_site_occupancy
  Eu  Eu0  1  0.25000000  0.74838900  0.14903200  1
  Eu  Eu1  1  0.75000000  0.25161100  0.85096800  1
  Eu  Eu2  1  0.75000000  0.75161100  0.64903200  1
  Eu  Eu3  1  0.25000000  0.24838900  0.35096800  1
  Tm  Tm4  1  0.25000000  0.57672900  0.88991400  1
  Tm  Tm5  1  0.75000000  0.42327100  0.11008600  1
  Tm  Tm6  1  0.75000000  0.92327100  0.38991400  1
  Tm  Tm7  1  0.25000000  0.07672900  0.61008600  1
  Tm  Tm8  1  0.25000000  0.07665800  0.11254100  1
  Tm  Tm9  1  0.75000000  0.92334200  0.88745900  1
  Tm  Tm10  1  0.75000000  0.42334200  0.61254100  1
  Tm  Tm11  1  0.25000000  0.57665800  0.38745900  1
  O  O12  1  0.25000000  0.98477300  0.28337500  1
  O  O13  1  0.75000000  0.01522700  0.71662500  1
  O  O14  1  0.75000000  0.51522700  0.78337500  1
  O  O15  1  0.25000000  0.48477300  0.21662500  1
  O  O16  1  0.25000000  0.57615800  0.57716200  1
  O  O17  1  0.75000000  0.42384200  0.42283800  1
  O  O18  1  0.75000000  0.92384200  0.07716200  1
  O  O19  1  0.25000000  0.07615800  0.92283800  1
  O  O20  1  0.25000000  0.78848200  0.82703700  1
  O  O21  1  0.75000000  0.21151800  0.17296300  1
  O  O22  1  0.75000000  0.71151800  0.32703700  1
  O  O23  1  0.25000000  0.28848200  0.67296300  1
  O  O24  1  0.25000000  0.87523600  0.51958200  1
  O  O25  1  0.75000000  0.12476400  0.48041800  1
  O  O26  1  0.75000000  0.62476400  0.01958200  1
  O  O27  1  0.25000000  0.37523600  0.98041800  1
