# generated using pymatgen
data_Rb2BeNi2F14
_symmetry_space_group_name_H-M   'P 1'
_cell_length_a   6.13216361
_cell_length_b   9.07841140
_cell_length_c   12.83345500
_cell_angle_alpha   90.00000000
_cell_angle_beta   90.00000000
_cell_angle_gamma   94.52946034
_symmetry_Int_Tables_number   1
_chemical_formula_structural   Rb2BeNi2F14
_chemical_formula_sum   'Rb4 Be2 Ni4 F28'
_cell_volume   712.21103762
_cell_formula_units_Z   2
loop_
 _symmetry_equiv_pos_site_id
 _symmetry_equiv_pos_as_xyz
  1  'x, y, z'
loop_
 _atom_site_type_symbol
 _atom_site_label
 _atom_site_symmetry_multiplicity
 _atom_site_fract_x
 _atom_site_fract_y
 _atom_site_fract_z
 _atom_site_occupancy
  Rb  Rb0  1  0.78612500  0.65464700  0.18423000  1
  Rb  Rb1  1  0.21387500  0.34535300  0.81577000  1
  Rb  Rb2  1  0.21387500  0.84535300  0.68423000  1
  Rb  Rb3  1  0.78612500  0.15464700  0.31577000  1
  Be  Be4  1  0.50000000  0.00000000  0.00000000  1
  Be  Be5  1  0.50000000  0.50000000  0.50000000  1
  Ni  Ni6  1  0.74646200  0.61453000  0.86942200  1
  Ni  Ni7  1  0.25353800  0.38547000  0.13057800  1
  Ni  Ni8  1  0.25353800  0.88547000  0.36942200  1
  Ni  Ni9  1  0.74646200  0.11453000  0.63057800  1
  F  F10  1  0.48008400  0.62785800  0.81496500  1
  F  F11  1  0.51991600  0.37214200  0.18503500  1
  F  F12  1  0.51991600  0.87214200  0.31496500  1
  F  F13  1  0.48008400  0.12785800  0.68503500  1
  F  F14  1  0.74992000  0.94522600  0.55947000  1
  F  F15  1  0.25008000  0.05477400  0.44053000  1
  F  F16  1  0.25008000  0.55477400  0.05947000  1
  F  F17  1  0.74992000  0.44522600  0.94053000  1
  F  F18  1  0.32832700  0.91464400  0.91222200  1
  F  F19  1  0.67167300  0.08535600  0.08777800  1
  F  F20  1  0.67167300  0.58535600  0.41222200  1
  F  F21  1  0.32832700  0.41464400  0.58777800  1
  F  F22  1  0.83561900  0.75422500  0.96603500  1
  F  F23  1  0.16438100  0.24577500  0.03396500  1
  F  F24  1  0.16438100  0.74577500  0.46603500  1
  F  F25  1  0.83561900  0.25422500  0.53396500  1
  F  F26  1  0.52009000  0.64884200  0.57875300  1
  F  F27  1  0.47991000  0.35115800  0.42124700  1
  F  F28  1  0.47991000  0.85115800  0.07875300  1
  F  F29  1  0.52009000  0.14884200  0.92124700  1
  F  F30  1  0.71469700  0.96324300  0.91871000  1
  F  F31  1  0.28530300  0.03675700  0.08129000  1
  F  F32  1  0.28530300  0.53675700  0.41871000  1
  F  F33  1  0.71469700  0.46324300  0.58129000  1
  F  F34  1  0.95351800  0.61261200  0.77073800  1
  F  F35  1  0.04648200  0.38738800  0.22926200  1
  F  F36  1  0.04648200  0.88738800  0.27073800  1
  F  F37  1  0.95351800  0.11261200  0.72926200  1
