# generated using pymatgen
data_La7Cr2BO17
_symmetry_space_group_name_H-M   'P 1'
_cell_length_a   18.31208400
_cell_length_b   7.08265600
_cell_length_c   13.87998860
_cell_angle_alpha   67.08047880
_cell_angle_beta   90.00000000
_cell_angle_gamma   90.00000000
_symmetry_Int_Tables_number   1
_chemical_formula_structural   La7Cr2BO17
_chemical_formula_sum   'La28 Cr8 B4 O68'
_cell_volume   1658.08788064
_cell_formula_units_Z   4
loop_
 _symmetry_equiv_pos_site_id
 _symmetry_equiv_pos_as_xyz
  1  'x, y, z'
loop_
 _atom_site_type_symbol
 _atom_site_label
 _atom_site_symmetry_multiplicity
 _atom_site_fract_x
 _atom_site_fract_y
 _atom_site_fract_z
 _atom_site_occupancy
  La  La0  1  0.72393900  0.79962700  0.17880500  1
  La  La1  1  0.27606100  0.20037300  0.82119500  1
  La  La2  1  0.22393900  0.20037300  0.32119500  1
  La  La3  1  0.77606100  0.79962700  0.67880500  1
  La  La4  1  0.86993900  0.77990300  0.43675200  1
  La  La5  1  0.13006100  0.22009700  0.56324800  1
  La  La6  1  0.36993900  0.22009700  0.06324800  1
  La  La7  1  0.63006100  0.77990300  0.93675200  1
  La  La8  1  0.60763100  0.30573900  0.19738200  1
  La  La9  1  0.39236900  0.69426100  0.80261800  1
  La  La10  1  0.10763100  0.69426100  0.30261800  1
  La  La11  1  0.89236900  0.30573900  0.69738200  1
  La  La12  1  0.27312600  0.71117200  0.09568000  1
  La  La13  1  0.72687400  0.28882800  0.90432000  1
  La  La14  1  0.77312600  0.28882800  0.40432000  1
  La  La15  1  0.22687400  0.71117200  0.59568000  1
  La  La16  1  0.44659800  0.71131900  0.51383300  1
  La  La17  1  0.55340200  0.28868100  0.48616700  1
  La  La18  1  0.94659800  0.28868100  0.98616700  1
  La  La19  1  0.05340200  0.71131900  0.01383300  1
  La  La20  1  0.51927900  0.79695500  0.21074800  1
  La  La21  1  0.48072100  0.20304500  0.78925200  1
  La  La22  1  0.01927900  0.20304500  0.28925200  1
  La  La23  1  0.98072100  0.79695500  0.71074800  1
  La  La24  1  0.65518200  0.81413900  0.42597000  1
  La  La25  1  0.34481800  0.18586100  0.57403000  1
  La  La26  1  0.15518200  0.18586100  0.07403000  1
  La  La27  1  0.84481800  0.81413900  0.92597000  1
  Cr  Cr28  1  0.80302900  0.28874000  0.16462400  1
  Cr  Cr29  1  0.19697100  0.71126000  0.83537600  1
  Cr  Cr30  1  0.30302900  0.71126000  0.33537600  1
  Cr  Cr31  1  0.69697100  0.28874000  0.66462400  1
  Cr  Cr32  1  0.93637000  0.77970400  0.18304300  1
  Cr  Cr33  1  0.06363000  0.22029600  0.81695700  1
  Cr  Cr34  1  0.43637000  0.22029600  0.31695700  1
  Cr  Cr35  1  0.56363000  0.77970400  0.68304300  1
  B  B36  1  0.43047600  0.74913600  0.00096300  1
  B  B37  1  0.56952400  0.25086400  0.99903700  1
  B  B38  1  0.93047600  0.25086400  0.49903700  1
  B  B39  1  0.06952400  0.74913600  0.50096300  1
  O  O40  1  0.86986700  0.44089500  0.08776100  1
  O  O41  1  0.13013300  0.55910500  0.91223900  1
  O  O42  1  0.36986700  0.55910500  0.41223900  1
  O  O43  1  0.63013300  0.44089500  0.58776100  1
  O  O44  1  0.37899500  0.59813800  0.00158000  1
  O  O45  1  0.62100500  0.40186200  0.99842000  1
  O  O46  1  0.87899500  0.40186200  0.49842000  1
  O  O47  1  0.12100500  0.59813800  0.50158000  1
  O  O48  1  0.76889100  0.90026700  0.49213900  1
  O  O49  1  0.23110900  0.09973300  0.50786100  1
  O  O50  1  0.26889100  0.09973300  0.00786100  1
  O  O51  1  0.73110900  0.90026700  0.99213900  1
  O  O52  1  0.63188500  0.94981300  0.24210400  1
  O  O53  1  0.36811500  0.05018700  0.75789600  1
  O  O54  1  0.13188500  0.05018700  0.25789600  1
  O  O55  1  0.86811500  0.94981300  0.74210400  1
  O  O56  1  0.93674100  0.86837700  0.04727800  1
  O  O57  1  0.06325900  0.13162300  0.95272200  1
  O  O58  1  0.43674100  0.13162300  0.45272200  1
  O  O59  1  0.56325900  0.86837700  0.54727800  1
  O  O60  1  0.85738300  0.70679900  0.24908000  1
  O  O61  1  0.14261700  0.29320100  0.75092000  1
  O  O62  1  0.35738300  0.29320100  0.25092000  1
  O  O63  1  0.64261700  0.70679900  0.74908000  1
  O  O64  1  0.14485600  0.79748900  0.11984300  1
  O  O65  1  0.85514400  0.20251100  0.88015700  1
  O  O66  1  0.64485600  0.20251100  0.38015700  1
  O  O67  1  0.35514400  0.79748900  0.61984300  1
  O  O68  1  0.73914800  0.43262500  0.20130200  1
  O  O69  1  0.26085200  0.56737500  0.79869800  1
  O  O70  1  0.23914800  0.56737500  0.29869800  1
  O  O71  1  0.76085200  0.43262500  0.70130200  1
  O  O72  1  0.54269500  0.63491200  0.40455800  1
  O  O73  1  0.45730500  0.36508800  0.59544200  1
  O  O74  1  0.04269500  0.36508800  0.09544200  1
  O  O75  1  0.95730500  0.63491200  0.90455800  1
  O  O76  1  0.00249400  0.58656200  0.22434700  1
  O  O77  1  0.99750600  0.41343800  0.77565300  1
  O  O78  1  0.50249400  0.41343800  0.27565300  1
  O  O79  1  0.49750600  0.58656200  0.72434700  1
  O  O80  1  0.32725900  0.89149700  0.21745400  1
  O  O81  1  0.67274100  0.10850300  0.78254600  1
  O  O82  1  0.82725900  0.10850300  0.28254600  1
  O  O83  1  0.17274100  0.89149700  0.71745400  1
  O  O84  1  0.60968800  0.67977900  0.12486900  1
  O  O85  1  0.39031200  0.32022100  0.87513100  1
  O  O86  1  0.10968800  0.32022100  0.37513100  1
  O  O87  1  0.89031200  0.67977900  0.62486900  1
  O  O88  1  0.96920500  0.98713200  0.20376800  1
  O  O89  1  0.03079500  0.01286800  0.79623200  1
  O  O90  1  0.46920500  0.01286800  0.29623200  1
  O  O91  1  0.53079500  0.98713200  0.70376800  1
  O  O92  1  0.42026200  0.83763300  0.07284700  1
  O  O93  1  0.57973800  0.16236700  0.92715300  1
  O  O94  1  0.92026200  0.16236700  0.42715300  1
  O  O95  1  0.07973800  0.83763300  0.57284700  1
  O  O96  1  0.51682200  0.19445700  0.07774200  1
  O  O97  1  0.48317800  0.80554300  0.92225800  1
  O  O98  1  0.01682200  0.80554300  0.42225800  1
  O  O99  1  0.98317800  0.19445700  0.57774200  1
  O  O100  1  0.74038400  0.62954400  0.37279100  1
  O  O101  1  0.25961600  0.37045600  0.62720900  1
  O  O102  1  0.24038400  0.37045600  0.12720900  1
  O  O103  1  0.75961600  0.62954400  0.87279100  1
  O  O104  1  0.26257900  0.83365800  0.40810600  1
  O  O105  1  0.73742100  0.16634200  0.59189400  1
  O  O106  1  0.76257900  0.16634200  0.09189400  1
  O  O107  1  0.23742100  0.83365800  0.90810600  1
