# generated using pymatgen
data_GdWO5
_symmetry_space_group_name_H-M   'P 1'
_cell_length_a   5.32577831
_cell_length_b   6.67845337
_cell_length_c   12.89241000
_cell_angle_alpha   90.00000000
_cell_angle_beta   90.00000000
_cell_angle_gamma   109.21230278
_symmetry_Int_Tables_number   1
_chemical_formula_structural   GdWO5
_chemical_formula_sum   'Gd4 W4 O20'
_cell_volume   433.01776860
_cell_formula_units_Z   4
loop_
 _symmetry_equiv_pos_site_id
 _symmetry_equiv_pos_as_xyz
  1  'x, y, z'
loop_
 _atom_site_type_symbol
 _atom_site_label
 _atom_site_symmetry_multiplicity
 _atom_site_fract_x
 _atom_site_fract_y
 _atom_site_fract_z
 _atom_site_occupancy
  Gd  Gd0  1  0.15020800  0.78492300  0.44344600  1
  Gd  Gd1  1  0.84979200  0.21507700  0.55655400  1
  Gd  Gd2  1  0.34979200  0.71507700  0.94344600  1
  Gd  Gd3  1  0.65020800  0.28492300  0.05655400  1
  W  W4  1  0.95608300  0.84591400  0.13927900  1
  W  W5  1  0.04391700  0.15408600  0.86072100  1
  W  W6  1  0.54391700  0.65408600  0.63927900  1
  W  W7  1  0.45608300  0.34591400  0.36072100  1
  O  O8  1  0.04300900  0.56953000  0.09140800  1
  O  O9  1  0.95699100  0.43047000  0.90859200  1
  O  O10  1  0.45699100  0.93047000  0.59140800  1
  O  O11  1  0.54300900  0.06953000  0.40859200  1
  O  O12  1  0.85049700  0.84201000  0.57091200  1
  O  O13  1  0.14950300  0.15799000  0.42908800  1
  O  O14  1  0.64950300  0.65799000  0.07091200  1
  O  O15  1  0.35049700  0.34201000  0.92908800  1
  O  O16  1  0.26970400  0.97329400  0.06545600  1
  O  O17  1  0.73029600  0.02670600  0.93454400  1
  O  O18  1  0.23029600  0.52670600  0.56545600  1
  O  O19  1  0.76970400  0.47329400  0.43454400  1
  O  O20  1  0.99908900  0.79357100  0.27413100  1
  O  O21  1  0.00091100  0.20642900  0.72586900  1
  O  O22  1  0.50091100  0.70642900  0.77413100  1
  O  O23  1  0.49908900  0.29357100  0.22586900  1
  O  O24  1  0.15863500  0.92678600  0.85163600  1
  O  O25  1  0.84136500  0.07321400  0.14836400  1
  O  O26  1  0.34136500  0.57321400  0.35163600  1
  O  O27  1  0.65863500  0.42678600  0.64836400  1
