# generated using pymatgen
data_K2B2(SO4)3
_symmetry_space_group_name_H-M   'P 1'
_cell_length_a   10.66709100
_cell_length_b   10.66709100
_cell_length_c   10.66709100
_cell_angle_alpha   90.00000000
_cell_angle_beta   90.00000000
_cell_angle_gamma   90.00000000
_symmetry_Int_Tables_number   1
_chemical_formula_structural   K2B2(SO4)3
_chemical_formula_sum   'K8 B8 S12 O48'
_cell_volume   1213.77447450
_cell_formula_units_Z   4
loop_
 _symmetry_equiv_pos_site_id
 _symmetry_equiv_pos_as_xyz
  1  'x, y, z'
loop_
 _atom_site_type_symbol
 _atom_site_label
 _atom_site_symmetry_multiplicity
 _atom_site_fract_x
 _atom_site_fract_y
 _atom_site_fract_z
 _atom_site_occupancy
  K  K0  1  0.81774300  0.81774300  0.81774300  1
  K  K1  1  0.68225700  0.18225700  0.31774300  1
  K  K2  1  0.18225700  0.31774300  0.68225700  1
  K  K3  1  0.31774300  0.68225700  0.18225700  1
  K  K4  1  0.04902700  0.04902700  0.04902700  1
  K  K5  1  0.45097300  0.95097300  0.54902700  1
  K  K6  1  0.95097300  0.54902700  0.45097300  1
  K  K7  1  0.54902700  0.45097300  0.95097300  1
  B  B8  1  0.51735200  0.51735200  0.51735200  1
  B  B9  1  0.98264800  0.48264800  0.01735200  1
  B  B10  1  0.48264800  0.01735200  0.98264800  1
  B  B11  1  0.01735200  0.98264800  0.48264800  1
  B  B12  1  0.27733000  0.27733000  0.27733000  1
  B  B13  1  0.22267000  0.72267000  0.77733000  1
  B  B14  1  0.72267000  0.77733000  0.22267000  1
  B  B15  1  0.77733000  0.22267000  0.72267000  1
  S  S16  1  0.04493600  0.20893900  0.37153700  1
  S  S17  1  0.45506400  0.79106100  0.87153700  1
  S  S18  1  0.95506400  0.70893900  0.12846300  1
  S  S19  1  0.37153700  0.04493600  0.20893900  1
  S  S20  1  0.54493600  0.29106100  0.62846300  1
  S  S21  1  0.87153700  0.45506400  0.79106100  1
  S  S22  1  0.12846300  0.95506400  0.70893900  1
  S  S23  1  0.62846300  0.54493600  0.29106100  1
  S  S24  1  0.20893900  0.37153700  0.04493600  1
  S  S25  1  0.70893900  0.12846300  0.95506400  1
  S  S26  1  0.29106100  0.62846300  0.54493600  1
  S  S27  1  0.79106100  0.87153700  0.45506400  1
  O  O28  1  0.22456100  0.52148100  0.49017600  1
  O  O29  1  0.27543900  0.47851900  0.99017600  1
  O  O30  1  0.77543900  0.02148100  0.00982400  1
  O  O31  1  0.49017600  0.22456100  0.52148100  1
  O  O32  1  0.72456100  0.97851900  0.50982400  1
  O  O33  1  0.99017600  0.27543900  0.47851900  1
  O  O34  1  0.00982400  0.77543900  0.02148100  1
  O  O35  1  0.50982400  0.72456100  0.97851900  1
  O  O36  1  0.52148100  0.49017600  0.22456100  1
  O  O37  1  0.02148100  0.00982400  0.77543900  1
  O  O38  1  0.97851900  0.50982400  0.72456100  1
  O  O39  1  0.47851900  0.99017600  0.27543900  1
  O  O40  1  0.98220700  0.05321500  0.37968900  1
  O  O41  1  0.51779300  0.94678500  0.87968900  1
  O  O42  1  0.01779300  0.55321500  0.12031100  1
  O  O43  1  0.37968900  0.98220700  0.05321500  1
  O  O44  1  0.48220700  0.44678500  0.62031100  1
  O  O45  1  0.87968900  0.51779300  0.94678500  1
  O  O46  1  0.12031100  0.01779300  0.55321500  1
  O  O47  1  0.62031100  0.48220700  0.44678500  1
  O  O48  1  0.05321500  0.37968900  0.98220700  1
  O  O49  1  0.55321500  0.12031100  0.01779300  1
  O  O50  1  0.44678500  0.62031100  0.48220700  1
  O  O51  1  0.94678500  0.87968900  0.51779300  1
  O  O52  1  0.20407600  0.24924100  0.38187000  1
  O  O53  1  0.29592400  0.75075900  0.88187000  1
  O  O54  1  0.79592400  0.74924100  0.11813000  1
  O  O55  1  0.38187000  0.20407600  0.24924100  1
  O  O56  1  0.70407600  0.25075900  0.61813000  1
  O  O57  1  0.88187000  0.29592400  0.75075900  1
  O  O58  1  0.11813000  0.79592400  0.74924100  1
  O  O59  1  0.61813000  0.70407600  0.25075900  1
  O  O60  1  0.24924100  0.38187000  0.20407600  1
  O  O61  1  0.74924100  0.11813000  0.79592400  1
  O  O62  1  0.25075900  0.61813000  0.70407600  1
  O  O63  1  0.75075900  0.88187000  0.29592400  1
  O  O64  1  0.00100900  0.74339900  0.25259700  1
  O  O65  1  0.49899100  0.25660100  0.75259700  1
  O  O66  1  0.99899100  0.24339900  0.24740300  1
  O  O67  1  0.25259700  0.00100900  0.74339900  1
  O  O68  1  0.50100900  0.75660100  0.74740300  1
  O  O69  1  0.75259700  0.49899100  0.25660100  1
  O  O70  1  0.24740300  0.99899100  0.24339900  1
  O  O71  1  0.74740300  0.50100900  0.75660100  1
  O  O72  1  0.74339900  0.25259700  0.00100900  1
  O  O73  1  0.24339900  0.24740300  0.99899100  1
  O  O74  1  0.75660100  0.74740300  0.50100900  1
  O  O75  1  0.25660100  0.75259700  0.49899100  1
