# generated using pymatgen
data_H9C2N5Cl2
_symmetry_space_group_name_H-M   'P 1'
_cell_length_a   6.60999354
_cell_length_b   7.02973259
_cell_length_c   17.15365900
_cell_angle_alpha   90.00000000
_cell_angle_beta   90.00000000
_cell_angle_gamma   101.79152294
_symmetry_Int_Tables_number   1
_chemical_formula_structural   H9C2N5Cl2
_chemical_formula_sum   'H36 C8 N20 Cl8'
_cell_volume   780.25020456
_cell_formula_units_Z   4
loop_
 _symmetry_equiv_pos_site_id
 _symmetry_equiv_pos_as_xyz
  1  'x, y, z'
loop_
 _atom_site_type_symbol
 _atom_site_label
 _atom_site_symmetry_multiplicity
 _atom_site_fract_x
 _atom_site_fract_y
 _atom_site_fract_z
 _atom_site_occupancy
  H  H0  1  0.55116700  0.64091900  0.78619900  1
  H  H1  1  0.44883300  0.35908100  0.21380100  1
  H  H2  1  0.44883300  0.85908100  0.28619900  1
  H  H3  1  0.55116700  0.14091900  0.71380100  1
  H  H4  1  0.47583300  0.69070700  0.50834000  1
  H  H5  1  0.52416700  0.30929300  0.49166000  1
  H  H6  1  0.52416700  0.80929300  0.00834000  1
  H  H7  1  0.47583300  0.19070700  0.99166000  1
  H  H8  1  0.78582300  0.76088000  0.69966700  1
  H  H9  1  0.21417700  0.23912000  0.30033300  1
  H  H10  1  0.21417700  0.73912000  0.19966700  1
  H  H11  1  0.78582300  0.26088000  0.80033300  1
  H  H12  1  0.70850300  0.94606600  0.94603200  1
  H  H13  1  0.29149700  0.05393400  0.05396800  1
  H  H14  1  0.29149700  0.55393400  0.44603200  1
  H  H15  1  0.70850300  0.44606600  0.55396800  1
  H  H16  1  0.97342400  0.76245500  0.92877400  1
  H  H17  1  0.02657600  0.23754500  0.07122600  1
  H  H18  1  0.02657600  0.73754500  0.42877400  1
  H  H19  1  0.97342400  0.26245500  0.57122600  1
  H  H20  1  0.95276900  0.69258600  0.22439100  1
  H  H21  1  0.04723100  0.30741400  0.77560900  1
  H  H22  1  0.04723100  0.80741400  0.72439100  1
  H  H23  1  0.95276900  0.19258600  0.27560900  1
  H  H24  1  0.72545300  0.93771900  0.45734400  1
  H  H25  1  0.27454700  0.06228100  0.54265600  1
  H  H26  1  0.27454700  0.56228100  0.95734400  1
  H  H27  1  0.72545300  0.43771900  0.04265600  1
  H  H28  1  0.86491100  0.60963400  0.35652500  1
  H  H29  1  0.13508900  0.39036600  0.64347500  1
  H  H30  1  0.13508900  0.89036600  0.85652500  1
  H  H31  1  0.86491100  0.10963400  0.14347500  1
  H  H32  1  0.34762100  0.92564600  0.62230500  1
  H  H33  1  0.65237900  0.07435400  0.37769500  1
  H  H34  1  0.65237900  0.57435400  0.12230500  1
  H  H35  1  0.34762100  0.42564600  0.87769500  1
  C  C36  1  0.54550900  0.68180800  0.90422500  1
  C  C37  1  0.45449100  0.31819200  0.09577500  1
  C  C38  1  0.45449100  0.81819200  0.40422500  1
  C  C39  1  0.54550900  0.18180800  0.59577500  1
  C  C40  1  0.85103100  0.75993700  0.81728100  1
  C  C41  1  0.14896900  0.24006300  0.18271900  1
  C  C42  1  0.14896900  0.74006300  0.31728100  1
  C  C43  1  0.85103100  0.25993700  0.68271900  1
  N  N44  1  0.64901400  0.67992000  0.83443500  1
  N  N45  1  0.35098600  0.32008000  0.16556500  1
  N  N46  1  0.35098600  0.82008000  0.33443500  1
  N  N47  1  0.64901400  0.17992000  0.66556500  1
  N  N48  1  0.61072800  0.81465600  0.95847600  1
  N  N49  1  0.38927200  0.18534400  0.04152400  1
  N  N50  1  0.38927200  0.68534400  0.45847600  1
  N  N51  1  0.61072800  0.31465600  0.54152400  1
  N  N52  1  0.62437200  0.95397900  0.41307600  1
  N  N53  1  0.37562800  0.04602100  0.58692400  1
  N  N54  1  0.37562800  0.54602100  0.91307600  1
  N  N55  1  0.62437200  0.45397900  0.08692400  1
  N  N56  1  0.89699700  0.78968900  0.74184000  1
  N  N57  1  0.10300300  0.21031100  0.25816000  1
  N  N58  1  0.10300300  0.71031100  0.24184000  1
  N  N59  1  0.89699700  0.28968900  0.75816000  1
  N  N60  1  0.99523300  0.80237200  0.87139200  1
  N  N61  1  0.00476700  0.19762800  0.12860800  1
  N  N62  1  0.00476700  0.69762800  0.37139200  1
  N  N63  1  0.99523300  0.30237200  0.62860800  1
  Cl  Cl64  1  0.36599800  0.63173100  0.69077100  1
  Cl  Cl65  1  0.63400200  0.36826900  0.30922900  1
  Cl  Cl66  1  0.63400200  0.86826900  0.19077100  1
  Cl  Cl67  1  0.36599800  0.13173100  0.80922900  1
  Cl  Cl68  1  0.84007400  0.75665100  0.54575000  1
  Cl  Cl69  1  0.15992600  0.24334900  0.45425000  1
  Cl  Cl70  1  0.15992600  0.74334900  0.04575000  1
  Cl  Cl71  1  0.84007400  0.25665100  0.95425000  1
