# generated using pymatgen
data_InPO6
_symmetry_space_group_name_H-M   'P 1'
_cell_length_a   9.14665500
_cell_length_b   5.36244800
_cell_length_c   10.54728947
_cell_angle_alpha   66.77842220
_cell_angle_beta   90.00000000
_cell_angle_gamma   90.00000000
_symmetry_Int_Tables_number   1
_chemical_formula_structural   InPO6
_chemical_formula_sum   'In4 P4 O24'
_cell_volume   475.41796066
_cell_formula_units_Z   4
loop_
 _symmetry_equiv_pos_site_id
 _symmetry_equiv_pos_as_xyz
  1  'x, y, z'
loop_
 _atom_site_type_symbol
 _atom_site_label
 _atom_site_symmetry_multiplicity
 _atom_site_fract_x
 _atom_site_fract_y
 _atom_site_fract_z
 _atom_site_occupancy
  In  In0  1  0.81628700  0.88960600  0.67674900  1
  In  In1  1  0.18371300  0.11039400  0.32325100  1
  In  In2  1  0.31628700  0.11039400  0.82325100  1
  In  In3  1  0.68371300  0.88960600  0.17674900  1
  P  P4  1  0.14172900  0.72959500  0.64614300  1
  P  P5  1  0.85827100  0.27040500  0.35385700  1
  P  P6  1  0.64172900  0.27040500  0.85385700  1
  P  P7  1  0.35827100  0.72959500  0.14614300  1
  O  O8  1  0.20458700  0.47776600  0.75943600  1
  O  O9  1  0.79541300  0.52223400  0.24056400  1
  O  O10  1  0.70458700  0.52223400  0.74056400  1
  O  O11  1  0.29541300  0.47776600  0.25943600  1
  O  O12  1  0.98597000  0.70216600  0.60422300  1
  O  O13  1  0.01403000  0.29783400  0.39577700  1
  O  O14  1  0.48597000  0.29783400  0.89577700  1
  O  O15  1  0.51403000  0.70216600  0.10422300  1
  O  O16  1  0.13556900  0.96965000  0.71314700  1
  O  O17  1  0.86443100  0.03035000  0.28685300  1
  O  O18  1  0.63556900  0.03035000  0.78685300  1
  O  O19  1  0.36443100  0.96965000  0.21314700  1
  O  O20  1  0.24821500  0.86240400  0.52544600  1
  O  O21  1  0.75178500  0.13759600  0.47455400  1
  O  O22  1  0.74821500  0.13759600  0.97455400  1
  O  O23  1  0.25178500  0.86240400  0.02544600  1
  O  O24  1  0.49288200  0.98186200  0.73193300  1
  O  O25  1  0.50711800  0.01813800  0.26806700  1
  O  O26  1  0.99288200  0.01813800  0.76806700  1
  O  O27  1  0.00711800  0.98186200  0.23193300  1
  O  O28  1  0.43877700  0.49114000  0.52584500  1
  O  O29  1  0.56122300  0.50886000  0.47415500  1
  O  O30  1  0.93877700  0.50886000  0.97415500  1
  O  O31  1  0.06122300  0.49114000  0.02584500  1
