# generated using pymatgen
data_La15Ge9O
_symmetry_space_group_name_H-M   'P 1'
_cell_length_a   15.55092739
_cell_length_b   15.55092739
_cell_length_c   6.89542400
_cell_angle_alpha   90.00000000
_cell_angle_beta   90.00000000
_cell_angle_gamma   119.99999742
_symmetry_Int_Tables_number   1
_chemical_formula_structural   La15Ge9O
_chemical_formula_sum   'La30 Ge18 O2'
_cell_volume   1444.12307174
_cell_formula_units_Z   2
loop_
 _symmetry_equiv_pos_site_id
 _symmetry_equiv_pos_as_xyz
  1  'x, y, z'
loop_
 _atom_site_type_symbol
 _atom_site_label
 _atom_site_symmetry_multiplicity
 _atom_site_fract_x
 _atom_site_fract_y
 _atom_site_fract_z
 _atom_site_occupancy
  La  La0  1  0.34314600  0.01835100  0.51786100  1
  La  La1  1  0.98164900  0.32479500  0.51786100  1
  La  La2  1  0.65685400  0.98164900  0.01786100  1
  La  La3  1  0.98164900  0.65685400  0.51786100  1
  La  La4  1  0.67520500  0.65685400  0.51786100  1
  La  La5  1  0.01835100  0.67520500  0.01786100  1
  La  La6  1  0.67520500  0.01835100  0.51786100  1
  La  La7  1  0.01835100  0.34314600  0.01786100  1
  La  La8  1  0.32479500  0.34314600  0.01786100  1
  La  La9  1  0.32479500  0.98164900  0.01786100  1
  La  La10  1  0.34314600  0.32479500  0.51786100  1
  La  La11  1  0.65685400  0.67520500  0.01786100  1
  La  La12  1  0.58613600  0.41386400  0.78081500  1
  La  La13  1  0.58613600  0.17227200  0.78081500  1
  La  La14  1  0.41386400  0.58613600  0.28081500  1
  La  La15  1  0.82772800  0.41386400  0.78081500  1
  La  La16  1  0.41386400  0.82772800  0.28081500  1
  La  La17  1  0.17227200  0.58613600  0.28081500  1
  La  La18  1  0.91750600  0.08249400  0.79571400  1
  La  La19  1  0.91750600  0.83501300  0.79571400  1
  La  La20  1  0.08249400  0.91750600  0.29571400  1
  La  La21  1  0.16498700  0.08249400  0.79571400  1
  La  La22  1  0.08249400  0.16498700  0.29571400  1
  La  La23  1  0.83501300  0.91750600  0.29571400  1
  La  La24  1  0.25389200  0.74610800  0.73051100  1
  La  La25  1  0.25389200  0.50778400  0.73051100  1
  La  La26  1  0.74610800  0.25389200  0.23051100  1
  La  La27  1  0.49221600  0.74610800  0.73051100  1
  La  La28  1  0.74610800  0.49221600  0.23051100  1
  La  La29  1  0.50778400  0.25389200  0.23051100  1
  Ge  Ge30  1  0.13205900  0.86794100  0.73892000  1
  Ge  Ge31  1  0.13205900  0.26411700  0.73892000  1
  Ge  Ge32  1  0.86794100  0.13205900  0.23892000  1
  Ge  Ge33  1  0.73588300  0.86794100  0.73892000  1
  Ge  Ge34  1  0.86794100  0.73588300  0.23892000  1
  Ge  Ge35  1  0.26411700  0.13205900  0.23892000  1
  Ge  Ge36  1  0.79995000  0.20005000  0.80557500  1
  Ge  Ge37  1  0.79995000  0.59989900  0.80557500  1
  Ge  Ge38  1  0.20005000  0.79995000  0.30557500  1
  Ge  Ge39  1  0.40010100  0.20005000  0.80557500  1
  Ge  Ge40  1  0.20005000  0.40010100  0.30557500  1
  Ge  Ge41  1  0.59989900  0.79995000  0.30557500  1
  Ge  Ge42  1  0.46680500  0.53319500  0.75220100  1
  Ge  Ge43  1  0.46680500  0.93361000  0.75220100  1
  Ge  Ge44  1  0.53319500  0.46680500  0.25220100  1
  Ge  Ge45  1  0.06639000  0.53319500  0.75220100  1
  Ge  Ge46  1  0.53319500  0.06639000  0.25220100  1
  Ge  Ge47  1  0.93361000  0.46680500  0.25220100  1
  O  O48  1  0.33333300  0.66666700  0.50586500  1
  O  O49  1  0.66666700  0.33333300  0.00586500  1
