# generated using pymatgen
data_K2Pd3Se2
_symmetry_space_group_name_H-M   'P 1'
_cell_length_a   10.32789000
_cell_length_b   6.87641833
_cell_length_c   19.79310322
_cell_angle_alpha   78.70130970
_cell_angle_beta   74.87675513
_cell_angle_gamma   41.32601821
_symmetry_Int_Tables_number   1
_chemical_formula_structural   K2Pd3Se2
_chemical_formula_sum   'K8 Pd12 Se8'
_cell_volume   896.08577992
_cell_formula_units_Z   4
loop_
 _symmetry_equiv_pos_site_id
 _symmetry_equiv_pos_as_xyz
  1  'x, y, z'
loop_
 _atom_site_type_symbol
 _atom_site_label
 _atom_site_symmetry_multiplicity
 _atom_site_fract_x
 _atom_site_fract_y
 _atom_site_fract_z
 _atom_site_occupancy
  K  K0  1  0.68583200  0.02918500  0.11153900  1
  K  K1  1  0.20262900  0.97081500  0.11153900  1
  K  K2  1  0.28498400  0.02918500  0.88846100  1
  K  K3  1  0.06416800  0.47081500  0.38846100  1
  K  K4  1  0.82655500  0.97081500  0.88846100  1
  K  K5  1  0.54737100  0.52918500  0.38846100  1
  K  K6  1  0.46501600  0.47081500  0.61153900  1
  K  K7  1  0.92344500  0.52918500  0.61153900  1
  Pd  Pd8  1  0.66651700  0.14209600  0.74887200  1
  Pd  Pd9  1  0.58461200  0.85790400  0.74887200  1
  Pd  Pd10  1  0.19138700  0.14209600  0.25112800  1
  Pd  Pd11  1  0.08348300  0.35790400  0.75112800  1
  Pd  Pd12  1  0.55748400  0.85790400  0.25112800  1
  Pd  Pd13  1  0.16538800  0.64209600  0.75112800  1
  Pd  Pd14  1  0.55861300  0.35790400  0.24887200  1
  Pd  Pd15  1  0.19251600  0.64209600  0.24887200  1
  Pd  Pd16  1  0.87500000  0.25000000  0.25000000  1
  Pd  Pd17  1  0.87500000  0.75000000  0.25000000  1
  Pd  Pd18  1  0.87500000  0.25000000  0.75000000  1
  Pd  Pd19  1  0.37500000  0.75000000  0.75000000  1
  Se  Se20  1  0.66189100  0.54251300  0.15789400  1
  Se  Se21  1  0.18021500  0.45748700  0.15789400  1
  Se  Se22  1  0.79559600  0.54251300  0.84210600  1
  Se  Se23  1  0.08810900  0.95748700  0.34210600  1
  Se  Se24  1  0.36229700  0.45748700  0.84210600  1
  Se  Se25  1  0.56978500  0.04251300  0.34210600  1
  Se  Se26  1  0.95440400  0.95748700  0.65789400  1
  Se  Se27  1  0.38770300  0.04251300  0.65789400  1
