# generated using pymatgen
data_FeAs2Pb2O9
_symmetry_space_group_name_H-M   'P 1'
_cell_length_a   6.01419800
_cell_length_b   8.10518200
_cell_length_c   9.03406157
_cell_angle_alpha   66.67624640
_cell_angle_beta   90.00000000
_cell_angle_gamma   90.00000000
_symmetry_Int_Tables_number   1
_chemical_formula_structural   FeAs2Pb2O9
_chemical_formula_sum   'Fe2 As4 Pb4 O18'
_cell_volume   404.38939807
_cell_formula_units_Z   2
loop_
 _symmetry_equiv_pos_site_id
 _symmetry_equiv_pos_as_xyz
  1  'x, y, z'
loop_
 _atom_site_type_symbol
 _atom_site_label
 _atom_site_symmetry_multiplicity
 _atom_site_fract_x
 _atom_site_fract_y
 _atom_site_fract_z
 _atom_site_occupancy
  Fe  Fe0  1  0.50000000  0.00000000  0.00000000  1
  Fe  Fe1  1  0.00000000  0.00000000  0.00000000  1
  As  As2  1  0.25000000  0.97265300  0.33745000  1
  As  As3  1  0.75000000  0.02734700  0.66255000  1
  As  As4  1  0.25000000  0.56767000  0.17199900  1
  As  As5  1  0.75000000  0.43233000  0.82800100  1
  Pb  Pb6  1  0.25000000  0.69505400  0.75362600  1
  Pb  Pb7  1  0.75000000  0.30494600  0.24637400  1
  Pb  Pb8  1  0.25000000  0.29510900  0.61377200  1
  Pb  Pb9  1  0.75000000  0.70489100  0.38622800  1
  O  O10  1  0.25000000  0.74852600  0.46011900  1
  O  O11  1  0.75000000  0.25147400  0.53988100  1
  O  O12  1  0.25000000  0.47282300  0.03459800  1
  O  O13  1  0.75000000  0.52717700  0.96540200  1
  O  O14  1  0.25000000  0.80403300  0.06874600  1
  O  O15  1  0.75000000  0.19596700  0.93125400  1
  O  O16  1  0.25000000  0.15131900  0.92570200  1
  O  O17  1  0.75000000  0.84868100  0.07429800  1
  O  O18  1  0.25000000  0.11249900  0.43457700  1
  O  O19  1  0.75000000  0.88750100  0.56542300  1
  O  O20  1  0.48259100  0.50729100  0.29394400  1
  O  O21  1  0.51740900  0.49270900  0.70605600  1
  O  O22  1  0.98259100  0.49270900  0.70605600  1
  O  O23  1  0.01740900  0.50729100  0.29394400  1
  O  O24  1  0.99041100  0.99001600  0.78181700  1
  O  O25  1  0.00958900  0.00998400  0.21818300  1
  O  O26  1  0.49041100  0.00998400  0.21818300  1
  O  O27  1  0.50958900  0.99001600  0.78181700  1
