# generated using pymatgen
data_K7Bi2P6(W2O17)2
_symmetry_space_group_name_H-M   'P 1'
_cell_length_a   9.60349000
_cell_length_b   9.85677011
_cell_length_c   18.02163969
_cell_angle_alpha   89.98262388
_cell_angle_beta   103.18908315
_cell_angle_gamma   90.32349762
_symmetry_Int_Tables_number   1
_chemical_formula_structural   K7Bi2P6(W2O17)2
_chemical_formula_sum   'K14 Bi4 P12 W8 O68'
_cell_volume   1660.89213434
_cell_formula_units_Z   2
loop_
 _symmetry_equiv_pos_site_id
 _symmetry_equiv_pos_as_xyz
  1  'x, y, z'
loop_
 _atom_site_type_symbol
 _atom_site_label
 _atom_site_symmetry_multiplicity
 _atom_site_fract_x
 _atom_site_fract_y
 _atom_site_fract_z
 _atom_site_occupancy
  K  K0  1  0.17169200  0.17005700  0.50652100  1
  K  K1  1  0.82830800  0.82994300  0.49347900  1
  K  K2  1  0.60525600  0.01425000  0.72191000  1
  K  K3  1  0.39474400  0.98575000  0.27809000  1
  K  K4  1  0.66805400  0.33137300  0.49664600  1
  K  K5  1  0.33194600  0.66862700  0.50335400  1
  K  K6  1  0.11032900  0.50654400  0.71860800  1
  K  K7  1  0.88967100  0.49345600  0.28139200  1
  K  K8  1  0.00000000  0.50000000  0.50000000  1
  K  K9  1  0.98848700  0.87381500  0.10198800  1
  K  K10  1  0.01151300  0.12618500  0.89801200  1
  K  K11  1  0.49474800  0.67637900  0.09309000  1
  K  K12  1  0.50525200  0.32362100  0.90691000  1
  K  K13  1  0.50000000  0.00000000  0.50000000  1
  Bi  Bi14  1  0.63192400  0.11418600  0.11296600  1
  Bi  Bi15  1  0.36807600  0.88581400  0.88703400  1
  Bi  Bi16  1  0.17971000  0.35243800  0.11006000  1
  Bi  Bi17  1  0.82029000  0.64756200  0.88994000  1
  P  P18  1  0.03961900  0.15416200  0.24657900  1
  P  P19  1  0.96038100  0.84583800  0.75342100  1
  P  P20  1  0.82456600  0.42867800  0.05136900  1
  P  P21  1  0.17543400  0.57132200  0.94863100  1
  P  P22  1  0.21343400  0.63699800  0.23900400  1
  P  P23  1  0.78656600  0.36300200  0.76099600  1
  P  P24  1  0.25728600  0.15885400  0.76116100  1
  P  P25  1  0.74271400  0.84114600  0.23883900  1
  P  P26  1  0.51871100  0.32284900  0.23947400  1
  P  P27  1  0.48128900  0.67715100  0.76052600  1
  P  P28  1  0.32620400  0.06914300  0.03980100  1
  P  P29  1  0.67379600  0.93085700  0.96019900  1
  W  W30  1  0.79130200  0.12751900  0.35160200  1
  W  W31  1  0.20869800  0.87248100  0.64839800  1
  W  W32  1  0.08174900  0.86959500  0.35432800  1
  W  W33  1  0.91825100  0.13040500  0.64567200  1
  W  W34  1  0.29405500  0.36714900  0.36064600  1
  W  W35  1  0.70594500  0.63285100  0.63935400  1
  W  W36  1  0.43617400  0.36920400  0.66696100  1
  W  W37  1  0.56382600  0.63079600  0.33303900  1
  O  O38  1  0.12795600  0.65149800  0.15764100  1
  O  O39  1  0.87204400  0.34850200  0.84235900  1
  O  O40  1  0.47846300  0.21812700  0.62217800  1
  O  O41  1  0.52153700  0.78187300  0.37782200  1
  O  O42  1  0.37290700  0.30805000  0.26247800  1
  O  O43  1  0.62709300  0.69195000  0.73752200  1
  O  O44  1  0.71743600  0.31785300  0.06461700  1
  O  O45  1  0.28256400  0.68214700  0.93538300  1
  O  O46  1  0.96402300  0.36716600  0.03592400  1
  O  O47  1  0.03597700  0.63283400  0.96407600  1
  O  O48  1  0.35867700  0.28107300  0.75178500  1
  O  O49  1  0.64132300  0.71892700  0.24821500  1
  O  O50  1  0.39898000  0.23953700  0.41850400  1
  O  O51  1  0.60102000  0.76046300  0.58149600  1
  O  O52  1  0.26478900  0.40557200  0.60660600  1
  O  O53  1  0.73521100  0.59442800  0.39339400  1
  O  O54  1  0.88081400  0.16989800  0.25127800  1
  O  O55  1  0.11918600  0.83010200  0.74872200  1
  O  O56  1  0.49170900  0.30148700  0.15322800  1
  O  O57  1  0.50829100  0.69851300  0.84677200  1
  O  O58  1  0.30247700  0.03875500  0.71705700  1
  O  O59  1  0.69752300  0.96124500  0.28294300  1
  O  O60  1  0.95493300  0.00766300  0.38303100  1
  O  O61  1  0.04506700  0.99233700  0.61696900  1
  O  O62  1  0.61680800  0.20618200  0.28082200  1
  O  O63  1  0.38319200  0.79381800  0.71917800  1
  O  O64  1  0.74351600  0.04054100  0.01898300  1
  O  O65  1  0.25648400  0.95945900  0.98101700  1
  O  O66  1  0.39934600  0.01002800  0.11880100  1
  O  O67  1  0.60065400  0.98997200  0.88119900  1
  O  O68  1  0.69969800  0.07696000  0.42311000  1
  O  O69  1  0.30030200  0.92304000  0.57689000  1
  O  O70  1  0.18207700  0.75203000  0.29359700  1
  O  O71  1  0.81792300  0.24797000  0.70640300  1
  O  O72  1  0.05803800  0.19942800  0.16854800  1
  O  O73  1  0.94196200  0.80057200  0.83145200  1
  O  O74  1  0.08546300  0.00378300  0.25815200  1
  O  O75  1  0.91453700  0.99621700  0.74184800  1
  O  O76  1  0.13357700  0.24076200  0.31289800  1
  O  O77  1  0.86642300  0.75923800  0.68710200  1
  O  O78  1  0.44585700  0.50505400  0.37788400  1
  O  O79  1  0.55414300  0.49494600  0.62211600  1
  O  O80  1  0.59331500  0.45854600  0.26475400  1
  O  O81  1  0.40668500  0.54145400  0.73524600  1
  O  O82  1  0.17794100  0.49928800  0.27295500  1
  O  O83  1  0.82205900  0.50071200  0.72704500  1
  O  O84  1  0.20083000  0.16918700  0.04264800  1
  O  O85  1  0.79917000  0.83081300  0.95735200  1
  O  O86  1  0.25110100  0.48617300  0.01801100  1
  O  O87  1  0.74889900  0.51382700  0.98198900  1
  O  O88  1  0.37578900  0.64805300  0.24148300  1
  O  O89  1  0.62421100  0.35194700  0.75851700  1
  O  O90  1  0.27942200  0.12520300  0.84569900  1
  O  O91  1  0.72057800  0.87479700  0.15430100  1
  O  O92  1  0.19945100  0.43548800  0.42685600  1
  O  O93  1  0.80054900  0.56451200  0.57314400  1
  O  O94  1  0.45026200  0.14408000  0.01183600  1
  O  O95  1  0.54973800  0.85592000  0.98816400  1
  O  O96  1  0.13181100  0.71539900  0.60836700  1
  O  O97  1  0.86818900  0.28460100  0.39163300  1
  O  O98  1  0.75633000  0.05126800  0.59532900  1
  O  O99  1  0.24367000  0.94873200  0.40467100  1
  O  O100  1  0.05573200  0.74399000  0.42199900  1
  O  O101  1  0.94426800  0.25601000  0.57800100  1
  O  O102  1  0.10289500  0.20430300  0.72542300  1
  O  O103  1  0.89710500  0.79569700  0.27457700  1
  O  O104  1  0.14954300  0.49195200  0.87240800  1
  O  O105  1  0.85045700  0.50804800  0.12759200  1
