# generated using pymatgen
data_H11C2N11O3
_symmetry_space_group_name_H-M   'P 1'
_cell_length_a   7.73155114
_cell_length_b   8.48329569
_cell_length_c   9.31500789
_cell_angle_alpha   89.70081102
_cell_angle_beta   73.66626857
_cell_angle_gamma   86.02425436
_symmetry_Int_Tables_number   1
_chemical_formula_structural   H11C2N11O3
_chemical_formula_sum   'H22 C4 N22 O6'
_cell_volume   584.82787213
_cell_formula_units_Z   2
loop_
 _symmetry_equiv_pos_site_id
 _symmetry_equiv_pos_as_xyz
  1  'x, y, z'
loop_
 _atom_site_type_symbol
 _atom_site_label
 _atom_site_symmetry_multiplicity
 _atom_site_fract_x
 _atom_site_fract_y
 _atom_site_fract_z
 _atom_site_occupancy
  H  H0  1  0.50767300  0.77183000  0.00216600  1
  H  H1  1  0.49232700  0.22817000  0.99783400  1
  H  H2  1  0.99807100  0.37111300  0.14101100  1
  H  H3  1  0.00192900  0.62888700  0.85898900  1
  H  H4  1  0.65804100  0.56857100  0.26363000  1
  H  H5  1  0.34195900  0.43142900  0.73637000  1
  H  H6  1  0.27727800  0.82434600  0.30021700  1
  H  H7  1  0.72272200  0.17565400  0.69978300  1
  H  H8  1  0.05567900  0.47139600  0.37024700  1
  H  H9  1  0.94432100  0.52860400  0.62975300  1
  H  H10  1  0.24884400  0.65619800  0.52063000  1
  H  H11  1  0.75115600  0.34380200  0.47937000  1
  H  H12  1  0.28734400  0.58117600  0.99494500  1
  H  H13  1  0.71265600  0.41882400  0.00505500  1
  H  H14  1  0.57541100  0.40372500  0.28808500  1
  H  H15  1  0.42458900  0.59627500  0.71191500  1
  H  H16  1  0.67873000  0.13170400  0.01651800  1
  H  H17  1  0.32127000  0.86829600  0.98348200  1
  H  H18  1  0.17608400  0.27525200  0.17580400  1
  H  H19  1  0.82391600  0.72474800  0.82419600  1
  H  H20  1  0.08099700  0.78972500  0.53999300  1
  H  H21  1  0.91900300  0.21027500  0.46000700  1
  C  C22  1  0.20304100  0.62520200  0.22392000  1
  C  C23  1  0.79695900  0.37479800  0.77608000  1
  C  C24  1  0.27335100  0.12438600  0.59617000  1
  C  C25  1  0.72664900  0.87561400  0.40383000  1
  N  N26  1  0.41049900  0.27406700  0.42886800  1
  N  N27  1  0.58950100  0.72593300  0.57113200  1
  N  N28  1  0.12722800  0.38198600  0.14647400  1
  N  N29  1  0.87277200  0.61801400  0.85352600  1
  N  N30  1  0.36019100  0.25782700  0.57694500  1
  N  N31  1  0.63980900  0.74217300  0.42305500  1
  N  N32  1  0.35432800  0.15420400  0.36303300  1
  N  N33  1  0.64567200  0.84579600  0.63696700  1
  N  N34  1  0.37367800  0.79905400  0.05348200  1
  N  N35  1  0.62632200  0.20094600  0.94651800  1
  N  N36  1  0.12193900  0.49074600  0.26035700  1
  N  N37  1  0.87806100  0.50925400  0.73964300  1
  N  N38  1  0.13870700  0.68770200  0.48295800  1
  N  N39  1  0.86129300  0.31229800  0.51704200  1
  N  N40  1  0.20039200  0.73008000  0.33190400  1
  N  N41  1  0.79960800  0.26992000  0.66809600  1
  N  N42  1  0.19691200  0.05900900  0.74112100  1
  N  N43  1  0.80308800  0.94099100  0.25887900  1
  N  N44  1  0.28422600  0.65860400  0.08121200  1
  N  N45  1  0.71577400  0.34139600  0.91878800  1
  N  N46  1  0.26700900  0.05743500  0.46772400  1
  N  N47  1  0.73299100  0.94256500  0.53227600  1
  O  O48  1  0.20903000  0.13373600  0.85188000  1
  O  O49  1  0.79097000  0.86626400  0.14812000  1
  O  O50  1  0.66531800  0.46403400  0.21582700  1
  O  O51  1  0.33468200  0.53596600  0.78417300  1
  O  O52  1  0.87491500  0.06856000  0.25340400  1
  O  O53  1  0.12508500  0.93144000  0.74659600  1
