# generated using pymatgen
data_GaP2H11O12
_symmetry_space_group_name_H-M   'P 1'
_cell_length_a   7.61984697
_cell_length_b   7.57449400
_cell_length_c   8.58164242
_cell_angle_alpha   90.00000000
_cell_angle_beta   105.95219825
_cell_angle_gamma   90.00000000
_symmetry_Int_Tables_number   1
_chemical_formula_structural   GaP2H11O12
_chemical_formula_sum   'Ga2 P4 H22 O24'
_cell_volume   476.22880468
_cell_formula_units_Z   2
loop_
 _symmetry_equiv_pos_site_id
 _symmetry_equiv_pos_as_xyz
  1  'x, y, z'
loop_
 _atom_site_type_symbol
 _atom_site_label
 _atom_site_symmetry_multiplicity
 _atom_site_fract_x
 _atom_site_fract_y
 _atom_site_fract_z
 _atom_site_occupancy
  Ga  Ga0  1  0.00000000  0.00000000  0.00000000  1
  Ga  Ga1  1  0.00000000  0.50000000  0.50000000  1
  P  P2  1  0.18353700  0.15619200  0.36527800  1
  P  P3  1  0.81646300  0.84380800  0.63472200  1
  P  P4  1  0.81646300  0.65619200  0.13472200  1
  P  P5  1  0.18353700  0.34380800  0.86527800  1
  H  H6  1  0.72377000  0.10631300  0.10908600  1
  H  H7  1  0.27623000  0.89368700  0.89091400  1
  H  H8  1  0.27623000  0.60631300  0.39091400  1
  H  H9  1  0.72377000  0.39368700  0.60908600  1
  H  H10  1  0.81627200  0.27774800  0.04964500  1
  H  H11  1  0.18372800  0.72225200  0.95035500  1
  H  H12  1  0.18372800  0.77774800  0.45035500  1
  H  H13  1  0.81627200  0.22225200  0.54964500  1
  H  H14  1  0.44857800  0.04962300  0.19075500  1
  H  H15  1  0.55142200  0.95037700  0.80924500  1
  H  H16  1  0.55142200  0.54962300  0.30924500  1
  H  H17  1  0.44857800  0.45037700  0.69075500  1
  H  H18  1  0.43101900  0.30727200  0.40069900  1
  H  H19  1  0.56898100  0.69272800  0.59930100  1
  H  H20  1  0.56898100  0.80727200  0.09930100  1
  H  H21  1  0.43101900  0.19272800  0.90069900  1
  H  H22  1  0.37255100  0.48410100  0.18244600  1
  H  H23  1  0.62744900  0.51589900  0.81755400  1
  H  H24  1  0.62744900  0.98410100  0.31755400  1
  H  H25  1  0.37255100  0.01589900  0.68244600  1
  H  H26  1  0.00000000  0.00000000  0.50000000  1
  H  H27  1  0.00000000  0.50000000  0.00000000  1
  O  O28  1  0.18038400  0.09933400  0.19304900  1
  O  O29  1  0.81961600  0.90066600  0.80695100  1
  O  O30  1  0.81961600  0.59933400  0.30695100  1
  O  O31  1  0.18038400  0.40066600  0.69304900  1
  O  O32  1  0.79212800  0.14898500  0.03305500  1
  O  O33  1  0.20787200  0.85101500  0.96694500  1
  O  O34  1  0.20787200  0.64898500  0.46694500  1
  O  O35  1  0.79212800  0.35101500  0.53305500  1
  O  O36  1  0.39158600  0.20204400  0.45348300  1
  O  O37  1  0.60841400  0.79795600  0.54651700  1
  O  O38  1  0.60841400  0.70204400  0.04651700  1
  O  O39  1  0.39158600  0.29795600  0.95348300  1
  O  O40  1  0.14589600  0.00124700  0.47095500  1
  O  O41  1  0.85410400  0.99875300  0.52904500  1
  O  O42  1  0.85410400  0.50124700  0.02904500  1
  O  O43  1  0.14589600  0.49875300  0.97095500  1
  O  O44  1  0.57143400  0.00148400  0.20113000  1
  O  O45  1  0.42856600  0.99851600  0.79887000  1
  O  O46  1  0.42856600  0.50148400  0.29887000  1
  O  O47  1  0.57143400  0.49851600  0.70113000  1
  O  O48  1  0.05771800  0.31318100  0.36396700  1
  O  O49  1  0.94228200  0.68681900  0.63603300  1
  O  O50  1  0.94228200  0.81318100  0.13603300  1
  O  O51  1  0.05771800  0.18681900  0.86396700  1
