# generated using pymatgen
data_H2C2N3
_symmetry_space_group_name_H-M   'P 1'
_cell_length_a   6.64163700
_cell_length_b   7.61738500
_cell_length_c   14.63843900
_cell_angle_alpha   90.00000000
_cell_angle_beta   90.00000000
_cell_angle_gamma   90.00000000
_symmetry_Int_Tables_number   1
_chemical_formula_structural   H2C2N3
_chemical_formula_sum   'H16 C16 N24'
_cell_volume   740.58653074
_cell_formula_units_Z   8
loop_
 _symmetry_equiv_pos_site_id
 _symmetry_equiv_pos_as_xyz
  1  'x, y, z'
loop_
 _atom_site_type_symbol
 _atom_site_label
 _atom_site_symmetry_multiplicity
 _atom_site_fract_x
 _atom_site_fract_y
 _atom_site_fract_z
 _atom_site_occupancy
  H  H0  1  0.00452500  0.25000000  0.53774500  1
  H  H1  1  0.99547500  0.75000000  0.46225500  1
  H  H2  1  0.49547500  0.75000000  0.03774500  1
  H  H3  1  0.50452500  0.25000000  0.96225500  1
  H  H4  1  0.19823500  0.13558900  0.58596600  1
  H  H5  1  0.80176500  0.86441100  0.41403400  1
  H  H6  1  0.30176500  0.86441100  0.08596600  1
  H  H7  1  0.80176500  0.63558900  0.41403400  1
  H  H8  1  0.69823500  0.13558900  0.91403400  1
  H  H9  1  0.19823500  0.36441100  0.58596600  1
  H  H10  1  0.69823500  0.36441100  0.91403400  1
  H  H11  1  0.30176500  0.63558900  0.08596600  1
  H  H12  1  0.03392100  0.25000000  0.65100200  1
  H  H13  1  0.96607900  0.75000000  0.34899800  1
  H  H14  1  0.46607900  0.75000000  0.15100200  1
  H  H15  1  0.53392100  0.25000000  0.84899800  1
  C  C16  1  0.01153600  0.15785000  0.12105600  1
  C  C17  1  0.98846400  0.84215000  0.87894400  1
  C  C18  1  0.48846400  0.84215000  0.62105600  1
  C  C19  1  0.98846400  0.65785000  0.87894400  1
  C  C20  1  0.51153600  0.15785000  0.37894400  1
  C  C21  1  0.01153600  0.34215000  0.12105600  1
  C  C22  1  0.51153600  0.34215000  0.37894400  1
  C  C23  1  0.48846400  0.65785000  0.62105600  1
  C  C24  1  0.36185600  0.04567300  0.34369500  1
  C  C25  1  0.63814400  0.95432700  0.65630500  1
  C  C26  1  0.13814400  0.95432700  0.84369500  1
  C  C27  1  0.63814400  0.54567300  0.65630500  1
  C  C28  1  0.86185600  0.04567300  0.15630500  1
  C  C29  1  0.36185600  0.45432700  0.34369500  1
  C  C30  1  0.86185600  0.45432700  0.15630500  1
  C  C31  1  0.13814400  0.54567300  0.84369500  1
  N  N32  1  0.11177900  0.25000000  0.59015200  1
  N  N33  1  0.88822100  0.75000000  0.40984800  1
  N  N34  1  0.38822100  0.75000000  0.09015200  1
  N  N35  1  0.61177900  0.25000000  0.90984800  1
  N  N36  1  0.18362900  0.10463800  0.07924200  1
  N  N37  1  0.81637100  0.89536200  0.92075800  1
  N  N38  1  0.31637100  0.89536200  0.57924200  1
  N  N39  1  0.81637100  0.60463800  0.92075800  1
  N  N40  1  0.68362900  0.10463800  0.42075800  1
  N  N41  1  0.18362900  0.39536200  0.07924200  1
  N  N42  1  0.68362900  0.39536200  0.42075800  1
  N  N43  1  0.31637100  0.60463800  0.57924200  1
  N  N44  1  0.28289000  0.25000000  0.05496100  1
  N  N45  1  0.71711000  0.75000000  0.94503900  1
  N  N46  1  0.21711000  0.75000000  0.55496100  1
  N  N47  1  0.78289000  0.25000000  0.44503900  1
  N  N48  1  0.23155400  0.54032900  0.31442100  1
  N  N49  1  0.76844600  0.45967100  0.68557900  1
  N  N50  1  0.26844600  0.45967100  0.81442100  1
  N  N51  1  0.76844600  0.04032900  0.68557900  1
  N  N52  1  0.73155400  0.54032900  0.18557900  1
  N  N53  1  0.23155400  0.95967100  0.31442100  1
  N  N54  1  0.73155400  0.95967100  0.18557900  1
  N  N55  1  0.26844600  0.04032900  0.81442100  1
