# generated using pymatgen
data_Ge3NO6
_symmetry_space_group_name_H-M   'P 1'
_cell_length_a   11.99704126
_cell_length_b   11.99704126
_cell_length_c   11.99704126
_cell_angle_alpha   109.47122063
_cell_angle_beta   109.47122063
_cell_angle_gamma   109.47122063
_symmetry_Int_Tables_number   1
_chemical_formula_structural   Ge3NO6
_chemical_formula_sum   'Ge24 N8 O48'
_cell_volume   1329.23132216
_cell_formula_units_Z   8
loop_
 _symmetry_equiv_pos_site_id
 _symmetry_equiv_pos_as_xyz
  1  'x, y, z'
loop_
 _atom_site_type_symbol
 _atom_site_label
 _atom_site_symmetry_multiplicity
 _atom_site_fract_x
 _atom_site_fract_y
 _atom_site_fract_z
 _atom_site_occupancy
  Ge  Ge0  1  0.19998500  0.96658200  0.92639500  1
  Ge  Ge1  1  0.30001500  0.22641000  0.76659700  1
  Ge  Ge2  1  0.95981300  0.53341800  0.73340300  1
  Ge  Ge3  1  0.96658200  0.92639500  0.19998500  1
  Ge  Ge4  1  0.69998500  0.42639500  0.46658200  1
  Ge  Ge5  1  0.54018700  0.27359000  0.57360500  1
  Ge  Ge6  1  0.22641000  0.76659700  0.30001500  1
  Ge  Ge7  1  0.80001500  0.26659700  0.72641000  1
  Ge  Ge8  1  0.53341800  0.73340300  0.95981300  1
  Ge  Ge9  1  0.45981300  0.23340300  0.03341800  1
  Ge  Ge10  1  0.27359000  0.57360500  0.54018700  1
  Ge  Ge11  1  0.04018700  0.07360500  0.77359000  1
  Ge  Ge12  1  0.92639500  0.19998500  0.96658200  1
  Ge  Ge13  1  0.46658200  0.69998500  0.42639500  1
  Ge  Ge14  1  0.73340300  0.95981300  0.53341800  1
  Ge  Ge15  1  0.03341800  0.45981300  0.23340300  1
  Ge  Ge16  1  0.57360500  0.54018700  0.27359000  1
  Ge  Ge17  1  0.77359000  0.04018700  0.07360500  1
  Ge  Ge18  1  0.76659700  0.30001500  0.22641000  1
  Ge  Ge19  1  0.72641000  0.80001500  0.26659700  1
  Ge  Ge20  1  0.42639500  0.46658200  0.69998500  1
  Ge  Ge21  1  0.26659700  0.72641000  0.80001500  1
  Ge  Ge22  1  0.07360500  0.77359000  0.04018700  1
  Ge  Ge23  1  0.23340300  0.03341800  0.45981300  1
  N  N24  1  0.27162500  0.27162500  0.27162500  1
  N  N25  1  0.22837500  0.50000000  0.00000000  1
  N  N26  1  0.00000000  0.22837500  0.50000000  1
  N  N27  1  0.77162500  0.77162500  0.77162500  1
  N  N28  1  0.50000000  0.00000000  0.22837500  1
  N  N29  1  0.72837500  0.50000000  0.00000000  1
  N  N30  1  0.50000000  0.00000000  0.72837500  1
  N  N31  1  0.00000000  0.72837500  0.50000000  1
  O  O32  1  0.98464700  0.09485700  0.89443400  1
  O  O33  1  0.51535300  0.40978700  0.11021000  1
  O  O34  1  0.79957700  0.40514300  0.38979000  1
  O  O35  1  0.09485700  0.89443400  0.98464700  1
  O  O36  1  0.48464700  0.39443400  0.59485700  1
  O  O37  1  0.70042300  0.09021300  0.60556600  1
  O  O38  1  0.40978700  0.11021000  0.51535300  1
  O  O39  1  0.01535300  0.61021000  0.90978700  1
  O  O40  1  0.40514300  0.38979000  0.79957700  1
  O  O41  1  0.29957700  0.88979000  0.90514300  1
  O  O42  1  0.09021300  0.60556600  0.70042300  1
  O  O43  1  0.20042300  0.10556600  0.59021300  1
  O  O44  1  0.89443400  0.98464700  0.09485700  1
  O  O45  1  0.59485700  0.48464700  0.39443400  1
  O  O46  1  0.38979000  0.79957700  0.40514300  1
  O  O47  1  0.90514300  0.29957700  0.88979000  1
  O  O48  1  0.60556600  0.70042300  0.09021300  1
  O  O49  1  0.59021300  0.20042300  0.10556600  1
  O  O50  1  0.11021000  0.51535300  0.40978700  1
  O  O51  1  0.90978700  0.01535300  0.61021000  1
  O  O52  1  0.39443400  0.59485700  0.48464700  1
  O  O53  1  0.61021000  0.90978700  0.01535300  1
  O  O54  1  0.10556600  0.59021300  0.20042300  1
  O  O55  1  0.88979000  0.90514300  0.29957700  1
  O  O56  1  0.31930100  0.14203000  0.04822000  1
  O  O57  1  0.18069900  0.22891900  0.82272900  1
  O  O58  1  0.90619000  0.35797000  0.67727100  1
  O  O59  1  0.14203000  0.04822000  0.31930100  1
  O  O60  1  0.81930100  0.54822000  0.64203000  1
  O  O61  1  0.59381000  0.27108100  0.45178000  1
  O  O62  1  0.22891900  0.82272900  0.18069900  1
  O  O63  1  0.68069900  0.32272900  0.72891900  1
  O  O64  1  0.35797000  0.67727100  0.90619000  1
  O  O65  1  0.40619000  0.17727100  0.85797000  1
  O  O66  1  0.27108100  0.45178000  0.59381000  1
  O  O67  1  0.09381000  0.95178000  0.77108100  1
  O  O68  1  0.04822000  0.31930100  0.14203000  1
  O  O69  1  0.64203000  0.81930100  0.54822000  1
  O  O70  1  0.67727100  0.90619000  0.35797000  1
  O  O71  1  0.85797000  0.40619000  0.17727100  1
  O  O72  1  0.45178000  0.59381000  0.27108100  1
  O  O73  1  0.77108100  0.09381000  0.95178000  1
  O  O74  1  0.82272900  0.18069900  0.22891900  1
  O  O75  1  0.72891900  0.68069900  0.32272900  1
  O  O76  1  0.54822000  0.64203000  0.81930100  1
  O  O77  1  0.32272900  0.72891900  0.68069900  1
  O  O78  1  0.95178000  0.77108100  0.09381000  1
  O  O79  1  0.17727100  0.85797000  0.40619000  1
