# generated using pymatgen
data_EuICl
_symmetry_space_group_name_H-M   'P 1'
_cell_length_a   4.39578700
_cell_length_b   8.40391400
_cell_length_c   10.67812100
_cell_angle_alpha   90.00000000
_cell_angle_beta   90.00000000
_cell_angle_gamma   90.00000000
_symmetry_Int_Tables_number   1
_chemical_formula_structural   EuICl
_chemical_formula_sum   'Eu4 I4 Cl4'
_cell_volume   394.46918025
_cell_formula_units_Z   4
loop_
 _symmetry_equiv_pos_site_id
 _symmetry_equiv_pos_as_xyz
  1  'x, y, z'
loop_
 _atom_site_type_symbol
 _atom_site_label
 _atom_site_symmetry_multiplicity
 _atom_site_fract_x
 _atom_site_fract_y
 _atom_site_fract_z
 _atom_site_occupancy
  Eu  Eu0  1  0.25000000  0.67625900  0.63276700  1
  Eu  Eu1  1  0.75000000  0.32374100  0.36723300  1
  Eu  Eu2  1  0.75000000  0.82374100  0.13276700  1
  Eu  Eu3  1  0.25000000  0.17625900  0.86723300  1
  I  I4  1  0.25000000  0.51178300  0.17969700  1
  I  I5  1  0.75000000  0.48821700  0.82030300  1
  I  I6  1  0.75000000  0.98821700  0.67969700  1
  I  I7  1  0.25000000  0.01178300  0.32030300  1
  Cl  Cl8  1  0.25000000  0.84472000  0.95527600  1
  Cl  Cl9  1  0.75000000  0.15528000  0.04472400  1
  Cl  Cl10  1  0.75000000  0.65528000  0.45527600  1
  Cl  Cl11  1  0.25000000  0.34472000  0.54472400  1
