# generated using pymatgen
data_FePH3CO7
_symmetry_space_group_name_H-M   'P 1'
_cell_length_a   5.11322000
_cell_length_b   7.71844592
_cell_length_c   7.78950753
_cell_angle_alpha   96.67254145
_cell_angle_beta   107.91738729
_cell_angle_gamma   102.36712210
_symmetry_Int_Tables_number   1
_chemical_formula_structural   FePH3CO7
_chemical_formula_sum   'Fe2 P2 H6 C2 O14'
_cell_volume   280.18742372
_cell_formula_units_Z   2
loop_
 _symmetry_equiv_pos_site_id
 _symmetry_equiv_pos_as_xyz
  1  'x, y, z'
loop_
 _atom_site_type_symbol
 _atom_site_label
 _atom_site_symmetry_multiplicity
 _atom_site_fract_x
 _atom_site_fract_y
 _atom_site_fract_z
 _atom_site_occupancy
  Fe  Fe0  1  0.45116600  0.70820900  0.74063800  1
  Fe  Fe1  1  0.54883400  0.29179100  0.25936200  1
  P  P2  1  0.85319800  0.70427600  0.45902200  1
  P  P3  1  0.14680200  0.29572400  0.54097800  1
  H  H4  1  0.74913400  0.96307200  0.39571200  1
  H  H5  1  0.25086600  0.03692800  0.60428800  1
  H  H6  1  0.27455400  0.36367000  0.93421000  1
  H  H7  1  0.72544600  0.63633000  0.06579000  1
  H  H8  1  0.93318100  0.67715600  0.94801700  1
  H  H9  1  0.06681900  0.32284400  0.05198300  1
  C  C10  1  0.62059200  0.05246700  0.97189200  1
  C  C11  1  0.37940800  0.94753300  0.02810800  1
  O  O12  1  0.70435400  0.67627600  0.59722800  1
  O  O13  1  0.29564600  0.32372400  0.40277200  1
  O  O14  1  0.73229900  0.62278900  0.94023400  1
  O  O15  1  0.26770100  0.37721100  0.05976600  1
  O  O16  1  0.26244400  0.78548200  0.94526400  1
  O  O17  1  0.73755600  0.21451800  0.05473600  1
  O  O18  1  0.74171500  0.84075900  0.33395400  1
  O  O19  1  0.25828500  0.15924100  0.66604600  1
  O  O20  1  0.80497900  0.53388100  0.31596700  1
  O  O21  1  0.19502100  0.46611900  0.68403300  1
  O  O22  1  0.68361500  0.96824800  0.84692300  1
  O  O23  1  0.31638500  0.03175200  0.15307700  1
  O  O24  1  0.18126200  0.79549400  0.55461700  1
  O  O25  1  0.81873800  0.20450600  0.44538300  1
