# generated using pymatgen
data_EuAl3(BO3)4
_symmetry_space_group_name_H-M   'P 1'
_cell_length_a   5.96691806
_cell_length_b   5.96691806
_cell_length_c   11.28548110
_cell_angle_alpha   81.50343243
_cell_angle_beta   81.50343243
_cell_angle_gamma   104.10647599
_symmetry_Int_Tables_number   1
_chemical_formula_structural   EuAl3(BO3)4
_chemical_formula_sum   'Eu2 Al6 B8 O24'
_cell_volume   378.27694118
_cell_formula_units_Z   2
loop_
 _symmetry_equiv_pos_site_id
 _symmetry_equiv_pos_as_xyz
  1  'x, y, z'
loop_
 _atom_site_type_symbol
 _atom_site_label
 _atom_site_symmetry_multiplicity
 _atom_site_fract_x
 _atom_site_fract_y
 _atom_site_fract_z
 _atom_site_occupancy
  Eu  Eu0  1  0.96359200  0.03640800  0.75000000  1
  Eu  Eu1  1  0.03640800  0.96359200  0.25000000  1
  Al  Al2  1  0.69492900  0.19444300  0.02834100  1
  Al  Al3  1  0.30507100  0.80555700  0.97165900  1
  Al  Al4  1  0.80555700  0.30507100  0.47165900  1
  Al  Al5  1  0.19444300  0.69492900  0.52834100  1
  Al  Al6  1  0.41167500  0.58832500  0.75000000  1
  Al  Al7  1  0.58832500  0.41167500  0.25000000  1
  B  B8  1  0.49298700  0.12123800  0.72215500  1
  B  B9  1  0.50701300  0.87876200  0.27784500  1
  B  B10  1  0.87876200  0.50701300  0.77784500  1
  B  B11  1  0.12123800  0.49298700  0.22215500  1
  B  B12  1  0.71983500  0.77741100  0.50535500  1
  B  B13  1  0.28016500  0.22258900  0.49464500  1
  B  B14  1  0.22258900  0.28016500  0.99464500  1
  B  B15  1  0.77741100  0.71983500  0.00535500  1
  O  O16  1  0.19464800  0.99671200  0.56123300  1
  O  O17  1  0.80535200  0.00328800  0.43876700  1
  O  O18  1  0.00328800  0.80535200  0.93876700  1
  O  O19  1  0.99671200  0.19464800  0.06123300  1
  O  O20  1  0.42301300  0.89609900  0.79506100  1
  O  O21  1  0.57698700  0.10390100  0.20493900  1
  O  O22  1  0.10390100  0.57698700  0.70493900  1
  O  O23  1  0.89609900  0.42301300  0.29506100  1
  O  O24  1  0.69655700  0.18111900  0.63682200  1
  O  O25  1  0.30344300  0.81888100  0.36317800  1
  O  O26  1  0.81888100  0.30344300  0.86317800  1
  O  O27  1  0.18111900  0.69655700  0.13682200  1
  O  O28  1  0.63058100  0.86927800  0.99722900  1
  O  O29  1  0.36941900  0.13072200  0.00277100  1
  O  O30  1  0.13072200  0.36941900  0.50277100  1
  O  O31  1  0.86927800  0.63058100  0.49722900  1
  O  O32  1  0.35604500  0.27096400  0.74146600  1
  O  O33  1  0.64395500  0.72903600  0.25853400  1
  O  O34  1  0.72903600  0.64395500  0.75853400  1
  O  O35  1  0.27096400  0.35604500  0.24146600  1
  O  O36  1  0.49305400  0.69745000  0.57400100  1
  O  O37  1  0.50694600  0.30255000  0.42599900  1
  O  O38  1  0.30255000  0.50694600  0.92599900  1
  O  O39  1  0.69745000  0.49305400  0.07400100  1
