# generated using pymatgen
data_Fe(CuC6)2
_symmetry_space_group_name_H-M   'P 1'
_cell_length_a   7.09035768
_cell_length_b   7.09035768
_cell_length_c   7.09035768
_cell_angle_alpha   60.00000000
_cell_angle_beta   60.00000000
_cell_angle_gamma   60.00000000
_symmetry_Int_Tables_number   1
_chemical_formula_structural   Fe(CuC6)2
_chemical_formula_sum   'Fe1 Cu2 C12'
_cell_volume   252.05158656
_cell_formula_units_Z   1
loop_
 _symmetry_equiv_pos_site_id
 _symmetry_equiv_pos_as_xyz
  1  'x, y, z'
loop_
 _atom_site_type_symbol
 _atom_site_label
 _atom_site_symmetry_multiplicity
 _atom_site_fract_x
 _atom_site_fract_y
 _atom_site_fract_z
 _atom_site_occupancy
  Fe  Fe0  1  0.00000000  0.00000000  0.00000000  1
  Cu  Cu1  1  0.25000000  0.25000000  0.25000000  1
  Cu  Cu2  1  0.50000000  0.50000000  0.50000000  1
  C  C3  1  0.81171200  0.18828800  0.18828800  1
  C  C4  1  0.18828800  0.81171200  0.81171200  1
  C  C5  1  0.18828800  0.81171200  0.18828800  1
  C  C6  1  0.81171200  0.18828800  0.81171200  1
  C  C7  1  0.18828800  0.18828800  0.81171200  1
  C  C8  1  0.81171200  0.81171200  0.18828800  1
  C  C9  1  0.68720100  0.31279900  0.31279900  1
  C  C10  1  0.31279900  0.68720100  0.68720100  1
  C  C11  1  0.31279900  0.68720100  0.31279900  1
  C  C12  1  0.68720100  0.31279900  0.68720100  1
  C  C13  1  0.31279900  0.31279900  0.68720100  1
  C  C14  1  0.68720100  0.68720100  0.31279900  1
