# generated using pymatgen
data_Dy5Co2Bi
_symmetry_space_group_name_H-M   'P 1'
_cell_length_a   8.63194713
_cell_length_b   8.63194713
_cell_length_c   8.63194713
_cell_angle_alpha   127.33741379
_cell_angle_beta   127.33741379
_cell_angle_gamma   77.70087762
_symmetry_Int_Tables_number   1
_chemical_formula_structural   Dy5Co2Bi
_chemical_formula_sum   'Dy10 Co4 Bi2'
_cell_volume   394.19462714
_cell_formula_units_Z   2
loop_
 _symmetry_equiv_pos_site_id
 _symmetry_equiv_pos_as_xyz
  1  'x, y, z'
loop_
 _atom_site_type_symbol
 _atom_site_label
 _atom_site_symmetry_multiplicity
 _atom_site_fract_x
 _atom_site_fract_y
 _atom_site_fract_z
 _atom_site_occupancy
  Dy  Dy0  1  0.00000000  0.00000000  0.00000000  1
  Dy  Dy1  1  0.50000000  0.50000000  0.00000000  1
  Dy  Dy2  1  0.78633500  0.28633500  0.81576900  1
  Dy  Dy3  1  0.21366500  0.71366500  0.18423200  1
  Dy  Dy4  1  0.47056700  0.97056700  0.18423200  1
  Dy  Dy5  1  0.28633500  0.47056700  0.50000000  1
  Dy  Dy6  1  0.02943300  0.21366500  0.50000000  1
  Dy  Dy7  1  0.52943300  0.02943300  0.81576800  1
  Dy  Dy8  1  0.71366500  0.52943300  0.50000000  1
  Dy  Dy9  1  0.97056700  0.78633500  0.50000000  1
  Co  Co10  1  0.13490000  0.63490000  0.76980000  1
  Co  Co11  1  0.86510000  0.36510000  0.23020000  1
  Co  Co12  1  0.63490000  0.86510000  0.50000000  1
  Co  Co13  1  0.36510000  0.13490000  0.50000000  1
  Bi  Bi14  1  0.25000000  0.25000000  0.00000000  1
  Bi  Bi15  1  0.75000000  0.75000000  0.00000000  1
