# generated using pymatgen
data_Ga2P3H8(NO4)3
_symmetry_space_group_name_H-M   'P 1'
_cell_length_a   8.61884271
_cell_length_b   8.61884271
_cell_length_c   9.15522716
_cell_angle_alpha   73.14204770
_cell_angle_beta   73.14204770
_cell_angle_gamma   74.91579510
_symmetry_Int_Tables_number   1
_chemical_formula_structural   Ga2P3H8(NO4)3
_chemical_formula_sum   'Ga4 P6 H16 N6 O24'
_cell_volume   611.26833819
_cell_formula_units_Z   2
loop_
 _symmetry_equiv_pos_site_id
 _symmetry_equiv_pos_as_xyz
  1  'x, y, z'
loop_
 _atom_site_type_symbol
 _atom_site_label
 _atom_site_symmetry_multiplicity
 _atom_site_fract_x
 _atom_site_fract_y
 _atom_site_fract_z
 _atom_site_occupancy
  Ga  Ga0  1  0.24573600  0.09007100  0.91769900  1
  Ga  Ga1  1  0.75426400  0.90992900  0.08230100  1
  Ga  Ga2  1  0.90992900  0.75426400  0.58230100  1
  Ga  Ga3  1  0.09007100  0.24573600  0.41769900  1
  P  P4  1  0.57951900  0.83644600  0.83819000  1
  P  P5  1  0.42048100  0.16355400  0.16181000  1
  P  P6  1  0.16355400  0.42048100  0.66181000  1
  P  P7  1  0.83644600  0.57951900  0.33819000  1
  P  P8  1  0.00774900  0.99225100  0.75000000  1
  P  P9  1  0.99225100  0.00774900  0.25000000  1
  H  H10  1  0.54152400  0.77174400  0.52524300  1
  H  H11  1  0.45847600  0.22825600  0.47475700  1
  H  H12  1  0.22825600  0.45847600  0.97475700  1
  H  H13  1  0.77174400  0.54152400  0.02524300  1
  H  H14  1  0.38911400  0.89746100  0.43882600  1
  H  H15  1  0.61088600  0.10253900  0.56117400  1
  H  H16  1  0.10253900  0.61088600  0.06117400  1
  H  H17  1  0.89746100  0.38911400  0.93882600  1
  H  H18  1  0.36511100  0.86636900  0.63288900  1
  H  H19  1  0.63488900  0.13363100  0.36711100  1
  H  H20  1  0.13363100  0.63488900  0.86711100  1
  H  H21  1  0.86636900  0.36511100  0.13288900  1
  H  H22  1  0.36101100  0.70849600  0.56159700  1
  H  H23  1  0.63898900  0.29150400  0.43840300  1
  H  H24  1  0.29150400  0.63898900  0.93840300  1
  H  H25  1  0.70849600  0.36101100  0.06159700  1
  N  N26  1  0.62704000  0.37296000  0.75000000  1
  N  N27  1  0.37296000  0.62704000  0.25000000  1
  N  N28  1  0.41481700  0.81168800  0.53841600  1
  N  N29  1  0.58518300  0.18831200  0.46158400  1
  N  N30  1  0.18831200  0.58518300  0.96158400  1
  N  N31  1  0.81168800  0.41481700  0.03841600  1
  O  O32  1  0.17575200  0.98224800  0.78584000  1
  O  O33  1  0.82424800  0.01775200  0.21416000  1
  O  O34  1  0.01775200  0.82424800  0.71416000  1
  O  O35  1  0.98224800  0.17575200  0.28584000  1
  O  O36  1  0.86425400  0.02817000  0.89165000  1
  O  O37  1  0.13574600  0.97183000  0.10835000  1
  O  O38  1  0.97183000  0.13574600  0.60835000  1
  O  O39  1  0.02817000  0.86425400  0.39165000  1
  O  O40  1  0.46650900  0.01026400  0.83345400  1
  O  O41  1  0.53349100  0.98973600  0.16654600  1
  O  O42  1  0.98973600  0.53349100  0.66654600  1
  O  O43  1  0.01026400  0.46650900  0.33345400  1
  O  O44  1  0.69942200  0.86545000  0.67117900  1
  O  O45  1  0.30057800  0.13455000  0.32882100  1
  O  O46  1  0.13455000  0.30057800  0.82882100  1
  O  O47  1  0.86545000  0.69942200  0.17117900  1
  O  O48  1  0.48495800  0.70063400  0.86188300  1
  O  O49  1  0.51504200  0.29936600  0.13811700  1
  O  O50  1  0.29936600  0.51504200  0.63811700  1
  O  O51  1  0.70063400  0.48495800  0.36188300  1
  O  O52  1  0.67984000  0.78414300  0.96554200  1
  O  O53  1  0.32016000  0.21585700  0.03445800  1
  O  O54  1  0.21585700  0.32016000  0.53445800  1
  O  O55  1  0.78414300  0.67984000  0.46554200  1
