# generated using pymatgen
data_Eu3SbO7
_symmetry_space_group_name_H-M   'P 1'
_cell_length_a   6.61706329
_cell_length_b   6.61706329
_cell_length_c   7.71273100
_cell_angle_alpha   90.00000000
_cell_angle_beta   90.00000000
_cell_angle_gamma   110.14100347
_symmetry_Int_Tables_number   1
_chemical_formula_structural   Eu3SbO7
_chemical_formula_sum   'Eu6 Sb2 O14'
_cell_volume   317.05461653
_cell_formula_units_Z   2
loop_
 _symmetry_equiv_pos_site_id
 _symmetry_equiv_pos_as_xyz
  1  'x, y, z'
loop_
 _atom_site_type_symbol
 _atom_site_label
 _atom_site_symmetry_multiplicity
 _atom_site_fract_x
 _atom_site_fract_y
 _atom_site_fract_z
 _atom_site_occupancy
  Eu  Eu0  1  0.00267700  0.47181600  0.74910600  1
  Eu  Eu1  1  0.99732300  0.52818400  0.24910600  1
  Eu  Eu2  1  0.52818400  0.99732300  0.75089400  1
  Eu  Eu3  1  0.47181600  0.00267700  0.25089400  1
  Eu  Eu4  1  0.50315000  0.50315000  0.50000000  1
  Eu  Eu5  1  0.49685000  0.49685000  0.00000000  1
  Sb  Sb6  1  0.99783400  0.99783400  0.50000000  1
  Sb  Sb7  1  0.00216600  0.00216600  0.00000000  1
  O  O8  1  0.63762500  0.36237500  0.75000000  1
  O  O9  1  0.36237500  0.63762500  0.25000000  1
  O  O10  1  0.93694900  0.06305100  0.75000000  1
  O  O11  1  0.06305100  0.93694900  0.25000000  1
  O  O12  1  0.92337600  0.67914500  0.52743600  1
  O  O13  1  0.07662400  0.32085500  0.02743600  1
  O  O14  1  0.32085500  0.07662400  0.97256400  1
  O  O15  1  0.67914500  0.92337600  0.47256400  1
  O  O16  1  0.37157500  0.62842500  0.75000000  1
  O  O17  1  0.62842500  0.37157500  0.25000000  1
  O  O18  1  0.93527400  0.68628500  0.96937100  1
  O  O19  1  0.06472600  0.31371500  0.46937100  1
  O  O20  1  0.31371500  0.06472600  0.53062900  1
  O  O21  1  0.68628500  0.93527400  0.03062900  1
