data_image0
_chemical_formula_structural       Cl20N4S4W4
_chemical_formula_sum              "Cl20 N4 S4 W4"
_cell_length_a       15.4074
_cell_length_b       9.21359
_cell_length_c       5.99796
_cell_angle_alpha    90
_cell_angle_beta     92.6286
_cell_angle_gamma    90

_space_group_name_H-M_alt    "P 1"
_space_group_IT_number       1

loop_
  _space_group_symop_operation_xyz
  'x, y, z'

loop_
  _atom_site_type_symbol
  _atom_site_label
  _atom_site_symmetry_multiplicity
  _atom_site_fract_x
  _atom_site_fract_y
  _atom_site_fract_z
  _atom_site_occupancy
  Cl  Cl1       1.0  0.98500  0.21800  0.79800  1.0000
  Cl  Cl2       1.0  0.51500  0.71800  0.70200  1.0000
  Cl  Cl3       1.0  0.01480  0.78200  0.20200  1.0000
  Cl  Cl4       1.0  0.48500  0.28200  0.29800  1.0000
  Cl  Cl5       1.0  0.35400  0.42000  0.79200  1.0000
  Cl  Cl6       1.0  0.14600  0.92000  0.70800  1.0000
  Cl  Cl7       1.0  0.64600  0.58000  0.20800  1.0000
  Cl  Cl8       1.0  0.85400  0.08030  0.29200  1.0000
  Cl  Cl9       1.0  0.04320  0.56000  0.77400  1.0000
  Cl  Cl10      1.0  0.45700  0.05980  0.72600  1.0000
  Cl  Cl11      1.0  0.95700  0.44000  0.22600  1.0000
  Cl  Cl12      1.0  0.54300  0.94000  0.27400  1.0000
  Cl  Cl13      1.0  0.16700  0.50500  0.22600  1.0000
  Cl  Cl14      1.0  0.33300  0.00523  0.27400  1.0000
  Cl  Cl15      1.0  0.83300  0.49500  0.77400  1.0000
  Cl  Cl16      1.0  0.66700  0.99500  0.72600  1.0000
  Cl  Cl17      1.0  0.10900  0.16100  0.25100  1.0000
  Cl  Cl18      1.0  0.39100  0.66100  0.24900  1.0000
  Cl  Cl19      1.0  0.89100  0.83900  0.74900  1.0000
  Cl  Cl20      1.0  0.60900  0.33900  0.75100  1.0000
  N   N1        1.0  0.17900  0.30800  0.82000  1.0000
  N   N2        1.0  0.32100  0.80800  0.68000  1.0000
  N   N3        1.0  0.82100  0.69200  0.18000  1.0000
  N   N4        1.0  0.67900  0.19200  0.32000  1.0000
  S   S1        1.0  0.25800  0.28100  0.66900  1.0000
  S   S2        1.0  0.24200  0.78100  0.83100  1.0000
  S   S3        1.0  0.74200  0.71900  0.33100  1.0000
  S   S4        1.0  0.75800  0.21900  0.16900  1.0000
  W   W1        1.0  0.09100  0.34700  0.99400  1.0000
  W   W2        1.0  0.40900  0.84700  0.50600  1.0000
  W   W3        1.0  0.90900  0.65300  0.00635  1.0000
  W   W4        1.0  0.59100  0.15300  0.49400  1.0000
