# generated using pymatgen
data_MnBP(HO3)2
_symmetry_space_group_name_H-M   'P 1'
_cell_length_a   7.67629570
_cell_length_b   7.67629570
_cell_length_c   12.99027900
_cell_angle_alpha   90.00000000
_cell_angle_beta   90.00000000
_cell_angle_gamma   119.99999744
_symmetry_Int_Tables_number   1
_chemical_formula_structural   MnBP(HO3)2
_chemical_formula_sum   'Mn6 B6 P6 H12 O36'
_cell_volume   662.90686089
_cell_formula_units_Z   6
loop_
 _symmetry_equiv_pos_site_id
 _symmetry_equiv_pos_as_xyz
  1  'x, y, z'
loop_
 _atom_site_type_symbol
 _atom_site_label
 _atom_site_symmetry_multiplicity
 _atom_site_fract_x
 _atom_site_fract_y
 _atom_site_fract_z
 _atom_site_occupancy
  Mn  Mn0  1  0.12212500  0.00000000  0.33333300  1
  Mn  Mn1  1  0.00000000  0.12212500  0.66666700  1
  Mn  Mn2  1  0.87787500  0.87787500  0.00000000  1
  Mn  Mn3  1  0.25178500  0.00000000  0.83333300  1
  Mn  Mn4  1  0.00000000  0.25178500  0.16666700  1
  Mn  Mn5  1  0.74821500  0.74821500  0.50000000  1
  B  B6  1  0.24422900  0.55485000  0.53981600  1
  B  B7  1  0.44515000  0.68937900  0.87314900  1
  B  B8  1  0.55485000  0.24422900  0.46018400  1
  B  B9  1  0.31062100  0.75577100  0.20648200  1
  B  B10  1  0.68937900  0.44515000  0.12685100  1
  B  B11  1  0.75577100  0.31062100  0.79351800  1
  P  P12  1  0.08028000  0.33002200  0.90272900  1
  P  P13  1  0.66997800  0.75025800  0.23606300  1
  P  P14  1  0.33002200  0.08028000  0.09727100  1
  P  P15  1  0.24974200  0.91972000  0.56939600  1
  P  P16  1  0.75025800  0.66997800  0.76393700  1
  P  P17  1  0.91972000  0.24974200  0.43060400  1
  H  H18  1  0.58925200  0.27650300  0.92661600  1
  H  H19  1  0.72349700  0.31275000  0.25995000  1
  H  H20  1  0.27650300  0.58925200  0.07338400  1
  H  H21  1  0.68725000  0.41074800  0.59328300  1
  H  H22  1  0.31275000  0.72349700  0.74005000  1
  H  H23  1  0.41074800  0.68725000  0.40671700  1
  H  H24  1  0.37312600  0.41772400  0.62023000  1
  H  H25  1  0.58227600  0.95540200  0.95356300  1
  H  H26  1  0.41772400  0.37312600  0.37977000  1
  H  H27  1  0.04459800  0.62687400  0.28689600  1
  H  H28  1  0.95540200  0.58227600  0.04643700  1
  H  H29  1  0.62687400  0.04459800  0.71310400  1
  O  O30  1  0.24350500  0.41128400  0.61373700  1
  O  O31  1  0.58871600  0.83222100  0.94707100  1
  O  O32  1  0.41128400  0.24350500  0.38626300  1
  O  O33  1  0.16777900  0.75649500  0.28040400  1
  O  O34  1  0.83222100  0.58871600  0.05292900  1
  O  O35  1  0.75649500  0.16777900  0.71959600  1
  O  O36  1  0.46186400  0.05545300  0.52057100  1
  O  O37  1  0.94454700  0.40641200  0.85390500  1
  O  O38  1  0.05545300  0.46186400  0.47942900  1
  O  O39  1  0.59358800  0.53813600  0.18723800  1
  O  O40  1  0.40641200  0.94454700  0.14609500  1
  O  O41  1  0.53813600  0.59358800  0.81276200  1
  O  O42  1  0.57692300  0.21110100  0.85982100  1
  O  O43  1  0.78889900  0.36582100  0.19315400  1
  O  O44  1  0.21110100  0.57692300  0.14017900  1
  O  O45  1  0.63417900  0.42307700  0.52648800  1
  O  O46  1  0.36582100  0.78889900  0.80684600  1
  O  O47  1  0.42307700  0.63417900  0.47351200  1
  O  O48  1  0.22787900  0.01956100  0.66789700  1
  O  O49  1  0.98043900  0.20831800  0.00123100  1
  O  O50  1  0.01956100  0.22787900  0.33210300  1
  O  O51  1  0.79168200  0.77212100  0.33456400  1
  O  O52  1  0.20831800  0.98043900  0.99876900  1
  O  O53  1  0.77212100  0.79168200  0.66543600  1
  O  O54  1  0.27831900  0.52341300  0.93723400  1
  O  O55  1  0.47658700  0.75490600  0.27056800  1
  O  O56  1  0.52341300  0.27831900  0.06276600  1
  O  O57  1  0.24509400  0.72168100  0.60390100  1
  O  O58  1  0.75490600  0.47658700  0.72943200  1
  O  O59  1  0.72168100  0.24509400  0.39609900  1
  O  O60  1  0.12443000  0.20715000  0.82481300  1
  O  O61  1  0.79285000  0.91728000  0.15814600  1
  O  O62  1  0.20715000  0.12443000  0.17518700  1
  O  O63  1  0.08272000  0.87557000  0.49147900  1
  O  O64  1  0.91728000  0.79285000  0.84185400  1
  O  O65  1  0.87557000  0.08272000  0.50852100  1
