# generated using pymatgen
data_DyCrSe3
_symmetry_space_group_name_H-M   'P 1'
_cell_length_a   3.89060800
_cell_length_b   8.23033800
_cell_length_c   13.27028500
_cell_angle_alpha   90.00000000
_cell_angle_beta   90.00000000
_cell_angle_gamma   90.00000000
_symmetry_Int_Tables_number   1
_chemical_formula_structural   DyCrSe3
_chemical_formula_sum   'Dy4 Cr4 Se12'
_cell_volume   424.92804634
_cell_formula_units_Z   4
loop_
 _symmetry_equiv_pos_site_id
 _symmetry_equiv_pos_as_xyz
  1  'x, y, z'
loop_
 _atom_site_type_symbol
 _atom_site_label
 _atom_site_symmetry_multiplicity
 _atom_site_fract_x
 _atom_site_fract_y
 _atom_site_fract_z
 _atom_site_occupancy
  Dy  Dy0  1  0.75000000  0.57981600  0.32832700  1
  Dy  Dy1  1  0.25000000  0.42018400  0.67167300  1
  Dy  Dy2  1  0.25000000  0.92018400  0.82832700  1
  Dy  Dy3  1  0.75000000  0.07981600  0.17167300  1
  Cr  Cr4  1  0.75000000  0.83590200  0.54870600  1
  Cr  Cr5  1  0.25000000  0.16409800  0.45129400  1
  Cr  Cr6  1  0.25000000  0.66409800  0.04870600  1
  Cr  Cr7  1  0.75000000  0.33590200  0.95129400  1
  Se  Se8  1  0.75000000  0.99390200  0.38932600  1
  Se  Se9  1  0.25000000  0.00609800  0.61067400  1
  Se  Se10  1  0.25000000  0.50609800  0.88932600  1
  Se  Se11  1  0.75000000  0.49390200  0.11067400  1
  Se  Se12  1  0.75000000  0.84714800  0.99156100  1
  Se  Se13  1  0.25000000  0.15285200  0.00843900  1
  Se  Se14  1  0.25000000  0.65285200  0.49156100  1
  Se  Se15  1  0.75000000  0.34714800  0.50843900  1
  Se  Se16  1  0.75000000  0.69731500  0.71637700  1
  Se  Se17  1  0.25000000  0.30268500  0.28362300  1
  Se  Se18  1  0.25000000  0.80268500  0.21637700  1
  Se  Se19  1  0.75000000  0.19731500  0.78362300  1
