# generated using pymatgen
data_DyFe3(BO3)4
_symmetry_space_group_name_H-M   'P 1'
_cell_length_a   6.12436719
_cell_length_b   6.12436719
_cell_length_c   6.12436721
_cell_angle_alpha   103.97742327
_cell_angle_beta   103.97742327
_cell_angle_gamma   103.97741596
_symmetry_Int_Tables_number   1
_chemical_formula_structural   DyFe3(BO3)4
_chemical_formula_sum   'Dy1 Fe3 B4 O12'
_cell_volume   205.04835644
_cell_formula_units_Z   1
loop_
 _symmetry_equiv_pos_site_id
 _symmetry_equiv_pos_as_xyz
  1  'x, y, z'
loop_
 _atom_site_type_symbol
 _atom_site_label
 _atom_site_symmetry_multiplicity
 _atom_site_fract_x
 _atom_site_fract_y
 _atom_site_fract_z
 _atom_site_occupancy
  Dy  Dy0  1  0.50000000  0.50000000  0.50000000  1
  Fe  Fe1  1  0.04732200  0.95267800  0.50000000  1
  Fe  Fe2  1  0.95267800  0.50000000  0.04732200  1
  Fe  Fe3  1  0.50000000  0.04732200  0.95267800  1
  B  B4  1  0.45197700  0.54802300  0.00000000  1
  B  B5  1  0.54802300  0.00000000  0.45197700  1
  B  B6  1  0.00000000  0.45197700  0.54802300  1
  B  B7  1  0.00000000  0.00000000  0.00000000  1
  O  O8  1  0.29812500  0.52538300  0.13200300  1
  O  O9  1  0.52538300  0.13200300  0.29812500  1
  O  O10  1  0.70187500  0.86799700  0.47461700  1
  O  O11  1  0.13200300  0.29812500  0.52538300  1
  O  O12  1  0.47461700  0.70187500  0.86799700  1
  O  O13  1  0.86799700  0.47461700  0.70187500  1
  O  O14  1  0.85655000  0.14345000  0.00000000  1
  O  O15  1  0.14345000  0.00000000  0.85655000  1
  O  O16  1  0.00000000  0.85655000  0.14345000  1
  O  O17  1  0.59513700  0.40486300  0.00000000  1
  O  O18  1  0.40486300  0.00000000  0.59513700  1
  O  O19  1  0.00000000  0.59513700  0.40486300  1
