# generated using pymatgen
data_Dy4Ir
_symmetry_space_group_name_H-M   'P 1'
_cell_length_a   7.66760148
_cell_length_b   7.66760148
_cell_length_c   7.66760148
_cell_angle_alpha   60.00000000
_cell_angle_beta   60.00000000
_cell_angle_gamma   60.00000000
_symmetry_Int_Tables_number   1
_chemical_formula_structural   Dy4Ir
_chemical_formula_sum   'Dy8 Ir2'
_cell_volume   318.75983938
_cell_formula_units_Z   2
loop_
 _symmetry_equiv_pos_site_id
 _symmetry_equiv_pos_as_xyz
  1  'x, y, z'
loop_
 _atom_site_type_symbol
 _atom_site_label
 _atom_site_symmetry_multiplicity
 _atom_site_fract_x
 _atom_site_fract_y
 _atom_site_fract_z
 _atom_site_occupancy
  Dy  Dy0  1  0.61137300  0.61137300  0.61137300  1
  Dy  Dy1  1  0.16588000  0.61137300  0.61137300  1
  Dy  Dy2  1  0.61137300  0.16588000  0.61137300  1
  Dy  Dy3  1  0.58412000  0.13862700  0.13862700  1
  Dy  Dy4  1  0.13862700  0.13862700  0.13862700  1
  Dy  Dy5  1  0.61137300  0.61137300  0.16588000  1
  Dy  Dy6  1  0.13862700  0.58412000  0.13862700  1
  Dy  Dy7  1  0.13862700  0.13862700  0.58412000  1
  Ir  Ir8  1  0.00000000  0.00000000  0.00000000  1
  Ir  Ir9  1  0.75000000  0.75000000  0.75000000  1
