data_image0
_chemical_formula_structural       P3Ru3Ti3
_chemical_formula_sum              "P3 Ru3 Ti3"
_cell_length_a       6.25973
_cell_length_b       6.25973
_cell_length_c       3.66222
_cell_angle_alpha    90
_cell_angle_beta     90
_cell_angle_gamma    120.002

_space_group_name_H-M_alt    "P 1"
_space_group_IT_number       1

loop_
  _space_group_symop_operation_xyz
  'x, y, z'

loop_
  _atom_site_type_symbol
  _atom_site_label
  _atom_site_symmetry_multiplicity
  _atom_site_fract_x
  _atom_site_fract_y
  _atom_site_fract_z
  _atom_site_occupancy
  P   P1        1.0  0.66700  0.33300  0.00000  1.0000
  P   P2        1.0  0.33300  0.66700  0.00000  1.0000
  P   P3        1.0  0.00004  0.00003  0.50000  1.0000
  Ru  Ru1       1.0  0.25100  0.00003  0.00000  1.0000
  Ru  Ru2       1.0  0.00003  0.25100  0.00000  1.0000
  Ru  Ru3       1.0  0.74900  0.74900  0.00000  1.0000
  Ti  Ti1       1.0  0.58400  0.00001  0.50000  1.0000
  Ti  Ti2       1.0  0.41600  0.41600  0.50000  1.0000
  Ti  Ti3       1.0  0.00001  0.58400  0.50000  1.0000
