# generated using pymatgen
data_MnAl2SiO5
_symmetry_space_group_name_H-M   'P 1'
_cell_length_a   5.48473200
_cell_length_b   15.16570141
_cell_length_c   15.16570141
_cell_angle_alpha   122.21099815
_cell_angle_beta   90.00000000
_cell_angle_gamma   90.00000000
_symmetry_Int_Tables_number   1
_chemical_formula_structural   MnAl2SiO5
_chemical_formula_sum   'Mn8 Al16 Si8 O40'
_cell_volume   1067.32681128
_cell_formula_units_Z   8
loop_
 _symmetry_equiv_pos_site_id
 _symmetry_equiv_pos_as_xyz
  1  'x, y, z'
loop_
 _atom_site_type_symbol
 _atom_site_label
 _atom_site_symmetry_multiplicity
 _atom_site_fract_x
 _atom_site_fract_y
 _atom_site_fract_z
 _atom_site_occupancy
  Mn  Mn0  1  0.76047400  0.81034000  0.14304100  1
  Mn  Mn1  1  0.76047400  0.18966000  0.85695900  1
  Mn  Mn2  1  0.23952600  0.85695900  0.18966000  1
  Mn  Mn3  1  0.73952600  0.68966000  0.35695900  1
  Mn  Mn4  1  0.23952600  0.14304100  0.81034000  1
  Mn  Mn5  1  0.73952600  0.31034000  0.64304100  1
  Mn  Mn6  1  0.26047400  0.64304100  0.31034000  1
  Mn  Mn7  1  0.26047400  0.35695900  0.68966000  1
  Al  Al8  1  0.66431400  0.52622300  0.59894500  1
  Al  Al9  1  0.66431400  0.47377700  0.40105500  1
  Al  Al10  1  0.33568600  0.40105500  0.47377700  1
  Al  Al11  1  0.83568600  0.97377700  0.90105500  1
  Al  Al12  1  0.33568600  0.59894500  0.52622300  1
  Al  Al13  1  0.83568600  0.02622300  0.09894500  1
  Al  Al14  1  0.16431400  0.09894500  0.02622300  1
  Al  Al15  1  0.16431400  0.90105500  0.97377700  1
  Al  Al16  1  0.66303800  0.57091400  0.10243700  1
  Al  Al17  1  0.66303800  0.42908600  0.89756300  1
  Al  Al18  1  0.33696200  0.89756300  0.42908600  1
  Al  Al19  1  0.83696200  0.92908600  0.39756300  1
  Al  Al20  1  0.33696200  0.10243700  0.57091400  1
  Al  Al21  1  0.83696200  0.07091400  0.60243700  1
  Al  Al22  1  0.16303800  0.60243700  0.07091400  1
  Al  Al23  1  0.16303800  0.39756300  0.92908600  1
  Si  Si24  1  0.85540400  0.56700900  0.81453700  1
  Si  Si25  1  0.85540400  0.43299100  0.18546300  1
  Si  Si26  1  0.14459600  0.18546300  0.43299100  1
  Si  Si27  1  0.64459600  0.93299100  0.68546300  1
  Si  Si28  1  0.14459600  0.81453700  0.56700900  1
  Si  Si29  1  0.64459600  0.06700900  0.31453700  1
  Si  Si30  1  0.35540400  0.31453700  0.06700900  1
  Si  Si31  1  0.35540400  0.68546300  0.93299100  1
  O  O32  1  0.83806200  0.55909100  0.70418600  1
  O  O33  1  0.83806200  0.44090900  0.29581400  1
  O  O34  1  0.16193800  0.29581400  0.44090900  1
  O  O35  1  0.66193800  0.94090900  0.79581400  1
  O  O36  1  0.16193800  0.70418600  0.55909100  1
  O  O37  1  0.66193800  0.05909100  0.20418600  1
  O  O38  1  0.33806200  0.20418600  0.05909100  1
  O  O39  1  0.33806200  0.79581400  0.94090900  1
  O  O40  1  0.87550600  0.67162700  0.12136600  1
  O  O41  1  0.87550600  0.32837300  0.87863400  1
  O  O42  1  0.12449400  0.87863400  0.32837300  1
  O  O43  1  0.62449400  0.82837300  0.37863400  1
  O  O44  1  0.12449400  0.12136600  0.67162700  1
  O  O45  1  0.62449400  0.17162600  0.62136600  1
  O  O46  1  0.37550600  0.62136600  0.17162600  1
  O  O47  1  0.37550600  0.37863400  0.82837300  1
  O  O48  1  0.63033600  0.63962000  0.89035100  1
  O  O49  1  0.63033600  0.36038000  0.10964900  1
  O  O50  1  0.36966400  0.10964900  0.36038000  1
  O  O51  1  0.86966400  0.86038000  0.60964900  1
  O  O52  1  0.36966400  0.89035100  0.63962000  1
  O  O53  1  0.86966400  0.13962000  0.39035100  1
  O  O54  1  0.13033600  0.39035100  0.13962000  1
  O  O55  1  0.13033600  0.60964900  0.86038000  1
  O  O56  1  0.82725500  0.45223200  0.80194700  1
  O  O57  1  0.82725500  0.54776800  0.19805300  1
  O  O58  1  0.17274500  0.19805300  0.54776800  1
  O  O59  1  0.67274500  0.04776800  0.69805300  1
  O  O60  1  0.17274500  0.80194700  0.45223200  1
  O  O61  1  0.67274500  0.95223200  0.30194700  1
  O  O62  1  0.32725500  0.30194700  0.95223200  1
  O  O63  1  0.32725500  0.69805300  0.04776800  1
  O  O64  1  0.82777500  0.90293300  0.96991600  1
  O  O65  1  0.82777500  0.09706700  0.03008400  1
  O  O66  1  0.17222500  0.03008400  0.09706700  1
  O  O67  1  0.67222500  0.59706700  0.53008400  1
  O  O68  1  0.17222500  0.96991600  0.90293300  1
  O  O69  1  0.67222500  0.40293300  0.46991600  1
  O  O70  1  0.32777500  0.46991600  0.40293300  1
  O  O71  1  0.32777500  0.53008400  0.59706700  1
