# generated using pymatgen
data_DyCl2
_symmetry_space_group_name_H-M   'P 1'
_cell_length_a   6.36223900
_cell_length_b   7.15698600
_cell_length_c   12.46806700
_cell_angle_alpha   90.00000000
_cell_angle_beta   90.00000000
_cell_angle_gamma   90.00000000
_symmetry_Int_Tables_number   1
_chemical_formula_structural   DyCl2
_chemical_formula_sum   'Dy8 Cl16'
_cell_volume   567.72664138
_cell_formula_units_Z   8
loop_
 _symmetry_equiv_pos_site_id
 _symmetry_equiv_pos_as_xyz
  1  'x, y, z'
loop_
 _atom_site_type_symbol
 _atom_site_label
 _atom_site_symmetry_multiplicity
 _atom_site_fract_x
 _atom_site_fract_y
 _atom_site_fract_z
 _atom_site_occupancy
  Dy  Dy0  1  0.81730800  0.95015400  0.59799000  1
  Dy  Dy1  1  0.18269200  0.04984600  0.40201000  1
  Dy  Dy2  1  0.68269200  0.45015400  0.40201000  1
  Dy  Dy3  1  0.18269200  0.54984600  0.09799000  1
  Dy  Dy4  1  0.31730800  0.54984600  0.59799000  1
  Dy  Dy5  1  0.81730800  0.45015400  0.90201000  1
  Dy  Dy6  1  0.31730800  0.04984600  0.90201000  1
  Dy  Dy7  1  0.68269200  0.95015400  0.09799000  1
  Cl  Cl8  1  0.68407200  0.62325500  0.70861300  1
  Cl  Cl9  1  0.31592800  0.37674500  0.29138700  1
  Cl  Cl10  1  0.81592800  0.12325500  0.29138700  1
  Cl  Cl11  1  0.31592800  0.87674500  0.20861300  1
  Cl  Cl12  1  0.18407200  0.87674500  0.70861300  1
  Cl  Cl13  1  0.68407200  0.12325500  0.79138700  1
  Cl  Cl14  1  0.18407200  0.37674500  0.79138700  1
  Cl  Cl15  1  0.81592800  0.62325500  0.20861300  1
  Cl  Cl16  1  0.98028300  0.79255000  0.95507900  1
  Cl  Cl17  1  0.01971700  0.20745000  0.04492100  1
  Cl  Cl18  1  0.51971700  0.29255000  0.04492100  1
  Cl  Cl19  1  0.01971700  0.70745000  0.45507900  1
  Cl  Cl20  1  0.48028300  0.70745000  0.95507900  1
  Cl  Cl21  1  0.98028300  0.29255000  0.54492100  1
  Cl  Cl22  1  0.48028300  0.20745000  0.54492100  1
  Cl  Cl23  1  0.51971700  0.79255000  0.45507900  1
