# generated using pymatgen
data_K3YbSe6
_symmetry_space_group_name_H-M   'P 1'
_cell_length_a   11.19179895
_cell_length_b   11.86479691
_cell_length_c   64.39702776
_cell_angle_alpha   90.00000000
_cell_angle_beta   90.00000000
_cell_angle_gamma   118.14073438
_symmetry_Int_Tables_number   1
_chemical_formula_structural   K3YbSe6
_chemical_formula_sum   'K3 Yb1 Se6'
_cell_volume   7540.35992559
_cell_formula_units_Z   1
loop_
 _symmetry_equiv_pos_site_id
 _symmetry_equiv_pos_as_xyz
  1  'x, y, z'
loop_
 _atom_site_type_symbol
 _atom_site_label
 _atom_site_symmetry_multiplicity
 _atom_site_fract_x
 _atom_site_fract_y
 _atom_site_fract_z
 _atom_site_occupancy
  K  K0  1  -0.00000000  -0.00000000  0.50000000  1
  K  K1  1  0.50000000  0.50000000  0.00000000  1
  K  K2  1  -0.00000000  0.50000000  0.00000000  1
  Yb  Yb3  1  -0.00000000  -0.00000000  0.00000000  1
  Se  Se4  1  -0.00000000  -0.00000000  0.76522438  1
  Se  Se5  1  -0.00000000  -0.00000000  0.23477562  1
  Se  Se6  1  0.77007328  0.75860260  0.00000000  1
  Se  Se7  1  0.22992672  0.24139740  0.00000000  1
  Se  Se8  1  0.01147069  0.24139740  0.00000000  1
  Se  Se9  1  0.98852931  0.75860260  0.00000000  1
