# generated using pymatgen
data_CsYbZnTe3
_symmetry_space_group_name_H-M   'P 1'
_cell_length_a   9.15577926
_cell_length_b   9.15577926
_cell_length_c   11.83300600
_cell_angle_alpha   90.00000000
_cell_angle_beta   90.00000000
_cell_angle_gamma   152.69240561
_symmetry_Int_Tables_number   1
_chemical_formula_structural   CsYbZnTe3
_chemical_formula_sum   'Cs2 Yb2 Zn2 Te6'
_cell_volume   455.06999255
_cell_formula_units_Z   2
loop_
 _symmetry_equiv_pos_site_id
 _symmetry_equiv_pos_as_xyz
  1  'x, y, z'
loop_
 _atom_site_type_symbol
 _atom_site_label
 _atom_site_symmetry_multiplicity
 _atom_site_fract_x
 _atom_site_fract_y
 _atom_site_fract_z
 _atom_site_occupancy
  Cs  Cs0  1  0.25627500  0.74372500  0.25000000  1
  Cs  Cs1  1  0.74372500  0.25627500  0.75000000  1
  Yb  Yb2  1  0.00000000  0.00000000  0.00000000  1
  Yb  Yb3  1  0.00000000  0.00000000  0.50000000  1
  Zn  Zn4  1  0.53774900  0.46225100  0.25000000  1
  Zn  Zn5  1  0.46225100  0.53774900  0.75000000  1
  Te  Te6  1  0.62130800  0.37869200  0.06294900  1
  Te  Te7  1  0.37869200  0.62130800  0.93705100  1
  Te  Te8  1  0.37869200  0.62130800  0.56294900  1
  Te  Te9  1  0.62130800  0.37869200  0.43705100  1
  Te  Te10  1  0.94265900  0.05734100  0.25000000  1
  Te  Te11  1  0.05734100  0.94265900  0.75000000  1
