# generated using pymatgen
data_Eu2Cu(GeO3)4
_symmetry_space_group_name_H-M   'P 1'
_cell_length_a   4.96519200
_cell_length_b   7.41288800
_cell_length_c   8.21101287
_cell_angle_alpha   114.24424566
_cell_angle_beta   86.14014825
_cell_angle_gamma   103.66800771
_symmetry_Int_Tables_number   1
_chemical_formula_structural   Eu2Cu(GeO3)4
_chemical_formula_sum   'Eu2 Cu1 Ge4 O12'
_cell_volume   267.60905688
_cell_formula_units_Z   1
loop_
 _symmetry_equiv_pos_site_id
 _symmetry_equiv_pos_as_xyz
  1  'x, y, z'
loop_
 _atom_site_type_symbol
 _atom_site_label
 _atom_site_symmetry_multiplicity
 _atom_site_fract_x
 _atom_site_fract_y
 _atom_site_fract_z
 _atom_site_occupancy
  Eu  Eu0  1  0.96020200  0.76878500  0.54441700  1
  Eu  Eu1  1  0.03979800  0.23121500  0.45558300  1
  Cu  Cu2  1  0.00000000  0.00000000  0.00000000  1
  Ge  Ge3  1  0.42424200  0.61885200  0.79965900  1
  Ge  Ge4  1  0.57575800  0.38114800  0.20034100  1
  Ge  Ge5  1  0.54252600  0.17401300  0.78563100  1
  Ge  Ge6  1  0.45747400  0.82598700  0.21436900  1
  O  O7  1  0.75396000  0.78166200  0.81558000  1
  O  O8  1  0.24604000  0.21833800  0.18442000  1
  O  O9  1  0.74020300  0.29821800  0.99203000  1
  O  O10  1  0.25979700  0.70178200  0.00797000  1
  O  O11  1  0.77018200  0.41812500  0.38474300  1
  O  O12  1  0.22981800  0.58187500  0.61525700  1
  O  O13  1  0.75650900  0.99841500  0.19251900  1
  O  O14  1  0.24349100  0.00158500  0.80748100  1
  O  O15  1  0.42952000  0.35326000  0.72618700  1
  O  O16  1  0.57048000  0.64674000  0.27381300  1
  O  O17  1  0.76155900  0.06452900  0.61750200  1
  O  O18  1  0.23844100  0.93547100  0.38249800  1
