# generated using pymatgen
data_Dy2Cu(SiO3)4
_symmetry_space_group_name_H-M   'P 1'
_cell_length_a   4.82384600
_cell_length_b   7.11895608
_cell_length_c   7.84845462
_cell_angle_alpha   114.53854280
_cell_angle_beta   86.44607077
_cell_angle_gamma   102.98889317
_symmetry_Int_Tables_number   1
_chemical_formula_structural   Dy2Cu(SiO3)4
_chemical_formula_sum   'Dy2 Cu1 Si4 O12'
_cell_volume   238.75638736
_cell_formula_units_Z   1
loop_
 _symmetry_equiv_pos_site_id
 _symmetry_equiv_pos_as_xyz
  1  'x, y, z'
loop_
 _atom_site_type_symbol
 _atom_site_label
 _atom_site_symmetry_multiplicity
 _atom_site_fract_x
 _atom_site_fract_y
 _atom_site_fract_z
 _atom_site_occupancy
  Dy  Dy0  1  0.96283200  0.77212400  0.55020700  1
  Dy  Dy1  1  0.03716800  0.22787600  0.44979300  1
  Cu  Cu2  1  0.00000000  0.00000000  0.00000000  1
  Si  Si3  1  0.42539200  0.61023000  0.79650100  1
  Si  Si4  1  0.57460800  0.38977000  0.20349900  1
  Si  Si5  1  0.54532100  0.17890700  0.78645700  1
  Si  Si6  1  0.45467900  0.82109300  0.21354300  1
  O  O7  1  0.73581700  0.76409500  0.80451200  1
  O  O8  1  0.26418300  0.23590500  0.19548800  1
  O  O9  1  0.71131200  0.30003500  0.99466900  1
  O  O10  1  0.28868800  0.69996500  0.00533100  1
  O  O11  1  0.77975400  0.42313600  0.37484700  1
  O  O12  1  0.22024600  0.57686400  0.62515300  1
  O  O13  1  0.74293200  0.98857300  0.20523100  1
  O  O14  1  0.25706800  0.01142700  0.79476900  1
  O  O15  1  0.44373600  0.35908700  0.73535300  1
  O  O16  1  0.55626400  0.64091300  0.26464700  1
  O  O17  1  0.76504800  0.07439700  0.62717800  1
  O  O18  1  0.23495200  0.92560300  0.37282200  1
