# generated using pymatgen
data_DyCrGeO5
_symmetry_space_group_name_H-M   'P 1'
_cell_length_a   5.81111500
_cell_length_b   7.45330400
_cell_length_c   8.48639000
_cell_angle_alpha   90.00000000
_cell_angle_beta   90.00000000
_cell_angle_gamma   90.00000000
_symmetry_Int_Tables_number   1
_chemical_formula_structural   DyCrGeO5
_chemical_formula_sum   'Dy4 Cr4 Ge4 O20'
_cell_volume   367.56258032
_cell_formula_units_Z   4
loop_
 _symmetry_equiv_pos_site_id
 _symmetry_equiv_pos_as_xyz
  1  'x, y, z'
loop_
 _atom_site_type_symbol
 _atom_site_label
 _atom_site_symmetry_multiplicity
 _atom_site_fract_x
 _atom_site_fract_y
 _atom_site_fract_z
 _atom_site_occupancy
  Dy  Dy0  1  0.50000000  0.35664900  0.32657000  1
  Dy  Dy1  1  0.50000000  0.64335100  0.67343000  1
  Dy  Dy2  1  0.50000000  0.14335100  0.82657000  1
  Dy  Dy3  1  0.50000000  0.85664900  0.17343000  1
  Cr  Cr4  1  0.24957300  0.00000000  0.50000000  1
  Cr  Cr5  1  0.75042800  0.00000000  0.50000000  1
  Cr  Cr6  1  0.75042800  0.50000000  0.00000000  1
  Cr  Cr7  1  0.24957300  0.50000000  0.00000000  1
  Ge  Ge8  1  0.00000000  0.11712700  0.14449700  1
  Ge  Ge9  1  0.00000000  0.88287300  0.85550300  1
  Ge  Ge10  1  0.00000000  0.38287300  0.64449700  1
  Ge  Ge11  1  0.00000000  0.61712700  0.35550300  1
  O  O12  1  0.25012800  0.11167300  0.28259800  1
  O  O13  1  0.74987200  0.88832700  0.71740200  1
  O  O14  1  0.25012800  0.88832700  0.71740200  1
  O  O15  1  0.74987200  0.38832700  0.78259800  1
  O  O16  1  0.74987200  0.11167300  0.28259800  1
  O  O17  1  0.25012800  0.61167300  0.21740200  1
  O  O18  1  0.74987200  0.61167300  0.21740200  1
  O  O19  1  0.25012800  0.38832700  0.78259800  1
  O  O20  1  0.00000000  0.34354000  0.08177400  1
  O  O21  1  0.00000000  0.65646000  0.91822600  1
  O  O22  1  0.00000000  0.15646000  0.58177400  1
  O  O23  1  0.00000000  0.84354000  0.41822600  1
  O  O24  1  0.50000000  0.33154300  0.05759400  1
  O  O25  1  0.50000000  0.66845700  0.94240600  1
  O  O26  1  0.50000000  0.16845700  0.55759400  1
  O  O27  1  0.50000000  0.83154300  0.44240600  1
  O  O28  1  0.21200800  0.00000000  0.00000000  1
  O  O29  1  0.78799200  0.00000000  0.00000000  1
  O  O30  1  0.78799200  0.50000000  0.50000000  1
  O  O31  1  0.21200800  0.50000000  0.50000000  1
