# generated using pymatgen
data_ErNiPb
_symmetry_space_group_name_H-M   'P 1'
_cell_length_a   4.34967500
_cell_length_b   7.10858900
_cell_length_c   8.06651800
_cell_angle_alpha   90.00000000
_cell_angle_beta   90.00000000
_cell_angle_gamma   90.00000000
_symmetry_Int_Tables_number   1
_chemical_formula_structural   ErNiPb
_chemical_formula_sum   'Er4 Ni4 Pb4'
_cell_volume   249.41715488
_cell_formula_units_Z   4
loop_
 _symmetry_equiv_pos_site_id
 _symmetry_equiv_pos_as_xyz
  1  'x, y, z'
loop_
 _atom_site_type_symbol
 _atom_site_label
 _atom_site_symmetry_multiplicity
 _atom_site_fract_x
 _atom_site_fract_y
 _atom_site_fract_z
 _atom_site_occupancy
  Er  Er0  1  0.25000000  0.51519900  0.18526600  1
  Er  Er1  1  0.75000000  0.48480100  0.81473400  1
  Er  Er2  1  0.75000000  0.98480100  0.68526600  1
  Er  Er3  1  0.25000000  0.01519900  0.31473400  1
  Ni  Ni4  1  0.25000000  0.76556200  0.89049200  1
  Ni  Ni5  1  0.75000000  0.23443800  0.10950800  1
  Ni  Ni6  1  0.75000000  0.73443800  0.39049200  1
  Ni  Ni7  1  0.25000000  0.26556200  0.60950800  1
  Pb  Pb8  1  0.25000000  0.66957200  0.57252900  1
  Pb  Pb9  1  0.75000000  0.33042800  0.42747100  1
  Pb  Pb10  1  0.75000000  0.83042800  0.07252900  1
  Pb  Pb11  1  0.25000000  0.16957200  0.92747100  1
