# generated using pymatgen
data_Fe2S3(NO6)2
_symmetry_space_group_name_H-M   'P 1'
_cell_length_a   9.89335000
_cell_length_b   9.89335000
_cell_length_c   9.89335000
_cell_angle_alpha   90.00000000
_cell_angle_beta   90.00000000
_cell_angle_gamma   90.00000000
_symmetry_Int_Tables_number   1
_chemical_formula_structural   Fe2S3(NO6)2
_chemical_formula_sum   'Fe8 S12 N8 O48'
_cell_volume   968.34501361
_cell_formula_units_Z   4
loop_
 _symmetry_equiv_pos_site_id
 _symmetry_equiv_pos_as_xyz
  1  'x, y, z'
loop_
 _atom_site_type_symbol
 _atom_site_label
 _atom_site_symmetry_multiplicity
 _atom_site_fract_x
 _atom_site_fract_y
 _atom_site_fract_z
 _atom_site_occupancy
  Fe  Fe0  1  0.33653700  0.33653700  0.33653700  1
  Fe  Fe1  1  0.16346300  0.66346300  0.83653700  1
  Fe  Fe2  1  0.66346300  0.83653700  0.16346300  1
  Fe  Fe3  1  0.83653700  0.16346300  0.66346300  1
  Fe  Fe4  1  0.60211000  0.60211000  0.60211000  1
  Fe  Fe5  1  0.89789000  0.39789000  0.10211000  1
  Fe  Fe6  1  0.39789000  0.10211000  0.89789000  1
  Fe  Fe7  1  0.10211000  0.89789000  0.39789000  1
  S  S8  1  0.01844900  0.21459200  0.37610200  1
  S  S9  1  0.48155100  0.78540800  0.87610200  1
  S  S10  1  0.98155100  0.71459200  0.12389800  1
  S  S11  1  0.37610200  0.01844900  0.21459200  1
  S  S12  1  0.51844900  0.28540800  0.62389800  1
  S  S13  1  0.87610200  0.48155100  0.78540800  1
  S  S14  1  0.12389800  0.98155100  0.71459200  1
  S  S15  1  0.62389800  0.51844900  0.28540800  1
  S  S16  1  0.21459200  0.37610200  0.01844900  1
  S  S17  1  0.71459200  0.12389800  0.98155100  1
  S  S18  1  0.28540800  0.62389800  0.51844900  1
  S  S19  1  0.78540800  0.87610200  0.48155100  1
  N  N20  1  0.04617800  0.04617800  0.04617800  1
  N  N21  1  0.45382200  0.95382200  0.54617800  1
  N  N22  1  0.95382200  0.54617800  0.45382200  1
  N  N23  1  0.54617800  0.45382200  0.95382200  1
  N  N24  1  0.81452400  0.81452400  0.81452400  1
  N  N25  1  0.68547600  0.18547600  0.31452400  1
  N  N26  1  0.18547600  0.31452400  0.68547600  1
  N  N27  1  0.31452400  0.68547600  0.18547600  1
  O  O28  1  0.01027000  0.06993300  0.33317100  1
  O  O29  1  0.48973000  0.93006700  0.83317100  1
  O  O30  1  0.98973000  0.56993300  0.16682900  1
  O  O31  1  0.33317100  0.01027000  0.06993300  1
  O  O32  1  0.51027000  0.43006700  0.66682900  1
  O  O33  1  0.83317100  0.48973000  0.93006700  1
  O  O34  1  0.16682900  0.98973000  0.56993300  1
  O  O35  1  0.66682900  0.51027000  0.43006700  1
  O  O36  1  0.06993300  0.33317100  0.01027000  1
  O  O37  1  0.56993300  0.16682900  0.98973000  1
  O  O38  1  0.43006700  0.66682900  0.51027000  1
  O  O39  1  0.93006700  0.83317100  0.48973000  1
  O  O40  1  0.26615400  0.49731900  0.44119900  1
  O  O41  1  0.23384600  0.50268100  0.94119900  1
  O  O42  1  0.73384600  0.99731900  0.05880100  1
  O  O43  1  0.44119900  0.26615400  0.49731900  1
  O  O44  1  0.76615400  0.00268100  0.55880100  1
  O  O45  1  0.94119900  0.23384600  0.50268100  1
  O  O46  1  0.05880100  0.73384600  0.99731900  1
  O  O47  1  0.55880100  0.76615400  0.00268100  1
  O  O48  1  0.49731900  0.44119900  0.26615400  1
  O  O49  1  0.99731900  0.05880100  0.73384600  1
  O  O50  1  0.00268100  0.55880100  0.76615400  1
  O  O51  1  0.50268100  0.94119900  0.23384600  1
  O  O52  1  0.04100100  0.80142400  0.22894200  1
  O  O53  1  0.45899900  0.19857600  0.72894200  1
  O  O54  1  0.95899900  0.30142400  0.27105800  1
  O  O55  1  0.22894200  0.04100100  0.80142400  1
  O  O56  1  0.54100100  0.69857600  0.77105800  1
  O  O57  1  0.72894200  0.45899900  0.19857600  1
  O  O58  1  0.27105800  0.95899900  0.30142400  1
  O  O59  1  0.77105800  0.54100100  0.69857600  1
  O  O60  1  0.80142400  0.22894200  0.04100100  1
  O  O61  1  0.30142400  0.27105800  0.95899900  1
  O  O62  1  0.69857600  0.77105800  0.54100100  1
  O  O63  1  0.19857600  0.72894200  0.45899900  1
  O  O64  1  0.16179500  0.25116600  0.39881500  1
  O  O65  1  0.33820500  0.74883400  0.89881500  1
  O  O66  1  0.83820500  0.75116600  0.10118500  1
  O  O67  1  0.39881500  0.16179500  0.25116600  1
  O  O68  1  0.66179500  0.24883400  0.60118500  1
  O  O69  1  0.89881500  0.33820500  0.74883400  1
  O  O70  1  0.10118500  0.83820500  0.75116600  1
  O  O71  1  0.60118500  0.66179500  0.24883400  1
  O  O72  1  0.25116600  0.39881500  0.16179500  1
  O  O73  1  0.75116600  0.10118500  0.83820500  1
  O  O74  1  0.24883400  0.60118500  0.66179500  1
  O  O75  1  0.74883400  0.89881500  0.33820500  1
