# generated using pymatgen
data_CsTm(MoO4)2
_symmetry_space_group_name_H-M   'P 1'
_cell_length_a   7.56532861
_cell_length_b   7.56532861
_cell_length_c   7.75387824
_cell_angle_alpha   62.07853721
_cell_angle_beta   62.07853721
_cell_angle_gamma   88.51585778
_symmetry_Int_Tables_number   1
_chemical_formula_structural   CsTm(MoO4)2
_chemical_formula_sum   'Cs2 Tm2 Mo4 O16'
_cell_volume   335.68341855
_cell_formula_units_Z   2
loop_
 _symmetry_equiv_pos_site_id
 _symmetry_equiv_pos_as_xyz
  1  'x, y, z'
loop_
 _atom_site_type_symbol
 _atom_site_label
 _atom_site_symmetry_multiplicity
 _atom_site_fract_x
 _atom_site_fract_y
 _atom_site_fract_z
 _atom_site_occupancy
  Cs  Cs0  1  0.19647900  0.80352100  0.75000000  1
  Cs  Cs1  1  0.80352100  0.19647900  0.25000000  1
  Tm  Tm2  1  0.77092500  0.22907500  0.75000000  1
  Tm  Tm3  1  0.22907500  0.77092500  0.25000000  1
  Mo  Mo4  1  0.69696400  0.69303400  0.76729400  1
  Mo  Mo5  1  0.30303600  0.30696600  0.23270600  1
  Mo  Mo6  1  0.30696600  0.30303600  0.73270600  1
  Mo  Mo7  1  0.69303400  0.69696400  0.26729400  1
  O  O8  1  0.61739800  0.75889000  0.56561700  1
  O  O9  1  0.38260200  0.24111000  0.43438300  1
  O  O10  1  0.24111000  0.38260200  0.93438300  1
  O  O11  1  0.75889000  0.61739800  0.06561700  1
  O  O12  1  0.37993800  0.06584800  0.87959000  1
  O  O13  1  0.62006200  0.93415200  0.12041000  1
  O  O14  1  0.93415200  0.62006200  0.62041000  1
  O  O15  1  0.06584800  0.37993800  0.37959000  1
  O  O16  1  0.58619100  0.36819000  0.96523400  1
  O  O17  1  0.41380900  0.63181000  0.03476600  1
  O  O18  1  0.63181000  0.41380900  0.53476600  1
  O  O19  1  0.36819000  0.58619100  0.46523400  1
  O  O20  1  0.78759000  0.95059100  0.69938000  1
  O  O21  1  0.21241000  0.04940900  0.30062000  1
  O  O22  1  0.04940900  0.21241000  0.80062000  1
  O  O23  1  0.95059100  0.78759000  0.19938000  1
