# generated using pymatgen
data_Er2Mn17C3
_symmetry_space_group_name_H-M   'P 1'
_cell_length_a   8.47844633
_cell_length_b   8.47844633
_cell_length_c   8.26781600
_cell_angle_alpha   90.00000000
_cell_angle_beta   90.00000000
_cell_angle_gamma   120.00000256
_symmetry_Int_Tables_number   1
_chemical_formula_structural   Er2Mn17C3
_chemical_formula_sum   'Er4 Mn34 C6'
_cell_volume   514.69976966
_cell_formula_units_Z   2
loop_
 _symmetry_equiv_pos_site_id
 _symmetry_equiv_pos_as_xyz
  1  'x, y, z'
loop_
 _atom_site_type_symbol
 _atom_site_label
 _atom_site_symmetry_multiplicity
 _atom_site_fract_x
 _atom_site_fract_y
 _atom_site_fract_z
 _atom_site_occupancy
  Er  Er0  1  0.33333300  0.66666700  0.25000000  1
  Er  Er1  1  0.66666700  0.33333300  0.75000000  1
  Er  Er2  1  0.00000000  0.00000000  0.25000000  1
  Er  Er3  1  0.00000000  0.00000000  0.75000000  1
  Mn  Mn4  1  0.38955300  0.06058500  0.25000000  1
  Mn  Mn5  1  0.61044700  0.93941500  0.75000000  1
  Mn  Mn6  1  0.93941500  0.32896900  0.25000000  1
  Mn  Mn7  1  0.06058500  0.38955300  0.75000000  1
  Mn  Mn8  1  0.06058500  0.67103100  0.75000000  1
  Mn  Mn9  1  0.93941500  0.61044700  0.25000000  1
  Mn  Mn10  1  0.67103100  0.61044700  0.25000000  1
  Mn  Mn11  1  0.32896900  0.93941500  0.75000000  1
  Mn  Mn12  1  0.32896900  0.38955300  0.75000000  1
  Mn  Mn13  1  0.67103100  0.06058500  0.25000000  1
  Mn  Mn14  1  0.61044700  0.67103100  0.75000000  1
  Mn  Mn15  1  0.38955300  0.32896900  0.25000000  1
  Mn  Mn16  1  0.33333300  0.66666700  0.60886500  1
  Mn  Mn17  1  0.66666700  0.33333300  0.39113500  1
  Mn  Mn18  1  0.66666700  0.33333300  0.10886500  1
  Mn  Mn19  1  0.33333300  0.66666700  0.89113500  1
  Mn  Mn20  1  0.17034000  0.34068000  0.02556700  1
  Mn  Mn21  1  0.82966000  0.65932000  0.97443300  1
  Mn  Mn22  1  0.65932000  0.82966000  0.02556700  1
  Mn  Mn23  1  0.82966000  0.65932000  0.52556700  1
  Mn  Mn24  1  0.34068000  0.17034000  0.97443300  1
  Mn  Mn25  1  0.17034000  0.34068000  0.47443300  1
  Mn  Mn26  1  0.17034000  0.82966000  0.02556700  1
  Mn  Mn27  1  0.34068000  0.17034000  0.52556700  1
  Mn  Mn28  1  0.82966000  0.17034000  0.97443300  1
  Mn  Mn29  1  0.65932000  0.82966000  0.47443300  1
  Mn  Mn30  1  0.82966000  0.17034000  0.52556700  1
  Mn  Mn31  1  0.17034000  0.82966000  0.47443300  1
  Mn  Mn32  1  0.50000000  0.00000000  0.00000000  1
  Mn  Mn33  1  0.00000000  0.50000000  0.00000000  1
  Mn  Mn34  1  0.50000000  0.00000000  0.50000000  1
  Mn  Mn35  1  0.50000000  0.50000000  0.00000000  1
  Mn  Mn36  1  0.00000000  0.50000000  0.50000000  1
  Mn  Mn37  1  0.50000000  0.50000000  0.50000000  1
  C  C38  1  0.16462400  0.32924900  0.25000000  1
  C  C39  1  0.83537600  0.67075100  0.75000000  1
  C  C40  1  0.67075100  0.83537600  0.25000000  1
  C  C41  1  0.32924900  0.16462400  0.75000000  1
  C  C42  1  0.16462400  0.83537600  0.25000000  1
  C  C43  1  0.83537600  0.16462400  0.75000000  1
