# generated using pymatgen
data_GaAsO6
_symmetry_space_group_name_H-M   'P 1'
_cell_length_a   8.79581100
_cell_length_b   10.04351100
_cell_length_c   10.15125400
_cell_angle_alpha   90.00000000
_cell_angle_beta   90.00000000
_cell_angle_gamma   90.00000000
_symmetry_Int_Tables_number   1
_chemical_formula_structural   GaAsO6
_chemical_formula_sum   'Ga8 As8 O48'
_cell_volume   896.77014840
_cell_formula_units_Z   8
loop_
 _symmetry_equiv_pos_site_id
 _symmetry_equiv_pos_as_xyz
  1  'x, y, z'
loop_
 _atom_site_type_symbol
 _atom_site_label
 _atom_site_symmetry_multiplicity
 _atom_site_fract_x
 _atom_site_fract_y
 _atom_site_fract_z
 _atom_site_occupancy
  Ga  Ga0  1  0.35716800  0.18357800  0.12775200  1
  Ga  Ga1  1  0.64283200  0.81642200  0.87224800  1
  Ga  Ga2  1  0.14283200  0.81642200  0.62775200  1
  Ga  Ga3  1  0.64283200  0.68357800  0.37224800  1
  Ga  Ga4  1  0.85716800  0.18357800  0.37224800  1
  Ga  Ga5  1  0.35716800  0.31642200  0.62775200  1
  Ga  Ga6  1  0.85716800  0.31642200  0.87224800  1
  Ga  Ga7  1  0.14283200  0.68357800  0.12775200  1
  As  As8  1  0.04039000  0.36593700  0.15918000  1
  As  As9  1  0.95961000  0.63406300  0.84082000  1
  As  As10  1  0.45961000  0.63406300  0.65918000  1
  As  As11  1  0.95961000  0.86593700  0.34082000  1
  As  As12  1  0.54039000  0.36593700  0.34082000  1
  As  As13  1  0.04039000  0.13406300  0.65918000  1
  As  As14  1  0.54039000  0.13406300  0.84082000  1
  As  As15  1  0.45961000  0.86593700  0.15918000  1
  O  O16  1  0.49320100  0.03376300  0.16701300  1
  O  O17  1  0.50679900  0.96623700  0.83298700  1
  O  O18  1  0.00679900  0.96623700  0.66701300  1
  O  O19  1  0.50679900  0.53376300  0.33298700  1
  O  O20  1  0.99320100  0.03376300  0.33298700  1
  O  O21  1  0.49320100  0.46623700  0.66701300  1
  O  O22  1  0.99320100  0.46623700  0.83298700  1
  O  O23  1  0.00679900  0.53376300  0.16701300  1
  O  O24  1  0.22372900  0.34299200  0.10265700  1
  O  O25  1  0.77627100  0.65700800  0.89734300  1
  O  O26  1  0.27627100  0.65700800  0.60265700  1
  O  O27  1  0.77627100  0.84299200  0.39734300  1
  O  O28  1  0.72372900  0.34299200  0.39734300  1
  O  O29  1  0.22372900  0.15700800  0.60265700  1
  O  O30  1  0.72372900  0.15700800  0.89734300  1
  O  O31  1  0.27627100  0.84299200  0.10265700  1
  O  O32  1  0.40296300  0.29372700  0.44014200  1
  O  O33  1  0.59703700  0.70627300  0.55985800  1
  O  O34  1  0.09703700  0.70627300  0.94014200  1
  O  O35  1  0.59703700  0.79372700  0.05985800  1
  O  O36  1  0.90296300  0.29372700  0.05985800  1
  O  O37  1  0.40296300  0.20627300  0.94014200  1
  O  O38  1  0.90296300  0.20627300  0.55985800  1
  O  O39  1  0.09703700  0.79372700  0.44014200  1
  O  O40  1  0.19210100  0.05194700  0.05764000  1
  O  O41  1  0.80789900  0.94805300  0.94236000  1
  O  O42  1  0.30789900  0.94805300  0.55764000  1
  O  O43  1  0.80789900  0.55194700  0.44236000  1
  O  O44  1  0.69210100  0.05194700  0.44236000  1
  O  O45  1  0.19210100  0.44805300  0.55764000  1
  O  O46  1  0.69210100  0.44805300  0.94236000  1
  O  O47  1  0.30789900  0.55194700  0.05764000  1
  O  O48  1  0.25943400  0.14733200  0.30577400  1
  O  O49  1  0.74056600  0.85266900  0.69422600  1
  O  O50  1  0.24056600  0.85266900  0.80577400  1
  O  O51  1  0.74056600  0.64733100  0.19422600  1
  O  O52  1  0.75943400  0.14733200  0.19422600  1
  O  O53  1  0.25943400  0.35266800  0.80577400  1
  O  O54  1  0.75943400  0.35266800  0.69422600  1
  O  O55  1  0.24056600  0.64733100  0.30577400  1
  O  O56  1  0.02709500  0.29258600  0.31101300  1
  O  O57  1  0.97290500  0.70741400  0.68898700  1
  O  O58  1  0.47290500  0.70741400  0.81101300  1
  O  O59  1  0.97290500  0.79258600  0.18898700  1
  O  O60  1  0.52709500  0.29258600  0.18898700  1
  O  O61  1  0.02709500  0.20741400  0.81101300  1
  O  O62  1  0.52709500  0.20741400  0.68898700  1
  O  O63  1  0.47290500  0.79258600  0.31101300  1
