# generated using pymatgen
data_CsYb(MoO4)2
_symmetry_space_group_name_H-M   'P 1'
_cell_length_a   7.69855374
_cell_length_b   7.69855374
_cell_length_c   7.77177118
_cell_angle_alpha   62.56581496
_cell_angle_beta   62.56581496
_cell_angle_gamma   89.55768980
_symmetry_Int_Tables_number   1
_chemical_formula_structural   CsYb(MoO4)2
_chemical_formula_sum   'Cs2 Yb2 Mo4 O16'
_cell_volume   350.39305977
_cell_formula_units_Z   2
loop_
 _symmetry_equiv_pos_site_id
 _symmetry_equiv_pos_as_xyz
  1  'x, y, z'
loop_
 _atom_site_type_symbol
 _atom_site_label
 _atom_site_symmetry_multiplicity
 _atom_site_fract_x
 _atom_site_fract_y
 _atom_site_fract_z
 _atom_site_occupancy
  Cs  Cs0  1  0.19683500  0.80316500  0.75000000  1
  Cs  Cs1  1  0.80316500  0.19683500  0.25000000  1
  Yb  Yb2  1  0.77038600  0.22961400  0.75000000  1
  Yb  Yb3  1  0.22961400  0.77038600  0.25000000  1
  Mo  Mo4  1  0.69658500  0.69245200  0.76563000  1
  Mo  Mo5  1  0.30341500  0.30754800  0.23437000  1
  Mo  Mo6  1  0.30754800  0.30341500  0.73437000  1
  Mo  Mo7  1  0.69245200  0.69658500  0.26563000  1
  O  O8  1  0.61847900  0.75626500  0.56283900  1
  O  O9  1  0.38152100  0.24373500  0.43716100  1
  O  O10  1  0.24373500  0.38152100  0.93716100  1
  O  O11  1  0.75626500  0.61847900  0.06283900  1
  O  O12  1  0.38241800  0.07341600  0.86651800  1
  O  O13  1  0.61758200  0.92658400  0.13348200  1
  O  O14  1  0.92658400  0.61758200  0.63348200  1
  O  O15  1  0.07341600  0.38241800  0.36651800  1
  O  O16  1  0.58105400  0.37226100  0.96786100  1
  O  O17  1  0.41894600  0.62773900  0.03213900  1
  O  O18  1  0.62773900  0.41894600  0.53213900  1
  O  O19  1  0.37226100  0.58105400  0.46786100  1
  O  O20  1  0.78428700  0.94322900  0.70285500  1
  O  O21  1  0.21571300  0.05677100  0.29714500  1
  O  O22  1  0.05677100  0.21571300  0.79714500  1
  O  O23  1  0.94322900  0.78428700  0.20285500  1
