# generated using pymatgen
data_LaP3O14
_symmetry_space_group_name_H-M   'P 1'
_cell_length_a   7.02758900
_cell_length_b   13.07274000
_cell_length_c   13.70680900
_cell_angle_alpha   90.00000000
_cell_angle_beta   90.00000000
_cell_angle_gamma   90.00000000
_symmetry_Int_Tables_number   1
_chemical_formula_structural   LaP3O14
_chemical_formula_sum   'La4 P12 O56'
_cell_volume   1259.24240215
_cell_formula_units_Z   4
loop_
 _symmetry_equiv_pos_site_id
 _symmetry_equiv_pos_as_xyz
  1  'x, y, z'
loop_
 _atom_site_type_symbol
 _atom_site_label
 _atom_site_symmetry_multiplicity
 _atom_site_fract_x
 _atom_site_fract_y
 _atom_site_fract_z
 _atom_site_occupancy
  La  La0  1  0.17732500  0.27185800  0.19379600  1
  La  La1  1  0.17732500  0.72814200  0.80620400  1
  La  La2  1  0.82267500  0.22814200  0.69379600  1
  La  La3  1  0.82267500  0.77185800  0.30620400  1
  P  P4  1  0.06378500  0.02339400  0.31285400  1
  P  P5  1  0.06378500  0.97660600  0.68714600  1
  P  P6  1  0.93621500  0.47660600  0.81285400  1
  P  P7  1  0.93621500  0.52339400  0.18714600  1
  P  P8  1  0.05734000  0.19794000  0.45040400  1
  P  P9  1  0.05734000  0.80206000  0.54959600  1
  P  P10  1  0.94266000  0.30206000  0.95040400  1
  P  P11  1  0.94266000  0.69794000  0.04959600  1
  P  P12  1  0.29619000  0.15449200  0.62330500  1
  P  P13  1  0.29619000  0.84550800  0.37669500  1
  P  P14  1  0.70381000  0.34550800  0.12330500  1
  P  P15  1  0.70381000  0.65449200  0.87669500  1
  O  O16  1  0.09468400  0.27172300  0.02179300  1
  O  O17  1  0.09468400  0.72827700  0.97820700  1
  O  O18  1  0.90531600  0.22827700  0.52179300  1
  O  O19  1  0.90531600  0.77172300  0.47820700  1
  O  O20  1  0.50535600  0.24753200  0.32078000  1
  O  O21  1  0.50535600  0.75246800  0.67922000  1
  O  O22  1  0.49464400  0.25246800  0.82078000  1
  O  O23  1  0.49464400  0.74753200  0.17922000  1
  O  O24  1  0.16332100  0.22126000  0.68077200  1
  O  O25  1  0.16332100  0.77874000  0.31922800  1
  O  O26  1  0.83667900  0.27874000  0.18077200  1
  O  O27  1  0.83667900  0.72126000  0.81922800  1
  O  O28  1  0.34639200  0.56291300  0.38689800  1
  O  O29  1  0.34639200  0.43708700  0.61310200  1
  O  O30  1  0.65360800  0.93708700  0.88689800  1
  O  O31  1  0.65360800  0.06291300  0.11310200  1
  O  O32  1  0.32292600  0.12373900  0.87444100  1
  O  O33  1  0.32292600  0.87626100  0.12555900  1
  O  O34  1  0.67707400  0.37626100  0.37444100  1
  O  O35  1  0.67707400  0.62373900  0.62555900  1
  O  O36  1  0.25044300  0.03498700  0.64501600  1
  O  O37  1  0.25044300  0.96501300  0.35498400  1
  O  O38  1  0.74955700  0.46501300  0.14501600  1
  O  O39  1  0.74955700  0.53498700  0.85498400  1
  O  O40  1  0.10930900  0.26958600  0.36961100  1
  O  O41  1  0.10930900  0.73041400  0.63038900  1
  O  O42  1  0.89069100  0.23041400  0.86961100  1
  O  O43  1  0.89069100  0.76958600  0.13038900  1
  O  O44  1  0.49354500  0.33149400  0.13661000  1
  O  O45  1  0.49354500  0.66850600  0.86339000  1
  O  O46  1  0.50645500  0.16850600  0.63661000  1
  O  O47  1  0.50645500  0.83149400  0.36339000  1
  O  O48  1  0.13034400  0.09388000  0.23321800  1
  O  O49  1  0.13034400  0.90612000  0.76678200  1
  O  O50  1  0.86965600  0.40612000  0.73321800  1
  O  O51  1  0.86965600  0.59388000  0.26678200  1
  O  O52  1  0.25237500  0.16733000  0.50799200  1
  O  O53  1  0.25237500  0.83267000  0.49200800  1
  O  O54  1  0.74762500  0.33267000  0.00799200  1
  O  O55  1  0.74762500  0.66733000  0.99200800  1
  O  O56  1  0.00573900  0.58806800  0.09344700  1
  O  O57  1  0.00573900  0.41193200  0.90655300  1
  O  O58  1  0.99426100  0.91193200  0.59344700  1
  O  O59  1  0.99426100  0.08806800  0.40655300  1
  O  O60  1  0.09265700  0.44857300  0.20831100  1
  O  O61  1  0.09265700  0.55142700  0.79168900  1
  O  O62  1  0.90734300  0.05142700  0.70831100  1
  O  O63  1  0.90734300  0.94857300  0.29168900  1
  O  O64  1  0.48538300  0.08155800  0.09504500  1
  O  O65  1  0.48538300  0.91844200  0.90495500  1
  O  O66  1  0.51461700  0.41844200  0.59504500  1
  O  O67  1  0.51461700  0.58155800  0.40495500  1
  O  O68  1  0.51307200  0.33725900  0.36195800  1
  O  O69  1  0.51307200  0.66274100  0.63804200  1
  O  O70  1  0.48692800  0.16274100  0.86195800  1
  O  O71  1  0.48692800  0.83725900  0.13804200  1
