# generated using pymatgen
data_CsSm2I5
_symmetry_space_group_name_H-M   'P 1'
_cell_length_a   9.17317400
_cell_length_b   9.99396400
_cell_length_c   13.86498899
_cell_angle_alpha   87.53812961
_cell_angle_beta   90.00000000
_cell_angle_gamma   90.00000000
_symmetry_Int_Tables_number   1
_chemical_formula_structural   CsSm2I5
_chemical_formula_sum   'Cs4 Sm8 I20'
_cell_volume   1269.91868910
_cell_formula_units_Z   4
loop_
 _symmetry_equiv_pos_site_id
 _symmetry_equiv_pos_as_xyz
  1  'x, y, z'
loop_
 _atom_site_type_symbol
 _atom_site_label
 _atom_site_symmetry_multiplicity
 _atom_site_fract_x
 _atom_site_fract_y
 _atom_site_fract_z
 _atom_site_occupancy
  Cs  Cs0  1  0.41820300  0.49370700  0.83142200  1
  Cs  Cs1  1  0.58179700  0.50629300  0.16857800  1
  Cs  Cs2  1  0.91820300  0.50629300  0.66857800  1
  Cs  Cs3  1  0.08179700  0.49370700  0.33142200  1
  Sm  Sm4  1  0.39638500  0.99712100  0.81468100  1
  Sm  Sm5  1  0.60361500  0.00287900  0.18531900  1
  Sm  Sm6  1  0.89638500  0.00287900  0.68531900  1
  Sm  Sm7  1  0.10361500  0.99712100  0.31468100  1
  Sm  Sm8  1  0.39839300  0.77701000  0.49862300  1
  Sm  Sm9  1  0.60160700  0.22299000  0.50137700  1
  Sm  Sm10  1  0.89839300  0.22299000  0.00137700  1
  Sm  Sm11  1  0.10160700  0.77701000  0.99862300  1
  I  I12  1  0.31747000  0.47238000  0.56390700  1
  I  I13  1  0.68253000  0.52762000  0.43609300  1
  I  I14  1  0.81747000  0.52762000  0.93609300  1
  I  I15  1  0.18253000  0.47238000  0.06390700  1
  I  I16  1  0.61747100  0.79637100  0.69085900  1
  I  I17  1  0.38252900  0.20362900  0.30914100  1
  I  I18  1  0.11747100  0.20362900  0.80914100  1
  I  I19  1  0.88252900  0.79637100  0.19085900  1
  I  I20  1  0.15298300  0.78262900  0.77339800  1
  I  I21  1  0.84701700  0.21737100  0.22660200  1
  I  I22  1  0.65298300  0.21737100  0.72660200  1
  I  I23  1  0.34701700  0.78262900  0.27339800  1
  I  I24  1  0.04443100  0.80318600  0.50105500  1
  I  I25  1  0.95556900  0.19681400  0.49894500  1
  I  I26  1  0.54443100  0.19681400  0.99894500  1
  I  I27  1  0.45556900  0.80318600  0.00105500  1
  I  I28  1  0.83387000  0.94265300  0.91240800  1
  I  I29  1  0.16613000  0.05734700  0.08759200  1
  I  I30  1  0.33387000  0.05734700  0.58759200  1
  I  I31  1  0.66613000  0.94265300  0.41240800  1
