# generated using pymatgen
data_Fe2PCO7
_symmetry_space_group_name_H-M   'P 1'
_cell_length_a   6.46272700
_cell_length_b   9.66777600
_cell_length_c   10.21108709
_cell_angle_alpha   63.56830719
_cell_angle_beta   90.00000000
_cell_angle_gamma   90.00000000
_symmetry_Int_Tables_number   1
_chemical_formula_structural   Fe2PCO7
_chemical_formula_sum   'Fe8 P4 C4 O28'
_cell_volume   571.29880261
_cell_formula_units_Z   4
loop_
 _symmetry_equiv_pos_site_id
 _symmetry_equiv_pos_as_xyz
  1  'x, y, z'
loop_
 _atom_site_type_symbol
 _atom_site_label
 _atom_site_symmetry_multiplicity
 _atom_site_fract_x
 _atom_site_fract_y
 _atom_site_fract_z
 _atom_site_occupancy
  Fe  Fe0  1  0.64469000  0.49454500  0.63628000  1
  Fe  Fe1  1  0.35531000  0.50545500  0.36372000  1
  Fe  Fe2  1  0.14469000  0.00545500  0.36372000  1
  Fe  Fe3  1  0.85531000  0.99454500  0.63628000  1
  Fe  Fe4  1  0.02006400  0.73944200  0.26197300  1
  Fe  Fe5  1  0.97993600  0.26055800  0.73802700  1
  Fe  Fe6  1  0.52006400  0.76055800  0.73802700  1
  Fe  Fe7  1  0.47993600  0.23944200  0.26197300  1
  P  P8  1  0.66765000  0.88432600  0.40030400  1
  P  P9  1  0.33235000  0.11567400  0.59969600  1
  P  P10  1  0.16765000  0.61567400  0.59969600  1
  P  P11  1  0.83235000  0.38432600  0.40030400  1
  C  C12  1  0.45012900  0.55085700  0.03292800  1
  C  C13  1  0.54987100  0.44914300  0.96707200  1
  C  C14  1  0.95012900  0.94914300  0.96707200  1
  C  C15  1  0.04987100  0.05085700  0.03292800  1
  O  O16  1  0.74422000  0.83082600  0.29000600  1
  O  O17  1  0.25578000  0.16917400  0.70999400  1
  O  O18  1  0.24422000  0.66917400  0.70999400  1
  O  O19  1  0.75578000  0.33082600  0.29000600  1
  O  O20  1  0.52175700  0.00153800  0.65499900  1
  O  O21  1  0.47824300  0.99846200  0.34500100  1
  O  O22  1  0.02175700  0.49846200  0.34500100  1
  O  O23  1  0.97824300  0.50153800  0.65499900  1
  O  O24  1  0.40431000  0.47685200  0.16845400  1
  O  O25  1  0.59569000  0.52314800  0.83154600  1
  O  O26  1  0.90431000  0.02314800  0.83154600  1
  O  O27  1  0.09569000  0.97685200  0.16845400  1
  O  O28  1  0.92301700  0.80852900  0.04831700  1
  O  O29  1  0.07698300  0.19147100  0.95168300  1
  O  O30  1  0.42301700  0.69147100  0.95168300  1
  O  O31  1  0.57698300  0.30852900  0.04831700  1
  O  O32  1  0.30556000  0.70897800  0.24483400  1
  O  O33  1  0.69444000  0.29102200  0.75516600  1
  O  O34  1  0.80556000  0.79102200  0.75516600  1
  O  O35  1  0.19444000  0.20897800  0.24483400  1
  O  O36  1  0.60375700  0.74298900  0.54555300  1
  O  O37  1  0.39624300  0.25701100  0.45444700  1
  O  O38  1  0.10375700  0.75701100  0.45444700  1
  O  O39  1  0.89624300  0.24298900  0.54555300  1
  O  O40  1  0.83610400  0.98294400  0.43408200  1
  O  O41  1  0.16389600  0.01705600  0.56591800  1
  O  O42  1  0.33610400  0.51705600  0.56591800  1
  O  O43  1  0.66389600  0.48294400  0.43408200  1
