# generated using pymatgen
data_HoZr6(PO4)9
_symmetry_space_group_name_H-M   'P 1'
_cell_length_a   8.94211410
_cell_length_b   8.94211410
_cell_length_c   22.89237100
_cell_angle_alpha   90.00000000
_cell_angle_beta   90.00000000
_cell_angle_gamma   120.00000072
_symmetry_Int_Tables_number   1
_chemical_formula_structural   HoZr6(PO4)9
_chemical_formula_sum   'Ho2 Zr12 P18 O72'
_cell_volume   1585.26480595
_cell_formula_units_Z   2
loop_
 _symmetry_equiv_pos_site_id
 _symmetry_equiv_pos_as_xyz
  1  'x, y, z'
loop_
 _atom_site_type_symbol
 _atom_site_label
 _atom_site_symmetry_multiplicity
 _atom_site_fract_x
 _atom_site_fract_y
 _atom_site_fract_z
 _atom_site_occupancy
  Ho  Ho0  1  0.00000000  0.00000000  0.50000000  1
  Ho  Ho1  1  0.00000000  0.00000000  0.00000000  1
  Zr  Zr2  1  0.33333300  0.66666700  0.52992800  1
  Zr  Zr3  1  0.66666700  0.33333300  0.47007200  1
  Zr  Zr4  1  0.66666700  0.33333300  0.97007200  1
  Zr  Zr5  1  0.33333300  0.66666700  0.02992800  1
  Zr  Zr6  1  0.00000000  0.00000000  0.64885700  1
  Zr  Zr7  1  0.00000000  0.00000000  0.35114300  1
  Zr  Zr8  1  0.00000000  0.00000000  0.85114300  1
  Zr  Zr9  1  0.00000000  0.00000000  0.14885700  1
  Zr  Zr10  1  0.33333300  0.66666700  0.81287000  1
  Zr  Zr11  1  0.66666700  0.33333300  0.18713000  1
  Zr  Zr12  1  0.66666700  0.33333300  0.68713000  1
  Zr  Zr13  1  0.33333300  0.66666700  0.31287000  1
  P  P14  1  0.37383500  0.31724200  0.57863000  1
  P  P15  1  0.62616500  0.68275800  0.42137000  1
  P  P16  1  0.68275800  0.05659300  0.57863000  1
  P  P17  1  0.31724200  0.37383500  0.92137000  1
  P  P18  1  0.31724200  0.94340700  0.42137000  1
  P  P19  1  0.68275800  0.62616500  0.07863000  1
  P  P20  1  0.94340700  0.62616500  0.57863000  1
  P  P21  1  0.05659300  0.68275800  0.92137000  1
  P  P22  1  0.05659300  0.37383500  0.42137000  1
  P  P23  1  0.94340700  0.31724200  0.07863000  1
  P  P24  1  0.62616500  0.94340700  0.92137000  1
  P  P25  1  0.37383500  0.05659300  0.07863000  1
  P  P26  1  0.29166500  0.00000000  0.75000000  1
  P  P27  1  0.70833500  0.00000000  0.25000000  1
  P  P28  1  0.00000000  0.29166500  0.75000000  1
  P  P29  1  0.00000000  0.70833500  0.25000000  1
  P  P30  1  0.70833500  0.70833500  0.75000000  1
  P  P31  1  0.29166500  0.29166500  0.25000000  1
  O  O32  1  0.45795900  0.28651000  0.52508000  1
  O  O33  1  0.54204100  0.71349000  0.47492000  1
  O  O34  1  0.71349000  0.17144800  0.52508000  1
  O  O35  1  0.28651000  0.45795900  0.97492000  1
  O  O36  1  0.28651000  0.82855200  0.47492000  1
  O  O37  1  0.71349000  0.54204100  0.02508000  1
  O  O38  1  0.82855200  0.54204100  0.52508000  1
  O  O39  1  0.17144800  0.71349000  0.97492000  1
  O  O40  1  0.17144800  0.45795900  0.47492000  1
  O  O41  1  0.82855200  0.28651000  0.02508000  1
  O  O42  1  0.54204100  0.82855200  0.97492000  1
  O  O43  1  0.45795900  0.17144800  0.02508000  1
  O  O44  1  0.37443300  0.48932500  0.57550300  1
  O  O45  1  0.62556700  0.51067500  0.42449700  1
  O  O46  1  0.51067500  0.88510800  0.57550300  1
  O  O47  1  0.48932500  0.37443300  0.92449700  1
  O  O48  1  0.48932500  0.11489200  0.42449700  1
  O  O49  1  0.51067500  0.62556700  0.07550300  1
  O  O50  1  0.11489200  0.62556700  0.57550300  1
  O  O51  1  0.88510800  0.51067500  0.92449700  1
  O  O52  1  0.88510800  0.37443300  0.42449700  1
  O  O53  1  0.11489200  0.48932500  0.07550300  1
  O  O54  1  0.62556700  0.11489200  0.92449700  1
  O  O55  1  0.37443300  0.88510800  0.07550300  1
  O  O56  1  0.17796000  0.16560400  0.57693200  1
  O  O57  1  0.82204000  0.83439600  0.42306800  1
  O  O58  1  0.83439600  0.01235600  0.57693200  1
  O  O59  1  0.16560400  0.17796000  0.92306800  1
  O  O60  1  0.16560400  0.98764400  0.42306800  1
  O  O61  1  0.83439600  0.82204000  0.07693200  1
  O  O62  1  0.98764400  0.82204000  0.57693200  1
  O  O63  1  0.01235600  0.83439600  0.92306800  1
  O  O64  1  0.01235600  0.17796000  0.42306800  1
  O  O65  1  0.98764400  0.16560400  0.07693200  1
  O  O66  1  0.82204000  0.98764400  0.92306800  1
  O  O67  1  0.17796000  0.01235600  0.07693200  1
  O  O68  1  0.03182200  0.20453600  0.69596100  1
  O  O69  1  0.96817800  0.79546400  0.30403900  1
  O  O70  1  0.79546400  0.82728700  0.69596100  1
  O  O71  1  0.20453600  0.03182200  0.80403900  1
  O  O72  1  0.20453600  0.17271300  0.30403900  1
  O  O73  1  0.79546400  0.96817800  0.19596100  1
  O  O74  1  0.17271300  0.96817800  0.69596100  1
  O  O75  1  0.82728700  0.79546400  0.80403900  1
  O  O76  1  0.82728700  0.03182200  0.30403900  1
  O  O77  1  0.17271300  0.20453600  0.19596100  1
  O  O78  1  0.96817800  0.17271300  0.80403900  1
  O  O79  1  0.03182200  0.82728700  0.19596100  1
  O  O80  1  0.45844800  0.30805700  0.63540100  1
  O  O81  1  0.54155200  0.69194300  0.36459900  1
  O  O82  1  0.69194300  0.15039100  0.63540100  1
  O  O83  1  0.30805700  0.45844800  0.86459900  1
  O  O84  1  0.30805700  0.84960900  0.36459900  1
  O  O85  1  0.69194300  0.54155200  0.13540100  1
  O  O86  1  0.84960900  0.54155200  0.63540100  1
  O  O87  1  0.15039100  0.69194300  0.86459900  1
  O  O88  1  0.15039100  0.45844800  0.36459900  1
  O  O89  1  0.84960900  0.30805700  0.13540100  1
  O  O90  1  0.54155200  0.84960900  0.86459900  1
  O  O91  1  0.45844800  0.15039100  0.13540100  1
  O  O92  1  0.46783900  0.15860700  0.73998600  1
  O  O93  1  0.53216100  0.84139300  0.26001400  1
  O  O94  1  0.84139300  0.30923200  0.73998600  1
  O  O95  1  0.15860700  0.46783900  0.76001400  1
  O  O96  1  0.15860700  0.69076800  0.26001400  1
  O  O97  1  0.84139300  0.53216100  0.23998600  1
  O  O98  1  0.69076800  0.53216100  0.73998600  1
  O  O99  1  0.30923200  0.84139300  0.76001400  1
  O  O100  1  0.30923200  0.46783900  0.26001400  1
  O  O101  1  0.69076800  0.15860700  0.23998600  1
  O  O102  1  0.53216100  0.69076800  0.76001400  1
  O  O103  1  0.46783900  0.30923200  0.23998600  1
