# generated using pymatgen
data_ErTlS2O9
_symmetry_space_group_name_H-M   'P 1'
_cell_length_a   8.48510100
_cell_length_b   10.41837148
_cell_length_c   10.14363446
_cell_angle_alpha   119.70872152
_cell_angle_beta   90.00000000
_cell_angle_gamma   90.00000000
_symmetry_Int_Tables_number   1
_chemical_formula_structural   ErTlS2O9
_chemical_formula_sum   'Er4 Tl4 S8 O36'
_cell_volume   778.84011657
_cell_formula_units_Z   4
loop_
 _symmetry_equiv_pos_site_id
 _symmetry_equiv_pos_as_xyz
  1  'x, y, z'
loop_
 _atom_site_type_symbol
 _atom_site_label
 _atom_site_symmetry_multiplicity
 _atom_site_fract_x
 _atom_site_fract_y
 _atom_site_fract_z
 _atom_site_occupancy
  Er  Er0  1  0.36248400  0.96181100  0.71648400  1
  Er  Er1  1  0.63751600  0.03818900  0.28351600  1
  Er  Er2  1  0.86248400  0.53818900  0.78351600  1
  Er  Er3  1  0.13751600  0.46181100  0.21648400  1
  Tl  Tl4  1  0.33239000  0.68747400  0.96629800  1
  Tl  Tl5  1  0.66761000  0.31252600  0.03370200  1
  Tl  Tl6  1  0.83239000  0.81252600  0.53370200  1
  Tl  Tl7  1  0.16761000  0.18747400  0.46629800  1
  S  S8  1  0.12984300  0.31726600  0.87419700  1
  S  S9  1  0.87015700  0.68273400  0.12580300  1
  S  S10  1  0.62984300  0.18273400  0.62580300  1
  S  S11  1  0.37015700  0.81726600  0.37419700  1
  S  S12  1  0.19982000  0.60164300  0.59850900  1
  S  S13  1  0.80018000  0.39835700  0.40149100  1
  S  S14  1  0.69982000  0.89835700  0.90149100  1
  S  S15  1  0.30018000  0.10164300  0.09850900  1
  O  O16  1  0.78439500  0.04043800  0.96560900  1
  O  O17  1  0.21560500  0.95956200  0.03439100  1
  O  O18  1  0.28439500  0.45956200  0.53439100  1
  O  O19  1  0.71560500  0.54043800  0.46560900  1
  O  O20  1  0.20577600  0.17645000  0.76214300  1
  O  O21  1  0.79422400  0.82355000  0.23785700  1
  O  O22  1  0.70577600  0.32355000  0.73785700  1
  O  O23  1  0.29422400  0.67645000  0.26214300  1
  O  O24  1  0.31139100  0.72855100  0.67548400  1
  O  O25  1  0.68860900  0.27144900  0.32451600  1
  O  O26  1  0.81139100  0.77144900  0.82451600  1
  O  O27  1  0.18860900  0.22855100  0.17548400  1
  O  O28  1  0.38268100  0.11343100  0.97426400  1
  O  O29  1  0.61731900  0.88656900  0.02573600  1
  O  O30  1  0.88268100  0.38656900  0.52573600  1
  O  O31  1  0.11731900  0.61343100  0.47426400  1
  O  O32  1  0.09314200  0.94566300  0.76843500  1
  O  O33  1  0.90685800  0.05433700  0.23156500  1
  O  O34  1  0.59314200  0.55433700  0.73156500  1
  O  O35  1  0.40685800  0.44566300  0.26843500  1
  O  O36  1  0.25013800  0.42207800  0.98406500  1
  O  O37  1  0.74986200  0.57792200  0.01593500  1
  O  O38  1  0.75013800  0.07792200  0.51593500  1
  O  O39  1  0.24986200  0.92207800  0.48406500  1
  O  O40  1  0.01135900  0.29805300  0.97093500  1
  O  O41  1  0.98864100  0.70194700  0.02906500  1
  O  O42  1  0.51135900  0.20194700  0.52906500  1
  O  O43  1  0.48864100  0.79805300  0.47093500  1
  O  O44  1  0.05644700  0.38293300  0.78741600  1
  O  O45  1  0.94355300  0.61706700  0.21258400  1
  O  O46  1  0.55644700  0.11706700  0.71258400  1
  O  O47  1  0.44355300  0.88293300  0.28741600  1
  O  O48  1  0.58500600  0.88371500  0.78428500  1
  O  O49  1  0.41499400  0.11628500  0.21571500  1
  O  O50  1  0.08500600  0.61628500  0.71571500  1
  O  O51  1  0.91499400  0.38371500  0.28428500  1
