# generated using pymatgen
data_CsYC4O9
_symmetry_space_group_name_H-M   'P 1'
_cell_length_a   6.24016300
_cell_length_b   8.54661900
_cell_length_c   12.33485550
_cell_angle_alpha   46.19735510
_cell_angle_beta   90.00000000
_cell_angle_gamma   90.00000000
_symmetry_Int_Tables_number   1
_chemical_formula_structural   CsYC4O9
_chemical_formula_sum   'Cs2 Y2 C8 O18'
_cell_volume   474.78617553
_cell_formula_units_Z   2
loop_
 _symmetry_equiv_pos_site_id
 _symmetry_equiv_pos_as_xyz
  1  'x, y, z'
loop_
 _atom_site_type_symbol
 _atom_site_label
 _atom_site_symmetry_multiplicity
 _atom_site_fract_x
 _atom_site_fract_y
 _atom_site_fract_z
 _atom_site_occupancy
  Cs  Cs0  1  0.50165200  0.00000000  0.25000000  1
  Cs  Cs1  1  0.49834800  0.00000000  0.75000000  1
  Y  Y2  1  0.07644900  0.50000000  0.25000000  1
  Y  Y3  1  0.92355100  0.50000000  0.75000000  1
  C  C4  1  0.10347600  0.98800000  0.54069800  1
  C  C5  1  0.89652400  0.01200000  0.45930200  1
  C  C6  1  0.10347600  0.01200000  0.95930200  1
  C  C7  1  0.89652400  0.98800000  0.04069800  1
  C  C8  1  0.10841300  0.43765200  0.02168000  1
  C  C9  1  0.89158700  0.56234800  0.97832000  1
  C  C10  1  0.10841300  0.56234800  0.47832000  1
  C  C11  1  0.89158700  0.43765200  0.52168000  1
  O  O12  1  0.22316100  0.15392500  0.46788700  1
  O  O13  1  0.77683900  0.84607500  0.53211300  1
  O  O14  1  0.22316100  0.84607500  0.03211300  1
  O  O15  1  0.77683900  0.15392500  0.96788700  1
  O  O16  1  0.14889400  0.62907800  0.54067400  1
  O  O17  1  0.85110600  0.37092200  0.45932600  1
  O  O18  1  0.14889400  0.37092200  0.95932600  1
  O  O19  1  0.85110600  0.62907800  0.04067400  1
  O  O20  1  0.47528500  0.50000000  0.25000000  1
  O  O21  1  0.52471500  0.50000000  0.75000000  1
  O  O22  1  0.13445000  0.80675500  0.67210700  1
  O  O23  1  0.86555000  0.19324500  0.32789300  1
  O  O24  1  0.13445000  0.19324500  0.82789300  1
  O  O25  1  0.86555000  0.80675500  0.17210700  1
  O  O26  1  0.22385900  0.58707400  0.38274600  1
  O  O27  1  0.77614100  0.41292600  0.61725400  1
  O  O28  1  0.22385900  0.41292600  0.11725400  1
  O  O29  1  0.77614100  0.58707400  0.88274600  1
