# generated using pymatgen
data_CsFe2Te3
_symmetry_space_group_name_H-M   'P 1'
_cell_length_a   5.72673900
_cell_length_b   8.18014092
_cell_length_c   8.18014092
_cell_angle_alpha   104.81347977
_cell_angle_beta   90.00000000
_cell_angle_gamma   90.00000000
_symmetry_Int_Tables_number   1
_chemical_formula_structural   CsFe2Te3
_chemical_formula_sum   'Cs2 Fe4 Te6'
_cell_volume   370.46663444
_cell_formula_units_Z   2
loop_
 _symmetry_equiv_pos_site_id
 _symmetry_equiv_pos_as_xyz
  1  'x, y, z'
loop_
 _atom_site_type_symbol
 _atom_site_label
 _atom_site_symmetry_multiplicity
 _atom_site_fract_x
 _atom_site_fract_y
 _atom_site_fract_z
 _atom_site_occupancy
  Cs  Cs0  1  0.75000000  0.32222600  0.67777400  1
  Cs  Cs1  1  0.25000000  0.67777400  0.32222600  1
  Fe  Fe2  1  0.00000000  0.86465100  0.86465100  1
  Fe  Fe3  1  0.00000000  0.13534900  0.13534900  1
  Fe  Fe4  1  0.50000000  0.13534900  0.13534900  1
  Fe  Fe5  1  0.50000000  0.86465100  0.86465100  1
  Te  Te6  1  0.75000000  0.38307200  0.16989500  1
  Te  Te7  1  0.25000000  0.61692800  0.83010500  1
  Te  Te8  1  0.75000000  0.83010500  0.61692800  1
  Te  Te9  1  0.25000000  0.16989500  0.38307200  1
  Te  Te10  1  0.75000000  0.88319000  0.11680900  1
  Te  Te11  1  0.25000000  0.11680900  0.88319000  1
