# generated using pymatgen
data_CsW3Br7
_symmetry_space_group_name_H-M   'P 1'
_cell_length_a   10.48476848
_cell_length_b   10.48476848
_cell_length_c   15.82677600
_cell_angle_alpha   90.00000000
_cell_angle_beta   90.00000000
_cell_angle_gamma   120.00000306
_symmetry_Int_Tables_number   1
_chemical_formula_structural   CsW3Br7
_chemical_formula_sum   'Cs4 W12 Br28'
_cell_volume   1506.74848834
_cell_formula_units_Z   4
loop_
 _symmetry_equiv_pos_site_id
 _symmetry_equiv_pos_as_xyz
  1  'x, y, z'
loop_
 _atom_site_type_symbol
 _atom_site_label
 _atom_site_symmetry_multiplicity
 _atom_site_fract_x
 _atom_site_fract_y
 _atom_site_fract_z
 _atom_site_occupancy
  Cs  Cs0  1  0.00000000  0.00000000  0.50000000  1
  Cs  Cs1  1  0.00000000  0.00000000  0.00000000  1
  Cs  Cs2  1  0.33333300  0.66666700  0.75000000  1
  Cs  Cs3  1  0.66666700  0.33333300  0.25000000  1
  W  W4  1  0.66547400  0.18609800  0.68148900  1
  W  W5  1  0.33452600  0.81390200  0.31851100  1
  W  W6  1  0.81390200  0.47937500  0.68148900  1
  W  W7  1  0.66547400  0.47937500  0.81851100  1
  W  W8  1  0.18609800  0.52062500  0.31851100  1
  W  W9  1  0.33452600  0.52062500  0.18148900  1
  W  W10  1  0.52062500  0.33452600  0.68148900  1
  W  W11  1  0.81390200  0.33452600  0.81851100  1
  W  W12  1  0.47937500  0.66547400  0.31851100  1
  W  W13  1  0.18609800  0.66547400  0.18148900  1
  W  W14  1  0.52062500  0.18609800  0.81851100  1
  W  W15  1  0.47937500  0.81390200  0.18148900  1
  Br  Br16  1  0.67176400  0.04261600  0.82083500  1
  Br  Br17  1  0.32823600  0.95738400  0.17916500  1
  Br  Br18  1  0.95738400  0.62914700  0.82083500  1
  Br  Br19  1  0.67176400  0.62914700  0.67916500  1
  Br  Br20  1  0.04261600  0.37085300  0.17916500  1
  Br  Br21  1  0.32823600  0.37085300  0.32083500  1
  Br  Br22  1  0.37085300  0.32823600  0.82083500  1
  Br  Br23  1  0.95738400  0.32823600  0.67916500  1
  Br  Br24  1  0.62914700  0.67176400  0.17916500  1
  Br  Br25  1  0.04261600  0.67176400  0.32083500  1
  Br  Br26  1  0.37085300  0.04261600  0.67916500  1
  Br  Br27  1  0.62914700  0.95738400  0.32083500  1
  Br  Br28  1  0.66666700  0.33333300  0.54474600  1
  Br  Br29  1  0.33333300  0.66666700  0.45525400  1
  Br  Br30  1  0.66666700  0.33333300  0.95525400  1
  Br  Br31  1  0.33333300  0.66666700  0.04474600  1
  Br  Br32  1  0.31614800  0.34523400  0.59047700  1
  Br  Br33  1  0.68385200  0.65476600  0.40952300  1
  Br  Br34  1  0.65476600  0.97091300  0.59047700  1
  Br  Br35  1  0.31614800  0.97091300  0.90952300  1
  Br  Br36  1  0.34523400  0.02908700  0.40952300  1
  Br  Br37  1  0.68385200  0.02908700  0.09047700  1
  Br  Br38  1  0.02908700  0.68385200  0.59047700  1
  Br  Br39  1  0.65476600  0.68385200  0.90952300  1
  Br  Br40  1  0.97091300  0.31614800  0.40952300  1
  Br  Br41  1  0.34523400  0.31614800  0.09047700  1
  Br  Br42  1  0.02908700  0.34523400  0.90952300  1
  Br  Br43  1  0.97091300  0.65476600  0.09047700  1
