# generated using pymatgen
data_Na2ZnPO12
_symmetry_space_group_name_H-M   'P 1'
_cell_length_a   21.31015200
_cell_length_b   6.54774800
_cell_length_c   7.68204083
_cell_angle_alpha   82.18000175
_cell_angle_beta   90.00000000
_cell_angle_gamma   90.00000000
_symmetry_Int_Tables_number   1
_chemical_formula_structural   Na2ZnPO12
_chemical_formula_sum   'Na8 Zn4 P4 O48'
_cell_volume   1061.93383373
_cell_formula_units_Z   4
loop_
 _symmetry_equiv_pos_site_id
 _symmetry_equiv_pos_as_xyz
  1  'x, y, z'
loop_
 _atom_site_type_symbol
 _atom_site_label
 _atom_site_symmetry_multiplicity
 _atom_site_fract_x
 _atom_site_fract_y
 _atom_site_fract_z
 _atom_site_occupancy
  Na  Na0  1  0.19357600  0.21650300  0.82767500  1
  Na  Na1  1  0.80642400  0.78349700  0.17232500  1
  Na  Na2  1  0.69357600  0.28349700  0.17232500  1
  Na  Na3  1  0.30642400  0.71650300  0.82767500  1
  Na  Na4  1  0.02169100  0.40723800  0.80019700  1
  Na  Na5  1  0.97830900  0.59276200  0.19980300  1
  Na  Na6  1  0.52169100  0.09276200  0.19980300  1
  Na  Na7  1  0.47830900  0.90723800  0.80019700  1
  Zn  Zn8  1  0.24337700  0.67727900  0.16129200  1
  Zn  Zn9  1  0.75662300  0.32272100  0.83870800  1
  Zn  Zn10  1  0.74337700  0.82272100  0.83870800  1
  Zn  Zn11  1  0.25662300  0.17727900  0.16129200  1
  P  P12  1  0.63455400  0.08917200  0.82510300  1
  P  P13  1  0.36544600  0.91082800  0.17489700  1
  P  P14  1  0.13455400  0.41082800  0.17489700  1
  P  P15  1  0.86544600  0.58917200  0.82510300  1
  O  O16  1  0.41321100  0.42997900  0.99952100  1
  O  O17  1  0.58678900  0.57002100  0.00047900  1
  O  O18  1  0.91321100  0.07002100  0.00047900  1
  O  O19  1  0.08678900  0.92997900  0.99952100  1
  O  O20  1  0.09729100  0.20228700  0.70073200  1
  O  O21  1  0.90270900  0.79771300  0.29926800  1
  O  O22  1  0.59729100  0.29771300  0.29926800  1
  O  O23  1  0.40270900  0.70228700  0.70073200  1
  O  O24  1  0.31012400  0.27284700  0.62814100  1
  O  O25  1  0.68987600  0.72715300  0.37185900  1
  O  O26  1  0.81012400  0.22715300  0.37185900  1
  O  O27  1  0.18987600  0.77284700  0.62814100  1
  O  O28  1  0.65086900  0.02901500  0.02696300  1
  O  O29  1  0.34913100  0.97098500  0.97303700  1
  O  O30  1  0.15086900  0.47098500  0.97303700  1
  O  O31  1  0.84913100  0.52901500  0.02696300  1
  O  O32  1  0.56348600  0.09677300  0.81157300  1
  O  O33  1  0.43651400  0.90322700  0.18842700  1
  O  O34  1  0.06348600  0.40322700  0.18842700  1
  O  O35  1  0.93651400  0.59677300  0.81157300  1
  O  O36  1  0.43749800  0.37099800  0.47218700  1
  O  O37  1  0.56250200  0.62900200  0.52781300  1
  O  O38  1  0.93749800  0.12900200  0.52781300  1
  O  O39  1  0.06250200  0.87099800  0.47218700  1
  O  O40  1  0.33184500  0.70411800  0.24575200  1
  O  O41  1  0.66815500  0.29588200  0.75424800  1
  O  O42  1  0.83184500  0.79588200  0.75424800  1
  O  O43  1  0.16815500  0.20411800  0.24575200  1
  O  O44  1  0.16501000  0.58047900  0.27547200  1
  O  O45  1  0.83499000  0.41952100  0.72452800  1
  O  O46  1  0.66501000  0.91952100  0.72452800  1
  O  O47  1  0.33499000  0.08047900  0.27547200  1
  O  O48  1  0.26343000  0.32168300  0.53616400  1
  O  O49  1  0.73657000  0.67831700  0.46383600  1
  O  O50  1  0.76343000  0.17831700  0.46383600  1
  O  O51  1  0.23657000  0.82168300  0.53616400  1
  O  O52  1  0.24018900  0.94866500  0.01437400  1
  O  O53  1  0.75981100  0.05133500  0.98562600  1
  O  O54  1  0.74018900  0.55133500  0.98562600  1
  O  O55  1  0.25981100  0.44866500  0.01437400  1
  O  O56  1  0.45562800  0.19259700  0.51663900  1
  O  O57  1  0.54437200  0.80740300  0.48336100  1
  O  O58  1  0.95562800  0.30740300  0.48336100  1
  O  O59  1  0.04437200  0.69259700  0.51663900  1
  O  O60  1  0.04447100  0.86832500  0.90906800  1
  O  O61  1  0.95552900  0.13167500  0.09093200  1
  O  O62  1  0.54447100  0.63167500  0.09093200  1
  O  O63  1  0.45552900  0.36832500  0.90906800  1
