# generated using pymatgen
data_Cu(BrO6)2
_symmetry_space_group_name_H-M   'P 1'
_cell_length_a   9.65637200
_cell_length_b   9.65637200
_cell_length_c   9.65637200
_cell_angle_alpha   90.00000000
_cell_angle_beta   90.00000000
_cell_angle_gamma   90.00000000
_symmetry_Int_Tables_number   1
_chemical_formula_structural   Cu(BrO6)2
_chemical_formula_sum   'Cu4 Br8 O48'
_cell_volume   900.41343041
_cell_formula_units_Z   4
loop_
 _symmetry_equiv_pos_site_id
 _symmetry_equiv_pos_as_xyz
  1  'x, y, z'
loop_
 _atom_site_type_symbol
 _atom_site_label
 _atom_site_symmetry_multiplicity
 _atom_site_fract_x
 _atom_site_fract_y
 _atom_site_fract_z
 _atom_site_occupancy
  Cu  Cu0  1  0.00000000  0.00000000  0.00000000  1
  Cu  Cu1  1  0.50000000  0.00000000  0.50000000  1
  Cu  Cu2  1  0.00000000  0.50000000  0.50000000  1
  Cu  Cu3  1  0.50000000  0.50000000  0.00000000  1
  Br  Br4  1  0.26302000  0.26302000  0.26302000  1
  Br  Br5  1  0.73698000  0.73698000  0.73698000  1
  Br  Br6  1  0.23698000  0.73698000  0.76302000  1
  Br  Br7  1  0.73698000  0.76302000  0.23698000  1
  Br  Br8  1  0.76302000  0.26302000  0.23698000  1
  Br  Br9  1  0.26302000  0.23698000  0.76302000  1
  Br  Br10  1  0.76302000  0.23698000  0.73698000  1
  Br  Br11  1  0.23698000  0.76302000  0.26302000  1
  O  O12  1  0.12183000  0.34198600  0.19067600  1
  O  O13  1  0.87817000  0.65801400  0.80932400  1
  O  O14  1  0.37817000  0.65801400  0.69067600  1
  O  O15  1  0.87817000  0.84198600  0.30932400  1
  O  O16  1  0.19067600  0.12183000  0.34198600  1
  O  O17  1  0.62183000  0.34198600  0.30932400  1
  O  O18  1  0.12183000  0.15801400  0.69067600  1
  O  O19  1  0.80932400  0.87817000  0.65801400  1
  O  O20  1  0.62183000  0.15801400  0.80932400  1
  O  O21  1  0.69067600  0.37817000  0.65801400  1
  O  O22  1  0.37817000  0.84198600  0.19067600  1
  O  O23  1  0.30932400  0.62183000  0.34198600  1
  O  O24  1  0.30932400  0.87817000  0.84198600  1
  O  O25  1  0.69067600  0.12183000  0.15801400  1
  O  O26  1  0.80932400  0.62183000  0.15801400  1
  O  O27  1  0.19067600  0.37817000  0.84198600  1
  O  O28  1  0.34198600  0.19067600  0.12183000  1
  O  O29  1  0.65801400  0.80932400  0.87817000  1
  O  O30  1  0.84198600  0.30932400  0.87817000  1
  O  O31  1  0.15801400  0.69067600  0.12183000  1
  O  O32  1  0.15801400  0.80932400  0.62183000  1
  O  O33  1  0.84198600  0.19067600  0.37817000  1
  O  O34  1  0.65801400  0.69067600  0.37817000  1
  O  O35  1  0.34198600  0.30932400  0.62183000  1
  O  O36  1  0.18982200  0.44738800  0.45672000  1
  O  O37  1  0.81017800  0.55261200  0.54328000  1
  O  O38  1  0.31017800  0.55261200  0.95672000  1
  O  O39  1  0.81017800  0.94738800  0.04328000  1
  O  O40  1  0.45672000  0.18982200  0.44738800  1
  O  O41  1  0.68982200  0.44738800  0.04328000  1
  O  O42  1  0.18982200  0.05261200  0.95672000  1
  O  O43  1  0.54328000  0.81017800  0.55261200  1
  O  O44  1  0.68982200  0.05261200  0.54328000  1
  O  O45  1  0.95672000  0.31017800  0.55261200  1
  O  O46  1  0.31017800  0.94738800  0.45672000  1
  O  O47  1  0.04328000  0.68982200  0.44738800  1
  O  O48  1  0.04328000  0.81017800  0.94738800  1
  O  O49  1  0.95672000  0.18982200  0.05261200  1
  O  O50  1  0.54328000  0.68982200  0.05261200  1
  O  O51  1  0.45672000  0.31017800  0.94738800  1
  O  O52  1  0.44738800  0.45672000  0.18982200  1
  O  O53  1  0.55261200  0.54328000  0.81017800  1
  O  O54  1  0.94738800  0.04328000  0.81017800  1
  O  O55  1  0.05261200  0.95672000  0.18982200  1
  O  O56  1  0.05261200  0.54328000  0.68982200  1
  O  O57  1  0.94738800  0.45672000  0.31017800  1
  O  O58  1  0.55261200  0.95672000  0.31017800  1
  O  O59  1  0.44738800  0.04328000  0.68982200  1
