# generated using pymatgen
data_ErFeC6N6O5
_symmetry_space_group_name_H-M   'P 1'
_cell_length_a   7.44975828
_cell_length_b   7.44975828
_cell_length_c   13.40854500
_cell_angle_alpha   90.00000000
_cell_angle_beta   90.00000000
_cell_angle_gamma   120.00000246
_symmetry_Int_Tables_number   1
_chemical_formula_structural   ErFeC6N6O5
_chemical_formula_sum   'Er2 Fe2 C12 N12 O10'
_cell_volume   644.46099511
_cell_formula_units_Z   2
loop_
 _symmetry_equiv_pos_site_id
 _symmetry_equiv_pos_as_xyz
  1  'x, y, z'
loop_
 _atom_site_type_symbol
 _atom_site_label
 _atom_site_symmetry_multiplicity
 _atom_site_fract_x
 _atom_site_fract_y
 _atom_site_fract_z
 _atom_site_occupancy
  Er  Er0  1  0.33333300  0.66666700  0.75000000  1
  Er  Er1  1  0.66666700  0.33333300  0.25000000  1
  Fe  Fe2  1  0.00000000  0.00000000  0.00000000  1
  Fe  Fe3  1  0.00000000  0.00000000  0.50000000  1
  C  C4  1  0.75224400  0.89025300  0.91797900  1
  C  C5  1  0.24775600  0.10974700  0.08202100  1
  C  C6  1  0.13800900  0.24775600  0.91797900  1
  C  C7  1  0.24775600  0.10974700  0.41797900  1
  C  C8  1  0.86199100  0.75224400  0.08202100  1
  C  C9  1  0.75224400  0.89025300  0.58202100  1
  C  C10  1  0.10974700  0.86199100  0.91797900  1
  C  C11  1  0.86199100  0.75224400  0.41797900  1
  C  C12  1  0.89025300  0.13800900  0.08202100  1
  C  C13  1  0.13800900  0.24775600  0.58202100  1
  C  C14  1  0.89025300  0.13800900  0.41797900  1
  C  C15  1  0.10974700  0.86199100  0.58202100  1
  N  N16  1  0.60882900  0.82317700  0.86444000  1
  N  N17  1  0.39117100  0.17682300  0.13556000  1
  N  N18  1  0.21434800  0.39117100  0.86444000  1
  N  N19  1  0.39117100  0.17682300  0.36444000  1
  N  N20  1  0.78565200  0.60882900  0.13556000  1
  N  N21  1  0.60882900  0.82317700  0.63556000  1
  N  N22  1  0.17682300  0.78565200  0.86444000  1
  N  N23  1  0.78565200  0.60882900  0.36444000  1
  N  N24  1  0.82317700  0.21434800  0.13556000  1
  N  N25  1  0.21434800  0.39117100  0.63556000  1
  N  N26  1  0.82317700  0.21434800  0.36444000  1
  N  N27  1  0.17682300  0.78565200  0.63556000  1
  O  O28  1  0.66666700  0.33333300  0.84909600  1
  O  O29  1  0.33333300  0.66666700  0.15090400  1
  O  O30  1  0.33333300  0.66666700  0.34909600  1
  O  O31  1  0.66666700  0.33333300  0.65090400  1
  O  O32  1  0.88095600  0.42088700  0.75000000  1
  O  O33  1  0.11904400  0.57911300  0.25000000  1
  O  O34  1  0.53993100  0.11904400  0.75000000  1
  O  O35  1  0.46006900  0.88095600  0.25000000  1
  O  O36  1  0.57911300  0.46006900  0.75000000  1
  O  O37  1  0.42088700  0.53993100  0.25000000  1
