# generated using pymatgen
data_CsU2H(C2O7)2
_symmetry_space_group_name_H-M   'P 1'
_cell_length_a   5.91325757
_cell_length_b   9.72540536
_cell_length_c   13.68902300
_cell_angle_alpha   90.00000000
_cell_angle_beta   90.00000000
_cell_angle_gamma   94.30659534
_symmetry_Int_Tables_number   1
_chemical_formula_structural   CsU2H(C2O7)2
_chemical_formula_sum   'Cs2 U4 H2 C8 O28'
_cell_volume   785.01687998
_cell_formula_units_Z   2
loop_
 _symmetry_equiv_pos_site_id
 _symmetry_equiv_pos_as_xyz
  1  'x, y, z'
loop_
 _atom_site_type_symbol
 _atom_site_label
 _atom_site_symmetry_multiplicity
 _atom_site_fract_x
 _atom_site_fract_y
 _atom_site_fract_z
 _atom_site_occupancy
  Cs  Cs0  1  0.03954000  0.13800000  0.75000000  1
  Cs  Cs1  1  0.96046000  0.86200000  0.25000000  1
  U  U2  1  0.72019000  0.73787200  0.91169000  1
  U  U3  1  0.27981000  0.26212800  0.08831000  1
  U  U4  1  0.27981000  0.26212800  0.41169000  1
  U  U5  1  0.72019000  0.73787200  0.58831000  1
  H  H6  1  0.47893400  0.63974600  0.75000000  1
  H  H7  1  0.52106600  0.36025400  0.25000000  1
  C  C8  1  0.53805300  0.98043800  0.44829400  1
  C  C9  1  0.46194700  0.01956200  0.55170600  1
  C  C10  1  0.46194700  0.01956200  0.94829400  1
  C  C11  1  0.53805300  0.98043800  0.05170600  1
  C  C12  1  0.98707900  0.46060500  0.95109600  1
  C  C13  1  0.01292000  0.53939500  0.04890400  1
  C  C14  1  0.01292000  0.53939500  0.45109600  1
  C  C15  1  0.98707900  0.46060500  0.54890400  1
  O  O16  1  0.97915300  0.83408700  0.87462500  1
  O  O17  1  0.02084700  0.16591300  0.12537500  1
  O  O18  1  0.02084700  0.16591300  0.37462500  1
  O  O19  1  0.97915300  0.83408700  0.62537500  1
  O  O20  1  0.62075300  0.69774400  0.75000000  1
  O  O21  1  0.37924700  0.30225600  0.25000000  1
  O  O22  1  0.52912400  0.94824500  0.87827700  1
  O  O23  1  0.47087600  0.05175500  0.12172300  1
  O  O24  1  0.47087600  0.05175500  0.37827700  1
  O  O25  1  0.52912400  0.94824500  0.62172300  1
  O  O26  1  0.57341100  0.31916800  0.75000000  1
  O  O27  1  0.42658900  0.68083200  0.25000000  1
  O  O28  1  0.66066800  0.87943600  0.44244000  1
  O  O29  1  0.33933200  0.12056400  0.55756000  1
  O  O30  1  0.33933200  0.12056400  0.94244000  1
  O  O31  1  0.66066800  0.87943600  0.05756000  1
  O  O32  1  0.45218800  0.64791400  0.94330400  1
  O  O33  1  0.54781200  0.35208600  0.05669600  1
  O  O34  1  0.54781200  0.35208600  0.44330400  1
  O  O35  1  0.45218800  0.64791400  0.55669600  1
  O  O36  1  0.92322900  0.65332200  0.44639400  1
  O  O37  1  0.07677100  0.34667800  0.55360600  1
  O  O38  1  0.07677100  0.34667800  0.94639400  1
  O  O39  1  0.92322900  0.65332200  0.05360600  1
  O  O40  1  0.87906200  0.51713300  0.88425300  1
  O  O41  1  0.12093800  0.48286700  0.11574700  1
  O  O42  1  0.12093800  0.48286700  0.38425300  1
  O  O43  1  0.87906200  0.51713300  0.61574700  1
