# generated using pymatgen
data_KAsOF5
_symmetry_space_group_name_H-M   'P 1'
_cell_length_a   9.72036623
_cell_length_b   11.69709702
_cell_length_c   29.51380345
_cell_angle_alpha   90.00000000
_cell_angle_beta   90.00000000
_cell_angle_gamma   90.00000000
_symmetry_Int_Tables_number   1
_chemical_formula_structural   KAsOF5
_chemical_formula_sum   'K24 As24 O24 F120'
_cell_volume   3355.72142562
_cell_formula_units_Z   24
loop_
 _symmetry_equiv_pos_site_id
 _symmetry_equiv_pos_as_xyz
  1  'x, y, z'
loop_
 _atom_site_type_symbol
 _atom_site_label
 _atom_site_symmetry_multiplicity
 _atom_site_fract_x
 _atom_site_fract_y
 _atom_site_fract_z
 _atom_site_occupancy
  K  K0  1  0.77093253  0.66164449  0.83378920  1
  K  K1  1  0.22906747  0.33835551  0.16621080  1
  K  K2  1  0.27093253  0.83835551  0.66621080  1
  K  K3  1  0.72906747  0.66164449  0.16621080  1
  K  K4  1  0.72906747  0.16164449  0.33378920  1
  K  K5  1  0.27093253  0.33835551  0.83378920  1
  K  K6  1  0.22906747  0.83835551  0.33378920  1
  K  K7  1  0.77093253  0.16164449  0.66621080  1
  K  K8  1  0.75000000  0.17958246  0.00000000  1
  K  K9  1  0.25000000  0.82041754  0.00000000  1
  K  K10  1  0.25000000  0.32041754  0.50000000  1
  K  K11  1  0.75000000  0.67958246  0.50000000  1
  K  K12  1  0.74966609  0.67658164  0.66738156  1
  K  K13  1  0.25033391  0.32341836  0.33261844  1
  K  K14  1  0.24966609  0.82341836  0.83261844  1
  K  K15  1  0.75033391  0.67658164  0.33261844  1
  K  K16  1  0.75033391  0.17658164  0.16738156  1
  K  K17  1  0.24966609  0.32341836  0.66738156  1
  K  K18  1  0.25033391  0.82341836  0.16738156  1
  K  K19  1  0.74966609  0.17658164  0.83261844  1
  K  K20  1  0.75000000  0.65962603  0.00000000  1
  K  K21  1  0.25000000  0.34037397  0.00000000  1
  K  K22  1  0.25000000  0.84037397  0.50000000  1
  K  K23  1  0.75000000  0.15962603  0.50000000  1
  As  As24  1  0.57917380  0.89409307  0.75753247  1
  As  As25  1  0.42082620  0.10590693  0.24246753  1
  As  As26  1  0.07917380  0.60590693  0.74246753  1
  As  As27  1  0.92082620  0.89409307  0.24246753  1
  As  As28  1  0.92082620  0.39409307  0.25753247  1
  As  As29  1  0.07917380  0.10590693  0.75753247  1
  As  As30  1  0.42082620  0.60590693  0.25753247  1
  As  As31  1  0.57917380  0.39409307  0.74246753  1
  As  As32  1  0.89195389  0.90391535  0.58377863  1
  As  As33  1  0.10804611  0.09608465  0.41622137  1
  As  As34  1  0.39195389  0.59608465  0.91622137  1
  As  As35  1  0.60804611  0.90391535  0.41622137  1
  As  As36  1  0.60804611  0.40391535  0.08377863  1
  As  As37  1  0.39195389  0.09608465  0.58377863  1
  As  As38  1  0.10804611  0.59608465  0.08377863  1
  As  As39  1  0.89195389  0.40391535  0.91622137  1
  As  As40  1  0.92806877  0.89580455  0.91924312  1
  As  As41  1  0.07193123  0.10419545  0.08075688  1
  As  As42  1  0.42806877  0.60419545  0.58075688  1
  As  As43  1  0.57193123  0.89580455  0.08075688  1
  As  As44  1  0.57193123  0.39580455  0.41924312  1
  As  As45  1  0.42806877  0.10419545  0.91924312  1
  As  As46  1  0.07193123  0.60419545  0.41924312  1
  As  As47  1  0.92806877  0.39580455  0.58075688  1
  O  O48  1  0.76207309  0.82472081  0.91836694  1
  O  O49  1  0.23792691  0.17527919  0.08163306  1
  O  O50  1  0.26207309  0.67527919  0.58163306  1
  O  O51  1  0.73792691  0.82472081  0.08163306  1
  O  O52  1  0.73792691  0.32472081  0.41836694  1
  O  O53  1  0.26207309  0.17527919  0.91836694  1
  O  O54  1  0.23792691  0.67527919  0.41836694  1
  O  O55  1  0.76207309  0.32472081  0.58163306  1
  O  O56  1  0.74924999  0.83099502  0.75539165  1
  O  O57  1  0.25075001  0.16900498  0.24460835  1
  O  O58  1  0.24924999  0.66900498  0.74460835  1
  O  O59  1  0.75075001  0.83099502  0.24460835  1
  O  O60  1  0.75075001  0.33099502  0.25539165  1
  O  O61  1  0.24924999  0.16900498  0.75539165  1
  O  O62  1  0.25075001  0.66900498  0.25539165  1
  O  O63  1  0.74924999  0.33099502  0.74460835  1
  O  O64  1  0.89676708  0.55810911  0.92016729  1
  O  O65  1  0.10323292  0.44189089  0.07983271  1
  O  O66  1  0.39676708  0.94189089  0.57983271  1
  O  O67  1  0.60323292  0.55810911  0.07983271  1
  O  O68  1  0.60323292  0.05810911  0.42016729  1
  O  O69  1  0.39676708  0.44189089  0.92016729  1
  O  O70  1  0.10323292  0.94189089  0.42016729  1
  O  O71  1  0.89676708  0.05810911  0.57983271  1
  F  F72  1  0.87926579  0.99414282  0.87630896  1
  F  F73  1  0.12073421  0.00585718  0.12369104  1
  F  F74  1  0.37926579  0.50585718  0.62369104  1
  F  F75  1  0.62073421  0.99414282  0.12369104  1
  F  F76  1  0.62073421  0.49414282  0.37630896  1
  F  F77  1  0.37926579  0.00585718  0.87630896  1
  F  F78  1  0.12073421  0.50585718  0.37630896  1
  F  F79  1  0.87926579  0.49414282  0.62369104  1
  F  F80  1  0.72779724  0.91738432  0.55665945  1
  F  F81  1  0.27220276  0.08261568  0.44334055  1
  F  F82  1  0.22779724  0.58261568  0.94334055  1
  F  F83  1  0.77220276  0.91738432  0.44334055  1
  F  F84  1  0.77220276  0.41738432  0.05665945  1
  F  F85  1  0.22779724  0.08261568  0.55665945  1
  F  F86  1  0.27220276  0.58261568  0.05665945  1
  F  F87  1  0.72779724  0.41738432  0.94334055  1
  F  F88  1  0.97892566  0.79625726  0.96285270  1
  F  F89  1  0.02107434  0.20374274  0.03714730  1
  F  F90  1  0.47892566  0.70374274  0.53714730  1
  F  F91  1  0.52107434  0.79625726  0.03714730  1
  F  F92  1  0.52107434  0.29625726  0.46285270  1
  F  F93  1  0.47892566  0.20374274  0.96285270  1
  F  F94  1  0.02107434  0.70374274  0.46285270  1
  F  F95  1  0.97892566  0.29625726  0.53714730  1
  F  F96  1  0.62384780  0.98521933  0.80338303  1
  F  F97  1  0.37615220  0.01478067  0.19661697  1
  F  F98  1  0.12384780  0.51478067  0.69661697  1
  F  F99  1  0.87615220  0.98521933  0.19661697  1
  F  F100  1  0.87615220  0.48521933  0.30338303  1
  F  F101  1  0.12384780  0.01478067  0.80338303  1
  F  F102  1  0.37615220  0.51478067  0.30338303  1
  F  F103  1  0.62384780  0.48521933  0.69661697  1
  F  F104  1  0.55642943  0.60445443  0.89012232  1
  F  F105  1  0.44357057  0.39554557  0.10987768  1
  F  F106  1  0.05642943  0.89554557  0.60987768  1
  F  F107  1  0.94357057  0.60445443  0.10987768  1
  F  F108  1  0.94357057  0.10445443  0.39012232  1
  F  F109  1  0.05642943  0.39554557  0.89012232  1
  F  F110  1  0.44357057  0.89554557  0.39012232  1
  F  F111  1  0.55642943  0.10445443  0.60987768  1
  F  F112  1  0.62275457  0.50462159  0.78130762  1
  F  F113  1  0.37724543  0.49537841  0.21869238  1
  F  F114  1  0.12275457  0.99537841  0.71869238  1
  F  F115  1  0.87724543  0.50462159  0.21869238  1
  F  F116  1  0.87724543  0.00462159  0.28130762  1
  F  F117  1  0.12275457  0.49537841  0.78130762  1
  F  F118  1  0.37724543  0.99537841  0.28130762  1
  F  F119  1  0.62275457  0.00462159  0.71869238  1
  F  F120  1  0.59805270  0.54987776  0.57999655  1
  F  F121  1  0.40194730  0.45012224  0.42000345  1
  F  F122  1  0.09805270  0.95012224  0.92000345  1
  F  F123  1  0.90194730  0.54987776  0.42000345  1
  F  F124  1  0.90194730  0.04987776  0.07999655  1
  F  F125  1  0.09805270  0.45012224  0.57999655  1
  F  F126  1  0.40194730  0.95012224  0.07999655  1
  F  F127  1  0.59805270  0.04987776  0.92000345  1
  F  F128  1  0.53138651  0.78324020  0.79697193  1
  F  F129  1  0.46861349  0.21675980  0.20302807  1
  F  F130  1  0.03138651  0.71675980  0.70302807  1
  F  F131  1  0.96861349  0.78324020  0.20302807  1
  F  F132  1  0.96861349  0.28324020  0.29697193  1
  F  F133  1  0.03138651  0.21675980  0.79697193  1
  F  F134  1  0.46861349  0.71675980  0.29697193  1
  F  F135  1  0.53138651  0.28324020  0.70302807  1
  F  F136  1  0.98352378  0.79535757  0.87645623  1
  F  F137  1  0.01647622  0.20464243  0.12354377  1
  F  F138  1  0.48352378  0.70464243  0.62354377  1
  F  F139  1  0.51647622  0.79535757  0.12354377  1
  F  F140  1  0.51647622  0.29535757  0.37645623  1
  F  F141  1  0.48352378  0.20464243  0.87645623  1
  F  F142  1  0.01647622  0.70464243  0.37645623  1
  F  F143  1  0.98352378  0.29535757  0.62354377  1
  F  F144  1  0.86867755  0.75251300  0.58668408  1
  F  F145  1  0.13132245  0.24748700  0.41331592  1
  F  F146  1  0.36867755  0.74748700  0.91331592  1
  F  F147  1  0.63132245  0.75251300  0.41331592  1
  F  F148  1  0.63132245  0.25251300  0.08668408  1
  F  F149  1  0.36867755  0.24748700  0.58668408  1
  F  F150  1  0.13132245  0.74748700  0.08668408  1
  F  F151  1  0.86867755  0.25251300  0.91331592  1
  F  F152  1  0.81193815  0.91135896  0.63848675  1
  F  F153  1  0.18806185  0.08864104  0.36151325  1
  F  F154  1  0.31193815  0.58864104  0.86151325  1
  F  F155  1  0.68806185  0.91135896  0.36151325  1
  F  F156  1  0.68806185  0.41135896  0.13848675  1
  F  F157  1  0.31193815  0.08864104  0.63848675  1
  F  F158  1  0.18806185  0.58864104  0.13848675  1
  F  F159  1  0.81193815  0.41135896  0.86151325  1
  F  F160  1  0.53190310  0.80207743  0.71110760  1
  F  F161  1  0.46809690  0.19792257  0.28889240  1
  F  F162  1  0.03190310  0.69792257  0.78889240  1
  F  F163  1  0.96809690  0.80207743  0.28889240  1
  F  F164  1  0.96809690  0.30207743  0.21110760  1
  F  F165  1  0.03190310  0.19792257  0.71110760  1
  F  F166  1  0.46809690  0.69792257  0.21110760  1
  F  F167  1  0.53190310  0.30207743  0.78889240  1
  F  F168  1  0.97193600  0.88327473  0.52995188  1
  F  F169  1  0.02806400  0.11672527  0.47004812  1
  F  F170  1  0.47193600  0.61672527  0.97004812  1
  F  F171  1  0.52806400  0.88327473  0.47004812  1
  F  F172  1  0.52806400  0.38327473  0.02995188  1
  F  F173  1  0.47193600  0.11672527  0.52995188  1
  F  F174  1  0.02806400  0.61672527  0.02995188  1
  F  F175  1  0.97193600  0.38327473  0.97004812  1
  F  F176  1  0.87575257  0.99510011  0.96136377  1
  F  F177  1  0.12424743  0.00489989  0.03863623  1
  F  F178  1  0.37575257  0.50489989  0.53863623  1
  F  F179  1  0.62424743  0.99510011  0.03863623  1
  F  F180  1  0.62424743  0.49510011  0.46136377  1
  F  F181  1  0.37575257  0.00489989  0.96136377  1
  F  F182  1  0.12424743  0.50489989  0.46136377  1
  F  F183  1  0.87575257  0.49510011  0.53863623  1
  F  F184  1  0.90608666  0.55754255  0.74089862  1
  F  F185  1  0.09391334  0.44245745  0.25910138  1
  F  F186  1  0.40608666  0.94245745  0.75910138  1
  F  F187  1  0.59391334  0.55754255  0.25910138  1
  F  F188  1  0.59391334  0.05754255  0.24089862  1
  F  F189  1  0.40608666  0.44245745  0.74089862  1
  F  F190  1  0.09391334  0.94245745  0.24089862  1
  F  F191  1  0.90608666  0.05754255  0.75910138  1
