# generated using pymatgen
data_Dy7BP2O17
_symmetry_space_group_name_H-M   'P 1'
_cell_length_a   17.30994400
_cell_length_b   6.65176700
_cell_length_c   13.00829365
_cell_angle_alpha   66.43752803
_cell_angle_beta   90.00000000
_cell_angle_gamma   90.00000000
_symmetry_Int_Tables_number   1
_chemical_formula_structural   Dy7BP2O17
_chemical_formula_sum   'Dy28 B4 P8 O68'
_cell_volume   1372.91802185
_cell_formula_units_Z   4
loop_
 _symmetry_equiv_pos_site_id
 _symmetry_equiv_pos_as_xyz
  1  'x, y, z'
loop_
 _atom_site_type_symbol
 _atom_site_label
 _atom_site_symmetry_multiplicity
 _atom_site_fract_x
 _atom_site_fract_y
 _atom_site_fract_z
 _atom_site_occupancy
  Dy  Dy0  1  0.72348300  0.79633300  0.18004600  1
  Dy  Dy1  1  0.27651700  0.20366700  0.81995400  1
  Dy  Dy2  1  0.22348300  0.20366700  0.31995400  1
  Dy  Dy3  1  0.77651700  0.79633300  0.68004600  1
  Dy  Dy4  1  0.86550900  0.78307500  0.43396400  1
  Dy  Dy5  1  0.13449100  0.21692500  0.56603600  1
  Dy  Dy6  1  0.36550900  0.21692500  0.06603600  1
  Dy  Dy7  1  0.63449100  0.78307500  0.93396400  1
  Dy  Dy8  1  0.60639300  0.31380600  0.19795400  1
  Dy  Dy9  1  0.39360700  0.68619400  0.80204600  1
  Dy  Dy10  1  0.10639300  0.68619400  0.30204600  1
  Dy  Dy11  1  0.89360700  0.31380600  0.69795400  1
  Dy  Dy12  1  0.27272400  0.71639700  0.09519100  1
  Dy  Dy13  1  0.72727600  0.28360300  0.90480900  1
  Dy  Dy14  1  0.77272400  0.28360300  0.40480900  1
  Dy  Dy15  1  0.22727600  0.71639700  0.59519100  1
  Dy  Dy16  1  0.44672000  0.71469400  0.50853100  1
  Dy  Dy17  1  0.55328000  0.28530600  0.49146900  1
  Dy  Dy18  1  0.94672000  0.28530600  0.99146900  1
  Dy  Dy19  1  0.05328000  0.71469400  0.00853100  1
  Dy  Dy20  1  0.52044200  0.80385600  0.21244100  1
  Dy  Dy21  1  0.47955800  0.19614400  0.78755900  1
  Dy  Dy22  1  0.02044200  0.19614400  0.28755900  1
  Dy  Dy23  1  0.97955800  0.80385600  0.71244100  1
  Dy  Dy24  1  0.65364400  0.81556900  0.42473200  1
  Dy  Dy25  1  0.34635600  0.18443100  0.57526800  1
  Dy  Dy26  1  0.15364400  0.18443100  0.07526800  1
  Dy  Dy27  1  0.84635600  0.81556900  0.92473200  1
  B  B28  1  0.43239100  0.74663400  0.00073100  1
  B  B29  1  0.56760900  0.25336600  0.99926900  1
  B  B30  1  0.93239100  0.25336600  0.49926900  1
  B  B31  1  0.06760900  0.74663400  0.50073100  1
  P  P32  1  0.80130500  0.28479500  0.16373800  1
  P  P33  1  0.19869500  0.71520500  0.83626200  1
  P  P34  1  0.30130500  0.71520500  0.33626200  1
  P  P35  1  0.69869500  0.28479500  0.66373800  1
  P  P36  1  0.93698100  0.78066700  0.18251500  1
  P  P37  1  0.06301900  0.21933300  0.81748500  1
  P  P38  1  0.43698100  0.21933300  0.31748500  1
  P  P39  1  0.56301900  0.78066700  0.68251500  1
  O  O40  1  0.86745600  0.42834800  0.09215400  1
  O  O41  1  0.13254400  0.57165200  0.90784600  1
  O  O42  1  0.36745600  0.57165200  0.40784600  1
  O  O43  1  0.63254400  0.42834800  0.59215400  1
  O  O44  1  0.37603200  0.59342300  0.99961400  1
  O  O45  1  0.62396800  0.40657700  0.00038600  1
  O  O46  1  0.87603200  0.40657700  0.50038600  1
  O  O47  1  0.12396800  0.59342300  0.49961400  1
  O  O48  1  0.76466200  0.90137400  0.49347900  1
  O  O49  1  0.23533800  0.09862600  0.50652100  1
  O  O50  1  0.26466200  0.09862600  0.00652100  1
  O  O51  1  0.73533800  0.90137400  0.99347900  1
  O  O52  1  0.63259500  0.95957000  0.23916700  1
  O  O53  1  0.36740500  0.04043000  0.76083300  1
  O  O54  1  0.13259500  0.04043000  0.26083300  1
  O  O55  1  0.86740500  0.95957000  0.73916700  1
  O  O56  1  0.93528800  0.85578600  0.05206500  1
  O  O57  1  0.06471200  0.14421400  0.94793500  1
  O  O58  1  0.43528800  0.14421400  0.44793500  1
  O  O59  1  0.56471200  0.85578600  0.55206500  1
  O  O60  1  0.85848400  0.71090300  0.23896100  1
  O  O61  1  0.14151600  0.28909700  0.76103900  1
  O  O62  1  0.35848400  0.28909700  0.26103900  1
  O  O63  1  0.64151600  0.71090300  0.73896100  1
  O  O64  1  0.14328900  0.79397100  0.11951100  1
  O  O65  1  0.85671100  0.20602900  0.88048900  1
  O  O66  1  0.64328900  0.20602900  0.38048900  1
  O  O67  1  0.35671100  0.79397100  0.61951100  1
  O  O68  1  0.74079200  0.42941800  0.19300000  1
  O  O69  1  0.25920800  0.57058200  0.80700000  1
  O  O70  1  0.24079200  0.57058200  0.30700000  1
  O  O71  1  0.75920800  0.42941800  0.69300000  1
  O  O72  1  0.54328100  0.63492400  0.40246200  1
  O  O73  1  0.45671900  0.36507600  0.59753800  1
  O  O74  1  0.04328100  0.36507600  0.09753800  1
  O  O75  1  0.95671900  0.63492400  0.90246200  1
  O  O76  1  0.99713600  0.59142200  0.22858500  1
  O  O77  1  0.00286400  0.40857800  0.77141500  1
  O  O78  1  0.49713600  0.40857800  0.27141500  1
  O  O79  1  0.50286400  0.59142200  0.72858500  1
  O  O80  1  0.32670900  0.88537900  0.22104000  1
  O  O81  1  0.67329100  0.11462100  0.77896000  1
  O  O82  1  0.82670900  0.11462100  0.27896000  1
  O  O83  1  0.17329100  0.88537900  0.72104000  1
  O  O84  1  0.60876400  0.68602800  0.12417100  1
  O  O85  1  0.39123600  0.31397200  0.87582900  1
  O  O86  1  0.10876400  0.31397200  0.37582900  1
  O  O87  1  0.89123600  0.68602800  0.62417100  1
  O  O88  1  0.96821400  0.98561100  0.19660400  1
  O  O89  1  0.03178600  0.01438900  0.80339600  1
  O  O90  1  0.46821400  0.01438900  0.30339600  1
  O  O91  1  0.53178600  0.98561100  0.69660400  1
  O  O92  1  0.42131900  0.83908100  0.07694500  1
  O  O93  1  0.57868100  0.16091900  0.92305500  1
  O  O94  1  0.92131900  0.16091900  0.42305500  1
  O  O95  1  0.07868100  0.83908100  0.57694500  1
  O  O96  1  0.51179000  0.19740700  0.08315400  1
  O  O97  1  0.48821000  0.80259300  0.91684600  1
  O  O98  1  0.01179000  0.80259300  0.41684600  1
  O  O99  1  0.98821000  0.19740700  0.58315400  1
  O  O100  1  0.73938300  0.62680900  0.37334100  1
  O  O101  1  0.26061700  0.37319100  0.62665900  1
  O  O102  1  0.23938300  0.37319100  0.12665900  1
  O  O103  1  0.76061700  0.62680900  0.87334100  1
  O  O104  1  0.26334000  0.83320900  0.40453200  1
  O  O105  1  0.73666000  0.16679100  0.59546800  1
  O  O106  1  0.76334000  0.16679100  0.09546800  1
  O  O107  1  0.23666000  0.83320900  0.90453200  1
