# generated using pymatgen
data_Eu3Si6N4O9
_symmetry_space_group_name_H-M   'P 1'
_cell_length_a   7.17081615
_cell_length_b   7.17081615
_cell_length_c   6.66002200
_cell_angle_alpha   90.00000000
_cell_angle_beta   90.00000000
_cell_angle_gamma   120.00000142
_symmetry_Int_Tables_number   1
_chemical_formula_structural   Eu3Si6N4O9
_chemical_formula_sum   'Eu3 Si6 N4 O9'
_cell_volume   296.58109589
_cell_formula_units_Z   1
loop_
 _symmetry_equiv_pos_site_id
 _symmetry_equiv_pos_as_xyz
  1  'x, y, z'
loop_
 _atom_site_type_symbol
 _atom_site_label
 _atom_site_symmetry_multiplicity
 _atom_site_fract_x
 _atom_site_fract_y
 _atom_site_fract_z
 _atom_site_occupancy
  Eu  Eu0  1  0.00000000  0.00000000  0.52126100  1
  Eu  Eu1  1  0.33333300  0.66666700  0.41667800  1
  Eu  Eu2  1  0.66666700  0.33333300  0.37493300  1
  Si  Si3  1  0.92919500  0.37584300  0.83895400  1
  Si  Si4  1  0.44664800  0.07080500  0.83895400  1
  Si  Si5  1  0.62415700  0.55335200  0.83895400  1
  Si  Si6  1  0.74219200  0.96073300  0.06349600  1
  Si  Si7  1  0.21854100  0.25780800  0.06349600  1
  Si  Si8  1  0.03926700  0.78145900  0.06349600  1
  N  N9  1  0.00000000  0.00000000  0.02255900  1
  N  N10  1  0.70499600  0.12826200  0.90189400  1
  N  N11  1  0.42326600  0.29500400  0.90189400  1
  N  N12  1  0.87173800  0.57673400  0.90189400  1
  O  O13  1  0.58432200  0.70502800  0.00217900  1
  O  O14  1  0.12070600  0.41567800  0.00217900  1
  O  O15  1  0.29497200  0.87929400  0.00217900  1
  O  O16  1  0.70050800  0.99316500  0.29722700  1
  O  O17  1  0.29265700  0.29949200  0.29722700  1
  O  O18  1  0.00683500  0.70734300  0.29722700  1
  O  O19  1  0.99229800  0.37196600  0.60627300  1
  O  O20  1  0.37966800  0.00770200  0.60627300  1
  O  O21  1  0.62803400  0.62033200  0.60627300  1
