# generated using pymatgen
data_FeRu(NF)6
_symmetry_space_group_name_H-M   'P 1'
_cell_length_a   8.86844100
_cell_length_b   8.86844100
_cell_length_c   8.86844100
_cell_angle_alpha   90.00000000
_cell_angle_beta   90.00000000
_cell_angle_gamma   90.00000000
_symmetry_Int_Tables_number   1
_chemical_formula_structural   FeRu(NF)6
_chemical_formula_sum   'Fe4 Ru4 N24 F24'
_cell_volume   697.49619581
_cell_formula_units_Z   4
loop_
 _symmetry_equiv_pos_site_id
 _symmetry_equiv_pos_as_xyz
  1  'x, y, z'
loop_
 _atom_site_type_symbol
 _atom_site_label
 _atom_site_symmetry_multiplicity
 _atom_site_fract_x
 _atom_site_fract_y
 _atom_site_fract_z
 _atom_site_occupancy
  Fe  Fe0  1  0.50000000  0.50000000  0.50000000  1
  Fe  Fe1  1  0.00000000  0.50000000  0.00000000  1
  Fe  Fe2  1  0.50000000  0.00000000  0.00000000  1
  Fe  Fe3  1  0.00000000  0.00000000  0.50000000  1
  Ru  Ru4  1  0.00000000  0.00000000  0.00000000  1
  Ru  Ru5  1  0.50000000  0.00000000  0.50000000  1
  Ru  Ru6  1  0.00000000  0.50000000  0.50000000  1
  Ru  Ru7  1  0.50000000  0.50000000  0.00000000  1
  N  N8  1  0.17603400  0.38671400  0.43153700  1
  N  N9  1  0.82396600  0.61328600  0.56846300  1
  N  N10  1  0.32396600  0.61328600  0.93153700  1
  N  N11  1  0.82396600  0.88671400  0.06846300  1
  N  N12  1  0.43153700  0.17603400  0.38671400  1
  N  N13  1  0.67603400  0.38671400  0.06846300  1
  N  N14  1  0.17603400  0.11328600  0.93153700  1
  N  N15  1  0.56846300  0.82396600  0.61328600  1
  N  N16  1  0.67603400  0.11328600  0.56846300  1
  N  N17  1  0.93153700  0.32396600  0.61328600  1
  N  N18  1  0.32396600  0.88671400  0.43153700  1
  N  N19  1  0.06846300  0.67603400  0.38671400  1
  N  N20  1  0.06846300  0.82396600  0.88671400  1
  N  N21  1  0.93153700  0.17603400  0.11328600  1
  N  N22  1  0.56846300  0.67603400  0.11328600  1
  N  N23  1  0.43153700  0.32396600  0.88671400  1
  N  N24  1  0.38671400  0.43153700  0.17603400  1
  N  N25  1  0.61328600  0.56846300  0.82396600  1
  N  N26  1  0.88671400  0.06846300  0.82396600  1
  N  N27  1  0.11328600  0.93153700  0.17603400  1
  N  N28  1  0.11328600  0.56846300  0.67603400  1
  N  N29  1  0.88671400  0.43153700  0.32396600  1
  N  N30  1  0.61328600  0.93153700  0.32396600  1
  N  N31  1  0.38671400  0.06846300  0.67603400  1
  F  F32  1  0.05008200  0.30463400  0.11116000  1
  F  F33  1  0.94991800  0.69536600  0.88884000  1
  F  F34  1  0.44991800  0.69536600  0.61116000  1
  F  F35  1  0.94991800  0.80463400  0.38884000  1
  F  F36  1  0.11116000  0.05008200  0.30463400  1
  F  F37  1  0.55008200  0.30463400  0.38884000  1
  F  F38  1  0.05008200  0.19536600  0.61116000  1
  F  F39  1  0.88884000  0.94991800  0.69536600  1
  F  F40  1  0.55008200  0.19536600  0.88884000  1
  F  F41  1  0.61116000  0.44991800  0.69536600  1
  F  F42  1  0.44991800  0.80463400  0.11116000  1
  F  F43  1  0.38884000  0.55008200  0.30463400  1
  F  F44  1  0.38884000  0.94991800  0.80463400  1
  F  F45  1  0.61116000  0.05008200  0.19536600  1
  F  F46  1  0.88884000  0.55008200  0.19536600  1
  F  F47  1  0.11116000  0.44991800  0.80463400  1
  F  F48  1  0.30463400  0.11116000  0.05008200  1
  F  F49  1  0.69536600  0.88884000  0.94991800  1
  F  F50  1  0.80463400  0.38884000  0.94991800  1
  F  F51  1  0.19536600  0.61116000  0.05008200  1
  F  F52  1  0.19536600  0.88884000  0.55008200  1
  F  F53  1  0.80463400  0.11116000  0.44991800  1
  F  F54  1  0.69536600  0.61116000  0.44991800  1
  F  F55  1  0.30463400  0.38884000  0.55008200  1
