# generated using pymatgen
data_Fe3P2H3O8
_symmetry_space_group_name_H-M   'P 1'
_cell_length_a   8.56088600
_cell_length_b   9.30705200
_cell_length_c   9.65473100
_cell_angle_alpha   90.00000000
_cell_angle_beta   90.00000000
_cell_angle_gamma   90.00000000
_symmetry_Int_Tables_number   1
_chemical_formula_structural   Fe3P2H3O8
_chemical_formula_sum   'Fe12 P8 H12 O32'
_cell_volume   769.25624782
_cell_formula_units_Z   4
loop_
 _symmetry_equiv_pos_site_id
 _symmetry_equiv_pos_as_xyz
  1  'x, y, z'
loop_
 _atom_site_type_symbol
 _atom_site_label
 _atom_site_symmetry_multiplicity
 _atom_site_fract_x
 _atom_site_fract_y
 _atom_site_fract_z
 _atom_site_occupancy
  Fe  Fe0  1  0.48776300  0.07331100  0.28095700  1
  Fe  Fe1  1  0.51223700  0.07331100  0.71904300  1
  Fe  Fe2  1  0.01223700  0.57331100  0.28095700  1
  Fe  Fe3  1  0.98776300  0.57331100  0.71904300  1
  Fe  Fe4  1  0.13212700  0.97824900  0.34681500  1
  Fe  Fe5  1  0.86787300  0.97824900  0.65318500  1
  Fe  Fe6  1  0.36787300  0.47824900  0.34681500  1
  Fe  Fe7  1  0.63212700  0.47824900  0.65318500  1
  Fe  Fe8  1  0.13494400  0.13396900  0.84507300  1
  Fe  Fe9  1  0.86505600  0.13396900  0.15492700  1
  Fe  Fe10  1  0.36505600  0.63396900  0.84507300  1
  Fe  Fe11  1  0.63494400  0.63396900  0.15492700  1
  P  P12  1  0.28333300  0.35169600  0.64309800  1
  P  P13  1  0.71666700  0.35169600  0.35690200  1
  P  P14  1  0.21666700  0.85169600  0.64309800  1
  P  P15  1  0.78333300  0.85169600  0.35690200  1
  P  P16  1  0.20975200  0.27561200  0.15253900  1
  P  P17  1  0.79024800  0.27561200  0.84746100  1
  P  P18  1  0.29024800  0.77561200  0.15253900  1
  P  P19  1  0.70975200  0.77561200  0.84746100  1
  H  H20  1  0.00000000  0.05963300  0.50000000  1
  H  H21  1  0.50000000  0.55963400  0.50000000  1
  H  H22  1  0.26675600  0.08181700  0.42085900  1
  H  H23  1  0.73324400  0.08181700  0.57914100  1
  H  H24  1  0.23324400  0.58181700  0.42085900  1
  H  H25  1  0.76675600  0.58181700  0.57914100  1
  H  H26  1  0.61252200  0.49407100  0.02789900  1
  H  H27  1  0.38747800  0.49407100  0.97210100  1
  H  H28  1  0.88747800  0.99407100  0.02789900  1
  H  H29  1  0.11252200  0.99407100  0.97210100  1
  H  H30  1  0.00000000  0.99634700  0.00000000  1
  H  H31  1  0.50000000  0.49634700  0.00000000  1
  O  O32  1  0.19203000  0.27059300  0.99475600  1
  O  O33  1  0.80797000  0.27059300  0.00524400  1
  O  O34  1  0.30797000  0.77059300  0.99475600  1
  O  O35  1  0.69203000  0.77059300  0.00524400  1
  O  O36  1  0.30703700  0.20191300  0.71510000  1
  O  O37  1  0.69296300  0.20191300  0.28490000  1
  O  O38  1  0.19296300  0.70191300  0.71510000  1
  O  O39  1  0.80703700  0.70191300  0.28490000  1
  O  O40  1  0.18379600  0.43430900  0.20572300  1
  O  O41  1  0.81620400  0.43430900  0.79427700  1
  O  O42  1  0.31620400  0.93430900  0.20572300  1
  O  O43  1  0.68379600  0.93430900  0.79427700  1
  O  O44  1  0.08935800  0.16913700  0.21884300  1
  O  O45  1  0.91064200  0.16913700  0.78115700  1
  O  O46  1  0.41064200  0.66913700  0.21884300  1
  O  O47  1  0.58935800  0.66913700  0.78115700  1
  O  O48  1  0.59640400  0.45952700  0.28997500  1
  O  O49  1  0.40359600  0.45952700  0.71002500  1
  O  O50  1  0.90359600  0.95952700  0.28997500  1
  O  O51  1  0.09640400  0.95952700  0.71002500  1
  O  O52  1  0.32280200  0.33166200  0.48865100  1
  O  O53  1  0.67719800  0.33166200  0.51134900  1
  O  O54  1  0.17719800  0.83166200  0.48865100  1
  O  O55  1  0.82280200  0.83166200  0.51134900  1
  O  O56  1  0.37611500  0.24338600  0.20491100  1
  O  O57  1  0.62388500  0.24338600  0.79508900  1
  O  O58  1  0.12388500  0.74338600  0.20491100  1
  O  O59  1  0.87611500  0.74338600  0.79508900  1
  O  O60  1  0.11776200  0.40525800  0.66971400  1
  O  O61  1  0.88223800  0.40525800  0.33028600  1
  O  O62  1  0.38223800  0.90525800  0.66971400  1
  O  O63  1  0.61776200  0.90525800  0.33028600  1
