# generated using pymatgen
data_CuSO7
_symmetry_space_group_name_H-M   'P 1'
_cell_length_a   7.25610420
_cell_length_b   7.25610420
_cell_length_c   7.08178763
_cell_angle_alpha   87.50310570
_cell_angle_beta   87.50310570
_cell_angle_gamma   135.26654687
_symmetry_Int_Tables_number   1
_chemical_formula_structural   CuSO7
_chemical_formula_sum   'Cu2 S2 O14'
_cell_volume   260.69949915
_cell_formula_units_Z   2
loop_
 _symmetry_equiv_pos_site_id
 _symmetry_equiv_pos_as_xyz
  1  'x, y, z'
loop_
 _atom_site_type_symbol
 _atom_site_label
 _atom_site_symmetry_multiplicity
 _atom_site_fract_x
 _atom_site_fract_y
 _atom_site_fract_z
 _atom_site_occupancy
  Cu  Cu0  1  0.97823500  0.74747000  0.74941500  1
  Cu  Cu1  1  0.74747000  0.97823500  0.24941500  1
  S  S2  1  0.99169400  0.19665400  0.82644100  1
  S  S3  1  0.19665400  0.99169400  0.32644100  1
  O  O4  1  0.97498800  0.34612400  0.69706800  1
  O  O5  1  0.34612400  0.97498800  0.19706800  1
  O  O6  1  0.53181400  0.29323600  0.73778700  1
  O  O7  1  0.29323600  0.53181400  0.23778700  1
  O  O8  1  0.77267900  0.05894200  0.99052400  1
  O  O9  1  0.05894200  0.77267900  0.49052400  1
  O  O10  1  0.88810700  0.61561100  0.98559900  1
  O  O11  1  0.61561100  0.88810700  0.48559900  1
  O  O12  1  0.24574500  0.35292900  0.90028700  1
  O  O13  1  0.35292900  0.24574500  0.40028700  1
  O  O14  1  0.06951500  0.42734400  0.28420400  1
  O  O15  1  0.42734400  0.06951500  0.78420400  1
  O  O16  1  0.92057900  0.97833300  0.71967400  1
  O  O17  1  0.97833300  0.92057900  0.21967400  1
