# generated using pymatgen
data_Dy6N8O33
_symmetry_space_group_name_H-M   'P 1'
_cell_length_a   9.39306000
_cell_length_b   10.11261430
_cell_length_c   10.39848588
_cell_angle_alpha   118.13197505
_cell_angle_beta   114.22928425
_cell_angle_gamma   90.57953350
_symmetry_Int_Tables_number   1
_chemical_formula_structural   Dy6N8O33
_chemical_formula_sum   'Dy6 N8 O33'
_cell_volume   768.43531061
_cell_formula_units_Z   1
loop_
 _symmetry_equiv_pos_site_id
 _symmetry_equiv_pos_as_xyz
  1  'x, y, z'
loop_
 _atom_site_type_symbol
 _atom_site_label
 _atom_site_symmetry_multiplicity
 _atom_site_fract_x
 _atom_site_fract_y
 _atom_site_fract_z
 _atom_site_occupancy
  Dy  Dy0  1  0.16038600  0.31063300  0.39313000  1
  Dy  Dy1  1  0.83961400  0.68936700  0.60687000  1
  Dy  Dy2  1  0.18942500  0.59323900  0.80357000  1
  Dy  Dy3  1  0.81057500  0.40676100  0.19643000  1
  Dy  Dy4  1  0.83893800  0.29779900  0.48275000  1
  Dy  Dy5  1  0.16106200  0.70220100  0.51725000  1
  N  N6  1  0.64997800  0.85661100  0.14461400  1
  N  N7  1  0.35002200  0.14338900  0.85538600  1
  N  N8  1  0.41462900  0.20566300  0.32119900  1
  N  N9  1  0.58537100  0.79433700  0.67880100  1
  N  N10  1  0.16741900  0.85747900  0.34154700  1
  N  N11  1  0.83258100  0.14252100  0.65845300  1
  N  N12  1  0.32125700  0.55194400  0.08144600  1
  N  N13  1  0.67874300  0.44805600  0.91855400  1
  O  O14  1  0.11771300  0.34000200  0.60525600  1
  O  O15  1  0.88228700  0.65999800  0.39474400  1
  O  O16  1  0.53551900  0.17636400  0.30049400  1
  O  O17  1  0.46448100  0.82363600  0.69950600  1
  O  O18  1  0.38351900  0.51787000  0.18730700  1
  O  O19  1  0.61648100  0.48213000  0.81269300  1
  O  O20  1  0.64219200  0.89440800  0.27434200  1
  O  O21  1  0.35780800  0.10559200  0.72565800  1
  O  O22  1  0.89015900  0.22800100  0.26607700  1
  O  O23  1  0.10984100  0.77199900  0.73392300  1
  O  O24  1  0.07693700  0.46476900  0.29436100  1
  O  O25  1  0.92306300  0.53523100  0.70563900  1
  O  O26  1  0.39245100  0.19470600  0.42920500  1
  O  O27  1  0.60754900  0.80529400  0.57079500  1
  O  O28  1  0.16907700  0.53522300  0.00538300  1
  O  O29  1  0.83092300  0.46477700  0.99461700  1
  O  O30  1  0.28519600  0.54980500  0.62151300  1
  O  O31  1  0.71480400  0.45019500  0.37848700  1
  O  O32  1  0.78086200  0.83909300  0.14138900  1
  O  O33  1  0.21913800  0.16090700  0.85861100  1
  O  O34  1  0.69115200  0.75127900  0.76549600  1
  O  O35  1  0.30884800  0.24872100  0.23450400  1
  O  O36  1  0.00000000  0.50000000  0.50000000  1
  O  O37  1  0.52941500  0.83823700  0.01916300  1
  O  O38  1  0.47058500  0.16176300  0.98083700  1
  O  O39  1  0.08111200  0.88824600  0.41607500  1
  O  O40  1  0.91888800  0.11175400  0.58392500  1
  O  O41  1  0.15909300  0.90719000  0.25136400  1
  O  O42  1  0.84090700  0.09281000  0.74863600  1
  O  O43  1  0.40661400  0.60596400  0.03808100  1
  O  O44  1  0.59338600  0.39403600  0.96191900  1
  O  O45  1  0.26184500  0.77212500  0.36597300  1
  O  O46  1  0.73815500  0.22787500  0.63402700  1
