# generated using pymatgen
data_Cu41Sn11
_symmetry_space_group_name_H-M   'P 1'
_cell_length_a   12.73533961
_cell_length_b   12.73533961
_cell_length_c   12.73533961
_cell_angle_alpha   60.00000000
_cell_angle_beta   60.00000000
_cell_angle_gamma   60.00000000
_symmetry_Int_Tables_number   1
_chemical_formula_structural   Cu41Sn11
_chemical_formula_sum   'Cu82 Sn22'
_cell_volume   1460.55055583
_cell_formula_units_Z   2
loop_
 _symmetry_equiv_pos_site_id
 _symmetry_equiv_pos_as_xyz
  1  'x, y, z'
loop_
 _atom_site_type_symbol
 _atom_site_label
 _atom_site_symmetry_multiplicity
 _atom_site_fract_x
 _atom_site_fract_y
 _atom_site_fract_z
 _atom_site_occupancy
  Cu  Cu0  1  0.91723900  0.91723900  0.91723900  1
  Cu  Cu1  1  0.91723900  0.91723900  0.24828200  1
  Cu  Cu2  1  0.91723900  0.24828200  0.91723900  1
  Cu  Cu3  1  0.24828200  0.91723900  0.91723900  1
  Cu  Cu4  1  0.55695500  0.55695500  0.55695500  1
  Cu  Cu5  1  0.55695500  0.55695500  0.32913400  1
  Cu  Cu6  1  0.55695500  0.32913400  0.55695500  1
  Cu  Cu7  1  0.32913400  0.55695500  0.55695500  1
  Cu  Cu8  1  0.16623700  0.16623700  0.16623700  1
  Cu  Cu9  1  0.16623700  0.16623700  0.50128800  1
  Cu  Cu10  1  0.16623700  0.50128800  0.16623700  1
  Cu  Cu11  1  0.50128800  0.16623700  0.16623700  1
  Cu  Cu12  1  0.66545000  0.66545000  0.66545000  1
  Cu  Cu13  1  0.66545000  0.66545000  0.00365100  1
  Cu  Cu14  1  0.66545000  0.00365100  0.66545000  1
  Cu  Cu15  1  0.00365100  0.66545000  0.66545000  1
  Cu  Cu16  1  0.02878700  0.02878700  0.26246300  1
  Cu  Cu17  1  0.02878700  0.02878700  0.67996200  1
  Cu  Cu18  1  0.26246300  0.67996200  0.02878700  1
  Cu  Cu19  1  0.26246300  0.02878700  0.02878700  1
  Cu  Cu20  1  0.67996200  0.26246300  0.02878700  1
  Cu  Cu21  1  0.67996200  0.02878700  0.02878700  1
  Cu  Cu22  1  0.02878700  0.26246300  0.67996200  1
  Cu  Cu23  1  0.02878700  0.67996200  0.26246300  1
  Cu  Cu24  1  0.02878700  0.26246300  0.02878700  1
  Cu  Cu25  1  0.67996200  0.02878700  0.26246300  1
  Cu  Cu26  1  0.26246300  0.02878700  0.67996200  1
  Cu  Cu27  1  0.02878700  0.67996200  0.02878700  1
  Cu  Cu28  1  0.51891500  0.51891500  0.79357300  1
  Cu  Cu29  1  0.51891500  0.51891500  0.16859700  1
  Cu  Cu30  1  0.79357300  0.16859700  0.51891500  1
  Cu  Cu31  1  0.79357300  0.51891500  0.51891500  1
  Cu  Cu32  1  0.16859700  0.79357300  0.51891500  1
  Cu  Cu33  1  0.16859700  0.51891500  0.51891500  1
  Cu  Cu34  1  0.51891500  0.79357300  0.16859700  1
  Cu  Cu35  1  0.51891500  0.16859700  0.79357300  1
  Cu  Cu36  1  0.51891500  0.79357300  0.51891500  1
  Cu  Cu37  1  0.16859700  0.51891500  0.79357300  1
  Cu  Cu38  1  0.79357300  0.51891500  0.16859700  1
  Cu  Cu39  1  0.51891500  0.16859700  0.51891500  1
  Cu  Cu40  1  0.26232600  0.26232600  0.91980900  1
  Cu  Cu41  1  0.26232600  0.26232600  0.55553900  1
  Cu  Cu42  1  0.91980900  0.55553900  0.26232600  1
  Cu  Cu43  1  0.91980900  0.26232600  0.26232600  1
  Cu  Cu44  1  0.55553900  0.91980900  0.26232600  1
  Cu  Cu45  1  0.55553900  0.26232600  0.26232600  1
  Cu  Cu46  1  0.26232600  0.91980900  0.55553900  1
  Cu  Cu47  1  0.26232600  0.55553900  0.91980900  1
  Cu  Cu48  1  0.26232600  0.91980900  0.26232600  1
  Cu  Cu49  1  0.55553900  0.26232600  0.91980900  1
  Cu  Cu50  1  0.91980900  0.26232600  0.55553900  1
  Cu  Cu51  1  0.26232600  0.55553900  0.26232600  1
  Cu  Cu52  1  0.82572900  0.17427100  0.17427100  1
  Cu  Cu53  1  0.17427100  0.82572900  0.82572900  1
  Cu  Cu54  1  0.17427100  0.82572900  0.17427100  1
  Cu  Cu55  1  0.82572900  0.17427100  0.82572900  1
  Cu  Cu56  1  0.17427100  0.17427100  0.82572900  1
  Cu  Cu57  1  0.82572900  0.82572900  0.17427100  1
  Cu  Cu58  1  0.04964300  0.04964300  0.04964300  1
  Cu  Cu59  1  0.04964300  0.04964300  0.85107200  1
  Cu  Cu60  1  0.04964300  0.85107200  0.04964300  1
  Cu  Cu61  1  0.85107200  0.04964300  0.04964300  1
  Cu  Cu62  1  0.67751200  0.32248800  0.32248800  1
  Cu  Cu63  1  0.32248800  0.67751200  0.67751200  1
  Cu  Cu64  1  0.32248800  0.67751200  0.32248800  1
  Cu  Cu65  1  0.67751200  0.32248800  0.67751200  1
  Cu  Cu66  1  0.32248800  0.32248800  0.67751200  1
  Cu  Cu67  1  0.67751200  0.67751200  0.32248800  1
  Cu  Cu68  1  0.30544700  0.30544700  0.30544700  1
  Cu  Cu69  1  0.30544700  0.30544700  0.08366000  1
  Cu  Cu70  1  0.30544700  0.08366000  0.30544700  1
  Cu  Cu71  1  0.08366000  0.30544700  0.30544700  1
  Cu  Cu72  1  0.92363900  0.57636100  0.57636100  1
  Cu  Cu73  1  0.57636100  0.92363900  0.92363900  1
  Cu  Cu74  1  0.57636100  0.92363900  0.57636100  1
  Cu  Cu75  1  0.92363900  0.57636100  0.92363900  1
  Cu  Cu76  1  0.57636100  0.57636100  0.92363900  1
  Cu  Cu77  1  0.92363900  0.92363900  0.57636100  1
  Cu  Cu78  1  0.80054200  0.80054200  0.80054200  1
  Cu  Cu79  1  0.80054200  0.80054200  0.59837500  1
  Cu  Cu80  1  0.80054200  0.59837500  0.80054200  1
  Cu  Cu81  1  0.59837500  0.80054200  0.80054200  1
  Sn  Sn82  1  0.41199000  0.41199000  0.41199000  1
  Sn  Sn83  1  0.41199000  0.41199000  0.76403100  1
  Sn  Sn84  1  0.41199000  0.76403100  0.41199000  1
  Sn  Sn85  1  0.76403100  0.41199000  0.41199000  1
  Sn  Sn86  1  0.76767700  0.76767700  0.41502600  1
  Sn  Sn87  1  0.76767700  0.76767700  0.04962000  1
  Sn  Sn88  1  0.41502600  0.04962000  0.76767700  1
  Sn  Sn89  1  0.41502600  0.76767700  0.76767700  1
  Sn  Sn90  1  0.04962000  0.41502600  0.76767700  1
  Sn  Sn91  1  0.04962000  0.76767700  0.76767700  1
  Sn  Sn92  1  0.76767700  0.41502600  0.04962000  1
  Sn  Sn93  1  0.76767700  0.04962000  0.41502600  1
  Sn  Sn94  1  0.76767700  0.41502600  0.76767700  1
  Sn  Sn95  1  0.04962000  0.76767700  0.41502600  1
  Sn  Sn96  1  0.41502600  0.76767700  0.04962000  1
  Sn  Sn97  1  0.76767700  0.04962000  0.76767700  1
  Sn  Sn98  1  0.43154000  0.06846000  0.06846000  1
  Sn  Sn99  1  0.06846000  0.43154000  0.43154000  1
  Sn  Sn100  1  0.06846000  0.43154000  0.06846000  1
  Sn  Sn101  1  0.43154000  0.06846000  0.43154000  1
  Sn  Sn102  1  0.06846000  0.06846000  0.43154000  1
  Sn  Sn103  1  0.43154000  0.43154000  0.06846000  1
