# generated using pymatgen
data_Eu9(Ni13P6)2
_symmetry_space_group_name_H-M   'P 1'
_cell_length_a   3.83934916
_cell_length_b   14.38872820
_cell_length_c   14.38872820
_cell_angle_alpha   120.00000093
_cell_angle_beta   90.00000000
_cell_angle_gamma   90.00000000
_symmetry_Int_Tables_number   1
_chemical_formula_structural   Eu9(Ni13P6)2
_chemical_formula_sum   'Eu9 Ni26 P12'
_cell_volume   688.38762640
_cell_formula_units_Z   1
loop_
 _symmetry_equiv_pos_site_id
 _symmetry_equiv_pos_as_xyz
  1  'x, y, z'
loop_
 _atom_site_type_symbol
 _atom_site_label
 _atom_site_symmetry_multiplicity
 _atom_site_fract_x
 _atom_site_fract_y
 _atom_site_fract_z
 _atom_site_occupancy
  Eu  Eu0  1  0.50000000  0.81157694  0.62315387  1
  Eu  Eu1  1  0.50000000  0.81157694  0.18842306  1
  Eu  Eu2  1  0.50000000  0.37684613  0.18842306  1
  Eu  Eu3  1  0.50000000  0.09064369  0.18128738  1
  Eu  Eu4  1  0.50000000  0.09064369  0.90935631  1
  Eu  Eu5  1  0.50000000  0.81871262  0.90935631  1
  Eu  Eu6  1  0.00000000  0.42442412  0.84884823  1
  Eu  Eu7  1  -0.00000000  0.42442412  0.57557588  1
  Eu  Eu8  1  0.00000000  0.15115177  0.57557588  1
  Ni  Ni9  1  -0.00000000  0.19076066  0.38152132  1
  Ni  Ni10  1  0.00000000  0.19076066  0.80923934  1
  Ni  Ni11  1  -0.00000000  0.61847868  0.80923934  1
  Ni  Ni12  1  0.50000000  0.60104065  0.20208130  1
  Ni  Ni13  1  0.50000000  0.60104065  0.39895935  1
  Ni  Ni14  1  0.50000000  0.79791870  0.39895935  1
  Ni  Ni15  1  0.00000000  0.72187615  0.44375230  1
  Ni  Ni16  1  -0.00000000  0.72187615  0.27812385  1
  Ni  Ni17  1  0.00000000  0.55624770  0.27812385  1
  Ni  Ni18  1  0.00000000  0.90461926  0.80923852  1
  Ni  Ni19  1  -0.00000000  0.90461926  0.09538074  1
  Ni  Ni20  1  0.00000000  0.19076148  0.09538074  1
  Ni  Ni21  1  0.50000000  0.62168438  0.67417229  1
  Ni  Ni22  1  0.50000000  0.05248791  0.37831562  1
  Ni  Ni23  1  0.50000000  0.05248791  0.67417229  1
  Ni  Ni24  1  0.50000000  0.32582771  0.94751209  1
  Ni  Ni25  1  0.50000000  0.32582771  0.37831562  1
  Ni  Ni26  1  0.50000000  0.62168438  0.94751209  1
  Ni  Ni27  1  0.00000000  0.92405091  0.37776241  1
  Ni  Ni28  1  0.00000000  0.45371150  0.07594909  1
  Ni  Ni29  1  -0.00000000  0.45371150  0.37776241  1
  Ni  Ni30  1  -0.00000000  0.62223759  0.54628850  1
  Ni  Ni31  1  0.00000000  0.62223759  0.07594909  1
  Ni  Ni32  1  0.00000000  0.92405091  0.54628850  1
  Ni  Ni33  1  0.50000000  0.33333300  0.66666700  1
  Ni  Ni34  1  0.00000000  0.00000000  -0.00000000  1
  P  P35  1  0.50000000  0.51455260  0.02910521  1
  P  P36  1  0.50000000  0.51455260  0.48544740  1
  P  P37  1  0.50000000  0.97089479  0.48544740  1
  P  P38  1  -0.00000000  0.00350785  0.27843290  1
  P  P39  1  0.00000000  0.27492505  0.99649215  1
  P  P40  1  0.00000000  0.27492505  0.27843290  1
  P  P41  1  0.00000000  0.72156710  0.72507495  1
  P  P42  1  -0.00000000  0.72156710  0.99649215  1
  P  P43  1  0.00000000  0.00350785  0.72507495  1
  P  P44  1  0.50000000  0.24073773  0.48147546  1
  P  P45  1  0.50000000  0.24073773  0.75926227  1
  P  P46  1  0.50000000  0.51852454  0.75926227  1
