# generated using pymatgen
data_K4Ba2Na4Ti8MnSi16(W4O29)2
_symmetry_space_group_name_H-M   'P 1'
_cell_length_a   10.59423754
_cell_length_b   10.59423754
_cell_length_c   14.53261464
_cell_angle_alpha   72.09667531
_cell_angle_beta   72.09667531
_cell_angle_gamma   84.77712784
_symmetry_Int_Tables_number   1
_chemical_formula_structural   K4Ba2Na4Ti8MnSi16(W4O29)2
_chemical_formula_sum   'K4 Ba2 Na4 Ti8 Mn1 Si16 W8 O58'
_cell_volume   1476.95565327
_cell_formula_units_Z   1
loop_
 _symmetry_equiv_pos_site_id
 _symmetry_equiv_pos_as_xyz
  1  'x, y, z'
loop_
 _atom_site_type_symbol
 _atom_site_label
 _atom_site_symmetry_multiplicity
 _atom_site_fract_x
 _atom_site_fract_y
 _atom_site_fract_z
 _atom_site_occupancy
  K  K0  1  0.41020900  0.41020900  0.18232800  1
  K  K1  1  0.58979100  0.58979100  0.81767200  1
  K  K2  1  0.91259000  0.91259000  0.69276100  1
  K  K3  1  0.08741000  0.08741000  0.30723900  1
  Ba  Ba4  1  0.60398300  0.60398300  0.32976200  1
  Ba  Ba5  1  0.39601700  0.39601700  0.67023800  1
  Na  Na6  1  0.47801700  0.97108600  0.38529400  1
  Na  Na7  1  0.52198300  0.02891400  0.61470600  1
  Na  Na8  1  0.02891400  0.52198300  0.61470600  1
  Na  Na9  1  0.97108600  0.47801700  0.38529400  1
  Ti  Ti10  1  0.72721500  0.27278500  0.50000000  1
  Ti  Ti11  1  0.27278500  0.72721500  0.50000000  1
  Ti  Ti12  1  0.76542000  0.23458000  0.00000000  1
  Ti  Ti13  1  0.23458000  0.76542000  0.00000000  1
  Ti  Ti14  1  0.73776400  0.26423500  0.25717900  1
  Ti  Ti15  1  0.26223600  0.73576500  0.74282100  1
  Ti  Ti16  1  0.73576500  0.26223600  0.74282100  1
  Ti  Ti17  1  0.26423500  0.73776400  0.25717900  1
  Mn  Mn18  1  0.00000000  0.00000000  0.00000000  1
  Si  Si19  1  0.26310700  0.04329600  0.06111500  1
  Si  Si20  1  0.73689300  0.95670400  0.93888500  1
  Si  Si21  1  0.95670400  0.73689300  0.93888500  1
  Si  Si22  1  0.04329600  0.26310700  0.06111500  1
  Si  Si23  1  0.52005100  0.73511300  0.06337800  1
  Si  Si24  1  0.47994900  0.26488700  0.93662200  1
  Si  Si25  1  0.26488700  0.47994900  0.93662200  1
  Si  Si26  1  0.73511300  0.52005100  0.06337800  1
  Si  Si27  1  0.76462400  0.98560500  0.44028100  1
  Si  Si28  1  0.23537500  0.01439500  0.55971900  1
  Si  Si29  1  0.01439500  0.23537600  0.55971900  1
  Si  Si30  1  0.98560500  0.76462500  0.44028100  1
  Si  Si31  1  0.45807200  0.24332200  0.43955200  1
  Si  Si32  1  0.54192800  0.75667800  0.56044800  1
  Si  Si33  1  0.75667800  0.54192800  0.56044800  1
  Si  Si34  1  0.24332200  0.45807200  0.43955200  1
  W  W35  1  0.75161100  0.96690700  0.21496800  1
  W  W36  1  0.24838900  0.03309300  0.78503200  1
  W  W37  1  0.03309300  0.24838900  0.78503200  1
  W  W38  1  0.96690700  0.75161100  0.21496800  1
  W  W39  1  0.49551800  0.05074900  0.16454100  1
  W  W40  1  0.50448200  0.94925100  0.83545900  1
  W  W41  1  0.94925100  0.50448200  0.83545900  1
  W  W42  1  0.05074900  0.49551800  0.16454100  1
  O  O43  1  0.61345000  0.86605700  0.02887200  1
  O  O44  1  0.38655000  0.13394300  0.97112800  1
  O  O45  1  0.13394300  0.38655000  0.97112800  1
  O  O46  1  0.86605700  0.61345000  0.02887200  1
  O  O47  1  0.32001700  0.76716300  0.35361900  1
  O  O48  1  0.67998300  0.23283700  0.64638100  1
  O  O49  1  0.23283700  0.67998300  0.64638100  1
  O  O50  1  0.76716300  0.32001700  0.35361900  1
  O  O51  1  0.15102800  0.15102800  0.09983100  1
  O  O52  1  0.84897200  0.84897200  0.90016900  1
  O  O53  1  0.61214100  0.61214100  0.03071400  1
  O  O54  1  0.38785900  0.38785900  0.96928600  1
  O  O55  1  0.63933600  0.63933600  0.60592500  1
  O  O56  1  0.36066400  0.36066400  0.39407500  1
  O  O57  1  0.44515700  0.68449800  0.18404700  1
  O  O58  1  0.55484300  0.31550200  0.81595300  1
  O  O59  1  0.31550200  0.55484300  0.81595300  1
  O  O60  1  0.68449800  0.44515700  0.18404700  1
  O  O61  1  0.78968200  0.03990600  0.99785500  1
  O  O62  1  0.21031800  0.96009400  0.00214500  1
  O  O63  1  0.96009400  0.21031800  0.00214500  1
  O  O64  1  0.03990600  0.78968200  0.99785500  1
  O  O65  1  0.63367100  0.88748300  0.48254000  1
  O  O66  1  0.36632900  0.11251700  0.51746000  1
  O  O67  1  0.11251700  0.36632900  0.51746000  1
  O  O68  1  0.88748300  0.63367100  0.48254000  1
  O  O69  1  0.73129100  0.08264600  0.51051700  1
  O  O70  1  0.26870900  0.91735400  0.48948300  1
  O  O71  1  0.91735400  0.26870900  0.48948300  1
  O  O72  1  0.08264600  0.73129100  0.51051700  1
  O  O73  1  0.58135000  0.22942600  0.00469300  1
  O  O74  1  0.41865000  0.77057400  0.99530700  1
  O  O75  1  0.77057400  0.41865000  0.99530700  1
  O  O76  1  0.22942600  0.58135000  0.00469300  1
  O  O77  1  0.52734000  0.28858100  0.50948800  1
  O  O78  1  0.47266000  0.71141900  0.49051200  1
  O  O79  1  0.71141900  0.47266000  0.49051200  1
  O  O80  1  0.28858100  0.52734000  0.50948800  1
  O  O81  1  0.69777500  0.16957200  0.15058500  1
  O  O82  1  0.30222500  0.83042800  0.84941500  1
  O  O83  1  0.83042800  0.30222500  0.84941500  1
  O  O84  1  0.16957200  0.69777500  0.15058500  1
  O  O85  1  0.55410000  0.20468800  0.34162200  1
  O  O86  1  0.44590000  0.79531200  0.65837800  1
  O  O87  1  0.79531200  0.44590000  0.65837800  1
  O  O88  1  0.20468800  0.55410000  0.34162200  1
  O  O89  1  0.79179100  0.06281900  0.31923900  1
  O  O90  1  0.20820900  0.93718100  0.68076100  1
  O  O91  1  0.93718100  0.20820900  0.68076100  1
  O  O92  1  0.06281900  0.79179100  0.31923900  1
  O  O93  1  0.31390800  0.95183400  0.15711100  1
  O  O94  1  0.68609200  0.04816600  0.84288900  1
  O  O95  1  0.04816600  0.68609200  0.84288900  1
  O  O96  1  0.95183400  0.31390800  0.15711100  1
  O  O97  1  0.95382100  0.95382100  0.15742600  1
  O  O98  1  0.04617900  0.04617900  0.84257400  1
  O  O99  1  0.89658700  0.89658700  0.45781200  1
  O  O100  1  0.10341300  0.10341300  0.54218800  1
