# generated using pymatgen
data_CuS2(NO4)2
_symmetry_space_group_name_H-M   'P 1'
_cell_length_a   9.35726000
_cell_length_b   9.40510242
_cell_length_c   10.17778162
_cell_angle_alpha   113.84705002
_cell_angle_beta   92.45635536
_cell_angle_gamma   90.78575717
_symmetry_Int_Tables_number   1
_chemical_formula_structural   CuS2(NO4)2
_chemical_formula_sum   'Cu4 S8 N8 O32'
_cell_volume   818.01239570
_cell_formula_units_Z   4
loop_
 _symmetry_equiv_pos_site_id
 _symmetry_equiv_pos_as_xyz
  1  'x, y, z'
loop_
 _atom_site_type_symbol
 _atom_site_label
 _atom_site_symmetry_multiplicity
 _atom_site_fract_x
 _atom_site_fract_y
 _atom_site_fract_z
 _atom_site_occupancy
  Cu  Cu0  1  0.64471500  0.93374900  0.66717400  1
  Cu  Cu1  1  0.35528500  0.06625100  0.33282600  1
  Cu  Cu2  1  0.86227200  0.65407100  0.91724300  1
  Cu  Cu3  1  0.13772800  0.34592900  0.08275700  1
  S  S4  1  0.56085000  0.70944000  0.78313500  1
  S  S5  1  0.43915000  0.29056000  0.21686500  1
  S  S6  1  0.63372900  0.89079200  0.35610600  1
  S  S7  1  0.36627100  0.10920800  0.64389400  1
  S  S8  1  0.86825500  0.33015700  0.87828800  1
  S  S9  1  0.13174500  0.66984300  0.12171200  1
  S  S10  1  0.92676200  0.75074600  0.68191400  1
  S  S11  1  0.07323800  0.24925400  0.31808600  1
  N  N12  1  0.80092900  0.53649000  0.30735300  1
  N  N13  1  0.19907100  0.46351000  0.69264700  1
  N  N14  1  0.68440700  0.33084600  0.54561400  1
  N  N15  1  0.31559300  0.66915400  0.45438600  1
  N  N16  1  0.50000000  0.50000000  0.00000000  1
  N  N17  1  0.22720000  0.94459900  0.90884800  1
  N  N18  1  0.77280000  0.05540100  0.09115200  1
  N  N19  1  0.00000000  0.00000000  0.50000000  1
  O  O20  1  0.76366000  0.86803900  0.27629500  1
  O  O21  1  0.23634000  0.13196100  0.72370500  1
  O  O22  1  0.90906100  0.80455300  0.84403300  1
  O  O23  1  0.09093900  0.19544700  0.15596700  1
  O  O24  1  0.61803100  0.87810300  0.82528100  1
  O  O25  1  0.38196900  0.12189700  0.17471900  1
  O  O26  1  0.66696900  0.63014400  0.84880700  1
  O  O27  1  0.33303100  0.36985600  0.15119300  1
  O  O28  1  0.96427900  0.27443300  0.97336600  1
  O  O29  1  0.03572100  0.72556700  0.02663400  1
  O  O30  1  0.82294900  0.49489700  0.98040200  1
  O  O31  1  0.17705100  0.50510300  0.01959800  1
  O  O32  1  0.88756100  0.58567600  0.60752700  1
  O  O33  1  0.11243900  0.41432400  0.39247300  1
  O  O34  1  0.74456400  0.22208100  0.84019000  1
  O  O35  1  0.25543600  0.77791900  0.15981000  1
  O  O36  1  0.83230300  0.85446900  0.63396500  1
  O  O37  1  0.16769700  0.14553100  0.36603500  1
  O  O38  1  0.93975700  0.34295500  0.75920500  1
  O  O39  1  0.06024300  0.65704500  0.24079500  1
  O  O40  1  0.42780500  0.70965700  0.85202700  1
  O  O41  1  0.57219500  0.29034300  0.14797300  1
  O  O42  1  0.56300300  0.74674600  0.34535300  1
  O  O43  1  0.43699700  0.25325400  0.65464700  1
  O  O44  1  0.07372300  0.78715000  0.65792000  1
  O  O45  1  0.92627700  0.21285000  0.34208000  1
  O  O46  1  0.66709800  0.99920100  0.51578600  1
  O  O47  1  0.33290200  0.00079900  0.48421400  1
  O  O48  1  0.55429400  0.63073500  0.62647800  1
  O  O49  1  0.44570600  0.36926500  0.37352200  1
  O  O50  1  0.54116800  0.98669800  0.29605900  1
  O  O51  1  0.45883200  0.01330200  0.70394100  1
