# generated using pymatgen
data_La15Ge9Ru
_symmetry_space_group_name_H-M   'P 1'
_cell_length_a   15.66979428
_cell_length_b   15.66979428
_cell_length_c   7.07672800
_cell_angle_alpha   90.00000000
_cell_angle_beta   90.00000000
_cell_angle_gamma   120.00000118
_symmetry_Int_Tables_number   1
_chemical_formula_structural   La15Ge9Ru
_chemical_formula_sum   'La30 Ge18 Ru2'
_cell_volume   1504.83789726
_cell_formula_units_Z   2
loop_
 _symmetry_equiv_pos_site_id
 _symmetry_equiv_pos_as_xyz
  1  'x, y, z'
loop_
 _atom_site_type_symbol
 _atom_site_label
 _atom_site_symmetry_multiplicity
 _atom_site_fract_x
 _atom_site_fract_y
 _atom_site_fract_z
 _atom_site_occupancy
  La  La0  1  0.34304900  0.01830300  0.51724300  1
  La  La1  1  0.98169700  0.32474600  0.51724300  1
  La  La2  1  0.65695100  0.98169700  0.01724300  1
  La  La3  1  0.98169700  0.65695100  0.51724300  1
  La  La4  1  0.67525400  0.65695100  0.51724300  1
  La  La5  1  0.01830300  0.67525400  0.01724300  1
  La  La6  1  0.67525400  0.01830300  0.51724300  1
  La  La7  1  0.01830300  0.34304900  0.01724300  1
  La  La8  1  0.32474600  0.34304900  0.01724300  1
  La  La9  1  0.32474600  0.98169700  0.01724300  1
  La  La10  1  0.34304900  0.32474600  0.51724300  1
  La  La11  1  0.65695100  0.67525400  0.01724300  1
  La  La12  1  0.58343700  0.41656300  0.77089200  1
  La  La13  1  0.58343700  0.16687300  0.77089200  1
  La  La14  1  0.41656300  0.58343700  0.27089200  1
  La  La15  1  0.83312700  0.41656300  0.77089200  1
  La  La16  1  0.41656300  0.83312700  0.27089200  1
  La  La17  1  0.16687300  0.58343700  0.27089200  1
  La  La18  1  0.91775600  0.08224400  0.79576300  1
  La  La19  1  0.91775600  0.83551200  0.79576300  1
  La  La20  1  0.08224400  0.91775600  0.29576300  1
  La  La21  1  0.16448800  0.08224400  0.79576300  1
  La  La22  1  0.08224400  0.16448800  0.29576300  1
  La  La23  1  0.83551200  0.91775600  0.29576300  1
  La  La24  1  0.25069300  0.74930700  0.73798200  1
  La  La25  1  0.25069300  0.50138600  0.73798200  1
  La  La26  1  0.74930700  0.25069300  0.23798200  1
  La  La27  1  0.49861400  0.74930700  0.73798200  1
  La  La28  1  0.74930700  0.49861400  0.23798200  1
  La  La29  1  0.50138600  0.25069300  0.23798200  1
  Ge  Ge30  1  0.13127800  0.86872200  0.73986100  1
  Ge  Ge31  1  0.13127800  0.26255700  0.73986100  1
  Ge  Ge32  1  0.86872200  0.13127800  0.23986100  1
  Ge  Ge33  1  0.73744300  0.86872200  0.73986100  1
  Ge  Ge34  1  0.86872200  0.73744300  0.23986100  1
  Ge  Ge35  1  0.26255700  0.13127800  0.23986100  1
  Ge  Ge36  1  0.80195300  0.19804700  0.80371400  1
  Ge  Ge37  1  0.80195300  0.60390600  0.80371400  1
  Ge  Ge38  1  0.19804700  0.80195300  0.30371400  1
  Ge  Ge39  1  0.39609400  0.19804700  0.80371400  1
  Ge  Ge40  1  0.19804700  0.39609400  0.30371400  1
  Ge  Ge41  1  0.60390600  0.80195300  0.30371400  1
  Ge  Ge42  1  0.46730000  0.53270000  0.75755700  1
  Ge  Ge43  1  0.46730000  0.93459900  0.75755700  1
  Ge  Ge44  1  0.53270000  0.46730000  0.25755700  1
  Ge  Ge45  1  0.06540100  0.53270000  0.75755700  1
  Ge  Ge46  1  0.53270000  0.06540100  0.25755700  1
  Ge  Ge47  1  0.93459900  0.46730000  0.25755700  1
  Ru  Ru48  1  0.33333300  0.66666700  0.50324500  1
  Ru  Ru49  1  0.66666700  0.33333300  0.00324500  1
