# generated using pymatgen
data_Fe4AgP(XeF3)2
_symmetry_space_group_name_H-M   'P 1'
_cell_length_a   10.69709210
_cell_length_b   10.69709210
_cell_length_c   10.69709210
_cell_angle_alpha   123.10468493
_cell_angle_beta   123.10468493
_cell_angle_gamma   84.70170743
_symmetry_Int_Tables_number   1
_chemical_formula_structural   Fe4AgP(XeF3)2
_chemical_formula_sum   'Fe8 Ag2 P2 Xe4 F12'
_cell_volume   821.07733920
_cell_formula_units_Z   2
loop_
 _symmetry_equiv_pos_site_id
 _symmetry_equiv_pos_as_xyz
  1  'x, y, z'
loop_
 _atom_site_type_symbol
 _atom_site_label
 _atom_site_symmetry_multiplicity
 _atom_site_fract_x
 _atom_site_fract_y
 _atom_site_fract_z
 _atom_site_occupancy
  Fe  Fe0  1  0.26229300  0.99761700  0.18884500  1
  Fe  Fe1  1  0.80877200  0.07344800  0.81115500  1
  Fe  Fe2  1  0.00238300  0.19122800  0.26467700  1
  Fe  Fe3  1  0.76229300  0.57344800  0.26467700  1
  Fe  Fe4  1  0.92655200  0.73770700  0.73532300  1
  Fe  Fe5  1  0.30877200  0.49761700  0.73532300  1
  Fe  Fe6  1  0.50238300  0.23770700  0.81115500  1
  Fe  Fe7  1  0.42655200  0.69122800  0.18884500  1
  Ag  Ag8  1  0.00000000  0.50000000  0.50000000  1
  Ag  Ag9  1  0.50000000  0.00000000  0.50000000  1
  P  P10  1  0.00000000  0.00000000  0.00000000  1
  P  P11  1  0.50000000  0.50000000  0.00000000  1
  Xe  Xe12  1  0.48200500  0.01799500  0.00000000  1
  Xe  Xe13  1  0.01799500  0.48200500  0.00000000  1
  Xe  Xe14  1  0.98200500  0.98200500  0.46400900  1
  Xe  Xe15  1  0.51799500  0.51799500  0.53599100  1
  F  F16  1  0.11702500  0.11702500  0.00000000  1
  F  F17  1  0.88297500  0.88297500  0.00000000  1
  F  F18  1  0.61702500  0.61702500  0.00000000  1
  F  F19  1  0.38297500  0.38297500  0.00000000  1
  F  F20  1  0.26167100  0.67289500  0.74722800  1
  F  F21  1  0.92566700  0.51444300  0.25277200  1
  F  F22  1  0.32710500  0.07433300  0.58877600  1
  F  F23  1  0.76167100  0.01444300  0.58877600  1
  F  F24  1  0.48555700  0.73832900  0.41122400  1
  F  F25  1  0.42566700  0.17289500  0.41122400  1
  F  F26  1  0.82710500  0.23832900  0.25277200  1
  F  F27  1  0.98555700  0.57433300  0.74722800  1
