# generated using pymatgen
data_Dy2Sn3(PbS4)3
_symmetry_space_group_name_H-M   'P 1'
_cell_length_a   3.94170400
_cell_length_b   11.64465300
_cell_length_c   20.41630000
_cell_angle_alpha   90.00000000
_cell_angle_beta   90.00000000
_cell_angle_gamma   90.00000000
_symmetry_Int_Tables_number   1
_chemical_formula_structural   Dy2Sn3(PbS4)3
_chemical_formula_sum   'Dy4 Sn6 Pb6 S24'
_cell_volume   937.10358264
_cell_formula_units_Z   2
loop_
 _symmetry_equiv_pos_site_id
 _symmetry_equiv_pos_as_xyz
  1  'x, y, z'
loop_
 _atom_site_type_symbol
 _atom_site_label
 _atom_site_symmetry_multiplicity
 _atom_site_fract_x
 _atom_site_fract_y
 _atom_site_fract_z
 _atom_site_occupancy
  Dy  Dy0  1  0.50000000  0.64695900  0.41273200  1
  Dy  Dy1  1  0.50000000  0.14695900  0.58726800  1
  Dy  Dy2  1  0.50000000  0.82566700  0.89413900  1
  Dy  Dy3  1  0.50000000  0.32566700  0.10586100  1
  Sn  Sn4  1  0.00000000  0.00218800  0.75011200  1
  Sn  Sn5  1  0.00000000  0.50218800  0.24988800  1
  Sn  Sn6  1  0.00000000  0.51948100  0.91240200  1
  Sn  Sn7  1  0.00000000  0.01948100  0.08759800  1
  Sn  Sn8  1  0.00000000  0.99298600  0.42637900  1
  Sn  Sn9  1  0.00000000  0.49298600  0.57362100  1
  Pb  Pb10  1  0.50000000  0.40335400  0.74190200  1
  Pb  Pb11  1  0.50000000  0.90335400  0.25809800  1
  Pb  Pb12  1  0.50000000  0.19871300  0.91480100  1
  Pb  Pb13  1  0.50000000  0.69871300  0.08519900  1
  Pb  Pb14  1  0.50000000  0.77220400  0.62218800  1
  Pb  Pb15  1  0.50000000  0.27220400  0.37781200  1
  S  S16  1  0.00000000  0.99061200  0.87538000  1
  S  S17  1  0.00000000  0.49061200  0.12462000  1
  S  S18  1  0.00000000  0.98448300  0.62636600  1
  S  S19  1  0.00000000  0.48448300  0.37363400  1
  S  S20  1  0.00000000  0.68158600  0.50954900  1
  S  S21  1  0.00000000  0.18158600  0.49045100  1
  S  S22  1  0.50000000  0.64670100  0.25827500  1
  S  S23  1  0.50000000  0.14670100  0.74172500  1
  S  S24  1  0.50000000  0.85092400  0.75691800  1
  S  S25  1  0.50000000  0.35092400  0.24308200  1
  S  S26  1  0.50000000  0.60196700  0.84209300  1
  S  S27  1  0.50000000  0.10196700  0.15790700  1
  S  S28  1  0.50000000  0.43684500  0.98291800  1
  S  S29  1  0.50000000  0.93684500  0.01708200  1
  S  S30  1  0.50000000  0.93634800  0.49279900  1
  S  S31  1  0.50000000  0.43634800  0.50720100  1
  S  S32  1  0.00000000  0.33811200  0.84316600  1
  S  S33  1  0.00000000  0.83811200  0.15683400  1
  S  S34  1  0.00000000  0.71435200  0.96917500  1
  S  S35  1  0.00000000  0.21435200  0.03082500  1
  S  S36  1  0.00000000  0.80433600  0.36126900  1
  S  S37  1  0.00000000  0.30433600  0.63873100  1
  S  S38  1  0.00000000  0.60148100  0.67638600  1
  S  S39  1  0.00000000  0.10148100  0.32361400  1
