# generated using pymatgen
data_CuAsPb2SO9
_symmetry_space_group_name_H-M   'P 1'
_cell_length_a   5.87610000
_cell_length_b   8.47360201
_cell_length_c   8.65975828
_cell_angle_alpha   111.21333849
_cell_angle_beta   90.00000000
_cell_angle_gamma   90.00000000
_symmetry_Int_Tables_number   1
_chemical_formula_structural   CuAsPb2SO9
_chemical_formula_sum   'Cu2 As2 Pb4 S2 O18'
_cell_volume   401.96713996
_cell_formula_units_Z   2
loop_
 _symmetry_equiv_pos_site_id
 _symmetry_equiv_pos_as_xyz
  1  'x, y, z'
loop_
 _atom_site_type_symbol
 _atom_site_label
 _atom_site_symmetry_multiplicity
 _atom_site_fract_x
 _atom_site_fract_y
 _atom_site_fract_z
 _atom_site_occupancy
  Cu  Cu0  1  0.00000000  0.00000000  0.00000000  1
  Cu  Cu1  1  0.50000000  0.00000000  0.00000000  1
  As  As2  1  0.75000000  0.97352000  0.66197800  1
  As  As3  1  0.25000000  0.02648000  0.33802200  1
  Pb  Pb4  1  0.75000000  0.69415900  0.23428600  1
  Pb  Pb5  1  0.25000000  0.30584100  0.76571400  1
  Pb  Pb6  1  0.75000000  0.26777100  0.36553900  1
  Pb  Pb7  1  0.25000000  0.73222900  0.63446100  1
  S  S8  1  0.75000000  0.54749100  0.82150800  1
  S  S9  1  0.25000000  0.45250900  0.17849200  1
  O  O10  1  0.99931000  0.00334700  0.78259700  1
  O  O11  1  0.00069000  0.99665300  0.21740300  1
  O  O12  1  0.49931000  0.99665300  0.21740300  1
  O  O13  1  0.50069000  0.00334700  0.78259700  1
  O  O14  1  0.75000000  0.76444800  0.53642700  1
  O  O15  1  0.25000000  0.23555200  0.46357300  1
  O  O16  1  0.75000000  0.73147500  0.92225200  1
  O  O17  1  0.25000000  0.26852500  0.07774800  1
  O  O18  1  0.75000000  0.13724400  0.05933700  1
  O  O19  1  0.25000000  0.86275600  0.94066300  1
  O  O20  1  0.75000000  0.44583000  0.92992200  1
  O  O21  1  0.25000000  0.55417000  0.07007800  1
  O  O22  1  0.75000000  0.11482300  0.56599000  1
  O  O23  1  0.25000000  0.88517700  0.43401000  1
  O  O24  1  0.95856600  0.50343800  0.71116900  1
  O  O25  1  0.04143400  0.49656200  0.28883100  1
  O  O26  1  0.45856600  0.49656200  0.28883100  1
  O  O27  1  0.54143400  0.50343800  0.71116900  1
