# generated using pymatgen
data_FeS2NO20
_symmetry_space_group_name_H-M   'P 1'
_cell_length_a   11.32798400
_cell_length_b   11.32798400
_cell_length_c   11.32798400
_cell_angle_alpha   90.00000000
_cell_angle_beta   90.00000000
_cell_angle_gamma   90.00000000
_symmetry_Int_Tables_number   1
_chemical_formula_structural   FeS2NO20
_chemical_formula_sum   'Fe4 S8 N4 O80'
_cell_volume   1453.64340003
_cell_formula_units_Z   4
loop_
 _symmetry_equiv_pos_site_id
 _symmetry_equiv_pos_as_xyz
  1  'x, y, z'
loop_
 _atom_site_type_symbol
 _atom_site_label
 _atom_site_symmetry_multiplicity
 _atom_site_fract_x
 _atom_site_fract_y
 _atom_site_fract_z
 _atom_site_occupancy
  Fe  Fe0  1  0.50000000  0.50000000  0.50000000  1
  Fe  Fe1  1  0.00000000  0.50000000  0.00000000  1
  Fe  Fe2  1  0.50000000  0.00000000  0.00000000  1
  Fe  Fe3  1  0.00000000  0.00000000  0.50000000  1
  S  S4  1  0.22903400  0.22903400  0.22903400  1
  S  S5  1  0.77096600  0.77096600  0.77096600  1
  S  S6  1  0.27096600  0.77096600  0.72903400  1
  S  S7  1  0.77096600  0.72903400  0.27096600  1
  S  S8  1  0.72903400  0.22903400  0.27096600  1
  S  S9  1  0.22903400  0.27096600  0.72903400  1
  S  S10  1  0.72903400  0.27096600  0.77096600  1
  S  S11  1  0.27096600  0.72903400  0.22903400  1
  N  N12  1  0.00000000  0.00000000  0.00000000  1
  N  N13  1  0.50000000  0.00000000  0.50000000  1
  N  N14  1  0.00000000  0.50000000  0.50000000  1
  N  N15  1  0.50000000  0.50000000  0.00000000  1
  O  O16  1  0.97843600  0.94111100  0.35303200  1
  O  O17  1  0.02156400  0.05888900  0.64696800  1
  O  O18  1  0.52156400  0.05888900  0.85303200  1
  O  O19  1  0.02156400  0.44111100  0.14696800  1
  O  O20  1  0.35303200  0.97843600  0.94111100  1
  O  O21  1  0.47843600  0.94111100  0.14696800  1
  O  O22  1  0.97843600  0.55888900  0.85303200  1
  O  O23  1  0.64696800  0.02156400  0.05888900  1
  O  O24  1  0.47843600  0.55888900  0.64696800  1
  O  O25  1  0.85303200  0.52156400  0.05888900  1
  O  O26  1  0.52156400  0.44111100  0.35303200  1
  O  O27  1  0.14696800  0.47843600  0.94111100  1
  O  O28  1  0.14696800  0.02156400  0.44111100  1
  O  O29  1  0.85303200  0.97843600  0.55888900  1
  O  O30  1  0.64696800  0.47843600  0.55888900  1
  O  O31  1  0.35303200  0.52156400  0.44111100  1
  O  O32  1  0.94111100  0.35303200  0.97843600  1
  O  O33  1  0.05888900  0.64696800  0.02156400  1
  O  O34  1  0.44111100  0.14696800  0.02156400  1
  O  O35  1  0.55888900  0.85303200  0.97843600  1
  O  O36  1  0.55888900  0.64696800  0.47843600  1
  O  O37  1  0.44111100  0.35303200  0.52156400  1
  O  O38  1  0.05888900  0.85303200  0.52156400  1
  O  O39  1  0.94111100  0.14696800  0.47843600  1
  O  O40  1  0.03711400  0.50894000  0.36707600  1
  O  O41  1  0.96288600  0.49106000  0.63292400  1
  O  O42  1  0.46288600  0.49106000  0.86707600  1
  O  O43  1  0.96288600  0.00894000  0.13292400  1
  O  O44  1  0.36707600  0.03711400  0.50894000  1
  O  O45  1  0.53711400  0.50894000  0.13292400  1
  O  O46  1  0.03711400  0.99106000  0.86707600  1
  O  O47  1  0.63292400  0.96288600  0.49106000  1
  O  O48  1  0.53711400  0.99106000  0.63292400  1
  O  O49  1  0.86707600  0.46288600  0.49106000  1
  O  O50  1  0.46288600  0.00894000  0.36707600  1
  O  O51  1  0.13292400  0.53711400  0.50894000  1
  O  O52  1  0.13292400  0.96288600  0.00894000  1
  O  O53  1  0.86707600  0.03711400  0.99106000  1
  O  O54  1  0.63292400  0.53711400  0.99106000  1
  O  O55  1  0.36707600  0.46288600  0.00894000  1
  O  O56  1  0.50894000  0.36707600  0.03711400  1
  O  O57  1  0.49106000  0.63292400  0.96288600  1
  O  O58  1  0.00894000  0.13292400  0.96288600  1
  O  O59  1  0.99106000  0.86707600  0.03711400  1
  O  O60  1  0.99106000  0.63292400  0.53711400  1
  O  O61  1  0.00894000  0.36707600  0.46288600  1
  O  O62  1  0.49106000  0.86707600  0.46288600  1
  O  O63  1  0.50894000  0.13292400  0.53711400  1
  O  O64  1  0.11364900  0.21033500  0.28879500  1
  O  O65  1  0.88635100  0.78966500  0.71120500  1
  O  O66  1  0.38635100  0.78966500  0.78879500  1
  O  O67  1  0.88635100  0.71033500  0.21120500  1
  O  O68  1  0.28879500  0.11364900  0.21033500  1
  O  O69  1  0.61364900  0.21033500  0.21120500  1
  O  O70  1  0.11364900  0.28966500  0.78879500  1
  O  O71  1  0.71120500  0.88635100  0.78966500  1
  O  O72  1  0.61364900  0.28966500  0.71120500  1
  O  O73  1  0.78879500  0.38635100  0.78966500  1
  O  O74  1  0.38635100  0.71033500  0.28879500  1
  O  O75  1  0.21120500  0.61364900  0.21033500  1
  O  O76  1  0.21120500  0.88635100  0.71033500  1
  O  O77  1  0.78879500  0.11364900  0.28966500  1
  O  O78  1  0.71120500  0.61364900  0.28966500  1
  O  O79  1  0.28879500  0.38635100  0.71033500  1
  O  O80  1  0.21033500  0.28879500  0.11364900  1
  O  O81  1  0.78966500  0.71120500  0.88635100  1
  O  O82  1  0.71033500  0.21120500  0.88635100  1
  O  O83  1  0.28966500  0.78879500  0.11364900  1
  O  O84  1  0.28966500  0.71120500  0.61364900  1
  O  O85  1  0.71033500  0.28879500  0.38635100  1
  O  O86  1  0.78966500  0.78879500  0.38635100  1
  O  O87  1  0.21033500  0.21120500  0.61364900  1
  O  O88  1  0.30478800  0.30478800  0.30478800  1
  O  O89  1  0.69521200  0.69521200  0.69521200  1
  O  O90  1  0.19521200  0.69521200  0.80478800  1
  O  O91  1  0.69521200  0.80478800  0.19521200  1
  O  O92  1  0.80478800  0.30478800  0.19521200  1
  O  O93  1  0.30478800  0.19521200  0.80478800  1
  O  O94  1  0.80478800  0.19521200  0.69521200  1
  O  O95  1  0.19521200  0.80478800  0.30478800  1
