# generated using pymatgen
data_CrSn4Au
_symmetry_space_group_name_H-M   'P 1'
_cell_length_a   6.88294700
_cell_length_b   6.88294700
_cell_length_c   5.60168300
_cell_angle_alpha   90.00000000
_cell_angle_beta   90.00000000
_cell_angle_gamma   90.00000000
_symmetry_Int_Tables_number   1
_chemical_formula_structural   CrSn4Au
_chemical_formula_sum   'Cr2 Sn8 Au2'
_cell_volume   265.37950472
_cell_formula_units_Z   2
loop_
 _symmetry_equiv_pos_site_id
 _symmetry_equiv_pos_as_xyz
  1  'x, y, z'
loop_
 _atom_site_type_symbol
 _atom_site_label
 _atom_site_symmetry_multiplicity
 _atom_site_fract_x
 _atom_site_fract_y
 _atom_site_fract_z
 _atom_site_occupancy
  Cr  Cr0  1  0.50000000  0.50000000  0.25000000  1
  Cr  Cr1  1  0.50000000  0.50000000  0.75000000  1
  Sn  Sn2  1  0.36987700  0.17785700  0.00000000  1
  Sn  Sn3  1  0.63012300  0.82214300  0.00000000  1
  Sn  Sn4  1  0.17785700  0.63012300  0.00000000  1
  Sn  Sn5  1  0.36987700  0.82214300  0.50000000  1
  Sn  Sn6  1  0.82214300  0.36987700  0.00000000  1
  Sn  Sn7  1  0.63012300  0.17785700  0.50000000  1
  Sn  Sn8  1  0.17785700  0.36987700  0.50000000  1
  Sn  Sn9  1  0.82214300  0.63012300  0.50000000  1
  Au  Au10  1  0.00000000  0.00000000  0.00000000  1
  Au  Au11  1  0.00000000  0.00000000  0.50000000  1
