# generated using pymatgen
data_Cs2UF7
_symmetry_space_group_name_H-M   'P 1'
_cell_length_a   14.34772400
_cell_length_b   6.89266600
_cell_length_c   10.20229690
_cell_angle_alpha   87.75325020
_cell_angle_beta   90.00000000
_cell_angle_gamma   90.00000000
_symmetry_Int_Tables_number   1
_chemical_formula_structural   Cs2UF7
_chemical_formula_sum   'Cs8 U4 F28'
_cell_volume   1008.17104129
_cell_formula_units_Z   4
loop_
 _symmetry_equiv_pos_site_id
 _symmetry_equiv_pos_as_xyz
  1  'x, y, z'
loop_
 _atom_site_type_symbol
 _atom_site_label
 _atom_site_symmetry_multiplicity
 _atom_site_fract_x
 _atom_site_fract_y
 _atom_site_fract_z
 _atom_site_occupancy
  Cs  Cs0  1  0.21527800  0.77791200  0.06245500  1
  Cs  Cs1  1  0.78472200  0.22208800  0.93754500  1
  Cs  Cs2  1  0.71527800  0.22208800  0.43754500  1
  Cs  Cs3  1  0.28472200  0.77791200  0.56245500  1
  Cs  Cs4  1  0.05219800  0.20956200  0.35738400  1
  Cs  Cs5  1  0.94780200  0.79043800  0.64261600  1
  Cs  Cs6  1  0.55219800  0.79043800  0.14261600  1
  Cs  Cs7  1  0.44780200  0.20956200  0.85738400  1
  U  U8  1  0.36826600  0.30503800  0.31780200  1
  U  U9  1  0.63173400  0.69496200  0.68219800  1
  U  U10  1  0.86826600  0.69496200  0.18219800  1
  U  U11  1  0.13173400  0.30503800  0.81780200  1
  F  F12  1  0.74666400  0.52384600  0.18871000  1
  F  F13  1  0.25333600  0.47615400  0.81129000  1
  F  F14  1  0.24666400  0.47615400  0.31129000  1
  F  F15  1  0.75333600  0.52384600  0.68871000  1
  F  F16  1  0.15777700  0.23971200  0.01665600  1
  F  F17  1  0.84222300  0.76028800  0.98334400  1
  F  F18  1  0.65777700  0.76028800  0.48334400  1
  F  F19  1  0.34222300  0.23971200  0.51665600  1
  F  F20  1  0.28891500  0.06112800  0.27666500  1
  F  F21  1  0.71108500  0.93887200  0.72333500  1
  F  F22  1  0.78891500  0.93887200  0.22333500  1
  F  F23  1  0.21108500  0.06112800  0.77666500  1
  F  F24  1  0.38843200  0.89435700  0.01226600  1
  F  F25  1  0.61156800  0.10564300  0.98773400  1
  F  F26  1  0.88843200  0.10564300  0.48773400  1
  F  F27  1  0.11156800  0.89435700  0.51226600  1
  F  F28  1  0.93848700  0.44623700  0.12664000  1
  F  F29  1  0.06151300  0.55376300  0.87336000  1
  F  F30  1  0.43848700  0.55376300  0.37336000  1
  F  F31  1  0.56151300  0.44623700  0.62664000  1
  F  F32  1  0.99134800  0.85661400  0.17304700  1
  F  F33  1  0.00865200  0.14338600  0.82695300  1
  F  F34  1  0.49134800  0.14338600  0.32695300  1
  F  F35  1  0.50865200  0.85661400  0.67304700  1
  F  F36  1  0.39104600  0.39352200  0.12239500  1
  F  F37  1  0.60895400  0.60647800  0.87760500  1
  F  F38  1  0.89104600  0.60647800  0.37760500  1
  F  F39  1  0.10895400  0.39352200  0.62239500  1
