# generated using pymatgen
data_CuH10(ClO6)3
_symmetry_space_group_name_H-M   'P 1'
_cell_length_a   10.31631040
_cell_length_b   10.31631040
_cell_length_c   13.23106000
_cell_angle_alpha   90.00000000
_cell_angle_beta   90.00000000
_cell_angle_gamma   120.00000259
_symmetry_Int_Tables_number   1
_chemical_formula_structural   CuH10(ClO6)3
_chemical_formula_sum   'Cu3 H30 Cl9 O54'
_cell_volume   1219.47825670
_cell_formula_units_Z   3
loop_
 _symmetry_equiv_pos_site_id
 _symmetry_equiv_pos_as_xyz
  1  'x, y, z'
loop_
 _atom_site_type_symbol
 _atom_site_label
 _atom_site_symmetry_multiplicity
 _atom_site_fract_x
 _atom_site_fract_y
 _atom_site_fract_z
 _atom_site_occupancy
  Cu  Cu0  1  0.69601300  0.00000000  0.83333300  1
  Cu  Cu1  1  0.00000000  0.69601300  0.16666700  1
  Cu  Cu2  1  0.30398700  0.30398700  0.50000000  1
  H  H3  1  0.32663000  0.09656300  0.59858500  1
  H  H4  1  0.90343700  0.23006700  0.93191800  1
  H  H5  1  0.09656300  0.32663000  0.40141500  1
  H  H6  1  0.76993300  0.67337000  0.26525200  1
  H  H7  1  0.23006700  0.90343700  0.06808200  1
  H  H8  1  0.67337000  0.76993300  0.73474800  1
  H  H9  1  0.26485100  0.37366500  0.68547800  1
  H  H10  1  0.62633500  0.89118600  0.01881100  1
  H  H11  1  0.37366500  0.26485100  0.31452200  1
  H  H12  1  0.10881400  0.73514900  0.35214400  1
  H  H13  1  0.89118600  0.62633500  0.98118900  1
  H  H14  1  0.73514900  0.10881400  0.64785600  1
  H  H15  1  0.43762000  0.25378100  0.64669600  1
  H  H16  1  0.74621900  0.18383800  0.98002900  1
  H  H17  1  0.25378100  0.43762000  0.35330400  1
  H  H18  1  0.81616200  0.56238000  0.31336300  1
  H  H19  1  0.18383800  0.74621900  0.01997100  1
  H  H20  1  0.56238000  0.81616200  0.68663700  1
  H  H21  1  0.47184800  0.08838700  0.83070700  1
  H  H22  1  0.91161300  0.38346100  0.16404000  1
  H  H23  1  0.08838700  0.47184800  0.16929300  1
  H  H24  1  0.61653900  0.52815200  0.49737400  1
  H  H25  1  0.38346100  0.91161300  0.83596000  1
  H  H26  1  0.52815200  0.61653900  0.50262600  1
  H  H27  1  0.14923800  0.38209000  0.61117000  1
  H  H28  1  0.61791000  0.76714800  0.94450300  1
  H  H29  1  0.38209000  0.14923800  0.38883000  1
  H  H30  1  0.23285200  0.85076200  0.27783700  1
  H  H31  1  0.76714800  0.61791000  0.05549700  1
  H  H32  1  0.85076200  0.23285200  0.72216300  1
  Cl  Cl33  1  0.17511300  0.54455500  0.85491500  1
  Cl  Cl34  1  0.45544500  0.63055800  0.18824900  1
  Cl  Cl35  1  0.54455500  0.17511300  0.14508500  1
  Cl  Cl36  1  0.36944200  0.82488700  0.52158200  1
  Cl  Cl37  1  0.63055800  0.45544500  0.81175100  1
  Cl  Cl38  1  0.82488700  0.36944200  0.47841800  1
  Cl  Cl39  1  0.08359600  0.00000000  0.83333300  1
  Cl  Cl40  1  0.00000000  0.08359600  0.16666700  1
  Cl  Cl41  1  0.91640400  0.91640400  0.50000000  1
  O  O42  1  0.06711300  0.45676700  0.77597500  1
  O  O43  1  0.54323300  0.61034600  0.10930800  1
  O  O44  1  0.45676700  0.06711300  0.22402500  1
  O  O45  1  0.38965400  0.93288700  0.44264100  1
  O  O46  1  0.61034600  0.54323300  0.89069200  1
  O  O47  1  0.93288700  0.38965400  0.55735900  1
  O  O48  1  0.06935900  0.13254100  0.82155400  1
  O  O49  1  0.86745900  0.93681800  0.15488700  1
  O  O50  1  0.13254100  0.06935900  0.17844600  1
  O  O51  1  0.06318200  0.93064100  0.48822100  1
  O  O52  1  0.93681800  0.86745900  0.84511300  1
  O  O53  1  0.93064100  0.06318200  0.51177900  1
  O  O54  1  0.38875500  0.20366500  0.58317500  1
  O  O55  1  0.79633500  0.18509000  0.91650900  1
  O  O56  1  0.20366500  0.38875500  0.41682500  1
  O  O57  1  0.81491000  0.61124500  0.24984200  1
  O  O58  1  0.18509000  0.79633500  0.08349100  1
  O  O59  1  0.61124500  0.81491000  0.75015800  1
  O  O60  1  0.23764800  0.68143800  0.49880300  1
  O  O61  1  0.31856200  0.55621000  0.83213700  1
  O  O62  1  0.68143800  0.23764800  0.50119700  1
  O  O63  1  0.44379000  0.76235200  0.16547000  1
  O  O64  1  0.55621000  0.31856200  0.16786300  1
  O  O65  1  0.76235200  0.44379000  0.83453000  1
  O  O66  1  0.12008300  0.47399200  0.95341400  1
  O  O67  1  0.52600800  0.64609200  0.28674800  1
  O  O68  1  0.47399200  0.12008300  0.04658600  1
  O  O69  1  0.35390800  0.87991700  0.62008100  1
  O  O70  1  0.64609200  0.52600800  0.71325200  1
  O  O71  1  0.87991700  0.35390800  0.37991900  1
  O  O72  1  0.17651100  0.01885800  0.92232100  1
  O  O73  1  0.98114200  0.15765300  0.25565400  1
  O  O74  1  0.01885800  0.17651100  0.07767900  1
  O  O75  1  0.84234700  0.82348900  0.58898700  1
  O  O76  1  0.15765300  0.98114200  0.74434600  1
  O  O77  1  0.82348900  0.84234700  0.41101300  1
  O  O78  1  0.67482600  0.00000000  0.33333300  1
  O  O79  1  0.00000000  0.67482600  0.66666700  1
  O  O80  1  0.32517400  0.32517400  0.00000000  1
  O  O81  1  0.49647200  0.30405700  0.80753700  1
  O  O82  1  0.69594300  0.19241600  0.14087000  1
  O  O83  1  0.30405700  0.49647200  0.19246300  1
  O  O84  1  0.80758400  0.50352800  0.47420400  1
  O  O85  1  0.19241600  0.69594300  0.85913000  1
  O  O86  1  0.50352800  0.80758400  0.52579600  1
  O  O87  1  0.21354900  0.33833400  0.62070500  1
  O  O88  1  0.66166600  0.87521400  0.95403800  1
  O  O89  1  0.33833400  0.21354900  0.37929500  1
  O  O90  1  0.12478600  0.78645100  0.28737200  1
  O  O91  1  0.87521400  0.66166600  0.04596200  1
  O  O92  1  0.78645100  0.12478600  0.71262800  1
  O  O93  1  0.48344200  0.00000000  0.83333300  1
  O  O94  1  0.00000000  0.48344200  0.16666700  1
  O  O95  1  0.51655800  0.51655800  0.50000000  1
