# generated using pymatgen
data_Cs2WO8
_symmetry_space_group_name_H-M   'P 1'
_cell_length_a   9.30992400
_cell_length_b   7.24555900
_cell_length_c   14.21692702
_cell_angle_alpha   63.77358869
_cell_angle_beta   90.00000000
_cell_angle_gamma   90.00000000
_symmetry_Int_Tables_number   1
_chemical_formula_structural   Cs2WO8
_chemical_formula_sum   'Cs8 W4 O32'
_cell_volume   860.28573199
_cell_formula_units_Z   4
loop_
 _symmetry_equiv_pos_site_id
 _symmetry_equiv_pos_as_xyz
  1  'x, y, z'
loop_
 _atom_site_type_symbol
 _atom_site_label
 _atom_site_symmetry_multiplicity
 _atom_site_fract_x
 _atom_site_fract_y
 _atom_site_fract_z
 _atom_site_occupancy
  Cs  Cs0  1  0.98570100  0.98890100  0.76474700  1
  Cs  Cs1  1  0.01429900  0.01109900  0.23525300  1
  Cs  Cs2  1  0.48570100  0.01109900  0.73525300  1
  Cs  Cs3  1  0.51429900  0.98890100  0.26474700  1
  Cs  Cs4  1  0.80659900  0.66250000  0.58735000  1
  Cs  Cs5  1  0.19340100  0.33750000  0.41265000  1
  Cs  Cs6  1  0.30659900  0.33750000  0.91265000  1
  Cs  Cs7  1  0.69340100  0.66250000  0.08735000  1
  W  W8  1  0.28768100  0.67147800  0.58307100  1
  W  W9  1  0.71231900  0.32852200  0.41692900  1
  W  W10  1  0.78768100  0.32852200  0.91692900  1
  W  W11  1  0.21231900  0.67147800  0.08307100  1
  O  O12  1  0.13571300  0.69320900  0.67723100  1
  O  O13  1  0.86428700  0.30679100  0.32276900  1
  O  O14  1  0.63571300  0.30679100  0.82276900  1
  O  O15  1  0.36428700  0.69320900  0.17723100  1
  O  O16  1  0.48354200  0.79048000  0.57791600  1
  O  O17  1  0.51645800  0.20952000  0.42208400  1
  O  O18  1  0.98354200  0.20952000  0.92208400  1
  O  O19  1  0.01645800  0.79048000  0.07791600  1
  O  O20  1  0.44284500  0.64047800  0.68764500  1
  O  O21  1  0.55715500  0.35952200  0.31235500  1
  O  O22  1  0.94284500  0.35952200  0.81235500  1
  O  O23  1  0.05715500  0.64047800  0.18764500  1
  O  O24  1  0.22631600  0.83992500  0.92725800  1
  O  O25  1  0.77368400  0.16007500  0.07274200  1
  O  O26  1  0.72631600  0.16007500  0.57274200  1
  O  O27  1  0.27368400  0.83992500  0.42725800  1
  O  O28  1  0.20014100  0.89993700  0.60858000  1
  O  O29  1  0.79985900  0.10006300  0.39142000  1
  O  O30  1  0.70014100  0.10006300  0.89142000  1
  O  O31  1  0.29985900  0.89993700  0.10858000  1
  O  O32  1  0.36600200  0.42690900  0.56804700  1
  O  O33  1  0.63399800  0.57309100  0.43195300  1
  O  O34  1  0.86600200  0.57309100  0.93195300  1
  O  O35  1  0.13399800  0.42690900  0.06804700  1
  O  O36  1  0.25225900  0.36767600  0.65128100  1
  O  O37  1  0.74774100  0.63232400  0.34871900  1
  O  O38  1  0.75225900  0.63232400  0.84871900  1
  O  O39  1  0.24774100  0.36767600  0.15128100  1
  O  O40  1  0.35805900  0.71050000  0.97024000  1
  O  O41  1  0.64194100  0.28950000  0.02976000  1
  O  O42  1  0.85805900  0.28950000  0.52976000  1
  O  O43  1  0.14194100  0.71050000  0.47024000  1
