# generated using pymatgen
data_Co(PO2)2
_symmetry_space_group_name_H-M   'P 1'
_cell_length_a   5.41580100
_cell_length_b   6.57163200
_cell_length_c   7.60837400
_cell_angle_alpha   90.00000000
_cell_angle_beta   90.00000000
_cell_angle_gamma   90.00000000
_symmetry_Int_Tables_number   1
_chemical_formula_structural   Co(PO2)2
_chemical_formula_sum   'Co2 P4 O8'
_cell_volume   270.78698491
_cell_formula_units_Z   2
loop_
 _symmetry_equiv_pos_site_id
 _symmetry_equiv_pos_as_xyz
  1  'x, y, z'
loop_
 _atom_site_type_symbol
 _atom_site_label
 _atom_site_symmetry_multiplicity
 _atom_site_fract_x
 _atom_site_fract_y
 _atom_site_fract_z
 _atom_site_occupancy
  Co  Co0  1  0.00000000  0.50000000  0.00000000  1
  Co  Co1  1  0.00000000  0.00000000  0.00000000  1
  P  P2  1  0.00000000  0.75000000  0.62874700  1
  P  P3  1  0.00000000  0.25000000  0.37125300  1
  P  P4  1  0.50000000  0.75000000  0.15125400  1
  P  P5  1  0.50000000  0.25000000  0.84874600  1
  O  O6  1  0.00000000  0.05558100  0.25954400  1
  O  O7  1  0.00000000  0.94441900  0.74045600  1
  O  O8  1  0.00000000  0.44441900  0.25954400  1
  O  O9  1  0.00000000  0.55558100  0.74045600  1
  O  O10  1  0.26743800  0.75000000  0.03492800  1
  O  O11  1  0.73256200  0.25000000  0.96507200  1
  O  O12  1  0.73256200  0.75000000  0.03492800  1
  O  O13  1  0.26743800  0.25000000  0.96507200  1
