# generated using pymatgen
data_Dy4In20Ni11
_symmetry_space_group_name_H-M   'P 1'
_cell_length_a   11.33117600
_cell_length_b   11.33117600
_cell_length_c   16.44199583
_cell_angle_alpha   56.35805893
_cell_angle_beta   56.35805893
_cell_angle_gamma   21.76531744
_symmetry_Int_Tables_number   1
_chemical_formula_structural   Dy4In20Ni11
_chemical_formula_sum   'Dy4 In20 Ni11'
_cell_volume   646.33820183
_cell_formula_units_Z   1
loop_
 _symmetry_equiv_pos_site_id
 _symmetry_equiv_pos_as_xyz
  1  'x, y, z'
loop_
 _atom_site_type_symbol
 _atom_site_label
 _atom_site_symmetry_multiplicity
 _atom_site_fract_x
 _atom_site_fract_y
 _atom_site_fract_z
 _atom_site_occupancy
  Dy  Dy0  1  0.22911100  0.22911100  0.17373600  1
  Dy  Dy1  1  0.77088900  0.77088900  0.82626400  1
  Dy  Dy2  1  0.88078300  0.88078300  0.33068600  1
  Dy  Dy3  1  0.11921700  0.11921700  0.66931400  1
  In  In4  1  0.61181200  0.61181200  0.30852400  1
  In  In5  1  0.38818800  0.38818800  0.69147600  1
  In  In6  1  0.79793800  0.79793800  0.00247000  1
  In  In7  1  0.20206200  0.20206200  0.99753000  1
  In  In8  1  0.88432200  0.88432200  0.55171100  1
  In  In9  1  0.11567800  0.11567800  0.44828900  1
  In  In10  1  0.45895500  0.45895500  0.37736400  1
  In  In11  1  0.54104500  0.54104500  0.62263600  1
  In  In12  1  0.93670500  0.93670500  0.79020500  1
  In  In13  1  0.06329500  0.06329500  0.20979500  1
  In  In14  1  0.70285400  0.70285400  0.49786700  1
  In  In15  1  0.29714600  0.29714600  0.50213200  1
  In  In16  1  0.37173800  0.37173800  0.19550800  1
  In  In17  1  0.62826200  0.62826200  0.80449200  1
  In  In18  1  0.98950200  0.98950200  0.09492300  1
  In  In19  1  0.01049800  0.01049800  0.90507700  1
  In  In20  1  0.60149400  0.60149400  0.00898200  1
  In  In21  1  0.39850600  0.39850600  0.99101800  1
  In  In22  1  0.75282400  0.75282400  0.29108900  1
  In  In23  1  0.24717600  0.24717600  0.70891100  1
  Ni  Ni24  1  0.86329600  0.86329600  0.10268200  1
  Ni  Ni25  1  0.13670400  0.13670400  0.89731800  1
  Ni  Ni26  1  0.74557300  0.74557300  0.61772200  1
  Ni  Ni27  1  0.25442700  0.25442700  0.38227800  1
  Ni  Ni28  1  0.49291800  0.49291800  0.19523400  1
  Ni  Ni29  1  0.50708200  0.50708200  0.80476600  1
  Ni  Ni30  1  0.65269100  0.65269100  0.12148000  1
  Ni  Ni31  1  0.34730900  0.34730900  0.87852000  1
  Ni  Ni32  1  0.50000000  0.50000000  0.50000000  1
  Ni  Ni33  1  0.97741000  0.97741000  0.60001200  1
  Ni  Ni34  1  0.02259000  0.02259000  0.39998800  1
