# generated using pymatgen
data_EuU2S5
_symmetry_space_group_name_H-M   'P 1'
_cell_length_a   7.42308500
_cell_length_b   7.99609700
_cell_length_c   12.03232800
_cell_angle_alpha   90.00000000
_cell_angle_beta   90.00000000
_cell_angle_gamma   90.00000000
_symmetry_Int_Tables_number   1
_chemical_formula_structural   EuU2S5
_chemical_formula_sum   'Eu4 U8 S20'
_cell_volume   714.18734371
_cell_formula_units_Z   4
loop_
 _symmetry_equiv_pos_site_id
 _symmetry_equiv_pos_as_xyz
  1  'x, y, z'
loop_
 _atom_site_type_symbol
 _atom_site_label
 _atom_site_symmetry_multiplicity
 _atom_site_fract_x
 _atom_site_fract_y
 _atom_site_fract_z
 _atom_site_occupancy
  Eu  Eu0  1  0.92408200  0.75000000  0.99280000  1
  Eu  Eu1  1  0.07591800  0.25000000  0.00720000  1
  Eu  Eu2  1  0.42408200  0.25000000  0.50720000  1
  Eu  Eu3  1  0.57591800  0.75000000  0.49280000  1
  U  U4  1  0.98707800  0.00176100  0.68194600  1
  U  U5  1  0.01292200  0.99823900  0.31805400  1
  U  U6  1  0.48707800  0.99823900  0.81805400  1
  U  U7  1  0.01292200  0.50176100  0.31805400  1
  U  U8  1  0.51292200  0.00176100  0.18194600  1
  U  U9  1  0.98707800  0.49823900  0.68194600  1
  U  U10  1  0.51292200  0.49823900  0.18194600  1
  U  U11  1  0.48707800  0.50176100  0.81805400  1
  S  S12  1  0.70463100  0.75000000  0.71728400  1
  S  S13  1  0.29536900  0.25000000  0.28271600  1
  S  S14  1  0.20463100  0.25000000  0.78271600  1
  S  S15  1  0.79536900  0.75000000  0.21728400  1
  S  S16  1  0.17604800  0.75000000  0.81113800  1
  S  S17  1  0.82395200  0.25000000  0.18886200  1
  S  S18  1  0.67604800  0.25000000  0.68886200  1
  S  S19  1  0.32395200  0.75000000  0.31113800  1
  S  S20  1  0.52775700  0.75000000  0.99890400  1
  S  S21  1  0.47224300  0.25000000  0.00109600  1
  S  S22  1  0.02775700  0.25000000  0.50109600  1
  S  S23  1  0.97224300  0.75000000  0.49890400  1
  S  S24  1  0.83018600  0.45579200  0.88771700  1
  S  S25  1  0.16981400  0.54420800  0.11228300  1
  S  S26  1  0.33018600  0.54420800  0.61228300  1
  S  S27  1  0.16981400  0.95579200  0.11228300  1
  S  S28  1  0.66981400  0.45579200  0.38771700  1
  S  S29  1  0.83018600  0.04420800  0.88771700  1
  S  S30  1  0.66981400  0.04420800  0.38771700  1
  S  S31  1  0.33018600  0.95579200  0.61228300  1
