# generated using pymatgen
data_Dy3Cu20Sb11
_symmetry_space_group_name_H-M   'P 1'
_cell_length_a   11.94414511
_cell_length_b   11.94414511
_cell_length_c   11.94414511
_cell_angle_alpha   60.00000000
_cell_angle_beta   60.00000000
_cell_angle_gamma   60.00000000
_symmetry_Int_Tables_number   1
_chemical_formula_structural   Dy3Cu20Sb11
_chemical_formula_sum   'Dy6 Cu40 Sb22'
_cell_volume   1204.89780936
_cell_formula_units_Z   2
loop_
 _symmetry_equiv_pos_site_id
 _symmetry_equiv_pos_as_xyz
  1  'x, y, z'
loop_
 _atom_site_type_symbol
 _atom_site_label
 _atom_site_symmetry_multiplicity
 _atom_site_fract_x
 _atom_site_fract_y
 _atom_site_fract_z
 _atom_site_occupancy
  Dy  Dy0  1  0.49123800  0.00876200  0.00876200  1
  Dy  Dy1  1  0.00876200  0.49123800  0.49123800  1
  Dy  Dy2  1  0.00876200  0.49123800  0.00876200  1
  Dy  Dy3  1  0.49123800  0.00876200  0.49123800  1
  Dy  Dy4  1  0.00876200  0.00876200  0.49123800  1
  Dy  Dy5  1  0.49123800  0.49123800  0.00876200  1
  Cu  Cu6  1  0.25096300  0.25096300  0.86695400  1
  Cu  Cu7  1  0.25096300  0.25096300  0.63112000  1
  Cu  Cu8  1  0.86695400  0.63112000  0.25096300  1
  Cu  Cu9  1  0.86695400  0.25096300  0.25096300  1
  Cu  Cu10  1  0.63112000  0.86695400  0.25096300  1
  Cu  Cu11  1  0.63112000  0.25096300  0.25096300  1
  Cu  Cu12  1  0.25096300  0.86695400  0.63112000  1
  Cu  Cu13  1  0.25096300  0.63112000  0.86695400  1
  Cu  Cu14  1  0.25096300  0.86695400  0.25096300  1
  Cu  Cu15  1  0.63112000  0.25096300  0.86695400  1
  Cu  Cu16  1  0.86695400  0.25096300  0.63112000  1
  Cu  Cu17  1  0.25096300  0.63112000  0.25096300  1
  Cu  Cu18  1  0.69861600  0.69861600  0.69861600  1
  Cu  Cu19  1  0.69861600  0.69861600  0.90415200  1
  Cu  Cu20  1  0.69861600  0.90415200  0.69861600  1
  Cu  Cu21  1  0.90415200  0.69861600  0.69861600  1
  Cu  Cu22  1  0.50350900  0.50350900  0.72523300  1
  Cu  Cu23  1  0.50350900  0.50350900  0.26774900  1
  Cu  Cu24  1  0.72523300  0.26774900  0.50350900  1
  Cu  Cu25  1  0.72523300  0.50350900  0.50350900  1
  Cu  Cu26  1  0.26774900  0.72523300  0.50350900  1
  Cu  Cu27  1  0.26774900  0.50350900  0.50350900  1
  Cu  Cu28  1  0.50350900  0.72523300  0.26774900  1
  Cu  Cu29  1  0.50350900  0.26774900  0.72523300  1
  Cu  Cu30  1  0.50350900  0.72523300  0.50350900  1
  Cu  Cu31  1  0.26774900  0.50350900  0.72523300  1
  Cu  Cu32  1  0.72523300  0.50350900  0.26774900  1
  Cu  Cu33  1  0.50350900  0.26774900  0.50350900  1
  Cu  Cu34  1  0.99681500  0.99681500  0.23257400  1
  Cu  Cu35  1  0.99681500  0.99681500  0.77379700  1
  Cu  Cu36  1  0.23257400  0.77379700  0.99681500  1
  Cu  Cu37  1  0.23257400  0.99681500  0.99681500  1
  Cu  Cu38  1  0.77379700  0.23257400  0.99681500  1
  Cu  Cu39  1  0.77379700  0.99681500  0.99681500  1
  Cu  Cu40  1  0.99681500  0.23257400  0.77379700  1
  Cu  Cu41  1  0.99681500  0.77379700  0.23257400  1
  Cu  Cu42  1  0.99681500  0.23257400  0.99681500  1
  Cu  Cu43  1  0.77379700  0.99681500  0.23257400  1
  Cu  Cu44  1  0.23257400  0.99681500  0.77379700  1
  Cu  Cu45  1  0.99681500  0.77379700  0.99681500  1
  Sb  Sb46  1  0.75069100  0.75069100  0.43638100  1
  Sb  Sb47  1  0.75069100  0.75069100  0.06223700  1
  Sb  Sb48  1  0.43638100  0.06223700  0.75069100  1
  Sb  Sb49  1  0.43638100  0.75069100  0.75069100  1
  Sb  Sb50  1  0.06223700  0.43638100  0.75069100  1
  Sb  Sb51  1  0.06223700  0.75069100  0.75069100  1
  Sb  Sb52  1  0.75069100  0.43638100  0.06223700  1
  Sb  Sb53  1  0.75069100  0.06223700  0.43638100  1
  Sb  Sb54  1  0.75069100  0.43638100  0.75069100  1
  Sb  Sb55  1  0.06223700  0.75069100  0.43638100  1
  Sb  Sb56  1  0.43638100  0.75069100  0.06223700  1
  Sb  Sb57  1  0.75069100  0.06223700  0.75069100  1
  Sb  Sb58  1  0.14809000  0.14809000  0.14809000  1
  Sb  Sb59  1  0.14809000  0.14809000  0.55573000  1
  Sb  Sb60  1  0.14809000  0.55573000  0.14809000  1
  Sb  Sb61  1  0.55573000  0.14809000  0.14809000  1
  Sb  Sb62  1  0.00000000  0.00000000  0.00000000  1
  Sb  Sb63  1  0.35206500  0.35206500  0.35206500  1
  Sb  Sb64  1  0.35206500  0.35206500  0.94380600  1
  Sb  Sb65  1  0.35206500  0.94380600  0.35206500  1
  Sb  Sb66  1  0.94380600  0.35206500  0.35206500  1
  Sb  Sb67  1  0.50000000  0.50000000  0.50000000  1
