# generated using pymatgen
data_Co2S3(NO6)2
_symmetry_space_group_name_H-M   'P 1'
_cell_length_a   9.90657900
_cell_length_b   9.90657900
_cell_length_c   9.90657900
_cell_angle_alpha   90.00000000
_cell_angle_beta   90.00000000
_cell_angle_gamma   90.00000000
_symmetry_Int_Tables_number   1
_chemical_formula_structural   Co2S3(NO6)2
_chemical_formula_sum   'Co8 S12 N8 O48'
_cell_volume   972.23470917
_cell_formula_units_Z   4
loop_
 _symmetry_equiv_pos_site_id
 _symmetry_equiv_pos_as_xyz
  1  'x, y, z'
loop_
 _atom_site_type_symbol
 _atom_site_label
 _atom_site_symmetry_multiplicity
 _atom_site_fract_x
 _atom_site_fract_y
 _atom_site_fract_z
 _atom_site_occupancy
  Co  Co0  1  0.33686000  0.33686000  0.33686000  1
  Co  Co1  1  0.16314000  0.66314000  0.83686000  1
  Co  Co2  1  0.66314000  0.83686000  0.16314000  1
  Co  Co3  1  0.83686000  0.16314000  0.66314000  1
  Co  Co4  1  0.59965500  0.59965500  0.59965500  1
  Co  Co5  1  0.90034500  0.40034500  0.09965500  1
  Co  Co6  1  0.40034500  0.09965500  0.90034500  1
  Co  Co7  1  0.09965500  0.90034500  0.40034500  1
  S  S8  1  0.01755400  0.21655000  0.37609300  1
  S  S9  1  0.48244600  0.78345000  0.87609300  1
  S  S10  1  0.98244600  0.71655000  0.12390700  1
  S  S11  1  0.37609300  0.01755400  0.21655000  1
  S  S12  1  0.51755400  0.28345000  0.62390700  1
  S  S13  1  0.87609300  0.48244600  0.78345000  1
  S  S14  1  0.12390700  0.98244600  0.71655000  1
  S  S15  1  0.62390700  0.51755400  0.28345000  1
  S  S16  1  0.21655000  0.37609300  0.01755400  1
  S  S17  1  0.71655000  0.12390700  0.98244600  1
  S  S18  1  0.28345000  0.62390700  0.51755400  1
  S  S19  1  0.78345000  0.87609300  0.48244600  1
  N  N20  1  0.04792000  0.04792000  0.04792000  1
  N  N21  1  0.45208000  0.95208000  0.54792000  1
  N  N22  1  0.95208000  0.54792000  0.45208000  1
  N  N23  1  0.54792000  0.45208000  0.95208000  1
  N  N24  1  0.81655700  0.81655700  0.81655700  1
  N  N25  1  0.68344300  0.18344300  0.31655700  1
  N  N26  1  0.18344300  0.31655700  0.68344300  1
  N  N27  1  0.31655700  0.68344300  0.18344300  1
  O  O28  1  0.01116300  0.07276900  0.33217500  1
  O  O29  1  0.48883700  0.92723100  0.83217500  1
  O  O30  1  0.98883700  0.57276900  0.16782500  1
  O  O31  1  0.33217500  0.01116300  0.07276900  1
  O  O32  1  0.51116300  0.42723100  0.66782500  1
  O  O33  1  0.83217500  0.48883700  0.92723100  1
  O  O34  1  0.16782500  0.98883700  0.57276900  1
  O  O35  1  0.66782500  0.51116300  0.42723100  1
  O  O36  1  0.07276900  0.33217500  0.01116300  1
  O  O37  1  0.57276900  0.16782500  0.98883700  1
  O  O38  1  0.42723100  0.66782500  0.51116300  1
  O  O39  1  0.92723100  0.83217500  0.48883700  1
  O  O40  1  0.26650000  0.49659800  0.44024200  1
  O  O41  1  0.23350000  0.50340200  0.94024200  1
  O  O42  1  0.73350000  0.99659800  0.05975800  1
  O  O43  1  0.44024200  0.26650000  0.49659800  1
  O  O44  1  0.76650000  0.00340200  0.55975800  1
  O  O45  1  0.94024200  0.23350000  0.50340200  1
  O  O46  1  0.05975800  0.73350000  0.99659800  1
  O  O47  1  0.55975800  0.76650000  0.00340200  1
  O  O48  1  0.49659800  0.44024200  0.26650000  1
  O  O49  1  0.99659800  0.05975800  0.73350000  1
  O  O50  1  0.00340200  0.55975800  0.76650000  1
  O  O51  1  0.50340200  0.94024200  0.23350000  1
  O  O52  1  0.04141700  0.80450300  0.22708000  1
  O  O53  1  0.45858300  0.19549700  0.72708000  1
  O  O54  1  0.95858300  0.30450300  0.27292000  1
  O  O55  1  0.22708000  0.04141700  0.80450300  1
  O  O56  1  0.54141700  0.69549700  0.77292000  1
  O  O57  1  0.72708000  0.45858300  0.19549700  1
  O  O58  1  0.27292000  0.95858300  0.30450300  1
  O  O59  1  0.77292000  0.54141700  0.69549700  1
  O  O60  1  0.80450300  0.22708000  0.04141700  1
  O  O61  1  0.30450300  0.27292000  0.95858300  1
  O  O62  1  0.69549700  0.77292000  0.54141700  1
  O  O63  1  0.19549700  0.72708000  0.45858300  1
  O  O64  1  0.16088600  0.25358200  0.40050600  1
  O  O65  1  0.33911400  0.74641700  0.90050600  1
  O  O66  1  0.83911400  0.75358300  0.09949400  1
  O  O67  1  0.40050600  0.16088600  0.25358200  1
  O  O68  1  0.66088600  0.24641800  0.59949400  1
  O  O69  1  0.90050600  0.33911400  0.74641700  1
  O  O70  1  0.09949400  0.83911400  0.75358300  1
  O  O71  1  0.59949400  0.66088600  0.24641800  1
  O  O72  1  0.25358200  0.40050600  0.16088600  1
  O  O73  1  0.75358300  0.09949400  0.83911400  1
  O  O74  1  0.24641800  0.59949400  0.66088600  1
  O  O75  1  0.74641700  0.90050600  0.33911400  1
