# generated using pymatgen
data_CaSiO5
_symmetry_space_group_name_H-M   'P 1'
_cell_length_a   6.38994562
_cell_length_b   6.38994562
_cell_length_c   6.82162015
_cell_angle_alpha   106.33799225
_cell_angle_beta   106.33799225
_cell_angle_gamma   124.88961019
_symmetry_Int_Tables_number   1
_chemical_formula_structural   CaSiO5
_chemical_formula_sum   'Ca2 Si2 O10'
_cell_volume   181.37624930
_cell_formula_units_Z   2
loop_
 _symmetry_equiv_pos_site_id
 _symmetry_equiv_pos_as_xyz
  1  'x, y, z'
loop_
 _atom_site_type_symbol
 _atom_site_label
 _atom_site_symmetry_multiplicity
 _atom_site_fract_x
 _atom_site_fract_y
 _atom_site_fract_z
 _atom_site_occupancy
  Ca  Ca0  1  0.65730300  0.34269700  0.75000000  1
  Ca  Ca1  1  0.34269700  0.65730300  0.25000000  1
  Si  Si2  1  0.35366600  0.64633400  0.75000000  1
  Si  Si3  1  0.64633400  0.35366600  0.25000000  1
  O  O4  1  0.01945200  0.98054800  0.75000000  1
  O  O5  1  0.98054800  0.01945200  0.25000000  1
  O  O6  1  0.67957800  0.75571000  0.96015700  1
  O  O7  1  0.32042200  0.24429000  0.03984300  1
  O  O8  1  0.24429000  0.32042200  0.53984300  1
  O  O9  1  0.75571000  0.67957800  0.46015700  1
  O  O10  1  0.41418900  0.84589000  0.63601900  1
  O  O11  1  0.58581100  0.15411000  0.36398100  1
  O  O12  1  0.15411000  0.58581100  0.86398100  1
  O  O13  1  0.84589000  0.41418900  0.13601900  1
