# generated using pymatgen
data_ClO
_symmetry_space_group_name_H-M   'P 1'
_cell_length_a   13.39868882
_cell_length_b   13.39868882
_cell_length_c   13.39868882
_cell_angle_alpha   111.67980239
_cell_angle_beta   111.67980239
_cell_angle_gamma   105.13899838
_symmetry_Int_Tables_number   1
_chemical_formula_structural   ClO
_chemical_formula_sum   'Cl8 O8'
_cell_volume   1843.81512256
_cell_formula_units_Z   8
loop_
 _symmetry_equiv_pos_site_id
 _symmetry_equiv_pos_as_xyz
  1  'x, y, z'
loop_
 _atom_site_type_symbol
 _atom_site_label
 _atom_site_symmetry_multiplicity
 _atom_site_fract_x
 _atom_site_fract_y
 _atom_site_fract_z
 _atom_site_occupancy
  Cl  Cl0  1  0.26238600  0.19585700  0.06652900  1
  Cl  Cl1  1  0.12932800  0.19585700  0.93347100  1
  Cl  Cl2  1  0.94585700  0.37932800  0.43347100  1
  Cl  Cl3  1  0.62067200  0.05414300  0.56652900  1
  Cl  Cl4  1  0.48761400  0.05414300  0.43347100  1
  Cl  Cl5  1  0.94585700  0.51238600  0.56652900  1
  Cl  Cl6  1  0.80414300  0.87067200  0.06652900  1
  Cl  Cl7  1  0.80414300  0.73761400  0.93347100  1
  O  O8  1  0.33372400  0.08740400  0.24632100  1
  O  O9  1  0.84108300  0.08740400  0.75367900  1
  O  O10  1  0.83740400  0.09108300  0.25367900  1
  O  O11  1  0.90891700  0.16259600  0.74632100  1
  O  O12  1  0.41627600  0.16259600  0.25367900  1
  O  O13  1  0.83740400  0.58372400  0.74632100  1
  O  O14  1  0.91259600  0.15891700  0.24632100  1
  O  O15  1  0.91259600  0.66627600  0.75367900  1
