# generated using pymatgen
data_Ce2P2RuO
_symmetry_space_group_name_H-M   'P 1'
_cell_length_a   2.93396800
_cell_length_b   2.93396800
_cell_length_c   14.15533800
_cell_angle_alpha   90.00000000
_cell_angle_beta   90.00000000
_cell_angle_gamma   90.00000000
_symmetry_Int_Tables_number   1
_chemical_formula_structural   Ce2P2RuO
_chemical_formula_sum   'Ce2 P2 Ru1 O1'
_cell_volume   121.85153079
_cell_formula_units_Z   1
loop_
 _symmetry_equiv_pos_site_id
 _symmetry_equiv_pos_as_xyz
  1  'x, y, z'
loop_
 _atom_site_type_symbol
 _atom_site_label
 _atom_site_symmetry_multiplicity
 _atom_site_fract_x
 _atom_site_fract_y
 _atom_site_fract_z
 _atom_site_occupancy
  Ce  Ce0  1  0.50000000  0.50000000  0.14621000  1
  Ce  Ce1  1  0.50000000  0.50000000  0.85379000  1
  P  P2  1  0.50000000  0.50000000  0.65706600  1
  P  P3  1  0.50000000  0.50000000  0.34293400  1
  Ru  Ru4  1  0.50000000  0.50000000  0.50000000  1
  O  O5  1  0.50000000  0.50000000  0.00000000  1
