# generated using pymatgen
data_CoH4SO6
_symmetry_space_group_name_H-M   'P 1'
_cell_length_a   7.63306500
_cell_length_b   10.05337700
_cell_length_c   10.03887290
_cell_angle_alpha   90.00000000
_cell_angle_beta   112.34455073
_cell_angle_gamma   90.00000000
_symmetry_Int_Tables_number   1
_chemical_formula_structural   CoH4SO6
_chemical_formula_sum   'Co6 H24 S6 O36'
_cell_volume   712.52059416
_cell_formula_units_Z   6
loop_
 _symmetry_equiv_pos_site_id
 _symmetry_equiv_pos_as_xyz
  1  'x, y, z'
loop_
 _atom_site_type_symbol
 _atom_site_label
 _atom_site_symmetry_multiplicity
 _atom_site_fract_x
 _atom_site_fract_y
 _atom_site_fract_z
 _atom_site_occupancy
  Co  Co0  1  0.12152700  0.02030800  0.16707800  1
  Co  Co1  1  0.87847300  0.52030800  0.83292200  1
  Co  Co2  1  0.04555100  0.52030800  0.16707800  1
  Co  Co3  1  0.95444900  0.02030800  0.83292200  1
  Co  Co4  1  0.29830300  0.30503500  0.00000000  1
  Co  Co5  1  0.70169700  0.80503500  0.00000000  1
  H  H6  1  0.59107200  0.35332600  0.81844600  1
  H  H7  1  0.40892800  0.85332600  0.18155400  1
  H  H8  1  0.22737400  0.85332600  0.81844600  1
  H  H9  1  0.77262600  0.35332600  0.18155400  1
  H  H10  1  0.29405800  0.05966600  0.00000000  1
  H  H11  1  0.70594200  0.55966600  0.00000000  1
  H  H12  1  0.29772200  0.02030200  0.53517600  1
  H  H13  1  0.70227800  0.52030200  0.46482400  1
  H  H14  1  0.23745400  0.52030200  0.53517600  1
  H  H15  1  0.76254600  0.02030200  0.46482400  1
  H  H16  1  0.51943500  0.32302900  0.56253500  1
  H  H17  1  0.48056500  0.82302900  0.43746500  1
  H  H18  1  0.04310000  0.82302900  0.56253500  1
  H  H19  1  0.95690000  0.32302900  0.43746500  1
  H  H20  1  0.49177700  0.47742600  0.71663400  1
  H  H21  1  0.50822300  0.97742600  0.28336600  1
  H  H22  1  0.22485700  0.97742600  0.71663400  1
  H  H23  1  0.77514300  0.47742600  0.28336600  1
  H  H24  1  0.47056000  0.04779700  0.67938000  1
  H  H25  1  0.52944000  0.54779700  0.32062000  1
  H  H26  1  0.20882000  0.54779700  0.67938000  1
  H  H27  1  0.79118000  0.04779700  0.32062000  1
  H  H28  1  0.03357500  0.80815500  0.00000000  1
  H  H29  1  0.96642500  0.30815500  0.00000000  1
  S  S30  1  0.35658700  0.29268400  0.33233000  1
  S  S31  1  0.64341300  0.79268400  0.66767000  1
  S  S32  1  0.97574300  0.79268400  0.33233000  1
  S  S33  1  0.02425700  0.29268400  0.66767000  1
  S  S34  1  0.68648700  0.12214100  0.00000000  1
  S  S35  1  0.31351300  0.62214100  0.00000000  1
  O  O36  1  0.43889100  0.29834300  0.22215500  1
  O  O37  1  0.56110900  0.79834300  0.77784500  1
  O  O38  1  0.78326300  0.79834300  0.22215500  1
  O  O39  1  0.21673700  0.29834300  0.77784500  1
  O  O40  1  0.25822600  0.41718100  0.34084800  1
  O  O41  1  0.74177400  0.91718100  0.65915200  1
  O  O42  1  0.08262200  0.91718100  0.34084800  1
  O  O43  1  0.91737800  0.41718100  0.65915200  1
  O  O44  1  0.57642200  0.99940400  0.00000000  1
  O  O45  1  0.42357800  0.49940400  0.00000000  1
  O  O46  1  0.57413000  0.24333300  0.00000000  1
  O  O47  1  0.42587000  0.74333300  0.00000000  1
  O  O48  1  0.60929200  0.41831400  0.75174800  1
  O  O49  1  0.39070800  0.91831400  0.24825200  1
  O  O50  1  0.14245600  0.91831400  0.75174800  1
  O  O51  1  0.85754400  0.41831400  0.24825200  1
  O  O52  1  0.33322900  0.05519100  0.63293400  1
  O  O53  1  0.66677100  0.55519100  0.36706600  1
  O  O54  1  0.29970500  0.55519100  0.63293400  1
  O  O55  1  0.70029500  0.05519100  0.36706600  1
  O  O56  1  0.73494300  0.12713300  0.86882300  1
  O  O57  1  0.26505700  0.62713300  0.13117700  1
  O  O58  1  0.13388000  0.62713300  0.86882300  1
  O  O59  1  0.86612000  0.12713300  0.13117700  1
  O  O60  1  0.04126400  0.38691600  0.00000000  1
  O  O61  1  0.95873600  0.88691600  0.00000000  1
  O  O62  1  0.24303900  0.17296800  0.32214100  1
  O  O63  1  0.75696100  0.67296800  0.67785900  1
  O  O64  1  0.07910200  0.67296800  0.32214100  1
  O  O65  1  0.92089800  0.17296800  0.67785900  1
  O  O66  1  0.18340400  0.10956200  0.00000000  1
  O  O67  1  0.81659600  0.60956200  0.00000000  1
  O  O68  1  0.53611500  0.28434400  0.47690600  1
  O  O69  1  0.46388500  0.78434400  0.52309400  1
  O  O70  1  0.94079100  0.78434400  0.47690600  1
  O  O71  1  0.05920900  0.28434400  0.52309400  1
