# generated using pymatgen
data_Cd2Hg2H(SeO5)2
_symmetry_space_group_name_H-M   'P 1'
_cell_length_a   6.45299800
_cell_length_b   8.12629500
_cell_length_c   11.88204703
_cell_angle_alpha   62.26923024
_cell_angle_beta   90.00000000
_cell_angle_gamma   90.00000000
_symmetry_Int_Tables_number   1
_chemical_formula_structural   Cd2Hg2H(SeO5)2
_chemical_formula_sum   'Cd4 Hg4 H2 Se4 O20'
_cell_volume   551.51743183
_cell_formula_units_Z   2
loop_
 _symmetry_equiv_pos_site_id
 _symmetry_equiv_pos_as_xyz
  1  'x, y, z'
loop_
 _atom_site_type_symbol
 _atom_site_label
 _atom_site_symmetry_multiplicity
 _atom_site_fract_x
 _atom_site_fract_y
 _atom_site_fract_z
 _atom_site_occupancy
  Cd  Cd0  1  0.49571500  0.75628600  0.07840300  1
  Cd  Cd1  1  0.50428500  0.24371400  0.92159700  1
  Cd  Cd2  1  0.49571500  0.24371400  0.42159700  1
  Cd  Cd3  1  0.50428500  0.75628600  0.57840300  1
  Hg  Hg4  1  0.28050100  0.00000000  0.25000000  1
  Hg  Hg5  1  0.71949900  0.00000000  0.75000000  1
  Hg  Hg6  1  0.00000000  0.00000000  0.00000000  1
  Hg  Hg7  1  0.00000000  0.00000000  0.50000000  1
  H  H8  1  0.29736700  0.50000000  0.25000000  1
  H  H9  1  0.70263300  0.50000000  0.75000000  1
  Se  Se10  1  0.78802800  0.66615900  0.35521700  1
  Se  Se11  1  0.21197200  0.33384100  0.64478300  1
  Se  Se12  1  0.78802800  0.33384100  0.14478300  1
  Se  Se13  1  0.21197200  0.66615900  0.85521700  1
  O  O14  1  0.74775700  0.56312200  0.07948100  1
  O  O15  1  0.25224300  0.43687800  0.92051900  1
  O  O16  1  0.74775700  0.43687800  0.42051900  1
  O  O17  1  0.25224300  0.56312200  0.57948100  1
  O  O18  1  0.59490600  0.78114700  0.25107900  1
  O  O19  1  0.40509400  0.21885300  0.74892100  1
  O  O20  1  0.59490600  0.21885300  0.24892100  1
  O  O21  1  0.40509400  0.78114700  0.75107900  1
  O  O22  1  0.77590800  0.73454500  0.46960900  1
  O  O23  1  0.22409200  0.26545500  0.53039100  1
  O  O24  1  0.77590800  0.26545500  0.03039100  1
  O  O25  1  0.22409200  0.73454500  0.96960900  1
  O  O26  1  0.01585000  0.72715800  0.28280600  1
  O  O27  1  0.98415000  0.27284200  0.71719400  1
  O  O28  1  0.01585000  0.27284200  0.21719400  1
  O  O29  1  0.98415000  0.72715800  0.78280600  1
  O  O30  1  0.29471300  0.99134500  0.43141300  1
  O  O31  1  0.70528700  0.00865500  0.56858700  1
  O  O32  1  0.29471300  0.00865500  0.06858700  1
  O  O33  1  0.70528700  0.99134500  0.93141300  1
