# generated using pymatgen
data_Ce3Ta(Cl3O2)2
_symmetry_space_group_name_H-M   'P 1'
_cell_length_a   12.97974620
_cell_length_b   12.97974620
_cell_length_c   3.96200600
_cell_angle_alpha   90.00000000
_cell_angle_beta   90.00000000
_cell_angle_gamma   120.00000101
_symmetry_Int_Tables_number   1
_chemical_formula_structural   Ce3Ta(Cl3O2)2
_chemical_formula_sum   'Ce6 Ta2 Cl12 O8'
_cell_volume   578.06697281
_cell_formula_units_Z   2
loop_
 _symmetry_equiv_pos_site_id
 _symmetry_equiv_pos_as_xyz
  1  'x, y, z'
loop_
 _atom_site_type_symbol
 _atom_site_label
 _atom_site_symmetry_multiplicity
 _atom_site_fract_x
 _atom_site_fract_y
 _atom_site_fract_z
 _atom_site_occupancy
  Ce  Ce0  1  0.28102700  0.39553200  0.25000000  1
  Ce  Ce1  1  0.71897300  0.60446800  0.75000000  1
  Ce  Ce2  1  0.60446800  0.88549500  0.25000000  1
  Ce  Ce3  1  0.39553200  0.11450500  0.75000000  1
  Ce  Ce4  1  0.11450500  0.71897300  0.25000000  1
  Ce  Ce5  1  0.88549500  0.28102700  0.75000000  1
  Ta  Ta6  1  0.66666700  0.33333300  0.25000000  1
  Ta  Ta7  1  0.33333300  0.66666700  0.75000000  1
  Cl  Cl8  1  0.06917900  0.44149100  0.25000000  1
  Cl  Cl9  1  0.93082100  0.55850900  0.75000000  1
  Cl  Cl10  1  0.55850900  0.62768800  0.25000000  1
  Cl  Cl11  1  0.44149100  0.37231200  0.75000000  1
  Cl  Cl12  1  0.37231200  0.93082100  0.25000000  1
  Cl  Cl13  1  0.62768800  0.06917900  0.75000000  1
  Cl  Cl14  1  0.24921800  0.14275900  0.25000000  1
  Cl  Cl15  1  0.75078200  0.85724100  0.75000000  1
  Cl  Cl16  1  0.85724100  0.10645900  0.25000000  1
  Cl  Cl17  1  0.14275900  0.89354100  0.75000000  1
  Cl  Cl18  1  0.89354100  0.75078200  0.25000000  1
  Cl  Cl19  1  0.10645900  0.24921800  0.75000000  1
  O  O20  1  0.50844500  0.20093600  0.25000000  1
  O  O21  1  0.49155500  0.79906400  0.75000000  1
  O  O22  1  0.79906400  0.30750900  0.25000000  1
  O  O23  1  0.20093600  0.69249100  0.75000000  1
  O  O24  1  0.69249100  0.49155500  0.25000000  1
  O  O25  1  0.30750900  0.50844500  0.75000000  1
  O  O26  1  0.33333300  0.66666700  0.25000000  1
  O  O27  1  0.66666700  0.33333300  0.75000000  1
