# generated using pymatgen
data_CdH2(BrO3)2
_symmetry_space_group_name_H-M   'P 1'
_cell_length_a   6.20607400
_cell_length_b   9.33623400
_cell_length_c   12.61944600
_cell_angle_alpha   90.00000000
_cell_angle_beta   90.00000000
_cell_angle_gamma   90.00000000
_symmetry_Int_Tables_number   1
_chemical_formula_structural   CdH2(BrO3)2
_chemical_formula_sum   'Cd4 H8 Br8 O24'
_cell_volume   731.18785214
_cell_formula_units_Z   4
loop_
 _symmetry_equiv_pos_site_id
 _symmetry_equiv_pos_as_xyz
  1  'x, y, z'
loop_
 _atom_site_type_symbol
 _atom_site_label
 _atom_site_symmetry_multiplicity
 _atom_site_fract_x
 _atom_site_fract_y
 _atom_site_fract_z
 _atom_site_occupancy
  Cd  Cd0  1  0.43904600  0.43100700  0.22040200  1
  Cd  Cd1  1  0.06095400  0.56899300  0.72040200  1
  Cd  Cd2  1  0.56095400  0.93100700  0.27959800  1
  Cd  Cd3  1  0.93904600  0.06899300  0.77959800  1
  H  H4  1  0.27215000  0.51148400  0.36569600  1
  H  H5  1  0.22785000  0.48851600  0.86569600  1
  H  H6  1  0.72785000  0.01148400  0.13430400  1
  H  H7  1  0.77215000  0.98851600  0.63430400  1
  H  H8  1  0.70261000  0.48208700  0.10188700  1
  H  H9  1  0.79739000  0.51791300  0.60188700  1
  H  H10  1  0.29739000  0.98208700  0.39811300  1
  H  H11  1  0.20261000  0.01791300  0.89811300  1
  Br  Br12  1  0.27892600  0.28251400  0.61132300  1
  Br  Br13  1  0.22107400  0.71748600  0.11132300  1
  Br  Br14  1  0.72107400  0.78251400  0.88867700  1
  Br  Br15  1  0.77892600  0.21748600  0.38867700  1
  Br  Br16  1  0.18626200  0.16117300  0.11950500  1
  Br  Br17  1  0.31373800  0.83882700  0.61950500  1
  Br  Br18  1  0.81373800  0.66117300  0.38049500  1
  Br  Br19  1  0.68626200  0.33882700  0.88049500  1
  O  O20  1  0.56887300  0.22343500  0.29757400  1
  O  O21  1  0.93112700  0.77656500  0.79757400  1
  O  O22  1  0.43112700  0.72343500  0.20242600  1
  O  O23  1  0.06887300  0.27656500  0.70242600  1
  O  O24  1  0.26796300  0.00269600  0.17397200  1
  O  O25  1  0.23203700  0.99730400  0.67397200  1
  O  O26  1  0.73203700  0.50269600  0.32602800  1
  O  O27  1  0.76796300  0.49730400  0.82602800  1
  O  O28  1  0.41011900  0.24577900  0.07633100  1
  O  O29  1  0.08988100  0.75422100  0.57633100  1
  O  O30  1  0.58988100  0.74577900  0.42366900  1
  O  O31  1  0.91011900  0.25422100  0.92366900  1
  O  O32  1  0.10662100  0.26652200  0.21934900  1
  O  O33  1  0.39337900  0.73347800  0.71934900  1
  O  O34  1  0.89337900  0.76652200  0.28065100  1
  O  O35  1  0.60662100  0.23347800  0.78065100  1
  O  O36  1  0.17855500  0.53718200  0.12078500  1
  O  O37  1  0.32144500  0.46281800  0.62078500  1
  O  O38  1  0.82144500  0.03718200  0.37921500  1
  O  O39  1  0.67855500  0.96281800  0.87921500  1
  O  O40  1  0.17405000  0.25492100  0.49255800  1
  O  O41  1  0.32595000  0.74507900  0.99255800  1
  O  O42  1  0.82595000  0.75492100  0.00744200  1
  O  O43  1  0.67405000  0.24507900  0.50744200  1
