# generated using pymatgen
data_Ce4Fe
_symmetry_space_group_name_H-M   'P 1'
_cell_length_a   7.23190915
_cell_length_b   7.23190915
_cell_length_c   7.23190915
_cell_angle_alpha   60.00000000
_cell_angle_beta   60.00000000
_cell_angle_gamma   60.00000000
_symmetry_Int_Tables_number   1
_chemical_formula_structural   Ce4Fe
_chemical_formula_sum   'Ce8 Fe2'
_cell_volume   267.45079127
_cell_formula_units_Z   2
loop_
 _symmetry_equiv_pos_site_id
 _symmetry_equiv_pos_as_xyz
  1  'x, y, z'
loop_
 _atom_site_type_symbol
 _atom_site_label
 _atom_site_symmetry_multiplicity
 _atom_site_fract_x
 _atom_site_fract_y
 _atom_site_fract_z
 _atom_site_occupancy
  Ce  Ce0  1  0.38577700  0.38577700  0.38577700  1
  Ce  Ce1  1  0.38577700  0.38577700  0.84266900  1
  Ce  Ce2  1  0.38577700  0.84266900  0.38577700  1
  Ce  Ce3  1  0.86422300  0.86422300  0.40733100  1
  Ce  Ce4  1  0.86422300  0.86422300  0.86422300  1
  Ce  Ce5  1  0.84266900  0.38577700  0.38577700  1
  Ce  Ce6  1  0.86422300  0.40733100  0.86422300  1
  Ce  Ce7  1  0.40733100  0.86422300  0.86422300  1
  Fe  Fe8  1  0.00000000  0.00000000  0.00000000  1
  Fe  Fe9  1  0.25000000  0.25000000  0.25000000  1
