# generated using pymatgen
data_Cd2ClO3
_symmetry_space_group_name_H-M   'P 1'
_cell_length_a   7.00548300
_cell_length_b   7.29510300
_cell_length_c   9.83511600
_cell_angle_alpha   90.00000000
_cell_angle_beta   90.00000000
_cell_angle_gamma   90.00000000
_symmetry_Int_Tables_number   1
_chemical_formula_structural   Cd2ClO3
_chemical_formula_sum   'Cd8 Cl4 O12'
_cell_volume   502.63068495
_cell_formula_units_Z   4
loop_
 _symmetry_equiv_pos_site_id
 _symmetry_equiv_pos_as_xyz
  1  'x, y, z'
loop_
 _atom_site_type_symbol
 _atom_site_label
 _atom_site_symmetry_multiplicity
 _atom_site_fract_x
 _atom_site_fract_y
 _atom_site_fract_z
 _atom_site_occupancy
  Cd  Cd0  1  0.19080900  0.25000000  0.72094700  1
  Cd  Cd1  1  0.80919100  0.75000000  0.27905300  1
  Cd  Cd2  1  0.30919100  0.75000000  0.22094700  1
  Cd  Cd3  1  0.69080900  0.25000000  0.77905300  1
  Cd  Cd4  1  0.00000000  0.00000000  0.00000000  1
  Cd  Cd5  1  0.50000000  0.00000000  0.50000000  1
  Cd  Cd6  1  0.00000000  0.50000000  0.00000000  1
  Cd  Cd7  1  0.50000000  0.50000000  0.50000000  1
  Cl  Cl8  1  0.19106300  0.25000000  0.45669400  1
  Cl  Cl9  1  0.80893700  0.75000000  0.54330600  1
  Cl  Cl10  1  0.30893700  0.75000000  0.95669400  1
  Cl  Cl11  1  0.69106300  0.25000000  0.04330600  1
  O  O12  1  0.05052600  0.56274900  0.21713500  1
  O  O13  1  0.94947400  0.43725100  0.78286500  1
  O  O14  1  0.44947400  0.43725100  0.71713500  1
  O  O15  1  0.94947400  0.06274900  0.78286500  1
  O  O16  1  0.55052600  0.56274900  0.28286500  1
  O  O17  1  0.05052600  0.93725100  0.21713500  1
  O  O18  1  0.55052600  0.93725100  0.28286500  1
  O  O19  1  0.44947400  0.06274900  0.71713500  1
  O  O20  1  0.16354400  0.25000000  0.95445600  1
  O  O21  1  0.83645600  0.75000000  0.04554400  1
  O  O22  1  0.33645600  0.75000000  0.45445600  1
  O  O23  1  0.66354400  0.25000000  0.54554400  1
