# generated using pymatgen
data_Ca2ZnP2(H2O5)2
_symmetry_space_group_name_H-M   'P 1'
_cell_length_a   5.56503602
_cell_length_b   5.76996134
_cell_length_c   6.86945954
_cell_angle_alpha   107.38561118
_cell_angle_beta   97.28640721
_cell_angle_gamma   108.96156569
_symmetry_Int_Tables_number   1
_chemical_formula_structural   Ca2ZnP2(H2O5)2
_chemical_formula_sum   'Ca2 Zn1 P2 H4 O10'
_cell_volume   192.85466269
_cell_formula_units_Z   1
loop_
 _symmetry_equiv_pos_site_id
 _symmetry_equiv_pos_as_xyz
  1  'x, y, z'
loop_
 _atom_site_type_symbol
 _atom_site_label
 _atom_site_symmetry_multiplicity
 _atom_site_fract_x
 _atom_site_fract_y
 _atom_site_fract_z
 _atom_site_occupancy
  Ca  Ca0  1  0.14944600  0.29843400  0.76123400  1
  Ca  Ca1  1  0.85055400  0.70156600  0.23876600  1
  Zn  Zn2  1  0.50000000  0.00000000  0.00000000  1
  P  P3  1  0.16642300  0.33926800  0.24400000  1
  P  P4  1  0.83357700  0.66073200  0.75600000  1
  H  H5  1  0.41804500  0.82787700  0.31237400  1
  H  H6  1  0.58195500  0.17212300  0.68762600  1
  H  H7  1  0.64194500  0.12696000  0.39641600  1
  H  H8  1  0.35805500  0.87304000  0.60358400  1
  O  O9  1  0.39309300  0.33994300  0.12900900  1
  O  O10  1  0.60690700  0.66005700  0.87099100  1
  O  O11  1  0.91128400  0.26281600  0.07103400  1
  O  O12  1  0.08871600  0.73718400  0.92896600  1
  O  O13  1  0.13306500  0.16205400  0.37421100  1
  O  O14  1  0.86693500  0.83794600  0.62578900  1
  O  O15  1  0.22621000  0.63090400  0.38498000  1
  O  O16  1  0.77379000  0.36909600  0.61502000  1
  O  O17  1  0.42933900  0.04910000  0.72249800  1
  O  O18  1  0.57066100  0.95090000  0.27750200  1
