# generated using pymatgen
data_Ca3V3(CuO6)2
_symmetry_space_group_name_H-M   'P 1'
_cell_length_a   10.88034134
_cell_length_b   10.88034134
_cell_length_c   10.88034134
_cell_angle_alpha   109.47122063
_cell_angle_beta   109.47122063
_cell_angle_gamma   109.47122063
_symmetry_Int_Tables_number   1
_chemical_formula_structural   Ca3V3(CuO6)2
_chemical_formula_sum   'Ca12 V12 Cu8 O48'
_cell_volume   991.52956868
_cell_formula_units_Z   4
loop_
 _symmetry_equiv_pos_site_id
 _symmetry_equiv_pos_as_xyz
  1  'x, y, z'
loop_
 _atom_site_type_symbol
 _atom_site_label
 _atom_site_symmetry_multiplicity
 _atom_site_fract_x
 _atom_site_fract_y
 _atom_site_fract_z
 _atom_site_occupancy
  Ca  Ca0  1  0.25000000  0.37500000  0.12500000  1
  Ca  Ca1  1  0.75000000  0.62500000  0.87500000  1
  Ca  Ca2  1  0.75000000  0.12500000  0.37500000  1
  Ca  Ca3  1  0.12500000  0.25000000  0.37500000  1
  Ca  Ca4  1  0.37500000  0.75000000  0.12500000  1
  Ca  Ca5  1  0.25000000  0.87500000  0.62500000  1
  Ca  Ca6  1  0.87500000  0.75000000  0.62500000  1
  Ca  Ca7  1  0.62500000  0.25000000  0.87500000  1
  Ca  Ca8  1  0.37500000  0.12500000  0.25000000  1
  Ca  Ca9  1  0.62500000  0.87500000  0.75000000  1
  Ca  Ca10  1  0.12500000  0.37500000  0.75000000  1
  Ca  Ca11  1  0.87500000  0.62500000  0.25000000  1
  V  V12  1  0.25000000  0.62500000  0.37500000  1
  V  V13  1  0.75000000  0.37500000  0.62500000  1
  V  V14  1  0.75000000  0.87500000  0.12500000  1
  V  V15  1  0.37500000  0.25000000  0.62500000  1
  V  V16  1  0.62500000  0.75000000  0.37500000  1
  V  V17  1  0.25000000  0.12500000  0.87500000  1
  V  V18  1  0.12500000  0.75000000  0.87500000  1
  V  V19  1  0.87500000  0.25000000  0.12500000  1
  V  V20  1  0.62500000  0.37500000  0.25000000  1
  V  V21  1  0.37500000  0.62500000  0.75000000  1
  V  V22  1  0.87500000  0.12500000  0.75000000  1
  V  V23  1  0.12500000  0.87500000  0.25000000  1
  Cu  Cu24  1  0.00000000  0.00000000  0.00000000  1
  Cu  Cu25  1  0.50000000  0.00000000  0.50000000  1
  Cu  Cu26  1  0.00000000  0.50000000  0.50000000  1
  Cu  Cu27  1  0.50000000  0.00000000  0.00000000  1
  Cu  Cu28  1  0.50000000  0.50000000  0.00000000  1
  Cu  Cu29  1  0.50000000  0.50000000  0.50000000  1
  Cu  Cu30  1  0.00000000  0.00000000  0.50000000  1
  Cu  Cu31  1  0.00000000  0.50000000  0.00000000  1
  O  O32  1  0.48119100  0.37928100  0.28808600  1
  O  O33  1  0.51880900  0.62071900  0.71191400  1
  O  O34  1  0.59119500  0.19310500  0.21191400  1
  O  O35  1  0.90880500  0.12071900  0.60191000  1
  O  O36  1  0.28808600  0.48119100  0.37928100  1
  O  O37  1  0.30689500  0.90880500  0.28808600  1
  O  O38  1  0.40880500  0.80689500  0.78808600  1
  O  O39  1  0.09119500  0.87928100  0.39809000  1
  O  O40  1  0.71191400  0.51880900  0.62071900  1
  O  O41  1  0.69310500  0.09119500  0.71191400  1
  O  O42  1  0.01880900  0.30689500  0.89809000  1
  O  O43  1  0.21191400  0.59119500  0.19310500  1
  O  O44  1  0.12071900  0.01880900  0.21191400  1
  O  O45  1  0.98119100  0.69310500  0.10191000  1
  O  O46  1  0.78808600  0.40880500  0.80689500  1
  O  O47  1  0.87928100  0.98119100  0.78808600  1
  O  O48  1  0.60191000  0.90880500  0.12071900  1
  O  O49  1  0.19310500  0.48119100  0.60191000  1
  O  O50  1  0.39809000  0.09119500  0.87928100  1
  O  O51  1  0.80689500  0.51880900  0.39809000  1
  O  O52  1  0.89809000  0.01880900  0.30689500  1
  O  O53  1  0.37928100  0.59119500  0.89809000  1
  O  O54  1  0.10191000  0.98119100  0.69310500  1
  O  O55  1  0.62071900  0.40880500  0.10191000  1
  O  O56  1  0.37928100  0.28808600  0.48119100  1
  O  O57  1  0.59119500  0.89809000  0.37928100  1
  O  O58  1  0.62071900  0.71191400  0.51880900  1
  O  O59  1  0.40880500  0.10191000  0.62071900  1
  O  O60  1  0.12071900  0.60191000  0.90880500  1
  O  O61  1  0.01880900  0.21191400  0.12071900  1
  O  O62  1  0.87928100  0.39809000  0.09119500  1
  O  O63  1  0.98119100  0.78808600  0.87928100  1
  O  O64  1  0.30689500  0.89809000  0.01880900  1
  O  O65  1  0.90880500  0.28808600  0.30689500  1
  O  O66  1  0.69310500  0.10191000  0.98119100  1
  O  O67  1  0.09119500  0.71191400  0.69310500  1
  O  O68  1  0.19310500  0.21191400  0.59119500  1
  O  O69  1  0.48119100  0.60191000  0.19310500  1
  O  O70  1  0.80689500  0.78808600  0.40880500  1
  O  O71  1  0.51880900  0.39809000  0.80689500  1
  O  O72  1  0.28808600  0.30689500  0.90880500  1
  O  O73  1  0.71191400  0.69310500  0.09119500  1
  O  O74  1  0.21191400  0.12071900  0.01880900  1
  O  O75  1  0.78808600  0.87928100  0.98119100  1
  O  O76  1  0.89809000  0.37928100  0.59119500  1
  O  O77  1  0.10191000  0.62071900  0.40880500  1
  O  O78  1  0.60191000  0.19310500  0.48119100  1
  O  O79  1  0.39809000  0.80689500  0.51880900  1
