# generated using pymatgen
data_Ca2S2O9
_symmetry_space_group_name_H-M   'P 1'
_cell_length_a   7.05510735
_cell_length_b   7.05510735
_cell_length_c   12.77146000
_cell_angle_alpha   90.00000000
_cell_angle_beta   90.00000000
_cell_angle_gamma   119.99999387
_symmetry_Int_Tables_number   1
_chemical_formula_structural   Ca2S2O9
_chemical_formula_sum   'Ca6 S6 O27'
_cell_volume   550.52679077
_cell_formula_units_Z   3
loop_
 _symmetry_equiv_pos_site_id
 _symmetry_equiv_pos_as_xyz
  1  'x, y, z'
loop_
 _atom_site_type_symbol
 _atom_site_label
 _atom_site_symmetry_multiplicity
 _atom_site_fract_x
 _atom_site_fract_y
 _atom_site_fract_z
 _atom_site_occupancy
  Ca  Ca0  1  0.47908300  0.00000000  0.33333300  1
  Ca  Ca1  1  0.00000000  0.47908300  0.66666700  1
  Ca  Ca2  1  0.52091700  0.52091700  0.00000000  1
  Ca  Ca3  1  0.46612300  0.00000000  0.83333300  1
  Ca  Ca4  1  0.00000000  0.46612300  0.16666700  1
  Ca  Ca5  1  0.53387700  0.53387700  0.50000000  1
  S  S6  1  0.46547700  0.00744700  0.58326300  1
  S  S7  1  0.99255300  0.45803000  0.91659600  1
  S  S8  1  0.00744700  0.46547700  0.41673700  1
  S  S9  1  0.54197000  0.53452300  0.24993000  1
  S  S10  1  0.45803000  0.99255300  0.08340400  1
  S  S11  1  0.53452300  0.54197000  0.75007000  1
  O  O12  1  0.11269300  0.00000000  0.83333300  1
  O  O13  1  0.00000000  0.11269300  0.16666700  1
  O  O14  1  0.88730700  0.88730700  0.50000000  1
  O  O15  1  0.34881400  0.48779700  0.67739300  1
  O  O16  1  0.51220300  0.86101700  0.01072600  1
  O  O17  1  0.48779700  0.34881400  0.32260700  1
  O  O18  1  0.13898300  0.65118600  0.34406000  1
  O  O19  1  0.86101700  0.51220300  0.98927400  1
  O  O20  1  0.65118600  0.13898300  0.65594000  1
  O  O21  1  0.13816600  0.41259300  0.98370900  1
  O  O22  1  0.58740700  0.72557300  0.31704200  1
  O  O23  1  0.41259300  0.13816600  0.01629100  1
  O  O24  1  0.27442700  0.86183400  0.65037500  1
  O  O25  1  0.72557300  0.58740700  0.68295800  1
  O  O26  1  0.86183400  0.27442700  0.34962500  1
  O  O27  1  0.47742900  0.35319700  0.82239500  1
  O  O28  1  0.64680300  0.12423300  0.15572900  1
  O  O29  1  0.35319700  0.47742900  0.17760500  1
  O  O30  1  0.87576700  0.52257100  0.48906200  1
  O  O31  1  0.12423300  0.64680300  0.84427100  1
  O  O32  1  0.52257100  0.87576700  0.51093800  1
  O  O33  1  0.41594200  0.14691900  0.51480400  1
  O  O34  1  0.85308100  0.26902300  0.84813700  1
  O  O35  1  0.14691900  0.41594200  0.48519600  1
  O  O36  1  0.73097700  0.58405800  0.18147000  1
  O  O37  1  0.26902300  0.85308100  0.15186300  1
  O  O38  1  0.58405800  0.73097700  0.81853000  1
