# generated using pymatgen
data_CaAl2Si6(HO4)4
_symmetry_space_group_name_H-M   'P 1'
_cell_length_a   14.03166600
_cell_length_b   6.89781000
_cell_length_c   10.17725660
_cell_angle_alpha   68.38945203
_cell_angle_beta   90.00000000
_cell_angle_gamma   90.00000000
_symmetry_Int_Tables_number   1
_chemical_formula_structural   CaAl2Si6(HO4)4
_chemical_formula_sum   'Ca2 Al4 Si12 H8 O32'
_cell_volume   915.79461500
_cell_formula_units_Z   2
loop_
 _symmetry_equiv_pos_site_id
 _symmetry_equiv_pos_as_xyz
  1  'x, y, z'
loop_
 _atom_site_type_symbol
 _atom_site_label
 _atom_site_symmetry_multiplicity
 _atom_site_fract_x
 _atom_site_fract_y
 _atom_site_fract_z
 _atom_site_occupancy
  Ca  Ca0  1  0.71217000  0.65455000  0.24989800  1
  Ca  Ca1  1  0.28783000  0.65455000  0.74989800  1
  Al  Al2  1  0.49284100  0.58977700  0.19410600  1
  Al  Al3  1  0.50715900  0.58977700  0.69410600  1
  Al  Al4  1  0.85642900  0.98552400  0.04340200  1
  Al  Al5  1  0.14357100  0.98552400  0.54340200  1
  Si  Si6  1  0.97276300  0.61526800  0.25539300  1
  Si  Si7  1  0.02723700  0.61526800  0.75539300  1
  Si  Si8  1  0.87420600  0.95131300  0.73406100  1
  Si  Si9  1  0.12579400  0.95131300  0.23406100  1
  Si  Si10  1  0.46092800  0.30357200  0.00238700  1
  Si  Si11  1  0.53907200  0.30357200  0.50238700  1
  Si  Si12  1  0.34985200  0.93184000  0.21088900  1
  Si  Si13  1  0.65014800  0.93184000  0.71088900  1
  Si  Si14  1  0.62375000  0.00262200  0.99850600  1
  Si  Si15  1  0.37625000  0.00262200  0.49850600  1
  Si  Si16  1  0.99986600  0.32937900  0.07380000  1
  Si  Si17  1  0.00013400  0.32937900  0.57380000  1
  H  H18  1  0.73282600  0.49160200  0.05452800  1
  H  H19  1  0.26717400  0.49160200  0.55452800  1
  H  H20  1  0.75585500  0.56225000  0.53224500  1
  H  H21  1  0.24414500  0.56225000  0.03224500  1
  H  H22  1  0.64377100  0.94842600  0.33700900  1
  H  H23  1  0.35622900  0.94842600  0.83700900  1
  H  H24  1  0.79324500  0.26974900  0.36729200  1
  H  H25  1  0.20675500  0.26974900  0.86729200  1
  O  O26  1  0.98087200  0.42895000  0.19473300  1
  O  O27  1  0.01912800  0.42895000  0.69473300  1
  O  O28  1  0.96773200  0.51700500  0.42694300  1
  O  O29  1  0.03226800  0.51700500  0.92694300  1
  O  O30  1  0.88695500  0.94015800  0.89316100  1
  O  O31  1  0.11304500  0.94015800  0.39316100  1
  O  O32  1  0.38652600  0.10687100  0.06026300  1
  O  O33  1  0.61347400  0.10687100  0.56026300  1
  O  O34  1  0.37629600  0.01946900  0.33577600  1
  O  O35  1  0.62370400  0.01946900  0.83577600  1
  O  O36  1  0.39831400  0.70855900  0.24321000  1
  O  O37  1  0.60168600  0.70855900  0.74321000  1
  O  O38  1  0.73070500  0.98568000  0.06576400  1
  O  O39  1  0.26929500  0.98568000  0.56576400  1
  O  O40  1  0.90592800  0.20661000  0.05744800  1
  O  O41  1  0.09407200  0.20661000  0.55744800  1
  O  O42  1  0.45809200  0.44609100  0.09576100  1
  O  O43  1  0.54190800  0.44609100  0.59576100  1
  O  O44  1  0.57943500  0.78161200  0.10583800  1
  O  O45  1  0.42056500  0.78161200  0.60583800  1
  O  O46  1  0.76445800  0.91468300  0.69675200  1
  O  O47  1  0.23554200  0.91468300  0.19675200  1
  O  O48  1  0.56861300  0.20643700  0.00538400  1
  O  O49  1  0.43138700  0.20643700  0.50538400  1
  O  O50  1  0.57066000  0.44504100  0.33845200  1
  O  O51  1  0.42934000  0.44504100  0.83845200  1
  O  O52  1  0.90689800  0.17709000  0.61904500  1
  O  O53  1  0.09310200  0.17709000  0.11904500  1
  O  O54  1  0.93693300  0.77203100  0.70305300  1
  O  O55  1  0.06306700  0.77203100  0.20305300  1
  O  O56  1  0.87306600  0.74604300  0.19660100  1
  O  O57  1  0.12693400  0.74604300  0.69660100  1
