# generated using pymatgen
data_Ca2HCl2
_symmetry_space_group_name_H-M   'P 1'
_cell_length_a   4.84972700
_cell_length_b   4.84972700
_cell_length_c   14.85404800
_cell_angle_alpha   90.00000000
_cell_angle_beta   90.00000000
_cell_angle_gamma   90.00000000
_symmetry_Int_Tables_number   1
_chemical_formula_structural   Ca2HCl2
_chemical_formula_sum   'Ca2 H1 Cl2'
_cell_volume   349.36501018
_cell_formula_units_Z   1
loop_
 _symmetry_equiv_pos_site_id
 _symmetry_equiv_pos_as_xyz
  1  'x, y, z'
loop_
 _atom_site_type_symbol
 _atom_site_label
 _atom_site_symmetry_multiplicity
 _atom_site_fract_x
 _atom_site_fract_y
 _atom_site_fract_z
 _atom_site_occupancy
  Ca  Ca0  1  0.50000000  0.50000000  0.14214100  1
  Ca  Ca1  1  0.50000000  0.50000000  0.85785900  1
  H  H2  1  0.50000000  0.50000000  0.00000000  1
  Cl  Cl3  1  0.50000000  0.50000000  0.69693300  1
  Cl  Cl4  1  0.50000000  0.50000000  0.30306700  1
