# generated using pymatgen
data_BeAg4
_symmetry_space_group_name_H-M   'P 1'
_cell_length_a   6.39969255
_cell_length_b   6.39969255
_cell_length_c   6.39969255
_cell_angle_alpha   60.00000000
_cell_angle_beta   60.00000000
_cell_angle_gamma   60.00000000
_symmetry_Int_Tables_number   1
_chemical_formula_structural   BeAg4
_chemical_formula_sum   'Be2 Ag8'
_cell_volume   185.33708727
_cell_formula_units_Z   2
loop_
 _symmetry_equiv_pos_site_id
 _symmetry_equiv_pos_as_xyz
  1  'x, y, z'
loop_
 _atom_site_type_symbol
 _atom_site_label
 _atom_site_symmetry_multiplicity
 _atom_site_fract_x
 _atom_site_fract_y
 _atom_site_fract_z
 _atom_site_occupancy
  Be  Be0  1  0.00000000  0.00000000  0.00000000  1
  Be  Be1  1  0.75000000  0.75000000  0.75000000  1
  Ag  Ag2  1  0.61029600  0.61029600  0.61029600  1
  Ag  Ag3  1  0.16911200  0.61029600  0.61029600  1
  Ag  Ag4  1  0.61029600  0.16911200  0.61029600  1
  Ag  Ag5  1  0.58088800  0.13970400  0.13970400  1
  Ag  Ag6  1  0.13970400  0.13970400  0.13970400  1
  Ag  Ag7  1  0.61029600  0.61029600  0.16911200  1
  Ag  Ag8  1  0.13970400  0.58088800  0.13970400  1
  Ag  Ag9  1  0.13970400  0.13970400  0.58088800  1
