# generated using pymatgen
data_Cr3CdF6
_symmetry_space_group_name_H-M   'P 1'
_cell_length_a   6.37905993
_cell_length_b   6.91220846
_cell_length_c   15.35992394
_cell_angle_alpha   83.96577076
_cell_angle_beta   97.18748336
_cell_angle_gamma   111.06140599
_symmetry_Int_Tables_number   1
_chemical_formula_structural   Cr3CdF6
_chemical_formula_sum   'Cr3 Cd1 F6'
_cell_volume   625.73504872
_cell_formula_units_Z   1
loop_
 _symmetry_equiv_pos_site_id
 _symmetry_equiv_pos_as_xyz
  1  'x, y, z'
loop_
 _atom_site_type_symbol
 _atom_site_label
 _atom_site_symmetry_multiplicity
 _atom_site_fract_x
 _atom_site_fract_y
 _atom_site_fract_z
 _atom_site_occupancy
  Cr  Cr0  1  0.00000000  0.00000000  0.50000000  1
  Cr  Cr1  1  0.50000000  0.50000000  0.00000000  1
  Cr  Cr2  1  0.00000000  0.50000000  0.00000000  1
  Cd  Cd3  1  0.00000000  0.00000000  0.00000000  1
  F  F4  1  0.97276500  0.27990200  0.92335900  1
  F  F5  1  0.02723500  0.72009800  0.07664100  1
  F  F6  1  0.91570000  0.94871500  0.61190600  1
  F  F7  1  0.08430000  0.05128500  0.38809400  1
  F  F8  1  0.66527500  0.78636800  0.95399900  1
  F  F9  1  0.33472500  0.21363200  0.04600100  1
