# generated using pymatgen
data_Ca4Si6W5O17
_symmetry_space_group_name_H-M   'P 1'
_cell_length_a   6.78794783
_cell_length_b   6.80309662
_cell_length_c   12.11367034
_cell_angle_alpha   73.69189771
_cell_angle_beta   83.80672959
_cell_angle_gamma   67.40628515
_symmetry_Int_Tables_number   1
_chemical_formula_structural   Ca4Si6W5O17
_chemical_formula_sum   'Ca4 Si6 W5 O17'
_cell_volume   495.68581607
_cell_formula_units_Z   1
loop_
 _symmetry_equiv_pos_site_id
 _symmetry_equiv_pos_as_xyz
  1  'x, y, z'
loop_
 _atom_site_type_symbol
 _atom_site_label
 _atom_site_symmetry_multiplicity
 _atom_site_fract_x
 _atom_site_fract_y
 _atom_site_fract_z
 _atom_site_occupancy
  Ca  Ca0  1  0.18336500  0.98178000  0.40409400  1
  Ca  Ca1  1  0.18336500  0.38587300  0.59590600  1
  Ca  Ca2  1  0.68939200  0.89852800  0.56857400  1
  Ca  Ca3  1  0.68939200  0.46710200  0.43142600  1
  Si  Si4  1  0.22410400  0.80688500  0.67849600  1
  Si  Si5  1  0.22410400  0.48538100  0.32150400  1
  Si  Si6  1  0.00548200  0.94010700  0.13639000  1
  Si  Si7  1  0.00548200  0.07649600  0.86361000  1
  Si  Si8  1  0.64081600  0.07180000  0.31170000  1
  Si  Si9  1  0.64081600  0.38350000  0.68830000  1
  W  W10  1  0.72574400  0.78395200  0.84869600  1
  W  W11  1  0.72574400  0.63264800  0.15130400  1
  W  W12  1  0.02248600  0.39820900  0.00000000  1
  W  W13  1  0.42941200  0.03828800  0.00000000  1
  W  W14  1  0.49312100  0.49393000  0.00000000  1
  O  O15  1  0.42242200  0.29486500  0.27227800  1
  O  O16  1  0.42242200  0.56714200  0.72772200  1
  O  O17  1  0.30867400  0.99315800  0.59631500  1
  O  O18  1  0.30867400  0.58947200  0.40368500  1
  O  O19  1  0.13995000  0.08673800  0.14874600  1
  O  O20  1  0.13995000  0.23548400  0.85125400  1
  O  O21  1  0.06167400  0.76466400  0.60647400  1
  O  O22  1  0.06167400  0.37113700  0.39352600  1
  O  O23  1  0.79301200  0.10978500  0.39333500  1
  O  O24  1  0.79301200  0.50312000  0.60666500  1
  O  O25  1  0.11011900  0.88000200  0.79686300  1
  O  O26  1  0.11011900  0.67686500  0.20313700  1
  O  O27  1  0.56966900  0.86890800  0.38517100  1
  O  O28  1  0.56966900  0.25407800  0.61482900  1
  O  O29  1  0.76360900  0.02551700  0.19059300  1
  O  O30  1  0.76360900  0.21611000  0.80940700  1
  O  O31  1  0.98011800  0.95727400  0.00000000  1
