# generated using pymatgen
data_Ca2PrBeO5
_symmetry_space_group_name_H-M   'P 1'
_cell_length_a   6.48749500
_cell_length_b   7.27496200
_cell_length_c   9.40954000
_cell_angle_alpha   90.00000000
_cell_angle_beta   90.00000000
_cell_angle_gamma   90.00000000
_symmetry_Int_Tables_number   1
_chemical_formula_structural   Ca2PrBeO5
_chemical_formula_sum   'Ca8 Pr4 Be4 O20'
_cell_volume   444.09528075
_cell_formula_units_Z   4
loop_
 _symmetry_equiv_pos_site_id
 _symmetry_equiv_pos_as_xyz
  1  'x, y, z'
loop_
 _atom_site_type_symbol
 _atom_site_label
 _atom_site_symmetry_multiplicity
 _atom_site_fract_x
 _atom_site_fract_y
 _atom_site_fract_z
 _atom_site_occupancy
  Ca  Ca0  1  0.57981500  0.52790700  0.82639100  1
  Ca  Ca1  1  0.42018500  0.47209300  0.17360900  1
  Ca  Ca2  1  0.07981500  0.47209300  0.67360900  1
  Ca  Ca3  1  0.42018500  0.02790700  0.17360900  1
  Ca  Ca4  1  0.92018500  0.52790700  0.32639100  1
  Ca  Ca5  1  0.57981500  0.97209300  0.82639100  1
  Ca  Ca6  1  0.92018500  0.97209300  0.32639100  1
  Ca  Ca7  1  0.07981500  0.02790700  0.67360900  1
  Pr  Pr8  1  0.09894800  0.75000000  0.97190300  1
  Pr  Pr9  1  0.90105200  0.25000000  0.02809700  1
  Pr  Pr10  1  0.59894800  0.25000000  0.52809700  1
  Pr  Pr11  1  0.40105200  0.75000000  0.47190300  1
  Be  Be12  1  0.81060600  0.75000000  0.60629800  1
  Be  Be13  1  0.18939400  0.25000000  0.39370200  1
  Be  Be14  1  0.31060600  0.25000000  0.89370200  1
  Be  Be15  1  0.68939400  0.75000000  0.10629800  1
  O  O16  1  0.86165700  0.75000000  0.77664300  1
  O  O17  1  0.13834300  0.25000000  0.22335700  1
  O  O18  1  0.36165700  0.25000000  0.72335700  1
  O  O19  1  0.63834300  0.75000000  0.27664300  1
  O  O20  1  0.32946400  0.75000000  0.73017600  1
  O  O21  1  0.67053600  0.25000000  0.26982400  1
  O  O22  1  0.82946400  0.25000000  0.76982400  1
  O  O23  1  0.17053600  0.75000000  0.23017600  1
  O  O24  1  0.02480800  0.75000000  0.51264700  1
  O  O25  1  0.97519200  0.25000000  0.48735300  1
  O  O26  1  0.52480800  0.25000000  0.98735300  1
  O  O27  1  0.47519200  0.75000000  0.01264700  1
  O  O28  1  0.68856300  0.56153600  0.57227600  1
  O  O29  1  0.31143700  0.43846400  0.42772400  1
  O  O30  1  0.18856300  0.43846400  0.92772400  1
  O  O31  1  0.31143700  0.06153600  0.42772400  1
  O  O32  1  0.81143700  0.56153600  0.07227600  1
  O  O33  1  0.68856300  0.93846400  0.57227600  1
  O  O34  1  0.81143700  0.93846400  0.07227600  1
  O  O35  1  0.18856300  0.06153600  0.92772400  1
