# generated using pymatgen
data_Ca4Al
_symmetry_space_group_name_H-M   'P 1'
_cell_length_a   8.51334361
_cell_length_b   8.51334361
_cell_length_c   8.51334361
_cell_angle_alpha   60.00000000
_cell_angle_beta   60.00000000
_cell_angle_gamma   60.00000000
_symmetry_Int_Tables_number   1
_chemical_formula_structural   Ca4Al
_chemical_formula_sum   'Ca8 Al2'
_cell_volume   436.30027843
_cell_formula_units_Z   2
loop_
 _symmetry_equiv_pos_site_id
 _symmetry_equiv_pos_as_xyz
  1  'x, y, z'
loop_
 _atom_site_type_symbol
 _atom_site_label
 _atom_site_symmetry_multiplicity
 _atom_site_fract_x
 _atom_site_fract_y
 _atom_site_fract_z
 _atom_site_occupancy
  Ca  Ca0  1  0.60995500  0.60995500  0.60995500  1
  Ca  Ca1  1  0.17013600  0.60995500  0.60995500  1
  Ca  Ca2  1  0.60995500  0.17013600  0.60995500  1
  Ca  Ca3  1  0.57986400  0.14004500  0.14004500  1
  Ca  Ca4  1  0.14004500  0.14004500  0.14004500  1
  Ca  Ca5  1  0.60995500  0.60995500  0.17013600  1
  Ca  Ca6  1  0.14004500  0.57986400  0.14004500  1
  Ca  Ca7  1  0.14004500  0.14004500  0.57986400  1
  Al  Al8  1  0.00000000  0.00000000  0.00000000  1
  Al  Al9  1  0.75000000  0.75000000  0.75000000  1
