# generated using pymatgen
data_CaAl2Si4(HO6)2
_symmetry_space_group_name_H-M   'P 1'
_cell_length_a   10.04286735
_cell_length_b   10.04286735
_cell_length_c   7.58681042
_cell_angle_alpha   74.09946021
_cell_angle_beta   74.09946021
_cell_angle_gamma   83.45921356
_symmetry_Int_Tables_number   1
_chemical_formula_structural   CaAl2Si4(HO6)2
_chemical_formula_sum   'Ca2 Al4 Si8 H4 O24'
_cell_volume   707.14003137
_cell_formula_units_Z   2
loop_
 _symmetry_equiv_pos_site_id
 _symmetry_equiv_pos_as_xyz
  1  'x, y, z'
loop_
 _atom_site_type_symbol
 _atom_site_label
 _atom_site_symmetry_multiplicity
 _atom_site_fract_x
 _atom_site_fract_y
 _atom_site_fract_z
 _atom_site_occupancy
  Ca  Ca0  1  0.35364500  0.13595100  0.75593300  1
  Ca  Ca1  1  0.86404900  0.64635500  0.24406700  1
  Al  Al2  1  0.17396200  0.57088600  0.23906300  1
  Al  Al3  1  0.42911400  0.82603800  0.76093700  1
  Al  Al4  1  0.78736500  0.95813600  0.23046500  1
  Al  Al5  1  0.04186400  0.21263500  0.76953500  1
  Si  Si6  1  0.23085900  0.24865500  0.34401600  1
  Si  Si7  1  0.75134500  0.76914100  0.65598400  1
  Si  Si8  1  0.46677700  0.01698400  0.33741700  1
  Si  Si9  1  0.98301600  0.53322300  0.66258300  1
  Si  Si10  1  0.30808200  0.85698200  0.17422800  1
  Si  Si11  1  0.14301800  0.69191800  0.82577200  1
  Si  Si12  1  0.07451400  0.09034500  0.17700100  1
  Si  Si13  1  0.90965500  0.92548600  0.82299900  1
  H  H14  1  0.61935800  0.62370400  0.14850900  1
  H  H15  1  0.37629600  0.38064200  0.85149100  1
  H  H16  1  0.62991400  0.14397000  0.74571100  1
  H  H17  1  0.85603000  0.37008600  0.25428900  1
  O  O18  1  0.41622500  0.88644400  0.28499900  1
  O  O19  1  0.11355600  0.58377500  0.71500100  1
  O  O20  1  0.91214300  0.06828300  0.21757500  1
  O  O21  1  0.93171700  0.08785700  0.78242500  1
  O  O22  1  0.08107000  0.62655300  0.05679700  1
  O  O23  1  0.37344700  0.91893000  0.94320300  1
  O  O24  1  0.16100200  0.94343100  0.23461000  1
  O  O25  1  0.05656900  0.83899800  0.76539000  1
  O  O26  1  0.77990800  0.80330500  0.42304400  1
  O  O27  1  0.19669500  0.22009200  0.57695600  1
  O  O28  1  0.62739800  0.04362900  0.23301700  1
  O  O29  1  0.95637100  0.37260200  0.76698300  1
  O  O30  1  0.83931200  0.86155900  0.05240900  1
  O  O31  1  0.13844100  0.16068800  0.94759100  1
  O  O32  1  0.28638500  0.69378700  0.22467700  1
  O  O33  1  0.30621300  0.71361500  0.77532300  1
  O  O34  1  0.43865000  0.98216400  0.57042200  1
  O  O35  1  0.01783600  0.56135000  0.42957800  1
  O  O36  1  0.25690900  0.40962900  0.24294700  1
  O  O37  1  0.59037100  0.74309200  0.75705300  1
  O  O38  1  0.80457600  0.90052100  0.70458200  1
  O  O39  1  0.09947900  0.19542400  0.29541800  1
  O  O40  1  0.37309400  0.15822700  0.26947500  1
  O  O41  1  0.84177300  0.62690600  0.73052500  1
