# generated using pymatgen
data_Ca(ErS2)2
_symmetry_space_group_name_H-M   'P 1'
_cell_length_a   6.69009846
_cell_length_b   6.69009846
_cell_length_c   13.23820000
_cell_angle_alpha   90.00000000
_cell_angle_beta   90.00000000
_cell_angle_gamma   146.36684754
_symmetry_Int_Tables_number   1
_chemical_formula_structural   Ca(ErS2)2
_chemical_formula_sum   'Ca2 Er4 S8'
_cell_volume   328.17422308
_cell_formula_units_Z   2
loop_
 _symmetry_equiv_pos_site_id
 _symmetry_equiv_pos_as_xyz
  1  'x, y, z'
loop_
 _atom_site_type_symbol
 _atom_site_label
 _atom_site_symmetry_multiplicity
 _atom_site_fract_x
 _atom_site_fract_y
 _atom_site_fract_z
 _atom_site_occupancy
  Ca  Ca0  1  0.88631700  0.11368300  0.01535000  1
  Ca  Ca1  1  0.11368300  0.88631700  0.51535000  1
  Er  Er2  1  0.35787600  0.64212400  0.32462500  1
  Er  Er3  1  0.64212400  0.35787600  0.82462500  1
  Er  Er4  1  0.62582700  0.37417300  0.18106600  1
  Er  Er5  1  0.37417300  0.62582700  0.68106600  1
  S  S6  1  0.54025700  0.45974300  0.99859400  1
  S  S7  1  0.45974300  0.54025700  0.49859400  1
  S  S8  1  0.73638000  0.26362000  0.63717400  1
  S  S9  1  0.26362000  0.73638000  0.13717400  1
  S  S10  1  0.72004800  0.27995200  0.37045000  1
  S  S11  1  0.27995200  0.72004800  0.87045000  1
  S  S12  1  0.98602700  0.01397300  0.24004100  1
  S  S13  1  0.01397300  0.98602700  0.74004100  1
