# generated using pymatgen
data_Cd2SiO2
_symmetry_space_group_name_H-M   'P 1'
_cell_length_a   7.84001218
_cell_length_b   7.84001218
_cell_length_c   9.38947317
_cell_angle_alpha   114.04201699
_cell_angle_beta   114.04201699
_cell_angle_gamma   91.38391298
_symmetry_Int_Tables_number   1
_chemical_formula_structural   Cd2SiO2
_chemical_formula_sum   'Cd8 Si4 O8'
_cell_volume   468.66456427
_cell_formula_units_Z   4
loop_
 _symmetry_equiv_pos_site_id
 _symmetry_equiv_pos_as_xyz
  1  'x, y, z'
loop_
 _atom_site_type_symbol
 _atom_site_label
 _atom_site_symmetry_multiplicity
 _atom_site_fract_x
 _atom_site_fract_y
 _atom_site_fract_z
 _atom_site_occupancy
  Cd  Cd0  1  0.32427300  0.14167800  0.62665500  1
  Cd  Cd1  1  0.30238200  0.48497700  0.62665500  1
  Cd  Cd2  1  0.85832200  0.67572700  0.37334500  1
  Cd  Cd3  1  0.92572700  0.60832200  0.87334500  1
  Cd  Cd4  1  0.51502300  0.69761800  0.37334500  1
  Cd  Cd5  1  0.94761800  0.26502300  0.87334500  1
  Cd  Cd6  1  0.39167800  0.07427300  0.12665500  1
  Cd  Cd7  1  0.73497700  0.05238200  0.12665500  1
  Si  Si8  1  0.62500000  0.87500000  0.75000000  1
  Si  Si9  1  0.12500000  0.87500000  0.75000000  1
  Si  Si10  1  0.12500000  0.37500000  0.25000000  1
  Si  Si11  1  0.12500000  0.87500000  0.25000000  1
  O  O12  1  0.62187500  0.67450800  0.75877600  1
  O  O13  1  0.13690200  0.08426800  0.75877600  1
  O  O14  1  0.32549200  0.37812500  0.24122400  1
  O  O15  1  0.62812500  0.07549200  0.74122400  1
  O  O16  1  0.91573200  0.86309800  0.24122400  1
  O  O17  1  0.11309800  0.66573200  0.74122400  1
  O  O18  1  0.92450800  0.37187500  0.25877600  1
  O  O19  1  0.33426800  0.88690200  0.25877600  1
