# generated using pymatgen
data_Ca3SiO4F
_symmetry_space_group_name_H-M   'P 1'
_cell_length_a   5.49887200
_cell_length_b   7.43007400
_cell_length_c   12.39638000
_cell_angle_alpha   90.00000000
_cell_angle_beta   90.00000000
_cell_angle_gamma   90.00000000
_symmetry_Int_Tables_number   1
_chemical_formula_structural   Ca3SiO4F
_chemical_formula_sum   'Ca12 Si4 O16 F4'
_cell_volume   506.47921844
_cell_formula_units_Z   4
loop_
 _symmetry_equiv_pos_site_id
 _symmetry_equiv_pos_as_xyz
  1  'x, y, z'
loop_
 _atom_site_type_symbol
 _atom_site_label
 _atom_site_symmetry_multiplicity
 _atom_site_fract_x
 _atom_site_fract_y
 _atom_site_fract_z
 _atom_site_occupancy
  Ca  Ca0  1  0.25158700  0.25000000  0.41954300  1
  Ca  Ca1  1  0.74841300  0.75000000  0.58045700  1
  Ca  Ca2  1  0.24841300  0.75000000  0.91954300  1
  Ca  Ca3  1  0.75158700  0.25000000  0.08045700  1
  Ca  Ca4  1  0.25890700  0.00614100  0.16254200  1
  Ca  Ca5  1  0.74109300  0.99385900  0.83745800  1
  Ca  Ca6  1  0.24109300  0.99385900  0.66254200  1
  Ca  Ca7  1  0.74109300  0.50614100  0.83745800  1
  Ca  Ca8  1  0.75890700  0.00614100  0.33745800  1
  Ca  Ca9  1  0.25890700  0.49385900  0.16254200  1
  Ca  Ca10  1  0.75890700  0.49385900  0.33745800  1
  Ca  Ca11  1  0.24109300  0.50614100  0.66254200  1
  Si  Si12  1  0.72062700  0.25000000  0.58776900  1
  Si  Si13  1  0.27937300  0.75000000  0.41223100  1
  Si  Si14  1  0.77937300  0.75000000  0.08776900  1
  Si  Si15  1  0.22062700  0.25000000  0.91223100  1
  O  O16  1  0.17898400  0.56599500  0.34756800  1
  O  O17  1  0.82101600  0.43400500  0.65243200  1
  O  O18  1  0.32101600  0.43400500  0.84756800  1
  O  O19  1  0.82101600  0.06599600  0.65243200  1
  O  O20  1  0.67898400  0.56599500  0.15243200  1
  O  O21  1  0.17898400  0.93400500  0.34756800  1
  O  O22  1  0.67898400  0.93400500  0.15243200  1
  O  O23  1  0.32101600  0.06599600  0.84756800  1
  O  O24  1  0.41498100  0.25000000  0.59589300  1
  O  O25  1  0.58501900  0.75000000  0.40410700  1
  O  O26  1  0.08501900  0.75000000  0.09589300  1
  O  O27  1  0.91498100  0.25000000  0.90410700  1
  O  O28  1  0.33614800  0.25000000  0.03683400  1
  O  O29  1  0.66385200  0.75000000  0.96316600  1
  O  O30  1  0.16385200  0.75000000  0.53683400  1
  O  O31  1  0.83614800  0.25000000  0.46316600  1
  F  F32  1  0.00146600  0.25000000  0.23705100  1
  F  F33  1  0.99853400  0.75000000  0.76294900  1
  F  F34  1  0.49853400  0.75000000  0.73705100  1
  F  F35  1  0.50146600  0.25000000  0.26294900  1
