# generated using pymatgen
data_Ca(Sb3Os)4
_symmetry_space_group_name_H-M   'P 1'
_cell_length_a   8.17494899
_cell_length_b   8.17494899
_cell_length_c   8.17494899
_cell_angle_alpha   109.47122063
_cell_angle_beta   109.47122063
_cell_angle_gamma   109.47122063
_symmetry_Int_Tables_number   1
_chemical_formula_structural   Ca(Sb3Os)4
_chemical_formula_sum   'Ca1 Sb12 Os4'
_cell_volume   420.56513197
_cell_formula_units_Z   1
loop_
 _symmetry_equiv_pos_site_id
 _symmetry_equiv_pos_as_xyz
  1  'x, y, z'
loop_
 _atom_site_type_symbol
 _atom_site_label
 _atom_site_symmetry_multiplicity
 _atom_site_fract_x
 _atom_site_fract_y
 _atom_site_fract_z
 _atom_site_occupancy
  Ca  Ca0  1  0.00000000  0.00000000  0.00000000  1
  Sb  Sb1  1  0.84336700  0.66159200  0.50495900  1
  Sb  Sb2  1  0.15663300  0.33840800  0.49504100  1
  Sb  Sb3  1  0.15663300  0.66159200  0.81822500  1
  Sb  Sb4  1  0.84336700  0.33840800  0.18177500  1
  Sb  Sb5  1  0.66159200  0.50495900  0.84336700  1
  Sb  Sb6  1  0.33840800  0.49504100  0.15663300  1
  Sb  Sb7  1  0.66159200  0.81822500  0.15663300  1
  Sb  Sb8  1  0.33840800  0.18177500  0.84336700  1
  Sb  Sb9  1  0.50495900  0.84336700  0.66159200  1
  Sb  Sb10  1  0.49504100  0.15663300  0.33840800  1
  Sb  Sb11  1  0.18177500  0.84336700  0.33840800  1
  Sb  Sb12  1  0.81822500  0.15663300  0.66159200  1
  Os  Os13  1  0.50000000  0.50000000  0.50000000  1
  Os  Os14  1  0.50000000  0.00000000  0.00000000  1
  Os  Os15  1  0.00000000  0.50000000  0.00000000  1
  Os  Os16  1  0.00000000  0.00000000  0.50000000  1
