# generated using pymatgen
data_Ca2YBeO5
_symmetry_space_group_name_H-M   'P 1'
_cell_length_a   6.37807200
_cell_length_b   7.11365400
_cell_length_c   9.21988400
_cell_angle_alpha   90.00000000
_cell_angle_beta   90.00000000
_cell_angle_gamma   90.00000000
_symmetry_Int_Tables_number   1
_chemical_formula_structural   Ca2YBeO5
_chemical_formula_sum   'Ca8 Y4 Be4 O20'
_cell_volume   418.31902090
_cell_formula_units_Z   4
loop_
 _symmetry_equiv_pos_site_id
 _symmetry_equiv_pos_as_xyz
  1  'x, y, z'
loop_
 _atom_site_type_symbol
 _atom_site_label
 _atom_site_symmetry_multiplicity
 _atom_site_fract_x
 _atom_site_fract_y
 _atom_site_fract_z
 _atom_site_occupancy
  Ca  Ca0  1  0.58802200  0.52386300  0.82625700  1
  Ca  Ca1  1  0.41197800  0.47613700  0.17374300  1
  Ca  Ca2  1  0.08802200  0.47613700  0.67374300  1
  Ca  Ca3  1  0.41197800  0.02386300  0.17374300  1
  Ca  Ca4  1  0.91197800  0.52386300  0.32625700  1
  Ca  Ca5  1  0.58802200  0.97613700  0.82625700  1
  Ca  Ca6  1  0.91197800  0.97613700  0.32625700  1
  Ca  Ca7  1  0.08802200  0.02386300  0.67374300  1
  Y  Y8  1  0.09597100  0.75000000  0.97167000  1
  Y  Y9  1  0.90402900  0.25000000  0.02833000  1
  Y  Y10  1  0.59597100  0.25000000  0.52833000  1
  Y  Y11  1  0.40402900  0.75000000  0.47167000  1
  Be  Be12  1  0.81023200  0.75000000  0.60362400  1
  Be  Be13  1  0.18976800  0.25000000  0.39637600  1
  Be  Be14  1  0.31023200  0.25000000  0.89637600  1
  Be  Be15  1  0.68976800  0.75000000  0.10362400  1
  O  O16  1  0.86945500  0.75000000  0.77694200  1
  O  O17  1  0.13054500  0.25000000  0.22305800  1
  O  O18  1  0.36945500  0.25000000  0.72305800  1
  O  O19  1  0.63054500  0.75000000  0.27694200  1
  O  O20  1  0.32571500  0.75000000  0.72254700  1
  O  O21  1  0.67428500  0.25000000  0.27745300  1
  O  O22  1  0.82571500  0.25000000  0.77745300  1
  O  O23  1  0.17428500  0.75000000  0.22254700  1
  O  O24  1  0.68614600  0.55799200  0.56671400  1
  O  O25  1  0.31385400  0.44200800  0.43328600  1
  O  O26  1  0.18614600  0.44200800  0.93328600  1
  O  O27  1  0.31385400  0.05799200  0.43328600  1
  O  O28  1  0.81385400  0.55799200  0.06671400  1
  O  O29  1  0.68614600  0.94200800  0.56671400  1
  O  O30  1  0.81385400  0.94200800  0.06671400  1
  O  O31  1  0.18614600  0.05799200  0.93328600  1
  O  O32  1  0.03160900  0.75000000  0.51017400  1
  O  O33  1  0.96839100  0.25000000  0.48982600  1
  O  O34  1  0.53160900  0.25000000  0.98982600  1
  O  O35  1  0.46839100  0.75000000  0.01017400  1
