# generated using pymatgen
data_Ca5P3CO12
_symmetry_space_group_name_H-M   'P 1'
_cell_length_a   9.71814213
_cell_length_b   9.71814213
_cell_length_c   6.82226700
_cell_angle_alpha   90.00000000
_cell_angle_beta   90.00000000
_cell_angle_gamma   120.00000089
_symmetry_Int_Tables_number   1
_chemical_formula_structural   Ca5P3CO12
_chemical_formula_sum   'Ca10 P6 C2 O24'
_cell_volume   557.98925104
_cell_formula_units_Z   2
loop_
 _symmetry_equiv_pos_site_id
 _symmetry_equiv_pos_as_xyz
  1  'x, y, z'
loop_
 _atom_site_type_symbol
 _atom_site_label
 _atom_site_symmetry_multiplicity
 _atom_site_fract_x
 _atom_site_fract_y
 _atom_site_fract_z
 _atom_site_occupancy
  Ca  Ca0  1  0.33333300  0.66666700  0.00178500  1
  Ca  Ca1  1  0.66666700  0.33333300  0.99821500  1
  Ca  Ca2  1  0.66666700  0.33333300  0.50178500  1
  Ca  Ca3  1  0.33333300  0.66666700  0.49821500  1
  Ca  Ca4  1  0.26254400  0.25877400  0.25000000  1
  Ca  Ca5  1  0.73745600  0.74122600  0.75000000  1
  Ca  Ca6  1  0.74122600  0.00377000  0.25000000  1
  Ca  Ca7  1  0.25877400  0.99623000  0.75000000  1
  Ca  Ca8  1  0.99623000  0.73745600  0.25000000  1
  Ca  Ca9  1  0.00377000  0.26254400  0.75000000  1
  P  P10  1  0.40123200  0.03176600  0.25000000  1
  P  P11  1  0.59876800  0.96823400  0.75000000  1
  P  P12  1  0.96823400  0.36946500  0.25000000  1
  P  P13  1  0.03176600  0.63053500  0.75000000  1
  P  P14  1  0.63053500  0.59876800  0.25000000  1
  P  P15  1  0.36946500  0.40123200  0.75000000  1
  C  C16  1  0.00000000  0.00000000  0.25000000  1
  C  C17  1  0.00000000  0.00000000  0.75000000  1
  O  O18  1  0.14994800  0.48600400  0.25000000  1
  O  O19  1  0.85005200  0.51399600  0.75000000  1
  O  O20  1  0.51399600  0.66394400  0.25000000  1
  O  O21  1  0.48600400  0.33605600  0.75000000  1
  O  O22  1  0.33605600  0.85005200  0.25000000  1
  O  O23  1  0.66394400  0.14994800  0.75000000  1
  O  O24  1  0.58763600  0.12612900  0.25000000  1
  O  O25  1  0.41236400  0.87387100  0.75000000  1
  O  O26  1  0.87387100  0.46150700  0.25000000  1
  O  O27  1  0.12612900  0.53849300  0.75000000  1
  O  O28  1  0.53849300  0.41236400  0.25000000  1
  O  O29  1  0.46150700  0.58763600  0.75000000  1
  O  O30  1  0.34794900  0.08783800  0.06664500  1
  O  O31  1  0.65205100  0.91216200  0.93335500  1
  O  O32  1  0.91216200  0.26011100  0.06664500  1
  O  O33  1  0.65205100  0.91216200  0.56664500  1
  O  O34  1  0.08783800  0.73988900  0.93335500  1
  O  O35  1  0.34794900  0.08783800  0.43335500  1
  O  O36  1  0.73988900  0.65205100  0.06664500  1
  O  O37  1  0.08783800  0.73988900  0.56664500  1
  O  O38  1  0.26011100  0.34794900  0.93335500  1
  O  O39  1  0.91216200  0.26011100  0.43335500  1
  O  O40  1  0.26011100  0.34794900  0.56664500  1
  O  O41  1  0.73988900  0.65205100  0.43335500  1
