# generated using pymatgen
data_Ca2Mg(AsO5)2
_symmetry_space_group_name_H-M   'P 1'
_cell_length_a   5.55158259
_cell_length_b   6.25416348
_cell_length_c   12.25474000
_cell_angle_alpha   90.00000000
_cell_angle_beta   90.00000000
_cell_angle_gamma   109.66385858
_symmetry_Int_Tables_number   1
_chemical_formula_structural   Ca2Mg(AsO5)2
_chemical_formula_sum   'Ca4 Mg2 As4 O20'
_cell_volume   400.67741504
_cell_formula_units_Z   2
loop_
 _symmetry_equiv_pos_site_id
 _symmetry_equiv_pos_as_xyz
  1  'x, y, z'
loop_
 _atom_site_type_symbol
 _atom_site_label
 _atom_site_symmetry_multiplicity
 _atom_site_fract_x
 _atom_site_fract_y
 _atom_site_fract_z
 _atom_site_occupancy
  Ca  Ca0  1  0.26337600  0.56216300  0.12478900  1
  Ca  Ca1  1  0.73662400  0.43783700  0.87521100  1
  Ca  Ca2  1  0.23662400  0.43783700  0.62478900  1
  Ca  Ca3  1  0.76337600  0.56216300  0.37521100  1
  Mg  Mg4  1  0.00000000  0.00000000  0.00000000  1
  Mg  Mg5  1  0.50000000  0.00000000  0.50000000  1
  As  As6  1  0.06893200  0.21509400  0.37977300  1
  As  As7  1  0.93106800  0.78490600  0.62022700  1
  As  As8  1  0.43106800  0.78490600  0.87977300  1
  As  As9  1  0.56893200  0.21509400  0.12022700  1
  O  O10  1  0.46813200  0.94323700  0.17537900  1
  O  O11  1  0.53186800  0.05676300  0.82462100  1
  O  O12  1  0.03186800  0.05676300  0.67537900  1
  O  O13  1  0.96813200  0.94323700  0.32462100  1
  O  O14  1  0.07072600  0.41901100  0.28800000  1
  O  O15  1  0.92927400  0.58098900  0.71200000  1
  O  O16  1  0.42927400  0.58098900  0.78800000  1
  O  O17  1  0.57072600  0.41901100  0.21200000  1
  O  O18  1  0.46123400  0.15767800  0.65138200  1
  O  O19  1  0.53876600  0.84232200  0.34861800  1
  O  O20  1  0.03876600  0.84232200  0.15138200  1
  O  O21  1  0.96123400  0.15767800  0.84861800  1
  O  O22  1  0.35721000  0.26587700  0.44750800  1
  O  O23  1  0.64279000  0.73412300  0.55249200  1
  O  O24  1  0.14279000  0.73412300  0.94750800  1
  O  O25  1  0.85721000  0.26587700  0.05249200  1
  O  O26  1  0.35783700  0.24437900  0.02183300  1
  O  O27  1  0.64216300  0.75562100  0.97816700  1
  O  O28  1  0.14216300  0.75562100  0.52183300  1
  O  O29  1  0.85783700  0.24437900  0.47816700  1
