# generated using pymatgen
data_C7Cl5
_symmetry_space_group_name_H-M   'P 1'
_cell_length_a   5.23038900
_cell_length_b   18.25547100
_cell_length_c   18.80780400
_cell_angle_alpha   90.00000000
_cell_angle_beta   90.00000000
_cell_angle_gamma   90.00000000
_symmetry_Int_Tables_number   1
_chemical_formula_structural   C7Cl5
_chemical_formula_sum   'C56 Cl40'
_cell_volume   1795.82958752
_cell_formula_units_Z   8
loop_
 _symmetry_equiv_pos_site_id
 _symmetry_equiv_pos_as_xyz
  1  'x, y, z'
loop_
 _atom_site_type_symbol
 _atom_site_label
 _atom_site_symmetry_multiplicity
 _atom_site_fract_x
 _atom_site_fract_y
 _atom_site_fract_z
 _atom_site_occupancy
  C  C0  1  0.06547200  0.18397100  0.21569600  1
  C  C1  1  0.93452800  0.81602900  0.78430400  1
  C  C2  1  0.43452800  0.31602900  0.71569600  1
  C  C3  1  0.93452800  0.18397100  0.28430400  1
  C  C4  1  0.56547200  0.68397100  0.28430400  1
  C  C5  1  0.06547200  0.81602900  0.71569600  1
  C  C6  1  0.56547200  0.31602900  0.78430400  1
  C  C7  1  0.43452800  0.68397100  0.21569600  1
  C  C8  1  0.36148600  0.24404000  0.13289400  1
  C  C9  1  0.63851400  0.75596000  0.86710600  1
  C  C10  1  0.13851400  0.25596000  0.63289400  1
  C  C11  1  0.63851400  0.24404000  0.36710600  1
  C  C12  1  0.86148600  0.74404000  0.36710600  1
  C  C13  1  0.36148600  0.75596000  0.63289400  1
  C  C14  1  0.86148600  0.25596000  0.86710600  1
  C  C15  1  0.13851400  0.74404000  0.13289400  1
  C  C16  1  0.06319600  0.12178000  0.17012200  1
  C  C17  1  0.93680400  0.87822000  0.82987800  1
  C  C18  1  0.43680400  0.37822000  0.67012200  1
  C  C19  1  0.93680400  0.12178000  0.32987800  1
  C  C20  1  0.56319600  0.62178000  0.32987800  1
  C  C21  1  0.06319600  0.87822000  0.67012200  1
  C  C22  1  0.56319600  0.37822000  0.82987800  1
  C  C23  1  0.43680400  0.62178000  0.17012200  1
  C  C24  1  0.18210600  0.25014700  0.19043500  1
  C  C25  1  0.81789400  0.74985300  0.80956500  1
  C  C26  1  0.31789400  0.24985300  0.69043500  1
  C  C27  1  0.81789400  0.25014700  0.30956500  1
  C  C28  1  0.68210600  0.75014700  0.30956500  1
  C  C29  1  0.18210600  0.74985300  0.69043500  1
  C  C30  1  0.68210600  0.24985300  0.80956500  1
  C  C31  1  0.31789400  0.75014700  0.19043500  1
  C  C32  1  0.09179700  0.31706800  0.22309700  1
  C  C33  1  0.90820300  0.68293200  0.77690300  1
  C  C34  1  0.40820300  0.18293200  0.72309700  1
  C  C35  1  0.90820300  0.31706800  0.27690300  1
  C  C36  1  0.59179700  0.81706800  0.27690300  1
  C  C37  1  0.09179700  0.68293200  0.72309700  1
  C  C38  1  0.59179700  0.18293200  0.77690300  1
  C  C39  1  0.40820300  0.81706800  0.22309700  1
  C  C40  1  0.38515800  0.17817300  0.09510800  1
  C  C41  1  0.61484200  0.82182700  0.90489200  1
  C  C42  1  0.11484200  0.32182700  0.59510800  1
  C  C43  1  0.61484200  0.17817300  0.40489200  1
  C  C44  1  0.88515800  0.67817300  0.40489200  1
  C  C45  1  0.38515800  0.82182700  0.59510800  1
  C  C46  1  0.88515800  0.32182700  0.90489200  1
  C  C47  1  0.11484200  0.67817300  0.09510800  1
  C  C48  1  0.22234800  0.11846500  0.11047300  1
  C  C49  1  0.77765200  0.88153500  0.88952700  1
  C  C50  1  0.27765200  0.38153500  0.61047300  1
  C  C51  1  0.77765200  0.11846500  0.38952700  1
  C  C52  1  0.72234800  0.61846500  0.38952700  1
  C  C53  1  0.22234800  0.88153500  0.61047300  1
  C  C54  1  0.72234800  0.38153500  0.88952700  1
  C  C55  1  0.27765200  0.61846500  0.11047300  1
  Cl  Cl56  1  0.43354800  0.31325500  0.39232000  1
  Cl  Cl57  1  0.56645200  0.68674500  0.60768000  1
  Cl  Cl58  1  0.06645200  0.18674500  0.89232000  1
  Cl  Cl59  1  0.56645200  0.31325500  0.10768000  1
  Cl  Cl60  1  0.93354800  0.81325500  0.10768000  1
  Cl  Cl61  1  0.43354800  0.68674500  0.89232000  1
  Cl  Cl62  1  0.93354800  0.18674500  0.60768000  1
  Cl  Cl63  1  0.06645200  0.81325500  0.39232000  1
  Cl  Cl64  1  0.22010000  0.04357000  0.05579900  1
  Cl  Cl65  1  0.77990000  0.95643000  0.94420100  1
  Cl  Cl66  1  0.27990000  0.45643000  0.55579900  1
  Cl  Cl67  1  0.77990000  0.04357000  0.44420100  1
  Cl  Cl68  1  0.72010000  0.54357000  0.44420100  1
  Cl  Cl69  1  0.22010000  0.95643000  0.55579900  1
  Cl  Cl70  1  0.72010000  0.45643000  0.94420100  1
  Cl  Cl71  1  0.27990000  0.54357000  0.05579900  1
  Cl  Cl72  1  0.39681800  0.16945900  0.47233000  1
  Cl  Cl73  1  0.60318200  0.83054100  0.52767000  1
  Cl  Cl74  1  0.10318200  0.33054100  0.97233000  1
  Cl  Cl75  1  0.60318200  0.16945900  0.02767000  1
  Cl  Cl76  1  0.89681800  0.66945900  0.02767000  1
  Cl  Cl77  1  0.39681800  0.83054100  0.97233000  1
  Cl  Cl78  1  0.89681800  0.33054100  0.52767000  1
  Cl  Cl79  1  0.10318200  0.66945900  0.47233000  1
  Cl  Cl80  1  0.16050600  0.05341100  0.31948000  1
  Cl  Cl81  1  0.83949400  0.94658900  0.68052000  1
  Cl  Cl82  1  0.33949400  0.44658900  0.81948000  1
  Cl  Cl83  1  0.83949400  0.05341100  0.18052000  1
  Cl  Cl84  1  0.66050600  0.55341100  0.18052000  1
  Cl  Cl85  1  0.16050600  0.94658900  0.81948000  1
  Cl  Cl86  1  0.66050600  0.44658900  0.68052000  1
  Cl  Cl87  1  0.33949400  0.55341100  0.31948000  1
  Cl  Cl88  1  0.18162700  0.40084500  0.19001100  1
  Cl  Cl89  1  0.81837300  0.59915500  0.80998900  1
  Cl  Cl90  1  0.31837300  0.09915500  0.69001100  1
  Cl  Cl91  1  0.81837300  0.40084500  0.30998900  1
  Cl  Cl92  1  0.68162700  0.90084500  0.30998900  1
  Cl  Cl93  1  0.18162700  0.59915500  0.69001100  1
  Cl  Cl94  1  0.68162700  0.09915500  0.80998900  1
  Cl  Cl95  1  0.31837300  0.90084500  0.19001100  1
