# generated using pymatgen
data_Bi8Te7
_symmetry_space_group_name_H-M   'P 1'
_cell_length_a   4.50162782
_cell_length_b   4.50162782
_cell_length_c   92.55333600
_cell_angle_alpha   90.00000000
_cell_angle_beta   90.00000000
_cell_angle_gamma   119.99999737
_symmetry_Int_Tables_number   1
_chemical_formula_structural   Bi8Te7
_chemical_formula_sum   'Bi24 Te21'
_cell_volume   1624.28372478
_cell_formula_units_Z   3
loop_
 _symmetry_equiv_pos_site_id
 _symmetry_equiv_pos_as_xyz
  1  'x, y, z'
loop_
 _atom_site_type_symbol
 _atom_site_label
 _atom_site_symmetry_multiplicity
 _atom_site_fract_x
 _atom_site_fract_y
 _atom_site_fract_z
 _atom_site_occupancy
  Bi  Bi0  1  0.33333300  0.66666700  0.35192700  1
  Bi  Bi1  1  0.66666700  0.33333300  0.64807300  1
  Bi  Bi2  1  0.00000000  0.00000000  0.06781100  1
  Bi  Bi3  1  0.00000000  0.00000000  0.93218900  1
  Bi  Bi4  1  0.33333300  0.66666700  0.82225700  1
  Bi  Bi5  1  0.66666700  0.33333300  0.17774300  1
  Bi  Bi6  1  0.33333300  0.66666700  0.02154500  1
  Bi  Bi7  1  0.66666700  0.33333300  0.97845500  1
  Bi  Bi8  1  0.00000000  0.00000000  0.39961100  1
  Bi  Bi9  1  0.00000000  0.00000000  0.60038900  1
  Bi  Bi10  1  0.00000000  0.00000000  0.33384500  1
  Bi  Bi11  1  0.00000000  0.00000000  0.66615500  1
  Bi  Bi12  1  0.33333300  0.66666700  0.75644700  1
  Bi  Bi13  1  0.66666700  0.33333300  0.24355300  1
  Bi  Bi14  1  0.00000000  0.00000000  0.13411300  1
  Bi  Bi15  1  0.00000000  0.00000000  0.86588700  1
  Bi  Bi16  1  0.33333300  0.66666700  0.08588100  1
  Bi  Bi17  1  0.66666700  0.33333300  0.91411900  1
  Bi  Bi18  1  0.33333300  0.66666700  0.28685100  1
  Bi  Bi19  1  0.66666700  0.33333300  0.71314900  1
  Bi  Bi20  1  0.33333300  0.66666700  0.49089900  1
  Bi  Bi21  1  0.66666700  0.33333300  0.50910100  1
  Bi  Bi22  1  0.33333300  0.66666700  0.55627000  1
  Bi  Bi23  1  0.66666700  0.33333300  0.44373000  1
  Te  Te24  1  0.33333300  0.66666700  0.42167700  1
  Te  Te25  1  0.66666700  0.33333300  0.57832300  1
  Te  Te26  1  0.33333300  0.66666700  0.15587100  1
  Te  Te27  1  0.66666700  0.33333300  0.84412900  1
  Te  Te28  1  0.00000000  0.00000000  0.19602500  1
  Te  Te29  1  0.00000000  0.00000000  0.80397500  1
  Te  Te30  1  0.33333300  0.66666700  0.22513900  1
  Te  Te31  1  0.66666700  0.33333300  0.77486100  1
  Te  Te32  1  0.33333300  0.66666700  0.69454800  1
  Te  Te33  1  0.66666700  0.33333300  0.30545200  1
  Te  Te34  1  0.33333300  0.66666700  0.96004900  1
  Te  Te35  1  0.66666700  0.33333300  0.03995100  1
  Te  Te36  1  0.33333300  0.66666700  0.88444500  1
  Te  Te37  1  0.66666700  0.33333300  0.11555500  1
  Te  Te38  1  0.00000000  0.00000000  0.46227600  1
  Te  Te39  1  0.00000000  0.00000000  0.53772400  1
  Te  Te40  1  0.00000000  0.00000000  0.26527700  1
  Te  Te41  1  0.00000000  0.00000000  0.73472300  1
  Te  Te42  1  0.00000000  0.00000000  0.00000000  1
  Te  Te43  1  0.33333300  0.66666700  0.61896400  1
  Te  Te44  1  0.66666700  0.33333300  0.38103600  1
