# generated using pymatgen
data_Ca2FeP3H4O13
_symmetry_space_group_name_H-M   'P 1'
_cell_length_a   7.58141170
_cell_length_b   8.74833366
_cell_length_c   9.25866799
_cell_angle_alpha   80.01048956
_cell_angle_beta   66.40084184
_cell_angle_gamma   64.32244482
_symmetry_Int_Tables_number   1
_chemical_formula_structural   Ca2FeP3H4O13
_chemical_formula_sum   'Ca4 Fe2 P6 H8 O26'
_cell_volume   507.15170203
_cell_formula_units_Z   2
loop_
 _symmetry_equiv_pos_site_id
 _symmetry_equiv_pos_as_xyz
  1  'x, y, z'
loop_
 _atom_site_type_symbol
 _atom_site_label
 _atom_site_symmetry_multiplicity
 _atom_site_fract_x
 _atom_site_fract_y
 _atom_site_fract_z
 _atom_site_occupancy
  Ca  Ca0  1  0.27907900  0.98203600  0.43765800  1
  Ca  Ca1  1  0.72092100  0.01796400  0.56234200  1
  Ca  Ca2  1  0.73888500  0.98203600  0.06234200  1
  Ca  Ca3  1  0.26111500  0.01796400  0.93765800  1
  Fe  Fe4  1  0.50000000  0.50000000  0.50000000  1
  Fe  Fe5  1  0.00000000  0.50000000  0.00000000  1
  P  P6  1  0.51528100  0.30323400  0.84884700  1
  P  P7  1  0.48471900  0.69676600  0.15115300  1
  P  P8  1  0.18148500  0.30323400  0.65115300  1
  P  P9  1  0.81851500  0.69676600  0.34884700  1
  P  P10  1  0.10296300  0.79407400  0.75000000  1
  P  P11  1  0.89703700  0.20592600  0.25000000  1
  H  H12  1  0.68866300  0.39201300  0.94392300  1
  H  H13  1  0.31133700  0.60798700  0.05607700  1
  H  H14  1  0.91932400  0.39201300  0.55607700  1
  H  H15  1  0.08067600  0.60798700  0.44392300  1
  H  H16  1  0.55382200  0.73339900  0.71211100  1
  H  H17  1  0.44617800  0.26660100  0.28788900  1
  H  H18  1  0.71277900  0.73339900  0.78788900  1
  H  H19  1  0.28722100  0.26660100  0.21211100  1
  O  O20  1  0.31086200  0.44753000  0.94679400  1
  O  O21  1  0.68913800  0.55247000  0.05320600  1
  O  O22  1  0.24160800  0.44753000  0.55320600  1
  O  O23  1  0.75839200  0.55247000  0.44679400  1
  O  O24  1  0.34233000  0.68828100  0.65878200  1
  O  O25  1  0.65767000  0.31171900  0.34121800  1
  O  O26  1  0.96938900  0.68828100  0.84121800  1
  O  O27  1  0.03061100  0.31171900  0.15878200  1
  O  O28  1  0.69188800  0.28966000  0.90839000  1
  O  O29  1  0.30811200  0.71034000  0.09161000  1
  O  O30  1  0.01845200  0.28966000  0.59161000  1
  O  O31  1  0.98154800  0.71034000  0.40839000  1
  O  O32  1  0.59745000  0.80510100  0.75000000  1
  O  O33  1  0.40255000  0.19489900  0.25000000  1
  O  O34  1  0.08414700  0.90529800  0.87111200  1
  O  O35  1  0.91585300  0.09470200  0.12888800  1
  O  O36  1  0.01055500  0.90529800  0.62888800  1
  O  O37  1  0.98944500  0.09470200  0.37111200  1
  O  O38  1  0.58104300  0.33130600  0.66871500  1
  O  O39  1  0.41895700  0.66869400  0.33128500  1
  O  O40  1  0.08765000  0.33130600  0.83128500  1
  O  O41  1  0.91235000  0.66869400  0.16871500  1
  O  O42  1  0.52146700  0.12285000  0.88148900  1
  O  O43  1  0.47853300  0.87715000  0.11851100  1
  O  O44  1  0.35568300  0.12285000  0.61851100  1
  O  O45  1  0.64431700  0.87715000  0.38148900  1
