# generated using pymatgen
data_C4NCl3
_symmetry_space_group_name_H-M   'P 1'
_cell_length_a   4.11684500
_cell_length_b   13.41463900
_cell_length_c   21.92928825
_cell_angle_alpha   78.94921250
_cell_angle_beta   90.00000000
_cell_angle_gamma   90.00000000
_symmetry_Int_Tables_number   1
_chemical_formula_structural   C4NCl3
_chemical_formula_sum   'C32 N8 Cl24'
_cell_volume   1188.61063685
_cell_formula_units_Z   8
loop_
 _symmetry_equiv_pos_site_id
 _symmetry_equiv_pos_as_xyz
  1  'x, y, z'
loop_
 _atom_site_type_symbol
 _atom_site_label
 _atom_site_symmetry_multiplicity
 _atom_site_fract_x
 _atom_site_fract_y
 _atom_site_fract_z
 _atom_site_occupancy
  C  C0  1  0.34290600  0.85846100  0.60602700  1
  C  C1  1  0.65709400  0.14153900  0.39397300  1
  C  C2  1  0.84290600  0.14153900  0.89397300  1
  C  C3  1  0.15709400  0.85846100  0.10602700  1
  C  C4  1  0.39000000  0.32929800  0.51497700  1
  C  C5  1  0.61000000  0.67070200  0.48502300  1
  C  C6  1  0.89000000  0.67070200  0.98502300  1
  C  C7  1  0.11000000  0.32929800  0.01497700  1
  C  C8  1  0.17589700  0.32908100  0.85109400  1
  C  C9  1  0.82410300  0.67091900  0.14890600  1
  C  C10  1  0.67589700  0.67091900  0.64890600  1
  C  C11  1  0.32410300  0.32908100  0.35109400  1
  C  C12  1  0.09260100  0.26574900  0.80979400  1
  C  C13  1  0.90739900  0.73425100  0.19020600  1
  C  C14  1  0.59260100  0.73425100  0.69020600  1
  C  C15  1  0.40739900  0.26574900  0.30979400  1
  C  C16  1  0.42851700  0.82851600  0.66849800  1
  C  C17  1  0.57148300  0.17148400  0.33150200  1
  C  C18  1  0.92851700  0.17148400  0.83150200  1
  C  C19  1  0.07148300  0.82851600  0.16849800  1
  C  C20  1  0.90191800  0.70152600  0.08458500  1
  C  C21  1  0.09808200  0.29847400  0.91541500  1
  C  C22  1  0.40191800  0.29847400  0.41541500  1
  C  C23  1  0.59808200  0.70152600  0.58458500  1
  C  C24  1  0.06457500  0.76423000  0.96353600  1
  C  C25  1  0.93542500  0.23577000  0.03646400  1
  C  C26  1  0.56457500  0.23577000  0.53646400  1
  C  C27  1  0.43542500  0.76423000  0.46353600  1
  C  C28  1  0.42781700  0.79480100  0.56319300  1
  C  C29  1  0.57218300  0.20519900  0.43680700  1
  C  C30  1  0.92781700  0.20519900  0.93680700  1
  C  C31  1  0.07218300  0.79480100  0.06319300  1
  N  N32  1  0.18511100  0.35797800  0.95633200  1
  N  N33  1  0.81488900  0.64202200  0.04366800  1
  N  N34  1  0.68511100  0.64202200  0.54366800  1
  N  N35  1  0.31488900  0.35797800  0.45633200  1
  N  N36  1  0.34891700  0.82259700  0.50209300  1
  N  N37  1  0.65108300  0.17740300  0.49790700  1
  N  N38  1  0.84891700  0.17740300  0.99790700  1
  N  N39  1  0.15108300  0.82259700  0.00209300  1
  Cl  Cl40  1  0.27204300  0.40608100  0.56560300  1
  Cl  Cl41  1  0.72795700  0.59391900  0.43439700  1
  Cl  Cl42  1  0.77204300  0.59391900  0.93439700  1
  Cl  Cl43  1  0.22795700  0.40608100  0.06560300  1
  Cl  Cl44  1  0.36391000  0.44342100  0.82565100  1
  Cl  Cl45  1  0.63609000  0.55657900  0.17434900  1
  Cl  Cl46  1  0.86391000  0.55657900  0.67434900  1
  Cl  Cl47  1  0.13609000  0.44342100  0.32565100  1
  Cl  Cl48  1  0.13990700  0.96946800  0.57978100  1
  Cl  Cl49  1  0.86009300  0.03053200  0.42021900  1
  Cl  Cl50  1  0.63990700  0.03053200  0.92021900  1
  Cl  Cl51  1  0.36009300  0.96946800  0.07978100  1
  Cl  Cl52  1  0.33480000  0.90600200  0.71987000  1
  Cl  Cl53  1  0.66520000  0.09399800  0.28013000  1
  Cl  Cl54  1  0.83480000  0.09399800  0.78013000  1
  Cl  Cl55  1  0.16520000  0.90600200  0.21987000  1
  Cl  Cl56  1  0.16268400  0.80198200  0.88607800  1
  Cl  Cl57  1  0.83731600  0.19801800  0.11392200  1
  Cl  Cl58  1  0.66268400  0.19801800  0.61392200  1
  Cl  Cl59  1  0.33731600  0.80198200  0.38607800  1
  Cl  Cl60  1  0.18596300  0.30121100  0.73252700  1
  Cl  Cl61  1  0.81403700  0.69878900  0.26747300  1
  Cl  Cl62  1  0.68596300  0.69878900  0.76747300  1
  Cl  Cl63  1  0.31403700  0.30121100  0.23252700  1
