# generated using pymatgen
data_CCl
_symmetry_space_group_name_H-M   'P 1'
_cell_length_a   9.02304800
_cell_length_b   10.63586919
_cell_length_c   15.41492720
_cell_angle_alpha   98.88731810
_cell_angle_beta   99.02841771
_cell_angle_gamma   96.57745452
_symmetry_Int_Tables_number   1
_chemical_formula_structural   CCl
_chemical_formula_sum   'C32 Cl32'
_cell_volume   1428.79361838
_cell_formula_units_Z   32
loop_
 _symmetry_equiv_pos_site_id
 _symmetry_equiv_pos_as_xyz
  1  'x, y, z'
loop_
 _atom_site_type_symbol
 _atom_site_label
 _atom_site_symmetry_multiplicity
 _atom_site_fract_x
 _atom_site_fract_y
 _atom_site_fract_z
 _atom_site_occupancy
  C  C0  1  0.14216600  0.28510100  0.11682000  1
  C  C1  1  0.85783400  0.71489900  0.88318000  1
  C  C2  1  0.02898900  0.23360700  0.24793300  1
  C  C3  1  0.97101100  0.76639300  0.75206700  1
  C  C4  1  0.60032200  0.38153200  0.43706900  1
  C  C5  1  0.39967800  0.61846800  0.56293100  1
  C  C6  1  0.26955400  0.26134600  0.08412000  1
  C  C7  1  0.73044600  0.73865400  0.91588000  1
  C  C8  1  0.49036800  0.15056100  0.13522700  1
  C  C9  1  0.50963200  0.84943900  0.86477300  1
  C  C10  1  0.32826100  0.74451100  0.35840300  1
  C  C11  1  0.67173900  0.25548900  0.64159700  1
  C  C12  1  0.08097000  0.19470700  0.17106700  1
  C  C13  1  0.91903000  0.80529300  0.82893300  1
  C  C14  1  0.59414500  0.28917300  0.48927300  1
  C  C15  1  0.40585500  0.71082700  0.51072700  1
  C  C16  1  0.44896700  0.28369700  0.71842300  1
  C  C17  1  0.55103300  0.71630300  0.28157700  1
  C  C18  1  0.33896000  0.14841900  0.10651500  1
  C  C19  1  0.66104000  0.85158100  0.89348500  1
  C  C20  1  0.45956600  0.19190700  0.48290500  1
  C  C21  1  0.54043400  0.80809300  0.51709500  1
  C  C22  1  0.41581300  0.16696700  0.55970800  1
  C  C23  1  0.58418700  0.83303300  0.44029200  1
  C  C24  1  0.22320700  0.03663300  0.10406100  1
  C  C25  1  0.77679300  0.96336700  0.89593900  1
  C  C26  1  0.28606500  0.71833700  0.43520100  1
  C  C27  1  0.71393500  0.28166300  0.56479900  1
  C  C28  1  0.50749600  0.23553300  0.64568800  1
  C  C29  1  0.49250400  0.76446700  0.35431200  1
  C  C30  1  0.09548600  0.05960000  0.13666200  1
  C  C31  1  0.90451400  0.94040000  0.86333800  1
  Cl  Cl32  1  0.33525400  0.34546000  0.00764500  1
  Cl  Cl33  1  0.66474600  0.65454000  0.99235500  1
  Cl  Cl34  1  0.37405200  0.10290600  0.38098700  1
  Cl  Cl35  1  0.62594800  0.89709400  0.61901300  1
  Cl  Cl36  1  0.19683000  0.77272300  0.27257600  1
  Cl  Cl37  1  0.80317000  0.22727700  0.72742400  1
  Cl  Cl38  1  0.96590700  0.13062800  0.31330100  1
  Cl  Cl39  1  0.03409300  0.86937200  0.68669900  1
  Cl  Cl40  1  0.24292300  0.88695300  0.05070300  1
  Cl  Cl41  1  0.75707700  0.11304700  0.94929700  1
  Cl  Cl42  1  0.24907700  0.49936300  0.54994900  1
  Cl  Cl43  1  0.75092300  0.50063700  0.45005100  1
  Cl  Cl44  1  0.02672900  0.39153500  0.29122600  1
  Cl  Cl45  1  0.97327100  0.60846500  0.70877400  1
  Cl  Cl46  1  0.05254100  0.06215300  0.87283200  1
  Cl  Cl47  1  0.94745900  0.93784700  0.12716800  1
  Cl  Cl48  1  0.26836100  0.04714700  0.55676500  1
  Cl  Cl49  1  0.73163900  0.95285300  0.44323500  1
  Cl  Cl50  1  0.62207100  0.28425500  0.14645200  1
  Cl  Cl51  1  0.37792900  0.71574500  0.85354800  1
  Cl  Cl52  1  0.10040600  0.71492900  0.44998000  1
  Cl  Cl53  1  0.89959400  0.28507100  0.55002000  1
  Cl  Cl54  1  0.56712700  0.02233700  0.16841600  1
  Cl  Cl55  1  0.43287300  0.97766300  0.83158400  1
  Cl  Cl56  1  0.04145800  0.40378200  0.08587500  1
  Cl  Cl57  1  0.95854200  0.59621800  0.91412500  1
  Cl  Cl58  1  0.25916100  0.26817100  0.72288200  1
  Cl  Cl59  1  0.74083900  0.73182900  0.27711800  1
  Cl  Cl60  1  0.45474400  0.39495400  0.35467700  1
  Cl  Cl61  1  0.54525600  0.60504600  0.64532300  1
  Cl  Cl62  1  0.44293700  0.62740900  0.18584400  1
  Cl  Cl63  1  0.55706300  0.37259100  0.81415600  1
