# generated using pymatgen
data_Ca4Be2Al2Si9O28
_symmetry_space_group_name_H-M   'P 1'
_cell_length_a   12.02490144
_cell_length_b   12.02490144
_cell_length_c   19.69313600
_cell_angle_alpha   90.00000000
_cell_angle_beta   90.00000000
_cell_angle_gamma   155.57161635
_symmetry_Int_Tables_number   1
_chemical_formula_structural   Ca4Be2Al2Si9O28
_chemical_formula_sum   'Ca8 Be4 Al4 Si18 O56'
_cell_volume   1177.63784460
_cell_formula_units_Z   2
loop_
 _symmetry_equiv_pos_site_id
 _symmetry_equiv_pos_as_xyz
  1  'x, y, z'
loop_
 _atom_site_type_symbol
 _atom_site_label
 _atom_site_symmetry_multiplicity
 _atom_site_fract_x
 _atom_site_fract_y
 _atom_site_fract_z
 _atom_site_occupancy
  Ca  Ca0  1  0.84680400  0.67637200  0.65154500  1
  Ca  Ca1  1  0.15319600  0.32362800  0.34845500  1
  Ca  Ca2  1  0.15319600  0.32362800  0.15154500  1
  Ca  Ca3  1  0.67637200  0.84680400  0.84845500  1
  Ca  Ca4  1  0.84680400  0.67637200  0.84845500  1
  Ca  Ca5  1  0.32362800  0.15319600  0.15154500  1
  Ca  Ca6  1  0.32362800  0.15319600  0.34845500  1
  Ca  Ca7  1  0.67637200  0.84680400  0.65154500  1
  Be  Be8  1  0.05528200  0.30827900  0.75000000  1
  Be  Be9  1  0.94471800  0.69172100  0.25000000  1
  Be  Be10  1  0.30827900  0.05528200  0.75000000  1
  Be  Be11  1  0.69172100  0.94471800  0.25000000  1
  Al  Al12  1  0.59524900  0.40475100  0.50000000  1
  Al  Al13  1  0.40475100  0.59524900  0.50000000  1
  Al  Al14  1  0.40475100  0.59524900  0.00000000  1
  Al  Al15  1  0.59524900  0.40475100  0.00000000  1
  Si  Si16  1  0.22308600  0.22308600  0.75000000  1
  Si  Si17  1  0.77691400  0.77691400  0.25000000  1
  Si  Si18  1  0.92549100  0.35441900  0.64303500  1
  Si  Si19  1  0.07450900  0.64558100  0.35696500  1
  Si  Si20  1  0.07450900  0.64558100  0.14303500  1
  Si  Si21  1  0.35441900  0.92549100  0.85696500  1
  Si  Si22  1  0.92549100  0.35441900  0.85696500  1
  Si  Si23  1  0.64558100  0.07450900  0.14303500  1
  Si  Si24  1  0.64558100  0.07450900  0.35696500  1
  Si  Si25  1  0.35441900  0.92549100  0.64303500  1
  Si  Si26  1  0.83033100  0.16966900  0.50000000  1
  Si  Si27  1  0.16966900  0.83033100  0.50000000  1
  Si  Si28  1  0.16966900  0.83033100  0.00000000  1
  Si  Si29  1  0.83033100  0.16966900  0.00000000  1
  Si  Si30  1  0.27884100  0.27884100  0.60511300  1
  Si  Si31  1  0.72115900  0.72115900  0.39488700  1
  Si  Si32  1  0.72115900  0.72115900  0.10511300  1
  Si  Si33  1  0.27884100  0.27884100  0.89488700  1
  O  O34  1  0.42582900  0.42582900  0.68323400  1
  O  O35  1  0.57417100  0.57417100  0.31676600  1
  O  O36  1  0.57417100  0.57417100  0.18323400  1
  O  O37  1  0.42582900  0.42582900  0.81676600  1
  O  O38  1  0.60795200  0.38453400  0.75000000  1
  O  O39  1  0.39204800  0.61546600  0.25000000  1
  O  O40  1  0.38453400  0.60795200  0.75000000  1
  O  O41  1  0.61546600  0.39204800  0.25000000  1
  O  O42  1  0.99206900  0.11016500  0.75000000  1
  O  O43  1  0.00793100  0.88983500  0.25000000  1
  O  O44  1  0.11016500  0.99206900  0.75000000  1
  O  O45  1  0.88983500  0.00793100  0.25000000  1
  O  O46  1  0.92443200  0.33981200  0.56005600  1
  O  O47  1  0.07556800  0.66018800  0.43994400  1
  O  O48  1  0.07556800  0.66018800  0.06005600  1
  O  O49  1  0.33981200  0.92443200  0.93994400  1
  O  O50  1  0.92443200  0.33981200  0.93994400  1
  O  O51  1  0.66018800  0.07556800  0.06005600  1
  O  O52  1  0.66018800  0.07556800  0.43994400  1
  O  O53  1  0.33981200  0.92443200  0.56005600  1
  O  O54  1  0.03417000  0.03417000  0.11488600  1
  O  O55  1  0.96583000  0.96583000  0.88511400  1
  O  O56  1  0.96583000  0.96583000  0.61488600  1
  O  O57  1  0.03417000  0.03417000  0.38511400  1
  O  O58  1  0.91584700  0.22542800  0.68045400  1
  O  O59  1  0.08415300  0.77457200  0.31954600  1
  O  O60  1  0.08415300  0.77457200  0.18045400  1
  O  O61  1  0.22542800  0.91584700  0.81954600  1
  O  O62  1  0.91584700  0.22542800  0.81954600  1
  O  O63  1  0.77457200  0.08415300  0.18045400  1
  O  O64  1  0.77457200  0.08415300  0.31954600  1
  O  O65  1  0.22542800  0.91584700  0.68045400  1
  O  O66  1  0.90094200  0.63902700  0.53621800  1
  O  O67  1  0.09905800  0.36097300  0.46378200  1
  O  O68  1  0.09905800  0.36097300  0.03621800  1
  O  O69  1  0.63902700  0.90094200  0.96378200  1
  O  O70  1  0.90094200  0.63902700  0.96378200  1
  O  O71  1  0.36097300  0.09905800  0.03621800  1
  O  O72  1  0.36097300  0.09905800  0.46378200  1
  O  O73  1  0.63902700  0.90094200  0.53621800  1
  O  O74  1  0.20273100  0.67124100  0.66419000  1
  O  O75  1  0.79726900  0.32875900  0.33581000  1
  O  O76  1  0.79726900  0.32875900  0.16419000  1
  O  O77  1  0.67124100  0.20273100  0.83581000  1
  O  O78  1  0.20273100  0.67124100  0.83581000  1
  O  O79  1  0.32875900  0.79726900  0.16419000  1
  O  O80  1  0.32875900  0.79726900  0.33581000  1
  O  O81  1  0.67124100  0.20273100  0.66419000  1
  O  O82  1  0.34522800  0.46019700  0.57227400  1
  O  O83  1  0.65477200  0.53980300  0.42772600  1
  O  O84  1  0.65477200  0.53980300  0.07227400  1
  O  O85  1  0.46019700  0.34522800  0.92772600  1
  O  O86  1  0.34522800  0.46019700  0.92772600  1
  O  O87  1  0.53980300  0.65477200  0.07227400  1
  O  O88  1  0.53980300  0.65477200  0.42772600  1
  O  O89  1  0.46019700  0.34522800  0.57227400  1
