# generated using pymatgen
data_BaHoFe4O7
_symmetry_space_group_name_H-M   'P 1'
_cell_length_a   6.48946966
_cell_length_b   6.48946966
_cell_length_c   6.48946966
_cell_angle_alpha   60.00000000
_cell_angle_beta   60.00000000
_cell_angle_gamma   60.00000000
_symmetry_Int_Tables_number   1
_chemical_formula_structural   BaHoFe4O7
_chemical_formula_sum   'Ba1 Ho1 Fe4 O7'
_cell_volume   193.24693760
_cell_formula_units_Z   1
loop_
 _symmetry_equiv_pos_site_id
 _symmetry_equiv_pos_as_xyz
  1  'x, y, z'
loop_
 _atom_site_type_symbol
 _atom_site_label
 _atom_site_symmetry_multiplicity
 _atom_site_fract_x
 _atom_site_fract_y
 _atom_site_fract_z
 _atom_site_occupancy
  Ba  Ba0  1  0.75000000  0.75000000  0.75000000  1
  Ho  Ho1  1  0.00000000  0.00000000  0.00000000  1
  Fe  Fe2  1  0.38192600  0.38192600  0.38192600  1
  Fe  Fe3  1  0.38192600  0.38192600  0.85422300  1
  Fe  Fe4  1  0.38192600  0.85422300  0.38192600  1
  Fe  Fe5  1  0.85422300  0.38192600  0.38192600  1
  O  O6  1  0.75397900  0.24602100  0.24602100  1
  O  O7  1  0.24602100  0.75397900  0.75397900  1
  O  O8  1  0.24602100  0.75397900  0.24602100  1
  O  O9  1  0.75397900  0.24602100  0.75397900  1
  O  O10  1  0.24602100  0.24602100  0.75397900  1
  O  O11  1  0.75397900  0.75397900  0.24602100  1
  O  O12  1  0.25000000  0.25000000  0.25000000  1
