# generated using pymatgen
data_C18BrF13
_symmetry_space_group_name_H-M   'P 1'
_cell_length_a   5.65279000
_cell_length_b   15.27970900
_cell_length_c   21.28226500
_cell_angle_alpha   90.00000000
_cell_angle_beta   90.00000000
_cell_angle_gamma   90.00000000
_symmetry_Int_Tables_number   1
_chemical_formula_structural   C18BrF13
_chemical_formula_sum   'C72 Br4 F52'
_cell_volume   1838.21278196
_cell_formula_units_Z   4
loop_
 _symmetry_equiv_pos_site_id
 _symmetry_equiv_pos_as_xyz
  1  'x, y, z'
loop_
 _atom_site_type_symbol
 _atom_site_label
 _atom_site_symmetry_multiplicity
 _atom_site_fract_x
 _atom_site_fract_y
 _atom_site_fract_z
 _atom_site_occupancy
  C  C0  1  0.68056500  0.58349600  0.60864500  1
  C  C1  1  0.31943500  0.41650400  0.39135500  1
  C  C2  1  0.18056500  0.41650400  0.89135500  1
  C  C3  1  0.31943500  0.08349600  0.39135500  1
  C  C4  1  0.81943500  0.58349600  0.10864500  1
  C  C5  1  0.68056500  0.91650400  0.60864500  1
  C  C6  1  0.81943500  0.91650400  0.10864500  1
  C  C7  1  0.18056500  0.08349600  0.89135500  1
  C  C8  1  0.76201600  0.08241900  0.66311800  1
  C  C9  1  0.23798400  0.91758100  0.33688200  1
  C  C10  1  0.26201600  0.91758100  0.83688200  1
  C  C11  1  0.23798400  0.58241900  0.33688200  1
  C  C12  1  0.73798400  0.08241900  0.16311800  1
  C  C13  1  0.76201600  0.41758100  0.66311800  1
  C  C14  1  0.73798400  0.41758100  0.16311800  1
  C  C15  1  0.26201600  0.58241900  0.83688200  1
  C  C16  1  0.68018200  0.75000000  0.60864400  1
  C  C17  1  0.31981800  0.25000000  0.39135600  1
  C  C18  1  0.18018200  0.25000000  0.89135600  1
  C  C19  1  0.81981800  0.75000000  0.10864400  1
  C  C20  1  0.56427900  0.03329200  0.68060600  1
  C  C21  1  0.43572100  0.96670800  0.31939400  1
  C  C22  1  0.06427900  0.96670800  0.81939400  1
  C  C23  1  0.43572100  0.53329200  0.31939400  1
  C  C24  1  0.93572100  0.03329200  0.18060600  1
  C  C25  1  0.56427900  0.46670800  0.68060600  1
  C  C26  1  0.93572100  0.46670800  0.18060600  1
  C  C27  1  0.06427900  0.53329200  0.81939400  1
  C  C28  1  0.63320100  0.66953100  0.57901800  1
  C  C29  1  0.36679900  0.33046900  0.42098200  1
  C  C30  1  0.13320100  0.33046900  0.92098200  1
  C  C31  1  0.36679900  0.16953100  0.42098200  1
  C  C32  1  0.86679900  0.66953100  0.07901800  1
  C  C33  1  0.63320100  0.83046900  0.57901800  1
  C  C34  1  0.86679900  0.83046900  0.07901800  1
  C  C35  1  0.13320100  0.16953100  0.92098200  1
  C  C36  1  0.53600000  0.67148300  0.51863300  1
  C  C37  1  0.46400000  0.32851700  0.48136700  1
  C  C38  1  0.03600000  0.32851700  0.98136700  1
  C  C39  1  0.46400000  0.17148300  0.48136700  1
  C  C40  1  0.96400000  0.67148300  0.01863300  1
  C  C41  1  0.53600000  0.82851700  0.51863300  1
  C  C42  1  0.96400000  0.82851700  0.01863300  1
  C  C43  1  0.03600000  0.17148300  0.98136700  1
  C  C44  1  0.52608200  0.54832000  0.65320300  1
  C  C45  1  0.47391800  0.45168000  0.34679700  1
  C  C46  1  0.02608200  0.45168000  0.84679700  1
  C  C47  1  0.47391800  0.04832000  0.34679700  1
  C  C48  1  0.97391800  0.54832000  0.15320300  1
  C  C49  1  0.52608200  0.95168000  0.65320300  1
  C  C50  1  0.97391800  0.95168000  0.15320300  1
  C  C51  1  0.02608200  0.04832000  0.84679700  1
  C  C52  1  0.91933700  0.04902000  0.61850400  1
  C  C53  1  0.08066300  0.95098000  0.38149600  1
  C  C54  1  0.41933700  0.95098000  0.88149600  1
  C  C55  1  0.08066300  0.54902000  0.38149600  1
  C  C56  1  0.58066300  0.04902000  0.11850400  1
  C  C57  1  0.91933700  0.45098000  0.61850400  1
  C  C58  1  0.58066300  0.45098000  0.11850400  1
  C  C59  1  0.41933700  0.54902000  0.88149600  1
  C  C60  1  0.87712500  0.53306300  0.59191900  1
  C  C61  1  0.12287500  0.46693700  0.40808100  1
  C  C62  1  0.37712500  0.46693700  0.90808100  1
  C  C63  1  0.12287500  0.03306300  0.40808100  1
  C  C64  1  0.62287500  0.53306300  0.09191900  1
  C  C65  1  0.87712500  0.96693700  0.59191900  1
  C  C66  1  0.62287500  0.96693700  0.09191900  1
  C  C67  1  0.37712500  0.03306300  0.90808100  1
  C  C68  1  0.01158900  0.75000000  0.98789800  1
  C  C69  1  0.98841100  0.25000000  0.01210200  1
  C  C70  1  0.51158900  0.25000000  0.51210200  1
  C  C71  1  0.48841100  0.75000000  0.48789800  1
  Br  Br72  1  0.81816000  0.75000000  0.68959900  1
  Br  Br73  1  0.18184000  0.25000000  0.31040100  1
  Br  Br74  1  0.31816000  0.25000000  0.81040100  1
  Br  Br75  1  0.68184000  0.75000000  0.18959900  1
  F  F76  1  0.83157900  0.09370600  0.82922600  1
  F  F77  1  0.16842100  0.90629400  0.17077400  1
  F  F78  1  0.33157900  0.90629400  0.67077400  1
  F  F79  1  0.16842100  0.59370600  0.17077400  1
  F  F80  1  0.66842100  0.09370600  0.32922600  1
  F  F81  1  0.83157900  0.40629400  0.82922600  1
  F  F82  1  0.66842100  0.40629400  0.32922600  1
  F  F83  1  0.33157900  0.59370600  0.67077400  1
  F  F84  1  0.51200800  0.09587000  0.51159900  1
  F  F85  1  0.48799200  0.90413000  0.48840100  1
  F  F86  1  0.01200800  0.90413000  0.98840100  1
  F  F87  1  0.48799200  0.59587000  0.48840100  1
  F  F88  1  0.98799200  0.09587000  0.01159900  1
  F  F89  1  0.51200800  0.40413000  0.51159900  1
  F  F90  1  0.98799200  0.40413000  0.01159900  1
  F  F91  1  0.01200800  0.59587000  0.98840100  1
  F  F92  1  0.10152700  0.75000000  0.92919400  1
  F  F93  1  0.89847300  0.25000000  0.07080600  1
  F  F94  1  0.60152700  0.25000000  0.57080600  1
  F  F95  1  0.39847300  0.75000000  0.42919400  1
  F  F96  1  0.90909800  0.56474900  0.77691000  1
  F  F97  1  0.09090200  0.43525100  0.22309000  1
  F  F98  1  0.40909800  0.43525100  0.72309000  1
  F  F99  1  0.09090200  0.06474900  0.22309000  1
  F  F100  1  0.59090200  0.56474900  0.27691000  1
  F  F101  1  0.90909800  0.93525100  0.77691000  1
  F  F102  1  0.59090200  0.93525100  0.27691000  1
  F  F103  1  0.40909800  0.06474900  0.72309000  1
  F  F104  1  0.80156600  0.16099400  0.68939300  1
  F  F105  1  0.19843400  0.83900600  0.31060700  1
  F  F106  1  0.30156600  0.83900600  0.81060700  1
  F  F107  1  0.19843400  0.66099400  0.31060700  1
  F  F108  1  0.69843400  0.16099400  0.18939300  1
  F  F109  1  0.80156600  0.33900600  0.68939300  1
  F  F110  1  0.69843400  0.33900600  0.18939300  1
  F  F111  1  0.30156600  0.66099400  0.81060700  1
  F  F112  1  0.03309500  0.56466600  0.54943200  1
  F  F113  1  0.96690500  0.43533400  0.45056800  1
  F  F114  1  0.53309500  0.43533400  0.95056800  1
  F  F115  1  0.96690500  0.06466600  0.45056800  1
  F  F116  1  0.46690500  0.56466600  0.04943200  1
  F  F117  1  0.03309500  0.93533400  0.54943200  1
  F  F118  1  0.46690500  0.93533400  0.04943200  1
  F  F119  1  0.53309500  0.06466600  0.95056800  1
  F  F120  1  0.61075100  0.59600200  0.89872900  1
  F  F121  1  0.38924900  0.40399800  0.10127100  1
  F  F122  1  0.11075100  0.40399800  0.60127100  1
  F  F123  1  0.38924900  0.09600200  0.10127100  1
  F  F124  1  0.88924900  0.59600200  0.39872900  1
  F  F125  1  0.61075100  0.90399800  0.89872900  1
  F  F126  1  0.88924900  0.90399800  0.39872900  1
  F  F127  1  0.11075100  0.09600200  0.60127100  1
