# generated using pymatgen
data_BiH5(NO3)3
_symmetry_space_group_name_H-M   'P 1'
_cell_length_a   6.83299000
_cell_length_b   8.83328718
_cell_length_c   10.86336378
_cell_angle_alpha   85.28532932
_cell_angle_beta   82.21195441
_cell_angle_gamma   73.17916320
_symmetry_Int_Tables_number   1
_chemical_formula_structural   BiH5(NO3)3
_chemical_formula_sum   'Bi2 H10 N6 O18'
_cell_volume   621.20613950
_cell_formula_units_Z   2
loop_
 _symmetry_equiv_pos_site_id
 _symmetry_equiv_pos_as_xyz
  1  'x, y, z'
loop_
 _atom_site_type_symbol
 _atom_site_label
 _atom_site_symmetry_multiplicity
 _atom_site_fract_x
 _atom_site_fract_y
 _atom_site_fract_z
 _atom_site_occupancy
  Bi  Bi0  1  0.30783300  0.29548600  0.31079400  1
  Bi  Bi1  1  0.69216700  0.70451400  0.68920600  1
  H  H2  1  0.07575800  0.47392000  0.33633200  1
  H  H3  1  0.92424200  0.52608000  0.66366800  1
  H  H4  1  0.68223400  0.17959300  0.07909900  1
  H  H5  1  0.31776600  0.82040700  0.92090100  1
  H  H6  1  0.72574000  0.21528800  0.45154000  1
  H  H7  1  0.27426000  0.78471200  0.54846000  1
  H  H8  1  0.12552900  0.20582600  0.91037600  1
  H  H9  1  0.87447100  0.79417400  0.08962400  1
  H  H10  1  0.13154700  0.41863300  0.12354300  1
  H  H11  1  0.86845300  0.58136700  0.87645700  1
  N  N12  1  0.29551000  0.18754600  0.56658700  1
  N  N13  1  0.70449000  0.81245400  0.43341300  1
  N  N14  1  0.14583200  0.07989600  0.19649900  1
  N  N15  1  0.85416800  0.92010400  0.80350100  1
  N  N16  1  0.49989700  0.58345800  0.20317700  1
  N  N17  1  0.50010300  0.41654200  0.79682300  1
  O  O18  1  0.03448600  0.19654000  0.26489800  1
  O  O19  1  0.96551400  0.80346000  0.73510200  1
  O  O20  1  0.29389000  0.33276800  0.53680200  1
  O  O21  1  0.70611000  0.66723200  0.46319800  1
  O  O22  1  0.60024500  0.66126700  0.13620400  1
  O  O23  1  0.39975500  0.33873300  0.86379600  1
  O  O24  1  0.57325500  0.42983200  0.20779200  1
  O  O25  1  0.42674500  0.57016800  0.79220800  1
  O  O26  1  0.33130300  0.64494000  0.26594800  1
  O  O27  1  0.66869700  0.35506000  0.73405200  1
  O  O28  1  0.27996600  0.10516500  0.47485900  1
  O  O29  1  0.72003400  0.89483500  0.52514100  1
  O  O30  1  0.07233600  0.98217100  0.16261700  1
  O  O31  1  0.92766400  0.01782900  0.83738300  1
  O  O32  1  0.31105000  0.12825200  0.67145600  1
  O  O33  1  0.68895000  0.87174800  0.32854400  1
  O  O34  1  0.33674500  0.07561900  0.16723500  1
  O  O35  1  0.66325500  0.92438100  0.83276500  1
