# generated using pymatgen
data_Ca2S3(NO6)2
_symmetry_space_group_name_H-M   'P 1'
_cell_length_a   10.83200200
_cell_length_b   10.83200200
_cell_length_c   10.83200200
_cell_angle_alpha   90.00000000
_cell_angle_beta   90.00000000
_cell_angle_gamma   90.00000000
_symmetry_Int_Tables_number   1
_chemical_formula_structural   Ca2S3(NO6)2
_chemical_formula_sum   'Ca8 S12 N8 O48'
_cell_volume   1270.94335436
_cell_formula_units_Z   4
loop_
 _symmetry_equiv_pos_site_id
 _symmetry_equiv_pos_as_xyz
  1  'x, y, z'
loop_
 _atom_site_type_symbol
 _atom_site_label
 _atom_site_symmetry_multiplicity
 _atom_site_fract_x
 _atom_site_fract_y
 _atom_site_fract_z
 _atom_site_occupancy
  Ca  Ca0  1  0.33504200  0.33504200  0.33504200  1
  Ca  Ca1  1  0.16495800  0.66495800  0.83504200  1
  Ca  Ca2  1  0.66495800  0.83504200  0.16495800  1
  Ca  Ca3  1  0.83504200  0.16495800  0.66495800  1
  Ca  Ca4  1  0.60325200  0.60325200  0.60325200  1
  Ca  Ca5  1  0.89674800  0.39674800  0.10325200  1
  Ca  Ca6  1  0.39674800  0.10325200  0.89674800  1
  Ca  Ca7  1  0.10325200  0.89674800  0.39674800  1
  S  S8  1  0.01618200  0.21792200  0.37497900  1
  S  S9  1  0.48381800  0.78207800  0.87497900  1
  S  S10  1  0.98381800  0.71792200  0.12502100  1
  S  S11  1  0.37497900  0.01618200  0.21792200  1
  S  S12  1  0.51618200  0.28207800  0.62502100  1
  S  S13  1  0.87497900  0.48381800  0.78207800  1
  S  S14  1  0.12502100  0.98381800  0.71792200  1
  S  S15  1  0.62502100  0.51618200  0.28207800  1
  S  S16  1  0.21792200  0.37497900  0.01618200  1
  S  S17  1  0.71792200  0.12502100  0.98381800  1
  S  S18  1  0.28207800  0.62502100  0.51618200  1
  S  S19  1  0.78207800  0.87497900  0.48381800  1
  N  N20  1  0.04831200  0.04831200  0.04831200  1
  N  N21  1  0.45168800  0.95168800  0.54831200  1
  N  N22  1  0.95168800  0.54831200  0.45168800  1
  N  N23  1  0.54831200  0.45168800  0.95168800  1
  N  N24  1  0.81661200  0.81661200  0.81661200  1
  N  N25  1  0.68338800  0.18338800  0.31661200  1
  N  N26  1  0.18338800  0.31661200  0.68338800  1
  N  N27  1  0.31661200  0.68338800  0.18338800  1
  O  O28  1  0.00977100  0.08643300  0.33542200  1
  O  O29  1  0.49022900  0.91356700  0.83542200  1
  O  O30  1  0.99022900  0.58643300  0.16457800  1
  O  O31  1  0.33542200  0.00977100  0.08643300  1
  O  O32  1  0.50977100  0.41356700  0.66457800  1
  O  O33  1  0.83542200  0.49022900  0.91356700  1
  O  O34  1  0.16457800  0.99022900  0.58643300  1
  O  O35  1  0.66457800  0.50977100  0.41356700  1
  O  O36  1  0.08643300  0.33542200  0.00977100  1
  O  O37  1  0.58643300  0.16457800  0.99022900  1
  O  O38  1  0.41356700  0.66457800  0.50977100  1
  O  O39  1  0.91356700  0.83542200  0.49022900  1
  O  O40  1  0.26977000  0.50873400  0.44501400  1
  O  O41  1  0.23023000  0.49126600  0.94501400  1
  O  O42  1  0.73023000  0.00873400  0.05498600  1
  O  O43  1  0.44501400  0.26977000  0.50873400  1
  O  O44  1  0.76977000  0.99126600  0.55498600  1
  O  O45  1  0.94501400  0.23023000  0.49126600  1
  O  O46  1  0.05498600  0.73023000  0.00873400  1
  O  O47  1  0.55498600  0.76977000  0.99126600  1
  O  O48  1  0.50873400  0.44501400  0.26977000  1
  O  O49  1  0.00873400  0.05498600  0.73023000  1
  O  O50  1  0.99126600  0.55498600  0.76977000  1
  O  O51  1  0.49126600  0.94501400  0.23023000  1
  O  O52  1  0.03616800  0.79959600  0.21973000  1
  O  O53  1  0.46383200  0.20040400  0.71973000  1
  O  O54  1  0.96383200  0.29959600  0.28027000  1
  O  O55  1  0.21973000  0.03616800  0.79959600  1
  O  O56  1  0.53616800  0.70040400  0.78027000  1
  O  O57  1  0.71973000  0.46383200  0.20040400  1
  O  O58  1  0.28027000  0.96383200  0.29959600  1
  O  O59  1  0.78027000  0.53616800  0.70040400  1
  O  O60  1  0.79959600  0.21973000  0.03616800  1
  O  O61  1  0.29959600  0.28027000  0.96383200  1
  O  O62  1  0.70040400  0.78027000  0.53616800  1
  O  O63  1  0.20040400  0.71973000  0.46383200  1
  O  O64  1  0.14755100  0.24904800  0.39782700  1
  O  O65  1  0.35244900  0.75095200  0.89782700  1
  O  O66  1  0.85244900  0.74904800  0.10217300  1
  O  O67  1  0.39782700  0.14755100  0.24904800  1
  O  O68  1  0.64755100  0.25095200  0.60217300  1
  O  O69  1  0.89782700  0.35244900  0.75095200  1
  O  O70  1  0.10217300  0.85244900  0.74904800  1
  O  O71  1  0.60217300  0.64755100  0.25095200  1
  O  O72  1  0.24904800  0.39782700  0.14755100  1
  O  O73  1  0.74904800  0.10217300  0.85244900  1
  O  O74  1  0.25095200  0.60217300  0.64755100  1
  O  O75  1  0.75095200  0.89782700  0.35244900  1
