# generated using pymatgen
data_C3F2
_symmetry_space_group_name_H-M   'P 1'
_cell_length_a   12.28793073
_cell_length_b   11.61778811
_cell_length_c   8.76069177
_cell_angle_alpha   72.64222880
_cell_angle_beta   64.47633492
_cell_angle_gamma   42.88143628
_symmetry_Int_Tables_number   1
_chemical_formula_structural   C3F2
_chemical_formula_sum   'C36 F24'
_cell_volume   767.69101460
_cell_formula_units_Z   12
loop_
 _symmetry_equiv_pos_site_id
 _symmetry_equiv_pos_as_xyz
  1  'x, y, z'
loop_
 _atom_site_type_symbol
 _atom_site_label
 _atom_site_symmetry_multiplicity
 _atom_site_fract_x
 _atom_site_fract_y
 _atom_site_fract_z
 _atom_site_occupancy
  C  C0  1  0.83534100  0.21987800  0.23008800  1
  C  C1  1  0.71469300  0.23008800  0.21987800  1
  C  C2  1  0.03012200  0.41465900  0.53530700  1
  C  C3  1  0.01991200  0.53530700  0.41465900  1
  C  C4  1  0.25497800  0.27154300  0.02549500  1
  C  C5  1  0.44798400  0.02549500  0.27154300  1
  C  C6  1  0.97845700  0.99502200  0.80201600  1
  C  C7  1  0.22450500  0.80201600  0.99502200  1
  C  C8  1  0.14038200  0.99943100  0.21870700  1
  C  C9  1  0.64148000  0.21870700  0.99943100  1
  C  C10  1  0.25056900  0.10961800  0.60852000  1
  C  C11  1  0.03129300  0.60852000  0.10961800  1
  C  C12  1  0.60683100  0.45428900  0.43834800  1
  C  C13  1  0.50053300  0.43834800  0.45428900  1
  C  C14  1  0.79571100  0.64316900  0.74946700  1
  C  C15  1  0.81165200  0.74946700  0.64316900  1
  C  C16  1  0.30469300  0.84037200  0.16639200  1
  C  C17  1  0.68854300  0.16639200  0.84037200  1
  C  C18  1  0.40962800  0.94530700  0.56145700  1
  C  C19  1  0.08360800  0.56145700  0.94530700  1
  C  C20  1  0.06224500  0.96687700  0.03541500  1
  C  C21  1  0.93546200  0.03541500  0.96687700  1
  C  C22  1  0.28312300  0.18775500  0.31453800  1
  C  C23  1  0.21458500  0.31453800  0.18775500  1
  C  C24  1  0.01514600  0.06855400  0.15509200  1
  C  C25  1  0.76120800  0.15509200  0.06855400  1
  C  C26  1  0.18144600  0.23485400  0.48879200  1
  C  C27  1  0.09490800  0.48879200  0.23485400  1
  C  C28  1  0.19574300  0.39218600  0.90241700  1
  C  C29  1  0.50965400  0.90241700  0.39218600  1
  C  C30  1  0.85781400  0.05425700  0.74034600  1
  C  C31  1  0.34758300  0.74034600  0.05425700  1
  C  C32  1  0.77210200  0.34619400  0.32692900  1
  C  C33  1  0.55477500  0.32692900  0.34619400  1
  C  C34  1  0.90380600  0.47789800  0.69522500  1
  C  C35  1  0.92307100  0.69522500  0.47789800  1
  F  F36  1  0.55158200  0.56943100  0.53467400  1
  F  F37  1  0.34431300  0.53467400  0.56943100  1
  F  F38  1  0.68056900  0.69841800  0.90568700  1
  F  F39  1  0.71532600  0.90568700  0.69841800  1
  F  F40  1  0.41959300  0.77948100  0.23191300  1
  F  F41  1  0.56901400  0.23191300  0.77948100  1
  F  F42  1  0.47051900  0.83040700  0.68098600  1
  F  F43  1  0.01808700  0.68098600  0.83040700  1
  F  F44  1  0.86621100  0.37274000  0.31373500  1
  F  F45  1  0.44731500  0.31373500  0.37274000  1
  F  F46  1  0.87726000  0.38378900  0.80268500  1
  F  F47  1  0.93626500  0.80268500  0.38378900  1
  F  F48  1  0.66640900  0.74636000  0.34693400  1
  F  F49  1  0.24029700  0.34693400  0.74636000  1
  F  F50  1  0.50364000  0.58359100  0.00970300  1
  F  F51  1  0.90306600  0.00970300  0.58359100  1
  F  F52  1  0.10711500  0.07514900  0.34465200  1
  F  F53  1  0.47308500  0.34465200  0.07514900  1
  F  F54  1  0.17485100  0.14288500  0.77691500  1
  F  F55  1  0.90534800  0.77691500  0.14288500  1
  F  F56  1  0.34635100  0.11243300  0.98309300  1
  F  F57  1  0.55812300  0.98309300  0.11243300  1
  F  F58  1  0.13756700  0.90364900  0.69187700  1
  F  F59  1  0.26690700  0.69187700  0.90364900  1
