# generated using pymatgen
data_Ca3SnF6
_symmetry_space_group_name_H-M   'P 1'
_cell_length_a   8.27210275
_cell_length_b   8.87522729
_cell_length_c   7.66261168
_cell_angle_alpha   59.91007411
_cell_angle_beta   154.28566550
_cell_angle_gamma   128.22505383
_symmetry_Int_Tables_number   1
_chemical_formula_structural   Ca3SnF6
_chemical_formula_sum   'Ca3 Sn1 F6'
_cell_volume   189.13555245
_cell_formula_units_Z   1
loop_
 _symmetry_equiv_pos_site_id
 _symmetry_equiv_pos_as_xyz
  1  'x, y, z'
loop_
 _atom_site_type_symbol
 _atom_site_label
 _atom_site_symmetry_multiplicity
 _atom_site_fract_x
 _atom_site_fract_y
 _atom_site_fract_z
 _atom_site_occupancy
  Ca  Ca0  1  0.00000000  0.00000000  0.50000000  1
  Ca  Ca1  1  0.50000000  0.50000000  0.00000000  1
  Ca  Ca2  1  0.00000000  0.50000000  0.00000000  1
  Sn  Sn3  1  0.00000000  0.00000000  0.00000000  1
  F  F4  1  0.69290500  0.18454800  0.98052300  1
  F  F5  1  0.30709500  0.81545200  0.01947700  1
  F  F6  1  0.18836600  0.19370000  0.80355200  1
  F  F7  1  0.81163400  0.80630000  0.19644800  1
  F  F8  1  0.51519400  0.54410800  0.68403700  1
  F  F9  1  0.48480600  0.45589200  0.31596300  1
