# generated using pymatgen
data_Ca2B8O15
_symmetry_space_group_name_H-M   'P 1'
_cell_length_a   6.49791775
_cell_length_b   9.44469418
_cell_length_c   10.16406156
_cell_angle_alpha   117.00568070
_cell_angle_beta   90.51809366
_cell_angle_gamma   99.89107868
_symmetry_Int_Tables_number   1
_chemical_formula_structural   Ca2B8O15
_chemical_formula_sum   'Ca4 B16 O30'
_cell_volume   544.80173682
_cell_formula_units_Z   2
loop_
 _symmetry_equiv_pos_site_id
 _symmetry_equiv_pos_as_xyz
  1  'x, y, z'
loop_
 _atom_site_type_symbol
 _atom_site_label
 _atom_site_symmetry_multiplicity
 _atom_site_fract_x
 _atom_site_fract_y
 _atom_site_fract_z
 _atom_site_occupancy
  Ca  Ca0  1  0.51917600  0.18245500  0.71998500  1
  Ca  Ca1  1  0.48082400  0.81754500  0.28001500  1
  Ca  Ca2  1  0.84011600  0.18521900  0.17206500  1
  Ca  Ca3  1  0.15988400  0.81478100  0.82793600  1
  B  B4  1  0.24820200  0.06491000  0.21851500  1
  B  B5  1  0.75179800  0.93509000  0.78148500  1
  B  B6  1  0.58097700  0.40450000  0.12654100  1
  B  B7  1  0.41902300  0.59550000  0.87345900  1
  B  B8  1  0.23549800  0.46864100  0.15696800  1
  B  B9  1  0.76450200  0.53135900  0.84303200  1
  B  B10  1  0.20113900  0.26082100  0.47829200  1
  B  B11  1  0.79886100  0.73917900  0.52170800  1
  B  B12  1  0.07492300  0.38876300  0.73589700  1
  B  B13  1  0.92507700  0.61123700  0.26410300  1
  B  B14  1  0.05470800  0.15539900  0.80790200  1
  B  B15  1  0.94529200  0.84460100  0.19209800  1
  B  B16  1  0.26958300  0.17418200  0.02476600  1
  B  B17  1  0.73041700  0.82581800  0.97523400  1
  B  B18  1  0.55440500  0.18239100  0.42753300  1
  B  B19  1  0.44559500  0.81760900  0.57246700  1
  O  O20  1  0.45164900  0.51633000  0.15233500  1
  O  O21  1  0.54835100  0.48367000  0.84766500  1
  O  O22  1  0.49896700  0.24125800  0.04816800  1
  O  O23  1  0.50103300  0.75874200  0.95183200  1
  O  O24  1  0.14931300  0.30773300  0.10419100  1
  O  O25  1  0.85068700  0.69226700  0.89580900  1
  O  O26  1  0.13969200  0.59710600  0.21972900  1
  O  O27  1  0.86030800  0.40289400  0.78027100  1
  O  O28  1  0.65479000  0.08943400  0.47731400  1
  O  O29  1  0.34521000  0.91056600  0.52268600  1
  O  O30  1  0.21753500  0.05000200  0.07132600  1
  O  O31  1  0.78246500  0.94999800  0.92867400  1
  O  O32  1  0.15795900  0.90410500  0.21394300  1
  O  O33  1  0.84204100  0.09589500  0.78605700  1
  O  O34  1  0.14328900  0.19224100  0.32702900  1
  O  O35  1  0.85671100  0.80775900  0.67297100  1
  O  O36  1  0.39560600  0.24897800  0.52730300  1
  O  O37  1  0.60439400  0.75102200  0.47269700  1
  O  O38  1  0.06989900  0.33845600  0.57769400  1
  O  O39  1  0.93010100  0.66154400  0.42230600  1
  O  O40  1  0.19682100  0.09289700  0.86265700  1
  O  O41  1  0.80317900  0.90710300  0.13734300  1
  O  O42  1  0.71460700  0.30052200  0.41122100  1
  O  O43  1  0.28539300  0.69947800  0.58877900  1
  O  O44  1  0.47308500  0.09069900  0.26823800  1
  O  O45  1  0.52691500  0.90930100  0.73176200  1
  O  O46  1  0.78696000  0.44749500  0.17834400  1
  O  O47  1  0.21304000  0.55250500  0.82165600  1
  O  O48  1  0.15146100  0.27335200  0.77448500  1
  O  O49  1  0.84853900  0.72664800  0.22551500  1
