# generated using pymatgen
data_Ca8In3
_symmetry_space_group_name_H-M   'P 1'
_cell_length_a   9.58934500
_cell_length_b   9.69175997
_cell_length_c   9.75618036
_cell_angle_alpha   98.90777871
_cell_angle_beta   101.07144810
_cell_angle_gamma   119.56157181
_symmetry_Int_Tables_number   1
_chemical_formula_structural   Ca8In3
_chemical_formula_sum   'Ca16 In6'
_cell_volume   740.18463417
_cell_formula_units_Z   2
loop_
 _symmetry_equiv_pos_site_id
 _symmetry_equiv_pos_as_xyz
  1  'x, y, z'
loop_
 _atom_site_type_symbol
 _atom_site_label
 _atom_site_symmetry_multiplicity
 _atom_site_fract_x
 _atom_site_fract_y
 _atom_site_fract_z
 _atom_site_occupancy
  Ca  Ca0  1  0.29478300  0.94299300  0.78098600  1
  Ca  Ca1  1  0.86621400  0.58036000  0.76145800  1
  Ca  Ca2  1  0.03721800  0.38078500  0.22269600  1
  Ca  Ca3  1  0.80396200  0.17787400  0.46037400  1
  Ca  Ca4  1  0.66876500  0.75686000  0.21967200  1
  Ca  Ca5  1  0.37940200  0.82145400  0.44125000  1
  Ca  Ca6  1  0.25777500  0.65067100  0.00499600  1
  Ca  Ca7  1  0.21774800  0.28278900  0.75999000  1
  Ca  Ca8  1  0.41385600  0.10813900  0.21993000  1
  Ca  Ca9  1  0.11065100  0.03153600  0.41123800  1
  Ca  Ca10  1  0.87762100  0.58967200  0.40885000  1
  Ca  Ca11  1  0.00064600  0.00071200  0.00045600  1
  Ca  Ca12  1  0.56160700  0.72557500  0.81235800  1
  Ca  Ca13  1  0.79072600  0.16870200  0.81353100  1
  Ca  Ca14  1  0.45769100  0.47905100  0.46390800  1
  Ca  Ca15  1  0.63454000  0.38062300  0.00303800  1
  In  In16  1  0.84025800  0.88049800  0.61291900  1
  In  In17  1  0.66018900  0.04039700  0.08290600  1
  In  In18  1  0.01212600  0.72066200  0.13711700  1
  In  In19  1  0.16407200  0.54338000  0.61152400  1
  In  In20  1  0.33785400  0.38210200  0.11360300  1
  In  In21  1  0.50989500  0.21886600  0.61170100  1
