# generated using pymatgen
data_C4NCl2
_symmetry_space_group_name_H-M   'P 1'
_cell_length_a   6.48433900
_cell_length_b   6.68960200
_cell_length_c   13.35142415
_cell_angle_alpha   87.58521873
_cell_angle_beta   90.00000000
_cell_angle_gamma   90.00000000
_symmetry_Int_Tables_number   1
_chemical_formula_structural   C4NCl2
_chemical_formula_sum   'C16 N4 Cl8'
_cell_volume   578.63907375
_cell_formula_units_Z   4
loop_
 _symmetry_equiv_pos_site_id
 _symmetry_equiv_pos_as_xyz
  1  'x, y, z'
loop_
 _atom_site_type_symbol
 _atom_site_label
 _atom_site_symmetry_multiplicity
 _atom_site_fract_x
 _atom_site_fract_y
 _atom_site_fract_z
 _atom_site_occupancy
  C  C0  1  0.05491900  0.32328200  0.05520600  1
  C  C1  1  0.94508100  0.67671800  0.94479400  1
  C  C2  1  0.55491900  0.67671800  0.44479400  1
  C  C3  1  0.44508100  0.32328200  0.55520600  1
  C  C4  1  0.38192200  0.56425700  0.41656000  1
  C  C5  1  0.61807800  0.43574300  0.58344000  1
  C  C6  1  0.88192200  0.43574300  0.08344000  1
  C  C7  1  0.11807800  0.56425700  0.91656000  1
  C  C8  1  0.26129300  0.62829100  0.33201700  1
  C  C9  1  0.73870700  0.37170900  0.66798300  1
  C  C10  1  0.76129300  0.37170900  0.16798300  1
  C  C11  1  0.23870700  0.62829100  0.83201700  1
  C  C12  1  0.32768400  0.38749900  0.47178500  1
  C  C13  1  0.67231600  0.61250100  0.52821500  1
  C  C14  1  0.82768400  0.61250100  0.02821500  1
  C  C15  1  0.17231600  0.38749900  0.97178500  1
  N  N16  1  0.15933500  0.67813100  0.26316300  1
  N  N17  1  0.84066500  0.32186900  0.73683700  1
  N  N18  1  0.65933500  0.32186900  0.23683700  1
  N  N19  1  0.34066500  0.67813100  0.76316300  1
  Cl  Cl20  1  0.11928400  0.11046500  0.12291500  1
  Cl  Cl21  1  0.88071600  0.88953500  0.87708500  1
  Cl  Cl22  1  0.61928400  0.88953500  0.37708500  1
  Cl  Cl23  1  0.38071600  0.11046500  0.62291500  1
  Cl  Cl24  1  0.11967700  0.25193800  0.43570100  1
  Cl  Cl25  1  0.88032300  0.74806200  0.56429900  1
  Cl  Cl26  1  0.61967700  0.74806200  0.06429900  1
  Cl  Cl27  1  0.38032300  0.25193800  0.93570100  1
