# generated using pymatgen
data_BaTbCuBO5
_symmetry_space_group_name_H-M   'P 1'
_cell_length_a   5.48898400
_cell_length_b   5.48898400
_cell_length_c   7.53901700
_cell_angle_alpha   90.00000000
_cell_angle_beta   90.00000000
_cell_angle_gamma   90.00000000
_symmetry_Int_Tables_number   1
_chemical_formula_structural   BaTbCuBO5
_chemical_formula_sum   'Ba2 Tb2 Cu2 B2 O10'
_cell_volume   227.14263120
_cell_formula_units_Z   2
loop_
 _symmetry_equiv_pos_site_id
 _symmetry_equiv_pos_as_xyz
  1  'x, y, z'
loop_
 _atom_site_type_symbol
 _atom_site_label
 _atom_site_symmetry_multiplicity
 _atom_site_fract_x
 _atom_site_fract_y
 _atom_site_fract_z
 _atom_site_occupancy
  Ba  Ba0  1  0.00000000  0.00000000  0.00743300  1
  Ba  Ba1  1  0.50000000  0.50000000  0.00743300  1
  Tb  Tb2  1  0.00000000  0.00000000  0.51377000  1
  Tb  Tb3  1  0.50000000  0.50000000  0.51377000  1
  Cu  Cu4  1  0.50000000  0.00000000  0.72847700  1
  Cu  Cu5  1  0.00000000  0.50000000  0.72847700  1
  B  B6  1  0.50000000  0.00000000  0.25598600  1
  B  B7  1  0.00000000  0.50000000  0.25598600  1
  O  O8  1  0.15774000  0.65774000  0.34380300  1
  O  O9  1  0.84226000  0.34226000  0.34380300  1
  O  O10  1  0.34226000  0.15774000  0.34380300  1
  O  O11  1  0.65774000  0.84226000  0.34380300  1
  O  O12  1  0.50000000  0.00000000  0.07028700  1
  O  O13  1  0.00000000  0.50000000  0.07028700  1
  O  O14  1  0.25250900  0.75250900  0.70972100  1
  O  O15  1  0.74749100  0.24749100  0.70972100  1
  O  O16  1  0.24749100  0.25250900  0.70972100  1
  O  O17  1  0.75250900  0.74749100  0.70972100  1
