# generated using pymatgen
data_CrI7N6
_symmetry_space_group_name_H-M   'P 1'
_cell_length_a   9.30929955
_cell_length_b   9.30929955
_cell_length_c   6.98677535
_cell_angle_alpha   88.01656295
_cell_angle_beta   88.01656295
_cell_angle_gamma   81.93332462
_symmetry_Int_Tables_number   1
_chemical_formula_structural   CrI7N6
_chemical_formula_sum   'Cr1 I7 N6'
_cell_volume   598.87410911
_cell_formula_units_Z   1
loop_
 _symmetry_equiv_pos_site_id
 _symmetry_equiv_pos_as_xyz
  1  'x, y, z'
loop_
 _atom_site_type_symbol
 _atom_site_label
 _atom_site_symmetry_multiplicity
 _atom_site_fract_x
 _atom_site_fract_y
 _atom_site_fract_z
 _atom_site_occupancy
  Cr  Cr0  1  0.00000000  0.00000000  0.00000000  1
  I  I1  1  0.67333600  0.67333600  0.71866000  1
  I  I2  1  0.32666400  0.32666400  0.28134000  1
  I  I3  1  0.50000000  0.50000000  0.50000000  1
  I  I4  1  0.08075000  0.08075000  0.34637600  1
  I  I5  1  0.91925000  0.91925000  0.65362400  1
  I  I6  1  0.24462100  0.24462100  0.78618200  1
  I  I7  1  0.75537900  0.75537900  0.21381800  1
  N  N8  1  0.30928100  0.74662600  0.05407100  1
  N  N9  1  0.69071900  0.25337400  0.94592900  1
  N  N10  1  0.25337400  0.69071900  0.94592900  1
  N  N11  1  0.74662600  0.30928100  0.05407100  1
  N  N12  1  0.11715200  0.11715200  0.90405200  1
  N  N13  1  0.88284800  0.88284800  0.09594800  1
