# generated using pymatgen
data_Be3Tl2Co2F12
_symmetry_space_group_name_H-M   'P 1'
_cell_length_a   10.36131300
_cell_length_b   10.36131300
_cell_length_c   10.36131300
_cell_angle_alpha   90.00000000
_cell_angle_beta   90.00000000
_cell_angle_gamma   90.00000000
_symmetry_Int_Tables_number   1
_chemical_formula_structural   Be3Tl2Co2F12
_chemical_formula_sum   'Be12 Tl8 Co8 F48'
_cell_volume   1112.35748088
_cell_formula_units_Z   4
loop_
 _symmetry_equiv_pos_site_id
 _symmetry_equiv_pos_as_xyz
  1  'x, y, z'
loop_
 _atom_site_type_symbol
 _atom_site_label
 _atom_site_symmetry_multiplicity
 _atom_site_fract_x
 _atom_site_fract_y
 _atom_site_fract_z
 _atom_site_occupancy
  Be  Be0  1  0.01980300  0.21515600  0.37604400  1
  Be  Be1  1  0.48019700  0.78484400  0.87604400  1
  Be  Be2  1  0.98019700  0.71515600  0.12395600  1
  Be  Be3  1  0.37604400  0.01980300  0.21515600  1
  Be  Be4  1  0.51980300  0.28484400  0.62395600  1
  Be  Be5  1  0.87604400  0.48019700  0.78484400  1
  Be  Be6  1  0.12395600  0.98019700  0.71515600  1
  Be  Be7  1  0.62395600  0.51980300  0.28484400  1
  Be  Be8  1  0.21515600  0.37604400  0.01980300  1
  Be  Be9  1  0.71515600  0.12395600  0.98019700  1
  Be  Be10  1  0.28484400  0.62395600  0.51980300  1
  Be  Be11  1  0.78484400  0.87604400  0.48019700  1
  Tl  Tl12  1  0.04887000  0.04887000  0.04887000  1
  Tl  Tl13  1  0.45113000  0.95113000  0.54887000  1
  Tl  Tl14  1  0.95113000  0.54887000  0.45113000  1
  Tl  Tl15  1  0.54887000  0.45113000  0.95113000  1
  Tl  Tl16  1  0.81695900  0.81695900  0.81695900  1
  Tl  Tl17  1  0.68304100  0.18304100  0.31695900  1
  Tl  Tl18  1  0.18304100  0.31695900  0.68304100  1
  Tl  Tl19  1  0.31695900  0.68304100  0.18304100  1
  Co  Co20  1  0.33544200  0.33544200  0.33544200  1
  Co  Co21  1  0.16455800  0.66455800  0.83544200  1
  Co  Co22  1  0.66455800  0.83544200  0.16455800  1
  Co  Co23  1  0.83544200  0.16455800  0.66455800  1
  Co  Co24  1  0.59842800  0.59842800  0.59842800  1
  Co  Co25  1  0.90157200  0.40157200  0.09842800  1
  Co  Co26  1  0.40157200  0.09842800  0.90157200  1
  Co  Co27  1  0.09842800  0.90157200  0.40157200  1
  F  F28  1  0.01237300  0.06880000  0.32926900  1
  F  F29  1  0.48762700  0.93120000  0.82926900  1
  F  F30  1  0.98762700  0.56880000  0.17073100  1
  F  F31  1  0.32926900  0.01237300  0.06880000  1
  F  F32  1  0.51237300  0.43120000  0.67073100  1
  F  F33  1  0.82926900  0.48762700  0.93120000  1
  F  F34  1  0.17073100  0.98762700  0.56880000  1
  F  F35  1  0.67073100  0.51237300  0.43120000  1
  F  F36  1  0.06880000  0.32926900  0.01237300  1
  F  F37  1  0.56880000  0.17073100  0.98762700  1
  F  F38  1  0.43120000  0.67073100  0.51237300  1
  F  F39  1  0.93120000  0.82926900  0.48762700  1
  F  F40  1  0.26685400  0.49593100  0.43754500  1
  F  F41  1  0.23314600  0.50406900  0.93754500  1
  F  F42  1  0.73314600  0.99593100  0.06245500  1
  F  F43  1  0.43754500  0.26685400  0.49593100  1
  F  F44  1  0.76685400  0.00406900  0.56245500  1
  F  F45  1  0.93754500  0.23314600  0.50406900  1
  F  F46  1  0.06245500  0.73314600  0.99593100  1
  F  F47  1  0.56245500  0.76685400  0.00406900  1
  F  F48  1  0.49593100  0.43754500  0.26685400  1
  F  F49  1  0.99593100  0.06245500  0.73314600  1
  F  F50  1  0.00406900  0.56245500  0.76685400  1
  F  F51  1  0.50406900  0.93754500  0.23314600  1
  F  F52  1  0.04496100  0.80639400  0.22995700  1
  F  F53  1  0.45503900  0.19360600  0.72995700  1
  F  F54  1  0.95503900  0.30639400  0.27004300  1
  F  F55  1  0.22995700  0.04496100  0.80639400  1
  F  F56  1  0.54496100  0.69360600  0.77004300  1
  F  F57  1  0.72995700  0.45503900  0.19360600  1
  F  F58  1  0.27004300  0.95503900  0.30639400  1
  F  F59  1  0.77004300  0.54496100  0.69360600  1
  F  F60  1  0.80639400  0.22995700  0.04496100  1
  F  F61  1  0.30639400  0.27004300  0.95503900  1
  F  F62  1  0.69360600  0.77004300  0.54496100  1
  F  F63  1  0.19360600  0.72995700  0.45503900  1
  F  F64  1  0.16367200  0.25581500  0.40187400  1
  F  F65  1  0.33632800  0.74418500  0.90187400  1
  F  F66  1  0.83632800  0.75581500  0.09812600  1
  F  F67  1  0.40187400  0.16367200  0.25581500  1
  F  F68  1  0.66367200  0.24418500  0.59812600  1
  F  F69  1  0.90187400  0.33632800  0.74418500  1
  F  F70  1  0.09812600  0.83632800  0.75581500  1
  F  F71  1  0.59812600  0.66367200  0.24418500  1
  F  F72  1  0.25581500  0.40187400  0.16367200  1
  F  F73  1  0.75581500  0.09812600  0.83632800  1
  F  F74  1  0.24418500  0.59812600  0.66367200  1
  F  F75  1  0.74418500  0.90187400  0.33632800  1
