# generated using pymatgen
data_Be3Tl2Zn2F12
_symmetry_space_group_name_H-M   'P 1'
_cell_length_a   10.22472300
_cell_length_b   10.22472300
_cell_length_c   10.22472300
_cell_angle_alpha   90.00000000
_cell_angle_beta   90.00000000
_cell_angle_gamma   90.00000000
_symmetry_Int_Tables_number   1
_chemical_formula_structural   Be3Tl2Zn2F12
_chemical_formula_sum   'Be12 Tl8 Zn8 F48'
_cell_volume   1068.94326141
_cell_formula_units_Z   4
loop_
 _symmetry_equiv_pos_site_id
 _symmetry_equiv_pos_as_xyz
  1  'x, y, z'
loop_
 _atom_site_type_symbol
 _atom_site_label
 _atom_site_symmetry_multiplicity
 _atom_site_fract_x
 _atom_site_fract_y
 _atom_site_fract_z
 _atom_site_occupancy
  Be  Be0  1  0.01961100  0.21528200  0.37585600  1
  Be  Be1  1  0.48038900  0.78471800  0.87585600  1
  Be  Be2  1  0.98038900  0.71528200  0.12414400  1
  Be  Be3  1  0.37585600  0.01961100  0.21528200  1
  Be  Be4  1  0.51961100  0.28471800  0.62414400  1
  Be  Be5  1  0.87585600  0.48038900  0.78471800  1
  Be  Be6  1  0.12414400  0.98038900  0.71528200  1
  Be  Be7  1  0.62414400  0.51961100  0.28471800  1
  Be  Be8  1  0.21528200  0.37585600  0.01961100  1
  Be  Be9  1  0.71528200  0.12414400  0.98038900  1
  Be  Be10  1  0.28471800  0.62414400  0.51961100  1
  Be  Be11  1  0.78471800  0.87585600  0.48038900  1
  Tl  Tl12  1  0.04894000  0.04894000  0.04894000  1
  Tl  Tl13  1  0.45106000  0.95106000  0.54894000  1
  Tl  Tl14  1  0.95106000  0.54894000  0.45106000  1
  Tl  Tl15  1  0.54894000  0.45106000  0.95106000  1
  Tl  Tl16  1  0.81670800  0.81670800  0.81670800  1
  Tl  Tl17  1  0.68329200  0.18329200  0.31670800  1
  Tl  Tl18  1  0.18329200  0.31670800  0.68329200  1
  Tl  Tl19  1  0.31670800  0.68329200  0.18329200  1
  Zn  Zn20  1  0.33471700  0.33471700  0.33471700  1
  Zn  Zn21  1  0.16528300  0.66528300  0.83471700  1
  Zn  Zn22  1  0.66528300  0.83471700  0.16528300  1
  Zn  Zn23  1  0.83471700  0.16528300  0.66528300  1
  Zn  Zn24  1  0.59801700  0.59801700  0.59801700  1
  Zn  Zn25  1  0.90198300  0.40198300  0.09801700  1
  Zn  Zn26  1  0.40198300  0.09801700  0.90198300  1
  Zn  Zn27  1  0.09801700  0.90198300  0.40198300  1
  F  F28  1  0.01259300  0.06906700  0.32979000  1
  F  F29  1  0.48740700  0.93093300  0.82979000  1
  F  F30  1  0.98740700  0.56906700  0.17021000  1
  F  F31  1  0.32979000  0.01259300  0.06906700  1
  F  F32  1  0.51259300  0.43093300  0.67021000  1
  F  F33  1  0.82979000  0.48740700  0.93093300  1
  F  F34  1  0.17021000  0.98740700  0.56906700  1
  F  F35  1  0.67021000  0.51259300  0.43093300  1
  F  F36  1  0.06906700  0.32979000  0.01259300  1
  F  F37  1  0.56906700  0.17021000  0.98740700  1
  F  F38  1  0.43093300  0.67021000  0.51259300  1
  F  F39  1  0.93093300  0.82979000  0.48740700  1
  F  F40  1  0.26681700  0.49591200  0.43779500  1
  F  F41  1  0.23318300  0.50408800  0.93779500  1
  F  F42  1  0.73318300  0.99591200  0.06220500  1
  F  F43  1  0.43779500  0.26681700  0.49591200  1
  F  F44  1  0.76681700  0.00408800  0.56220500  1
  F  F45  1  0.93779500  0.23318300  0.50408800  1
  F  F46  1  0.06220500  0.73318300  0.99591200  1
  F  F47  1  0.56220500  0.76681700  0.00408800  1
  F  F48  1  0.49591200  0.43779500  0.26681700  1
  F  F49  1  0.99591200  0.06220500  0.73318300  1
  F  F50  1  0.00408800  0.56220500  0.76681700  1
  F  F51  1  0.50408800  0.93779500  0.23318300  1
  F  F52  1  0.04511100  0.80604300  0.23005400  1
  F  F53  1  0.45488900  0.19395700  0.73005400  1
  F  F54  1  0.95488900  0.30604300  0.26994600  1
  F  F55  1  0.23005400  0.04511100  0.80604300  1
  F  F56  1  0.54511100  0.69395700  0.76994600  1
  F  F57  1  0.73005400  0.45488900  0.19395700  1
  F  F58  1  0.26994600  0.95488900  0.30604300  1
  F  F59  1  0.76994600  0.54511100  0.69395700  1
  F  F60  1  0.80604300  0.23005400  0.04511100  1
  F  F61  1  0.30604300  0.26994600  0.95488900  1
  F  F62  1  0.69395700  0.76994600  0.54511100  1
  F  F63  1  0.19395700  0.73005400  0.45488900  1
  F  F64  1  0.16339800  0.25617800  0.40160800  1
  F  F65  1  0.33660200  0.74382200  0.90160800  1
  F  F66  1  0.83660200  0.75617800  0.09839200  1
  F  F67  1  0.40160800  0.16339800  0.25617800  1
  F  F68  1  0.66339800  0.24382200  0.59839200  1
  F  F69  1  0.90160800  0.33660200  0.74382200  1
  F  F70  1  0.09839200  0.83660200  0.75617800  1
  F  F71  1  0.59839200  0.66339800  0.24382200  1
  F  F72  1  0.25617800  0.40160800  0.16339800  1
  F  F73  1  0.75617800  0.09839200  0.83660200  1
  F  F74  1  0.24382200  0.59839200  0.66339800  1
  F  F75  1  0.74382200  0.90160800  0.33660200  1
