# generated using pymatgen
data_C3Br2O
_symmetry_space_group_name_H-M   'P 1'
_cell_length_a   6.86168100
_cell_length_b   9.52447500
_cell_length_c   10.12411967
_cell_angle_alpha   72.05078105
_cell_angle_beta   90.00000000
_cell_angle_gamma   90.00000000
_symmetry_Int_Tables_number   1
_chemical_formula_structural   C3Br2O
_chemical_formula_sum   'C12 Br8 O4'
_cell_volume   629.44826808
_cell_formula_units_Z   4
loop_
 _symmetry_equiv_pos_site_id
 _symmetry_equiv_pos_as_xyz
  1  'x, y, z'
loop_
 _atom_site_type_symbol
 _atom_site_label
 _atom_site_symmetry_multiplicity
 _atom_site_fract_x
 _atom_site_fract_y
 _atom_site_fract_z
 _atom_site_occupancy
  C  C0  1  0.42317600  0.85761900  0.57785400  1
  C  C1  1  0.57682400  0.14238100  0.42214600  1
  C  C2  1  0.92317600  0.14238100  0.92214600  1
  C  C3  1  0.07682400  0.85761900  0.07785400  1
  C  C4  1  0.33631100  0.99566800  0.59327600  1
  C  C5  1  0.66368900  0.00433200  0.40672400  1
  C  C6  1  0.83631100  0.00433200  0.90672400  1
  C  C7  1  0.16368900  0.99566800  0.09327600  1
  C  C8  1  0.92161900  0.86148100  0.99403800  1
  C  C9  1  0.07838100  0.13851900  0.00596200  1
  C  C10  1  0.42161900  0.13851900  0.50596200  1
  C  C11  1  0.57838100  0.86148100  0.49403800  1
  Br  Br12  1  0.30677900  0.68196000  0.68635200  1
  Br  Br13  1  0.69322100  0.31804000  0.31364800  1
  Br  Br14  1  0.80677900  0.31804000  0.81364800  1
  Br  Br15  1  0.19322100  0.68196000  0.18635200  1
  Br  Br16  1  0.30394600  0.30798800  0.52655700  1
  Br  Br17  1  0.69605400  0.69201200  0.47344300  1
  Br  Br18  1  0.80394600  0.69201200  0.97344300  1
  Br  Br19  1  0.19605400  0.30798800  0.02655700  1
  O  O20  1  0.20406900  0.99184400  0.67556900  1
  O  O21  1  0.79593100  0.00815600  0.32443100  1
  O  O22  1  0.70406900  0.00815600  0.82443100  1
  O  O23  1  0.29593100  0.99184400  0.17556900  1
