# generated using pymatgen
data_Ba5Yb2ZrAl2O13
_symmetry_space_group_name_H-M   'P 1'
_cell_length_a   6.01792171
_cell_length_b   6.01792171
_cell_length_c   25.45762300
_cell_angle_alpha   90.00000000
_cell_angle_beta   90.00000000
_cell_angle_gamma   119.99999686
_symmetry_Int_Tables_number   1
_chemical_formula_structural   Ba5Yb2ZrAl2O13
_chemical_formula_sum   'Ba10 Yb4 Zr2 Al4 O26'
_cell_volume   798.43867232
_cell_formula_units_Z   2
loop_
 _symmetry_equiv_pos_site_id
 _symmetry_equiv_pos_as_xyz
  1  'x, y, z'
loop_
 _atom_site_type_symbol
 _atom_site_label
 _atom_site_symmetry_multiplicity
 _atom_site_fract_x
 _atom_site_fract_y
 _atom_site_fract_z
 _atom_site_occupancy
  Ba  Ba0  1  0.33333300  0.66666700  0.54189300  1
  Ba  Ba1  1  0.66666700  0.33333300  0.45810700  1
  Ba  Ba2  1  0.66666700  0.33333300  0.04189300  1
  Ba  Ba3  1  0.33333300  0.66666700  0.95810700  1
  Ba  Ba4  1  0.00000000  0.00000000  0.13704100  1
  Ba  Ba5  1  0.00000000  0.00000000  0.86295900  1
  Ba  Ba6  1  0.00000000  0.00000000  0.63704100  1
  Ba  Ba7  1  0.00000000  0.00000000  0.36295900  1
  Ba  Ba8  1  0.33333300  0.66666700  0.25000000  1
  Ba  Ba9  1  0.66666700  0.33333300  0.75000000  1
  Yb  Yb10  1  0.33333300  0.66666700  0.10621000  1
  Yb  Yb11  1  0.66666700  0.33333300  0.89379000  1
  Yb  Yb12  1  0.66666700  0.33333300  0.60621000  1
  Yb  Yb13  1  0.33333300  0.66666700  0.39379000  1
  Zr  Zr14  1  0.00000000  0.00000000  0.00000000  1
  Zr  Zr15  1  0.00000000  0.00000000  0.50000000  1
  Al  Al16  1  0.33333300  0.66666700  0.68186000  1
  Al  Al17  1  0.66666700  0.33333300  0.31814000  1
  Al  Al18  1  0.66666700  0.33333300  0.18186000  1
  Al  Al19  1  0.33333300  0.66666700  0.81814000  1
  O  O20  1  0.50584500  0.01168900  0.16022700  1
  O  O21  1  0.49415500  0.98831100  0.83977300  1
  O  O22  1  0.98831100  0.49415500  0.16022700  1
  O  O23  1  0.49415500  0.98831100  0.66022700  1
  O  O24  1  0.01168900  0.50584500  0.83977300  1
  O  O25  1  0.50584500  0.01168900  0.33977300  1
  O  O26  1  0.50584500  0.49415500  0.16022700  1
  O  O27  1  0.01168900  0.50584500  0.66022700  1
  O  O28  1  0.49415500  0.50584500  0.83977300  1
  O  O29  1  0.98831100  0.49415500  0.33977300  1
  O  O30  1  0.49415500  0.50584500  0.66022700  1
  O  O31  1  0.50584500  0.49415500  0.33977300  1
  O  O32  1  0.16218500  0.32437000  0.04946500  1
  O  O33  1  0.83781500  0.67563000  0.95053500  1
  O  O34  1  0.67563000  0.83781500  0.04946500  1
  O  O35  1  0.83781500  0.67563000  0.54946500  1
  O  O36  1  0.32437000  0.16218500  0.95053500  1
  O  O37  1  0.16218500  0.32437000  0.45053500  1
  O  O38  1  0.16218500  0.83781500  0.04946500  1
  O  O39  1  0.32437000  0.16218500  0.54946500  1
  O  O40  1  0.83781500  0.16218500  0.95053500  1
  O  O41  1  0.67563000  0.83781500  0.45053500  1
  O  O42  1  0.83781500  0.16218500  0.54946500  1
  O  O43  1  0.16218500  0.83781500  0.45053500  1
  O  O44  1  0.33333300  0.66666700  0.75000000  1
  O  O45  1  0.66666700  0.33333300  0.25000000  1
