# generated using pymatgen
data_BaMnAlF7
_symmetry_space_group_name_H-M   'P 1'
_cell_length_a   7.42770522
_cell_length_b   7.42770522
_cell_length_c   14.70767261
_cell_angle_alpha   88.79267673
_cell_angle_beta   88.79267673
_cell_angle_gamma   41.69185678
_symmetry_Int_Tables_number   1
_chemical_formula_structural   BaMnAlF7
_chemical_formula_sum   'Ba4 Mn4 Al4 F28'
_cell_volume   539.56731581
_cell_formula_units_Z   4
loop_
 _symmetry_equiv_pos_site_id
 _symmetry_equiv_pos_as_xyz
  1  'x, y, z'
loop_
 _atom_site_type_symbol
 _atom_site_label
 _atom_site_symmetry_multiplicity
 _atom_site_fract_x
 _atom_site_fract_y
 _atom_site_fract_z
 _atom_site_occupancy
  Ba  Ba0  1  0.64983300  0.73008700  0.87825500  1
  Ba  Ba1  1  0.35016700  0.26991300  0.12174500  1
  Ba  Ba2  1  0.26991300  0.35016700  0.62174500  1
  Ba  Ba3  1  0.73008700  0.64983300  0.37825500  1
  Mn  Mn4  1  0.00000000  0.00000000  0.50000000  1
  Mn  Mn5  1  0.00000000  0.00000000  0.00000000  1
  Mn  Mn6  1  0.95249100  0.04750900  0.75000000  1
  Mn  Mn7  1  0.04750900  0.95249100  0.25000000  1
  Al  Al8  1  0.38627600  0.37322100  0.87492500  1
  Al  Al9  1  0.61372400  0.62677900  0.12507500  1
  Al  Al10  1  0.62677900  0.61372400  0.62507500  1
  Al  Al11  1  0.37322100  0.38627600  0.37492500  1
  F  F12  1  0.41521300  0.75050500  0.52426300  1
  F  F13  1  0.58478700  0.24949500  0.47573700  1
  F  F14  1  0.24949500  0.58478700  0.97573700  1
  F  F15  1  0.75050500  0.41521300  0.02426300  1
  F  F16  1  0.69082300  0.79856200  0.59054300  1
  F  F17  1  0.30917700  0.20143800  0.40945700  1
  F  F18  1  0.20143800  0.30917700  0.90945700  1
  F  F19  1  0.79856200  0.69082300  0.09054300  1
  F  F20  1  0.54694500  0.12809700  0.78100900  1
  F  F21  1  0.45305500  0.87190300  0.21899100  1
  F  F22  1  0.87190300  0.45305500  0.71899100  1
  F  F23  1  0.12809700  0.54694500  0.28100900  1
  F  F24  1  0.60323400  0.39409700  0.65649800  1
  F  F25  1  0.39676600  0.60590300  0.34350200  1
  F  F26  1  0.60590300  0.39676600  0.84350200  1
  F  F27  1  0.39409700  0.60323400  0.15649800  1
  F  F28  1  0.35177100  0.88797700  0.69899300  1
  F  F29  1  0.64822900  0.11202300  0.30100700  1
  F  F30  1  0.11202300  0.64822900  0.80100700  1
  F  F31  1  0.88797700  0.35177100  0.19899300  1
  F  F32  1  0.66453200  0.07818500  0.95084600  1
  F  F33  1  0.33546800  0.92181500  0.04915400  1
  F  F34  1  0.92181500  0.33546800  0.54915400  1
  F  F35  1  0.07818500  0.66453200  0.45084600  1
  F  F36  1  0.86046200  0.02004200  0.12889800  1
  F  F37  1  0.13953800  0.97995800  0.87110200  1
  F  F38  1  0.97995800  0.13953800  0.37110200  1
  F  F39  1  0.02004200  0.86046200  0.62889800  1
