# generated using pymatgen
data_CaU2Si2(HO3)4
_symmetry_space_group_name_H-M   'P 1'
_cell_length_a   7.03501800
_cell_length_b   6.85964900
_cell_length_c   13.65413568
_cell_angle_alpha   84.31159826
_cell_angle_beta   90.00000000
_cell_angle_gamma   90.00000000
_symmetry_Int_Tables_number   1
_chemical_formula_structural   CaU2Si2(HO3)4
_chemical_formula_sum   'Ca2 U4 Si4 H8 O24'
_cell_volume   655.67318387
_cell_formula_units_Z   2
loop_
 _symmetry_equiv_pos_site_id
 _symmetry_equiv_pos_as_xyz
  1  'x, y, z'
loop_
 _atom_site_type_symbol
 _atom_site_label
 _atom_site_symmetry_multiplicity
 _atom_site_fract_x
 _atom_site_fract_y
 _atom_site_fract_z
 _atom_site_occupancy
  Ca  Ca0  1  0.61930300  0.31972000  0.23738400  1
  Ca  Ca1  1  0.11930300  0.68028000  0.76261600  1
  U  U2  1  0.95512200  0.85805800  0.49820300  1
  U  U3  1  0.45512200  0.14194200  0.50179700  1
  U  U4  1  0.93959800  0.87952100  0.00857400  1
  U  U5  1  0.43959800  0.12047900  0.99142600  1
  Si  Si6  1  0.95332400  0.32498600  0.45095500  1
  Si  Si7  1  0.45332400  0.67501400  0.54904500  1
  Si  Si8  1  0.44709200  0.66117000  0.03860700  1
  Si  Si9  1  0.94709200  0.33883000  0.96139300  1
  H  H10  1  0.73807100  0.97641900  0.26471500  1
  H  H11  1  0.23807100  0.02358100  0.73528500  1
  H  H12  1  0.60066900  0.59081300  0.35476400  1
  H  H13  1  0.10066900  0.40918700  0.64523600  1
  H  H14  1  0.00122600  0.47215300  0.10933800  1
  H  H15  1  0.50122600  0.52784700  0.89066200  1
  H  H16  1  0.52299000  0.76194200  0.69599500  1
  H  H17  1  0.02299000  0.23805800  0.30400500  1
  O  O18  1  0.93508400  0.50757400  0.04733800  1
  O  O19  1  0.43508400  0.49242600  0.95266200  1
  O  O20  1  0.46868400  0.54168000  0.14240900  1
  O  O21  1  0.96868400  0.45832000  0.85759100  1
  O  O22  1  0.27668200  0.81788500  0.50913400  1
  O  O23  1  0.77668200  0.18211500  0.49086600  1
  O  O24  1  0.63256200  0.81602000  0.51184000  1
  O  O25  1  0.13256200  0.18398000  0.48816000  1
  O  O26  1  0.95341600  0.54065800  0.48709500  1
  O  O27  1  0.45341600  0.45934200  0.51290500  1
  O  O28  1  0.94237600  0.34323500  0.32440500  1
  O  O29  1  0.44237600  0.65676500  0.67559500  1
  O  O30  1  0.91676500  0.87692400  0.14003100  1
  O  O31  1  0.41676500  0.12307600  0.85996900  1
  O  O32  1  0.95730900  0.90578200  0.36370400  1
  O  O33  1  0.45730900  0.09421800  0.63629600  1
  O  O34  1  0.96666600  0.87774200  0.87473600  1
  O  O35  1  0.46666600  0.12225800  0.12526400  1
  O  O36  1  0.61727200  0.81683000  0.99890100  1
  O  O37  1  0.11727200  0.18317000  0.00109900  1
  O  O38  1  0.95483000  0.82134700  0.63652800  1
  O  O39  1  0.45483000  0.17865300  0.36347200  1
  O  O40  1  0.26196000  0.80959900  0.01913900  1
  O  O41  1  0.76196000  0.19040100  0.98086100  1
