# generated using pymatgen
data_Ca4(CuO2)5
_symmetry_space_group_name_H-M   'P 1'
_cell_length_a   8.78346881
_cell_length_b   8.78346881
_cell_length_c   6.51244800
_cell_angle_alpha   90.00000000
_cell_angle_beta   90.00000000
_cell_angle_gamma   105.13876023
_symmetry_Int_Tables_number   1
_chemical_formula_structural   Ca4(CuO2)5
_chemical_formula_sum   'Ca8 Cu10 O20'
_cell_volume   484.99468980
_cell_formula_units_Z   2
loop_
 _symmetry_equiv_pos_site_id
 _symmetry_equiv_pos_as_xyz
  1  'x, y, z'
loop_
 _atom_site_type_symbol
 _atom_site_label
 _atom_site_symmetry_multiplicity
 _atom_site_fract_x
 _atom_site_fract_y
 _atom_site_fract_z
 _atom_site_occupancy
  Ca  Ca0  1  0.81521300  0.68478700  0.75000000  1
  Ca  Ca1  1  0.18478700  0.31521300  0.25000000  1
  Ca  Ca2  1  0.68478700  0.81521300  0.25000000  1
  Ca  Ca3  1  0.31521300  0.18478700  0.75000000  1
  Ca  Ca4  1  0.56090700  0.93909300  0.75000000  1
  Ca  Ca5  1  0.43909300  0.06090700  0.25000000  1
  Ca  Ca6  1  0.93909300  0.56090700  0.25000000  1
  Ca  Ca7  1  0.06090700  0.43909300  0.75000000  1
  Cu  Cu8  1  0.00000000  0.00000000  0.00000000  1
  Cu  Cu9  1  0.50000000  0.50000000  0.50000000  1
  Cu  Cu10  1  0.60245200  0.39754800  0.98020600  1
  Cu  Cu11  1  0.39754800  0.60245200  0.01979400  1
  Cu  Cu12  1  0.10245200  0.89754800  0.51979400  1
  Cu  Cu13  1  0.89754800  0.10245200  0.48020600  1
  Cu  Cu14  1  0.70232900  0.29767100  0.46568800  1
  Cu  Cu15  1  0.29767100  0.70232900  0.53431200  1
  Cu  Cu16  1  0.20232900  0.79767100  0.03431200  1
  Cu  Cu17  1  0.79767100  0.20232900  0.96568800  1
  O  O18  1  0.38377200  0.38377200  0.00000000  1
  O  O19  1  0.61622800  0.61622800  0.00000000  1
  O  O20  1  0.11622800  0.11622800  0.50000000  1
  O  O21  1  0.88377200  0.88377200  0.50000000  1
  O  O22  1  0.57021900  0.17575600  0.94470800  1
  O  O23  1  0.42978100  0.82424400  0.05529200  1
  O  O24  1  0.32424400  0.92978100  0.55529200  1
  O  O25  1  0.17575600  0.57021900  0.05529200  1
  O  O26  1  0.67575600  0.07021900  0.44470800  1
  O  O27  1  0.82424400  0.42978100  0.94470800  1
  O  O28  1  0.92978100  0.32424400  0.44470800  1
  O  O29  1  0.07021900  0.67575600  0.55529200  1
  O  O30  1  0.71685600  0.52284400  0.46735000  1
  O  O31  1  0.28314400  0.47715600  0.53265000  1
  O  O32  1  0.97715600  0.78314400  0.03265000  1
  O  O33  1  0.52284400  0.71685600  0.53265000  1
  O  O34  1  0.02284400  0.21685600  0.96735000  1
  O  O35  1  0.47715600  0.28314400  0.46735000  1
  O  O36  1  0.78314400  0.97715600  0.96735000  1
  O  O37  1  0.21685600  0.02284400  0.03265000  1
