# generated using pymatgen
data_Ba3ZrF10
_symmetry_space_group_name_H-M   'P 1'
_cell_length_a   8.75439458
_cell_length_b   8.75439458
_cell_length_c   6.19156200
_cell_angle_alpha   90.00000000
_cell_angle_beta   90.00000000
_cell_angle_gamma   100.85817431
_symmetry_Int_Tables_number   1
_chemical_formula_structural   Ba3ZrF10
_chemical_formula_sum   'Ba6 Zr2 F20'
_cell_volume   466.02221504
_cell_formula_units_Z   2
loop_
 _symmetry_equiv_pos_site_id
 _symmetry_equiv_pos_as_xyz
  1  'x, y, z'
loop_
 _atom_site_type_symbol
 _atom_site_label
 _atom_site_symmetry_multiplicity
 _atom_site_fract_x
 _atom_site_fract_y
 _atom_site_fract_z
 _atom_site_occupancy
  Ba  Ba0  1  0.82656100  0.60270300  0.75000000  1
  Ba  Ba1  1  0.17343900  0.39729700  0.25000000  1
  Ba  Ba2  1  0.39729700  0.17343900  0.75000000  1
  Ba  Ba3  1  0.60270300  0.82656100  0.25000000  1
  Ba  Ba4  1  0.88842100  0.11157900  0.75000000  1
  Ba  Ba5  1  0.11157900  0.88842100  0.25000000  1
  Zr  Zr6  1  0.32215400  0.67784600  0.75000000  1
  Zr  Zr7  1  0.67784600  0.32215400  0.25000000  1
  F  F8  1  0.13818500  0.13818500  0.50000000  1
  F  F9  1  0.86181500  0.86181500  0.50000000  1
  F  F10  1  0.86181500  0.86181500  0.00000000  1
  F  F11  1  0.13818500  0.13818500  0.00000000  1
  F  F12  1  0.11513200  0.65121900  0.54076200  1
  F  F13  1  0.88486800  0.34878100  0.45923800  1
  F  F14  1  0.88486800  0.34878100  0.04076200  1
  F  F15  1  0.34878100  0.88486800  0.95923800  1
  F  F16  1  0.11513200  0.65121900  0.95923800  1
  F  F17  1  0.65121900  0.11513200  0.04076200  1
  F  F18  1  0.65121900  0.11513200  0.45923800  1
  F  F19  1  0.34878100  0.88486800  0.54076200  1
  F  F20  1  0.24629000  0.43148400  0.75000000  1
  F  F21  1  0.75371000  0.56851600  0.25000000  1
  F  F22  1  0.56851600  0.75371000  0.75000000  1
  F  F23  1  0.43148400  0.24629000  0.25000000  1
  F  F24  1  0.60249000  0.39751000  0.54194300  1
  F  F25  1  0.39751000  0.60249000  0.45805700  1
  F  F26  1  0.39751000  0.60249000  0.04194300  1
  F  F27  1  0.60249000  0.39751000  0.95805700  1
