# generated using pymatgen
data_BaAl3(PO7)2
_symmetry_space_group_name_H-M   'P 1'
_cell_length_a   7.04527858
_cell_length_b   7.04527858
_cell_length_c   7.47890480
_cell_angle_alpha   61.05759970
_cell_angle_beta   61.05759970
_cell_angle_gamma   59.95086892
_symmetry_Int_Tables_number   1
_chemical_formula_structural   BaAl3(PO7)2
_chemical_formula_sum   'Ba1 Al3 P2 O14'
_cell_volume   266.50997087
_cell_formula_units_Z   1
loop_
 _symmetry_equiv_pos_site_id
 _symmetry_equiv_pos_as_xyz
  1  'x, y, z'
loop_
 _atom_site_type_symbol
 _atom_site_label
 _atom_site_symmetry_multiplicity
 _atom_site_fract_x
 _atom_site_fract_y
 _atom_site_fract_z
 _atom_site_occupancy
  Ba  Ba0  1  0.15122500  0.15122500  0.17953600  1
  Al  Al1  1  0.14994800  0.65256400  0.68234100  1
  Al  Al2  1  0.65256400  0.14994800  0.68234100  1
  Al  Al3  1  0.15674800  0.15674800  0.67202200  1
  P  P4  1  0.45339700  0.45339700  0.28654300  1
  P  P5  1  0.84902800  0.84902800  0.07531000  1
  O  O6  1  0.90194100  0.90194100  0.60138400  1
  O  O7  1  0.76281700  0.76281700  0.32369600  1
  O  O8  1  0.29762100  0.66001200  0.37711400  1
  O  O9  1  0.66001200  0.29762100  0.37711400  1
  O  O10  1  0.54718100  0.54718100  0.04114200  1
  O  O11  1  0.89795000  0.23810600  0.60690200  1
  O  O12  1  0.23810600  0.89795000  0.60690200  1
  O  O13  1  0.40602800  0.40602800  0.75403000  1
  O  O14  1  0.99702000  0.99702000  0.99502800  1
  O  O15  1  0.30463900  0.30463900  0.36797300  1
  O  O16  1  0.06620900  0.40455600  0.75793000  1
  O  O17  1  0.40455600  0.06620900  0.75793000  1
  O  O18  1  0.00079600  0.64191300  0.98548000  1
  O  O19  1  0.64191300  0.00079600  0.98548000  1
