# generated using pymatgen
data_Ca2CoAs2(HO4)2
_symmetry_space_group_name_H-M   'P 1'
_cell_length_a   6.05065728
_cell_length_b   5.53221769
_cell_length_c   12.64515700
_cell_angle_alpha   90.00000000
_cell_angle_beta   90.00000000
_cell_angle_gamma   110.05426514
_symmetry_Int_Tables_number   1
_chemical_formula_structural   Ca2CoAs2(HO4)2
_chemical_formula_sum   'Ca4 Co2 As4 H4 O16'
_cell_volume   397.61423850
_cell_formula_units_Z   2
loop_
 _symmetry_equiv_pos_site_id
 _symmetry_equiv_pos_as_xyz
  1  'x, y, z'
loop_
 _atom_site_type_symbol
 _atom_site_label
 _atom_site_symmetry_multiplicity
 _atom_site_fract_x
 _atom_site_fract_y
 _atom_site_fract_z
 _atom_site_occupancy
  Ca  Ca0  1  0.58719800  0.03532100  0.81989100  1
  Ca  Ca1  1  0.41280200  0.96467900  0.31989100  1
  Ca  Ca2  1  0.54822600  0.48681500  0.56641300  1
  Ca  Ca3  1  0.45177400  0.51318500  0.06641300  1
  Co  Co4  1  0.06559500  0.78576100  0.98358300  1
  Co  Co5  1  0.93440500  0.21423900  0.48358300  1
  As  As6  1  0.20766000  0.81040400  0.57832200  1
  As  As7  1  0.79234000  0.18959600  0.07832200  1
  As  As8  1  0.76205200  0.64981600  0.32805100  1
  As  As9  1  0.23794800  0.35018400  0.82805100  1
  H  H10  1  0.78122400  0.23865000  0.58530200  1
  H  H11  1  0.21877600  0.76135000  0.08530200  1
  H  H12  1  0.94729900  0.57646400  0.70120500  1
  H  H13  1  0.05270100  0.42353600  0.20120500  1
  O  O14  1  0.73290600  0.86242000  0.42632400  1
  O  O15  1  0.26709400  0.13758000  0.92632400  1
  O  O16  1  0.80083900  0.42486800  0.98697700  1
  O  O17  1  0.19916100  0.57513200  0.48697700  1
  O  O18  1  0.42932200  0.81598000  0.66133100  1
  O  O19  1  0.57067800  0.18402000  0.16133100  1
  O  O20  1  0.94147100  0.72290200  0.65537100  1
  O  O21  1  0.05852900  0.27709800  0.15537100  1
  O  O22  1  0.77001400  0.91304800  0.01073600  1
  O  O23  1  0.22998600  0.08695200  0.51073600  1
  O  O24  1  0.32513000  0.64276200  0.89452800  1
  O  O25  1  0.67487000  0.35723800  0.39452800  1
  O  O26  1  0.96607000  0.28253600  0.77422900  1
  O  O27  1  0.03393000  0.71746400  0.27422900  1
  O  O28  1  0.55097400  0.66536500  0.23973800  1
  O  O29  1  0.44902600  0.33463500  0.73973800  1
