# generated using pymatgen
data_Ca4Rh6Pb19
_symmetry_space_group_name_H-M   'P 1'
_cell_length_a   10.43146305
_cell_length_b   10.43146305
_cell_length_c   10.43146305
_cell_angle_alpha   109.47122063
_cell_angle_beta   109.47122063
_cell_angle_gamma   109.47122063
_symmetry_Int_Tables_number   1
_chemical_formula_structural   Ca4Rh6Pb19
_chemical_formula_sum   'Ca4 Rh6 Pb19'
_cell_volume   873.80350298
_cell_formula_units_Z   1
loop_
 _symmetry_equiv_pos_site_id
 _symmetry_equiv_pos_as_xyz
  1  'x, y, z'
loop_
 _atom_site_type_symbol
 _atom_site_label
 _atom_site_symmetry_multiplicity
 _atom_site_fract_x
 _atom_site_fract_y
 _atom_site_fract_z
 _atom_site_occupancy
  Ca  Ca0  1  0.65922000  0.65922000  0.65922000  1
  Ca  Ca1  1  0.34078000  0.00000000  0.00000000  1
  Ca  Ca2  1  0.00000000  0.34078000  0.00000000  1
  Ca  Ca3  1  0.00000000  0.00000000  0.34078000  1
  Rh  Rh4  1  0.38331500  0.88331500  0.50000000  1
  Rh  Rh5  1  0.61668500  0.11668500  0.50000000  1
  Rh  Rh6  1  0.88331500  0.50000000  0.38331500  1
  Rh  Rh7  1  0.11668500  0.50000000  0.61668500  1
  Rh  Rh8  1  0.50000000  0.38331500  0.88331500  1
  Rh  Rh9  1  0.50000000  0.61668500  0.11668500  1
  Pb  Pb10  1  0.69202800  0.69202800  0.00000000  1
  Pb  Pb11  1  0.30797200  0.30797200  0.00000000  1
  Pb  Pb12  1  0.69202800  0.00000000  0.69202800  1
  Pb  Pb13  1  0.30797200  0.00000000  0.30797200  1
  Pb  Pb14  1  0.00000000  0.69202800  0.69202800  1
  Pb  Pb15  1  0.00000000  0.30797200  0.30797200  1
  Pb  Pb16  1  0.00000000  0.00000000  0.00000000  1
  Pb  Pb17  1  0.36909900  0.61627500  0.31897500  1
  Pb  Pb18  1  0.63090100  0.94987600  0.24717600  1
  Pb  Pb19  1  0.70270000  0.38372500  0.75282400  1
  Pb  Pb20  1  0.61627500  0.31897500  0.36909900  1
  Pb  Pb21  1  0.29730000  0.05012400  0.68102500  1
  Pb  Pb22  1  0.94987600  0.24717600  0.63090100  1
  Pb  Pb23  1  0.38372500  0.75282400  0.70270000  1
  Pb  Pb24  1  0.05012400  0.68102500  0.29730000  1
  Pb  Pb25  1  0.31897500  0.36909900  0.61627500  1
  Pb  Pb26  1  0.75282400  0.70270000  0.38372500  1
  Pb  Pb27  1  0.68102500  0.29730000  0.05012400  1
  Pb  Pb28  1  0.24717600  0.63090100  0.94987600  1
