# generated using pymatgen
data_Ba2Y2Mn4O11
_symmetry_space_group_name_H-M   'P 1'
_cell_length_a   3.85022600
_cell_length_b   8.18521601
_cell_length_c   8.77385433
_cell_angle_alpha   117.80900383
_cell_angle_beta   89.99986816
_cell_angle_gamma   90.00005776
_symmetry_Int_Tables_number   1
_chemical_formula_structural   Ba2Y2Mn4O11
_chemical_formula_sum   'Ba2 Y2 Mn4 O11'
_cell_volume   244.57293307
_cell_formula_units_Z   1
loop_
 _symmetry_equiv_pos_site_id
 _symmetry_equiv_pos_as_xyz
  1  'x, y, z'
loop_
 _atom_site_type_symbol
 _atom_site_label
 _atom_site_symmetry_multiplicity
 _atom_site_fract_x
 _atom_site_fract_y
 _atom_site_fract_z
 _atom_site_occupancy
  Ba  Ba0  1  0.49999000  0.50001900  0.49997300  1
  Ba  Ba1  1  0.49999000  0.99996900  0.49997700  1
  Y  Y2  1  0.49999100  0.22552700  0.99998200  1
  Y  Y3  1  0.49998900  0.77446200  0.99996700  1
  Mn  Mn4  1  0.99993800  0.38626400  0.77247600  1
  Mn  Mn5  1  0.00011700  0.61381300  0.22779000  1
  Mn  Mn6  1  0.00003400  0.12422600  0.24847400  1
  Mn  Mn7  1  0.00005000  0.87575300  0.75158900  1
  O  O8  1  0.49999700  0.41215200  0.82427300  1
  O  O9  1  0.49997700  0.58782700  0.17565500  1
  O  O10  1  0.50001900  0.11215200  0.22426500  1
  O  O11  1  0.49997800  0.88784100  0.77569700  1
  O  O12  1  0.99999500  0.24851400  0.49704300  1
  O  O13  1  0.99998700  0.75149400  0.50294900  1
  O  O14  1  0.99998700  0.36589200  0.19858600  1
  O  O15  1  0.99999100  0.63409300  0.80135300  1
  O  O16  1  0.99998700  0.83272900  0.19857800  1
  O  O17  1  0.99999200  0.16726000  0.80135900  1
  O  O18  1  0.99998900  0.00001300  0.00001500  1
