# generated using pymatgen
data_BaNaPO4
_symmetry_space_group_name_H-M   'P 1'
_cell_length_a   5.53433000
_cell_length_b   7.72701800
_cell_length_c   10.26096800
_cell_angle_alpha   90.00000000
_cell_angle_beta   90.00000000
_cell_angle_gamma   90.00000000
_symmetry_Int_Tables_number   1
_chemical_formula_structural   BaNaPO4
_chemical_formula_sum   'Ba4 Na4 P4 O16'
_cell_volume   438.79867626
_cell_formula_units_Z   4
loop_
 _symmetry_equiv_pos_site_id
 _symmetry_equiv_pos_as_xyz
  1  'x, y, z'
loop_
 _atom_site_type_symbol
 _atom_site_label
 _atom_site_symmetry_multiplicity
 _atom_site_fract_x
 _atom_site_fract_y
 _atom_site_fract_z
 _atom_site_occupancy
  Ba  Ba0  1  0.25000000  0.99211300  0.19598000  1
  Ba  Ba1  1  0.75000000  0.00788700  0.80402000  1
  Ba  Ba2  1  0.75000000  0.50788700  0.69598000  1
  Ba  Ba3  1  0.25000000  0.49211300  0.30402000  1
  Na  Na4  1  0.25000000  0.66833900  0.94729500  1
  Na  Na5  1  0.75000000  0.33166100  0.05270500  1
  Na  Na6  1  0.75000000  0.83166100  0.44729500  1
  Na  Na7  1  0.25000000  0.16833900  0.55270500  1
  P  P8  1  0.25000000  0.73707900  0.57672900  1
  P  P9  1  0.75000000  0.26292100  0.42327100  1
  P  P10  1  0.75000000  0.76292100  0.07672900  1
  P  P11  1  0.25000000  0.23707900  0.92327100  1
  O  O12  1  0.01853000  0.80787700  0.64365900  1
  O  O13  1  0.98147000  0.19212300  0.35634100  1
  O  O14  1  0.98147000  0.69212300  0.14365900  1
  O  O15  1  0.51853000  0.19212300  0.35634100  1
  O  O16  1  0.01853000  0.30787700  0.85634100  1
  O  O17  1  0.48147000  0.80787700  0.64365900  1
  O  O18  1  0.48147000  0.30787700  0.85634100  1
  O  O19  1  0.51853000  0.69212300  0.14365900  1
  O  O20  1  0.25000000  0.53545800  0.58212800  1
  O  O21  1  0.75000000  0.46454200  0.41787200  1
  O  O22  1  0.75000000  0.96454200  0.08212800  1
  O  O23  1  0.25000000  0.03545800  0.91787200  1
  O  O24  1  0.25000000  0.30004800  0.06860000  1
  O  O25  1  0.75000000  0.69995200  0.93140000  1
  O  O26  1  0.75000000  0.19995200  0.56860000  1
  O  O27  1  0.25000000  0.80004800  0.43140000  1
