# generated using pymatgen
data_C12BrF9
_symmetry_space_group_name_H-M   'P 1'
_cell_length_a   8.06831174
_cell_length_b   12.71757778
_cell_length_c   23.68557553
_cell_angle_alpha   90.00000000
_cell_angle_beta   90.00000000
_cell_angle_gamma   90.00000000
_symmetry_Int_Tables_number   1
_chemical_formula_structural   C12BrF9
_chemical_formula_sum   'C96 Br8 F72'
_cell_volume   2430.36226998
_cell_formula_units_Z   8
loop_
 _symmetry_equiv_pos_site_id
 _symmetry_equiv_pos_as_xyz
  1  'x, y, z'
loop_
 _atom_site_type_symbol
 _atom_site_label
 _atom_site_symmetry_multiplicity
 _atom_site_fract_x
 _atom_site_fract_y
 _atom_site_fract_z
 _atom_site_occupancy
  C  C0  1  0.17652333  0.10008171  0.03894266  1
  C  C1  1  0.82347667  0.89991829  0.96105734  1
  C  C2  1  0.32347667  0.89991829  0.53894266  1
  C  C3  1  0.82347667  0.60008171  0.46105734  1
  C  C4  1  0.67652333  0.10008171  0.46105734  1
  C  C5  1  0.17652333  0.39991829  0.53894266  1
  C  C6  1  0.67652333  0.39991829  0.96105734  1
  C  C7  1  0.32347667  0.60008171  0.03894266  1
  C  C8  1  0.38645559  0.04737131  0.10447833  1
  C  C9  1  0.61354441  0.95262869  0.89552167  1
  C  C10  1  0.11354441  0.95262869  0.60447833  1
  C  C11  1  0.61354441  0.54737131  0.39552167  1
  C  C12  1  0.88645559  0.04737131  0.39552167  1
  C  C13  1  0.38645559  0.45262869  0.60447833  1
  C  C14  1  0.88645559  0.45262869  0.89552167  1
  C  C15  1  0.11354441  0.54737131  0.10447833  1
  C  C16  1  0.08764287  0.01547159  0.13022429  1
  C  C17  1  0.91235713  0.98452841  0.86977571  1
  C  C18  1  0.41235713  0.98452841  0.63022429  1
  C  C19  1  0.91235713  0.51547159  0.36977571  1
  C  C20  1  0.58764287  0.01547159  0.36977571  1
  C  C21  1  0.08764287  0.48452841  0.63022429  1
  C  C22  1  0.58764287  0.48452841  0.86977571  1
  C  C23  1  0.41235713  0.51547159  0.13022429  1
  C  C24  1  0.44550596  0.40775629  0.13256381  1
  C  C25  1  0.55449404  0.59224371  0.86743619  1
  C  C26  1  0.05449404  0.59224371  0.63256381  1
  C  C27  1  0.55449404  0.90775629  0.36743619  1
  C  C28  1  0.94550596  0.40775629  0.36743619  1
  C  C29  1  0.44550596  0.09224371  0.63256381  1
  C  C30  1  0.94550596  0.09224371  0.86743619  1
  C  C31  1  0.05449404  0.90775629  0.13256381  1
  C  C32  1  0.49599146  0.08201389  0.33403752  1
  C  C33  1  0.50400854  0.91798611  0.66596248  1
  C  C34  1  0.00400854  0.91798611  0.83403752  1
  C  C35  1  0.50400854  0.58201389  0.16596248  1
  C  C36  1  0.99599146  0.08201389  0.16596248  1
  C  C37  1  0.49599146  0.41798611  0.83403752  1
  C  C38  1  0.99599146  0.41798611  0.66596248  1
  C  C39  1  0.00400854  0.58201389  0.33403752  1
  C  C40  1  0.00902703  0.08366646  0.43221538  1
  C  C41  1  0.99097297  0.91633354  0.56778462  1
  C  C42  1  0.49097297  0.91633354  0.93221538  1
  C  C43  1  0.99097297  0.58366646  0.06778462  1
  C  C44  1  0.50902703  0.08366646  0.06778462  1
  C  C45  1  0.00902703  0.41633354  0.93221538  1
  C  C46  1  0.50902703  0.41633354  0.56778462  1
  C  C47  1  0.49097297  0.58366646  0.43221538  1
  C  C48  1  0.46379010  0.12718590  0.01593578  1
  C  C49  1  0.53620990  0.87281410  0.98406422  1
  C  C50  1  0.03620990  0.87281410  0.51593578  1
  C  C51  1  0.53620990  0.62718590  0.48406422  1
  C  C52  1  0.96379010  0.12718590  0.48406422  1
  C  C53  1  0.46379010  0.37281410  0.51593578  1
  C  C54  1  0.96379010  0.37281410  0.98406422  1
  C  C55  1  0.03620990  0.62718590  0.01593578  1
  C  C56  1  0.37787780  0.04061324  0.29700857  1
  C  C57  1  0.62212220  0.95938676  0.70299143  1
  C  C58  1  0.12212220  0.95938676  0.79700857  1
  C  C59  1  0.62212220  0.54061324  0.20299143  1
  C  C60  1  0.87787780  0.04061324  0.20299143  1
  C  C61  1  0.37787780  0.45938676  0.79700857  1
  C  C62  1  0.87787780  0.45938676  0.70299143  1
  C  C63  1  0.12212220  0.54061324  0.29700857  1
  C  C64  1  0.15199146  0.43250462  0.29514686  1
  C  C65  1  0.84800854  0.56749538  0.70485314  1
  C  C66  1  0.34800854  0.56749538  0.79514686  1
  C  C67  1  0.84800854  0.93250462  0.20485314  1
  C  C68  1  0.65199146  0.43250462  0.20485314  1
  C  C69  1  0.15199146  0.06749538  0.79514686  1
  C  C70  1  0.65199146  0.06749538  0.70485314  1
  C  C71  1  0.34800854  0.93250462  0.29514686  1
  C  C72  1  0.21773448  0.05529814  0.09118011  1
  C  C73  1  0.78226552  0.94470186  0.90881989  1
  C  C74  1  0.28226552  0.94470186  0.59118011  1
  C  C75  1  0.78226552  0.55529814  0.40881989  1
  C  C76  1  0.71773448  0.05529814  0.40881989  1
  C  C77  1  0.21773448  0.44470186  0.59118011  1
  C  C78  1  0.71773448  0.44470186  0.90881989  1
  C  C79  1  0.28226552  0.55529814  0.09118011  1
  C  C80  1  0.29716654  0.13540358  0.00123705  1
  C  C81  1  0.70283346  0.86459642  0.99876295  1
  C  C82  1  0.20283346  0.86459642  0.50123705  1
  C  C83  1  0.70283346  0.63540358  0.49876295  1
  C  C84  1  0.79716654  0.13540358  0.49876295  1
  C  C85  1  0.29716654  0.36459642  0.50123705  1
  C  C86  1  0.79716654  0.36459642  0.99876295  1
  C  C87  1  0.20283346  0.63540358  0.00123705  1
  C  C88  1  0.06359497  0.36550225  0.33066755  1
  C  C89  1  0.93640503  0.63449775  0.66933245  1
  C  C90  1  0.43640503  0.63449775  0.83066755  1
  C  C91  1  0.93640503  0.86550225  0.16933245  1
  C  C92  1  0.56359497  0.36550225  0.16933245  1
  C  C93  1  0.06359497  0.13449775  0.83066755  1
  C  C94  1  0.56359497  0.13449775  0.66933245  1
  C  C95  1  0.43640503  0.86550225  0.33066755  1
  Br  Br96  1  0.03340315  0.22814238  0.16611420  1
  Br  Br97  1  0.96659685  0.77185762  0.83388580  1
  Br  Br98  1  0.46659685  0.77185762  0.66611420  1
  Br  Br99  1  0.96659685  0.72814238  0.33388580  1
  Br  Br100  1  0.53340315  0.22814238  0.33388580  1
  Br  Br101  1  0.03340315  0.27185762  0.66611420  1
  Br  Br102  1  0.53340315  0.27185762  0.83388580  1
  Br  Br103  1  0.46659685  0.72814238  0.16611420  1
  F  F104  1  0.08882334  0.26100984  0.32893902  1
  F  F105  1  0.91117666  0.73899016  0.67106098  1
  F  F106  1  0.41117666  0.73899016  0.82893902  1
  F  F107  1  0.91117666  0.76100984  0.17106098  1
  F  F108  1  0.58882334  0.26100984  0.17106098  1
  F  F109  1  0.08882334  0.23899016  0.82893902  1
  F  F110  1  0.58882334  0.23899016  0.67106098  1
  F  F111  1  0.41117666  0.76100984  0.32893902  1
  F  F112  1  0.25364468  0.32400150  0.45073844  1
  F  F113  1  0.74635532  0.67599850  0.54926156  1
  F  F114  1  0.24635532  0.67599850  0.95073844  1
  F  F115  1  0.74635532  0.82400150  0.04926156  1
  F  F116  1  0.75364468  0.32400150  0.04926156  1
  F  F117  1  0.25364468  0.17599850  0.95073844  1
  F  F118  1  0.75364468  0.17599850  0.54926156  1
  F  F119  1  0.24635532  0.82400150  0.45073844  1
  F  F120  1  0.01589393  0.10890263  0.02363307  1
  F  F121  1  0.98410607  0.89109737  0.97636693  1
  F  F122  1  0.48410607  0.89109737  0.52363307  1
  F  F123  1  0.98410607  0.60890263  0.47636693  1
  F  F124  1  0.51589393  0.10890263  0.47636693  1
  F  F125  1  0.01589393  0.39109737  0.52363307  1
  F  F126  1  0.51589393  0.39109737  0.97636693  1
  F  F127  1  0.48410607  0.60890263  0.02363307  1
  F  F128  1  0.17058361  0.07514549  0.41867339  1
  F  F129  1  0.82941639  0.92485451  0.58132661  1
  F  F130  1  0.32941639  0.92485451  0.91867339  1
  F  F131  1  0.82941639  0.57514549  0.08132661  1
  F  F132  1  0.67058361  0.07514549  0.08132661  1
  F  F133  1  0.17058361  0.42485451  0.91867339  1
  F  F134  1  0.67058361  0.42485451  0.58132661  1
  F  F135  1  0.32941639  0.57514549  0.41867339  1
  F  F136  1  0.08218684  0.34053027  0.02020954  1
  F  F137  1  0.91781316  0.65946973  0.97979046  1
  F  F138  1  0.41781316  0.65946973  0.52020954  1
  F  F139  1  0.91781316  0.84053027  0.47979046  1
  F  F140  1  0.58218684  0.34053027  0.47979046  1
  F  F141  1  0.08218684  0.15946973  0.52020954  1
  F  F142  1  0.58218684  0.15946973  0.97979046  1
  F  F143  1  0.41781316  0.84053027  0.02020954  1
  F  F144  1  0.29052985  0.10372941  0.26235087  1
  F  F145  1  0.70947015  0.89627059  0.73764913  1
  F  F146  1  0.20947015  0.89627059  0.76235087  1
  F  F147  1  0.70947015  0.60372941  0.23764913  1
  F  F148  1  0.79052985  0.10372941  0.23764913  1
  F  F149  1  0.29052985  0.39627059  0.76235087  1
  F  F150  1  0.79052985  0.39627059  0.73764913  1
  F  F151  1  0.20947015  0.60372941  0.26235087  1
  F  F152  1  0.36295920  0.34074971  0.09827111  1
  F  F153  1  0.63704080  0.65925029  0.90172889  1
  F  F154  1  0.13704080  0.65925029  0.59827111  1
  F  F155  1  0.63704080  0.84074971  0.40172889  1
  F  F156  1  0.86295920  0.34074971  0.40172889  1
  F  F157  1  0.36295920  0.15925029  0.59827111  1
  F  F158  1  0.86295920  0.15925029  0.90172889  1
  F  F159  1  0.13704080  0.84074971  0.09827111  1
  F  F160  1  0.43628255  0.00405493  0.15388659  1
  F  F161  1  0.56371745  0.99594507  0.84611341  1
  F  F162  1  0.06371745  0.99594507  0.65388659  1
  F  F163  1  0.56371745  0.50405493  0.34611341  1
  F  F164  1  0.93628255  0.00405493  0.34611341  1
  F  F165  1  0.43628255  0.49594507  0.65388659  1
  F  F166  1  0.93628255  0.49594507  0.84611341  1
  F  F167  1  0.06371745  0.50405493  0.15388659  1
  F  F168  1  0.26536844  0.39310811  0.25904337  1
  F  F169  1  0.73463156  0.60689189  0.74095663  1
  F  F170  1  0.23463156  0.60689189  0.75904337  1
  F  F171  1  0.73463156  0.89310811  0.24095663  1
  F  F172  1  0.76536844  0.39310811  0.24095663  1
  F  F173  1  0.26536844  0.10689189  0.75904337  1
  F  F174  1  0.76536844  0.10689189  0.74095663  1
  F  F175  1  0.23463156  0.89310811  0.25904337  1
