# generated using pymatgen
data_BaFe2F7
_symmetry_space_group_name_H-M   'P 1'
_cell_length_a   11.13056700
_cell_length_b   5.58590000
_cell_length_c   9.22559020
_cell_angle_alpha   85.57207111
_cell_angle_beta   90.00000000
_cell_angle_gamma   90.00000000
_symmetry_Int_Tables_number   1
_chemical_formula_structural   BaFe2F7
_chemical_formula_sum   'Ba4 Fe8 F28'
_cell_volume   571.88196363
_cell_formula_units_Z   4
loop_
 _symmetry_equiv_pos_site_id
 _symmetry_equiv_pos_as_xyz
  1  'x, y, z'
loop_
 _atom_site_type_symbol
 _atom_site_label
 _atom_site_symmetry_multiplicity
 _atom_site_fract_x
 _atom_site_fract_y
 _atom_site_fract_z
 _atom_site_occupancy
  Ba  Ba0  1  0.66908200  0.77191700  0.54228500  1
  Ba  Ba1  1  0.33091800  0.22808300  0.45771500  1
  Ba  Ba2  1  0.16908200  0.22808300  0.95771500  1
  Ba  Ba3  1  0.83091800  0.77191700  0.04228500  1
  Fe  Fe4  1  0.06363400  0.81676300  0.61646700  1
  Fe  Fe5  1  0.93636600  0.18323700  0.38353300  1
  Fe  Fe6  1  0.56363400  0.18323700  0.88353300  1
  Fe  Fe7  1  0.43636600  0.81676300  0.11646700  1
  Fe  Fe8  1  0.37923900  0.69333400  0.73550500  1
  Fe  Fe9  1  0.62076100  0.30666600  0.26449500  1
  Fe  Fe10  1  0.87923900  0.30666600  0.76449500  1
  Fe  Fe11  1  0.12076100  0.69333400  0.23550500  1
  F  F12  1  0.89974000  0.85980400  0.50910500  1
  F  F13  1  0.10026000  0.14019600  0.49089500  1
  F  F14  1  0.39974000  0.14019600  0.99089500  1
  F  F15  1  0.60026000  0.85980400  0.00910500  1
  F  F16  1  0.28475500  0.40770000  0.71570500  1
  F  F17  1  0.71524500  0.59230000  0.28429500  1
  F  F18  1  0.78475500  0.59230000  0.78429500  1
  F  F19  1  0.21524500  0.40770000  0.21570500  1
  F  F20  1  0.48407600  0.98679100  0.72156300  1
  F  F21  1  0.51592400  0.01320900  0.27843700  1
  F  F22  1  0.98407600  0.01320900  0.77843700  1
  F  F23  1  0.01592400  0.98679100  0.22156300  1
  F  F24  1  0.02881000  0.49615200  0.74752100  1
  F  F25  1  0.97119000  0.50384800  0.25247900  1
  F  F26  1  0.52881000  0.50384800  0.75247900  1
  F  F27  1  0.47119000  0.49615200  0.24752100  1
  F  F28  1  0.23560300  0.89903900  0.71424800  1
  F  F29  1  0.76439700  0.10096100  0.28575200  1
  F  F30  1  0.73560300  0.10096100  0.78575200  1
  F  F31  1  0.26439700  0.89903900  0.21424800  1
  F  F32  1  0.40361700  0.71689500  0.52433200  1
  F  F33  1  0.59638300  0.28310500  0.47566800  1
  F  F34  1  0.90361700  0.28310500  0.97566800  1
  F  F35  1  0.09638300  0.71689500  0.02433200  1
  F  F36  1  0.35498900  0.65590300  0.94625100  1
  F  F37  1  0.64501100  0.34409700  0.05374900  1
  F  F38  1  0.85498900  0.34409700  0.55374900  1
  F  F39  1  0.14501100  0.65590300  0.44625100  1
