# generated using pymatgen
data_Ba2HoCoCu2O7
_symmetry_space_group_name_H-M   'P 1'
_cell_length_a   3.84925100
_cell_length_b   3.91324600
_cell_length_c   11.82159700
_cell_angle_alpha   90.00000000
_cell_angle_beta   90.00000000
_cell_angle_gamma   90.00000000
_symmetry_Int_Tables_number   1
_chemical_formula_structural   Ba2HoCoCu2O7
_chemical_formula_sum   'Ba2 Ho1 Co1 Cu2 O7'
_cell_volume   178.06949677
_cell_formula_units_Z   1
loop_
 _symmetry_equiv_pos_site_id
 _symmetry_equiv_pos_as_xyz
  1  'x, y, z'
loop_
 _atom_site_type_symbol
 _atom_site_label
 _atom_site_symmetry_multiplicity
 _atom_site_fract_x
 _atom_site_fract_y
 _atom_site_fract_z
 _atom_site_occupancy
  Ba  Ba0  1  0.50000000  0.50000000  0.18435500  1
  Ba  Ba1  1  0.50000000  0.50000000  0.81564500  1
  Ho  Ho2  1  0.50000000  0.50000000  0.50000000  1
  Co  Co3  1  0.00000000  0.00000000  0.00000000  1
  Cu  Cu4  1  0.00000000  0.00000000  0.35945100  1
  Cu  Cu5  1  0.00000000  0.00000000  0.64054900  1
  O  O6  1  0.50000000  0.00000000  0.37931600  1
  O  O7  1  0.50000000  0.00000000  0.62068400  1
  O  O8  1  0.00000000  0.00000000  0.15313300  1
  O  O9  1  0.00000000  0.00000000  0.84686700  1
  O  O10  1  0.00000000  0.50000000  0.37922700  1
  O  O11  1  0.00000000  0.50000000  0.62077300  1
  O  O12  1  0.00000000  0.50000000  0.00000000  1
