# generated using pymatgen
data_Ba2GdCoCu2O7
_symmetry_space_group_name_H-M   'P 1'
_cell_length_a   3.88113500
_cell_length_b   3.91982800
_cell_length_c   11.84470300
_cell_angle_alpha   90.00000000
_cell_angle_beta   90.00000000
_cell_angle_gamma   90.00000000
_symmetry_Int_Tables_number   1
_chemical_formula_structural   Ba2GdCoCu2O7
_chemical_formula_sum   'Ba2 Gd1 Co1 Cu2 O7'
_cell_volume   180.19798721
_cell_formula_units_Z   1
loop_
 _symmetry_equiv_pos_site_id
 _symmetry_equiv_pos_as_xyz
  1  'x, y, z'
loop_
 _atom_site_type_symbol
 _atom_site_label
 _atom_site_symmetry_multiplicity
 _atom_site_fract_x
 _atom_site_fract_y
 _atom_site_fract_z
 _atom_site_occupancy
  Ba  Ba0  1  0.50000000  0.50000000  0.18466100  1
  Ba  Ba1  1  0.50000000  0.50000000  0.81533900  1
  Gd  Gd2  1  0.50000000  0.50000000  0.50000000  1
  Co  Co3  1  0.00000000  0.00000000  0.00000000  1
  Cu  Cu4  1  0.00000000  0.00000000  0.35849000  1
  Cu  Cu5  1  0.00000000  0.00000000  0.64151000  1
  O  O6  1  0.50000000  0.00000000  0.37579400  1
  O  O7  1  0.50000000  0.00000000  0.62420600  1
  O  O8  1  0.00000000  0.00000000  0.15178800  1
  O  O9  1  0.00000000  0.00000000  0.84821200  1
  O  O10  1  0.00000000  0.50000000  0.37597000  1
  O  O11  1  0.00000000  0.50000000  0.62403000  1
  O  O12  1  0.00000000  0.50000000  0.00000000  1
