# generated using pymatgen
data_Ba2Mn5O10
_symmetry_space_group_name_H-M   'P 1'
_cell_length_a   6.76897201
_cell_length_b   6.76897201
_cell_length_c   9.98348509
_cell_angle_alpha   87.51791250
_cell_angle_beta   87.51791250
_cell_angle_gamma   28.04919432
_symmetry_Int_Tables_number   1
_chemical_formula_structural   Ba2Mn5O10
_chemical_formula_sum   'Ba2 Mn5 O10'
_cell_volume   214.88414469
_cell_formula_units_Z   1
loop_
 _symmetry_equiv_pos_site_id
 _symmetry_equiv_pos_as_xyz
  1  'x, y, z'
loop_
 _atom_site_type_symbol
 _atom_site_label
 _atom_site_symmetry_multiplicity
 _atom_site_fract_x
 _atom_site_fract_y
 _atom_site_fract_z
 _atom_site_occupancy
  Ba  Ba0  1  0.25454200  0.25454200  0.18741600  1
  Ba  Ba1  1  0.74545800  0.74545800  0.81258400  1
  Mn  Mn2  1  0.84942200  0.84942200  0.50508200  1
  Mn  Mn3  1  0.15057800  0.15057800  0.49491800  1
  Mn  Mn4  1  0.00000000  0.00000000  0.00000000  1
  Mn  Mn5  1  0.50469500  0.50469500  0.26139200  1
  Mn  Mn6  1  0.49530500  0.49530500  0.73860800  1
  O  O7  1  0.92675100  0.92675100  0.66461200  1
  O  O8  1  0.07324900  0.07324900  0.33538800  1
  O  O9  1  0.59056600  0.59056600  0.08840400  1
  O  O10  1  0.40943400  0.40943400  0.91159600  1
  O  O11  1  0.73284900  0.73284900  0.39341500  1
  O  O12  1  0.26715100  0.26715100  0.60658500  1
  O  O13  1  0.59437400  0.59437400  0.59247300  1
  O  O14  1  0.40562600  0.40562600  0.40752700  1
  O  O15  1  0.92177500  0.92177500  0.16565000  1
  O  O16  1  0.07822500  0.07822500  0.83435000  1
