# generated using pymatgen
data_Be2CoH6(NF4)2
_symmetry_space_group_name_H-M   'P 1'
_cell_length_a   5.47077696
_cell_length_b   9.79982775
_cell_length_c   9.93516400
_cell_angle_alpha   90.00000000
_cell_angle_beta   90.00000000
_cell_angle_gamma   134.02126816
_symmetry_Int_Tables_number   1
_chemical_formula_structural   Be2CoH6(NF4)2
_chemical_formula_sum   'Be4 Co2 H12 N4 F16'
_cell_volume   383.01946521
_cell_formula_units_Z   2
loop_
 _symmetry_equiv_pos_site_id
 _symmetry_equiv_pos_as_xyz
  1  'x, y, z'
loop_
 _atom_site_type_symbol
 _atom_site_label
 _atom_site_symmetry_multiplicity
 _atom_site_fract_x
 _atom_site_fract_y
 _atom_site_fract_z
 _atom_site_occupancy
  Be  Be0  1  0.90769700  0.58450800  0.80483600  1
  Be  Be1  1  0.09230300  0.41549200  0.19516400  1
  Be  Be2  1  0.09230300  0.91549200  0.30483600  1
  Be  Be3  1  0.90769700  0.08450800  0.69516400  1
  Co  Co4  1  0.50000000  0.00000000  0.00000000  1
  Co  Co5  1  0.50000000  0.50000000  0.50000000  1
  H  H6  1  0.73972300  0.92943000  0.00925600  1
  H  H7  1  0.26027700  0.07057000  0.99074400  1
  H  H8  1  0.26027700  0.57057000  0.50925600  1
  H  H9  1  0.73972300  0.42943000  0.49074400  1
  H  H10  1  0.40367700  0.65518400  0.55374300  1
  H  H11  1  0.59632300  0.34481600  0.44625700  1
  H  H12  1  0.59632300  0.84481600  0.05374300  1
  H  H13  1  0.40367700  0.15518400  0.94625700  1
  H  H14  1  0.11486100  0.90647200  0.66552000  1
  H  H15  1  0.88513900  0.09352800  0.33448000  1
  H  H16  1  0.88513900  0.59352800  0.16552000  1
  H  H17  1  0.11486100  0.40647200  0.83448000  1
  N  N18  1  0.83040200  0.47021000  0.18575900  1
  N  N19  1  0.16959800  0.52979000  0.81424100  1
  N  N20  1  0.16959800  0.02979000  0.68575900  1
  N  N21  1  0.83040200  0.97021000  0.31424100  1
  F  F22  1  0.84101900  0.62066700  0.65960700  1
  F  F23  1  0.15898100  0.37933300  0.34039300  1
  F  F24  1  0.15898100  0.87933300  0.15960700  1
  F  F25  1  0.84101900  0.12066700  0.84039300  1
  F  F26  1  0.13220700  0.77448200  0.88770200  1
  F  F27  1  0.86779300  0.22551800  0.11229800  1
  F  F28  1  0.86779300  0.72551800  0.38770200  1
  F  F29  1  0.13220700  0.27448200  0.61229800  1
  F  F30  1  0.59583000  0.90807800  0.63107100  1
  F  F31  1  0.40417000  0.09192200  0.36892900  1
  F  F32  1  0.40417000  0.59192200  0.13107100  1
  F  F33  1  0.59583000  0.40807800  0.86892900  1
  F  F34  1  0.51150000  0.67112800  0.83815400  1
  F  F35  1  0.48850000  0.32887200  0.16184600  1
  F  F36  1  0.48850000  0.82887200  0.33815400  1
  F  F37  1  0.51150000  0.17112800  0.66184600  1
