# generated using pymatgen
data_CaPH5(WO2)2
_symmetry_space_group_name_H-M   'P 1'
_cell_length_a   5.63534743
_cell_length_b   6.69513426
_cell_length_c   11.07263788
_cell_angle_alpha   100.57297157
_cell_angle_beta   96.50456444
_cell_angle_gamma   117.84022435
_symmetry_Int_Tables_number   1
_chemical_formula_structural   CaPH5(WO2)2
_chemical_formula_sum   'Ca2 P2 H10 W4 O8'
_cell_volume   353.49579700
_cell_formula_units_Z   2
loop_
 _symmetry_equiv_pos_site_id
 _symmetry_equiv_pos_as_xyz
  1  'x, y, z'
loop_
 _atom_site_type_symbol
 _atom_site_label
 _atom_site_symmetry_multiplicity
 _atom_site_fract_x
 _atom_site_fract_y
 _atom_site_fract_z
 _atom_site_occupancy
  Ca  Ca0  1  0.24986900  0.60993300  0.59792500  1
  Ca  Ca1  1  0.15194400  0.01200700  0.40207500  1
  P  P2  1  0.75319800  0.09106600  0.61653000  1
  P  P3  1  0.63666700  0.47453600  0.38347000  1
  H  H4  1  0.50134200  0.70160700  0.30841300  1
  H  H5  1  0.69292900  0.39319400  0.69158700  1
  H  H6  1  0.29699500  0.97857000  0.02044000  1
  H  H7  1  0.77655500  0.95813000  0.97956000  1
  H  H8  1  0.91042900  0.06970400  0.23014800  1
  H  H9  1  0.18028100  0.83955600  0.76985200  1
  H  H10  1  0.75420600  0.58681700  0.07312700  1
  H  H11  1  0.18107900  0.51369100  0.92687300  1
  H  H12  1  0.48867900  0.27759300  0.83349200  1
  H  H13  1  0.15518700  0.44410100  0.16650800  1
  W  W14  1  0.50431000  0.02565500  0.88505200  1
  W  W15  1  0.11925900  0.14060400  0.11494800  1
  W  W16  1  0.53679000  0.57350800  0.91482400  1
  W  W17  1  0.12196500  0.65868300  0.08517600  1
  O  O18  1  0.01055100  0.11868800  0.57384100  1
  O  O19  1  0.93670900  0.54484700  0.42615900  1
  O  O20  1  0.69451700  0.97607300  0.72734800  1
  O  O21  1  0.46716800  0.24872500  0.27265200  1
  O  O22  1  0.48375700  0.95930200  0.51365200  1
  O  O23  1  0.47010600  0.44565000  0.48634800  1
  O  O24  1  0.67190900  0.69863400  0.33411000  1
  O  O25  1  0.83779800  0.36452400  0.66589000  1
