# generated using pymatgen
data_Co(NF3)4
_symmetry_space_group_name_H-M   'P 1'
_cell_length_a   16.79485944
_cell_length_b   16.79485944
_cell_length_c   16.79485944
_cell_angle_alpha   60.00000000
_cell_angle_beta   60.00000000
_cell_angle_gamma   60.00000000
_symmetry_Int_Tables_number   1
_chemical_formula_structural   Co(NF3)4
_chemical_formula_sum   'Co2 N8 F24'
_cell_volume   3349.76331995
_cell_formula_units_Z   2
loop_
 _symmetry_equiv_pos_site_id
 _symmetry_equiv_pos_as_xyz
  1  'x, y, z'
loop_
 _atom_site_type_symbol
 _atom_site_label
 _atom_site_symmetry_multiplicity
 _atom_site_fract_x
 _atom_site_fract_y
 _atom_site_fract_z
 _atom_site_occupancy
  Co  Co0  1  0.00000000  0.00000000  0.00000000  1
  Co  Co1  1  0.25000000  0.25000000  0.25000000  1
  N  N2  1  0.37419400  0.37419400  0.37419400  1
  N  N3  1  0.37419400  0.37419400  0.87741800  1
  N  N4  1  0.37419400  0.87741800  0.37419400  1
  N  N5  1  0.87580600  0.87580600  0.37258200  1
  N  N6  1  0.87580600  0.87580600  0.87580600  1
  N  N7  1  0.87741800  0.37419400  0.37419400  1
  N  N8  1  0.87580600  0.37258200  0.87580600  1
  N  N9  1  0.37258200  0.87580600  0.87580600  1
  F  F10  1  0.92344600  0.31546200  0.31546200  1
  F  F11  1  0.31546200  0.92344600  0.44562900  1
  F  F12  1  0.31546200  0.44562900  0.92344600  1
  F  F13  1  0.31546200  0.92344600  0.31546200  1
  F  F14  1  0.32655400  0.93453800  0.80437100  1
  F  F15  1  0.32655400  0.93453800  0.93453800  1
  F  F16  1  0.44562900  0.31546200  0.31546200  1
  F  F17  1  0.44562900  0.31546200  0.92344600  1
  F  F18  1  0.93453800  0.32655400  0.93453800  1
  F  F19  1  0.93453800  0.32655400  0.80437100  1
  F  F20  1  0.92344600  0.31546200  0.44562900  1
  F  F21  1  0.93453800  0.80437100  0.93453800  1
  F  F22  1  0.93453800  0.80437100  0.32655400  1
  F  F23  1  0.31546200  0.44562900  0.31546200  1
  F  F24  1  0.80437100  0.93453800  0.32655400  1
  F  F25  1  0.80437100  0.93453800  0.93453800  1
  F  F26  1  0.31546200  0.31546200  0.92344600  1
  F  F27  1  0.44562900  0.92344600  0.31546200  1
  F  F28  1  0.31546200  0.31546200  0.44562900  1
  F  F29  1  0.92344600  0.44562900  0.31546200  1
  F  F30  1  0.80437100  0.32655400  0.93453800  1
  F  F31  1  0.93453800  0.93453800  0.32655400  1
  F  F32  1  0.32655400  0.80437100  0.93453800  1
  F  F33  1  0.93453800  0.93453800  0.80437100  1
