# generated using pymatgen
data_RbGeBr3
_symmetry_space_group_name_H-M   'P 1'
_cell_length_a   7.65949300
_cell_length_b   6.24474800
_cell_length_c   8.76131688
_cell_angle_alpha   72.67457636
_cell_angle_beta   90.00000000
_cell_angle_gamma   90.00000000
_symmetry_Int_Tables_number   1
_chemical_formula_structural   RbGeBr3
_chemical_formula_sum   'Rb2 Ge2 Br6'
_cell_volume   400.05420529
_cell_formula_units_Z   2
loop_
 _symmetry_equiv_pos_site_id
 _symmetry_equiv_pos_as_xyz
  1  'x, y, z'
loop_
 _atom_site_type_symbol
 _atom_site_label
 _atom_site_symmetry_multiplicity
 _atom_site_fract_x
 _atom_site_fract_y
 _atom_site_fract_z
 _atom_site_occupancy
  Rb  Rb0  1  0.75000000  0.67245500  0.70069900  1
  Rb  Rb1  1  0.25000000  0.32754500  0.29930100  1
  Ge  Ge2  1  0.75000000  0.92824200  0.12581600  1
  Ge  Ge3  1  0.25000000  0.07175800  0.87418400  1
  Br  Br4  1  0.75000000  0.33526800  0.11596300  1
  Br  Br5  1  0.25000000  0.66473200  0.88403700  1
  Br  Br6  1  0.49555700  0.18471300  0.67545500  1
  Br  Br7  1  0.99555700  0.81528700  0.32454500  1
  Br  Br8  1  0.00444300  0.18471300  0.67545500  1
  Br  Br9  1  0.50444300  0.81528700  0.32454500  1
