# generated using pymatgen
data_C20Cl18O
_symmetry_space_group_name_H-M   'P 1'
_cell_length_a   7.65540000
_cell_length_b   13.98894416
_cell_length_c   16.81372496
_cell_angle_alpha   74.68776318
_cell_angle_beta   78.91276653
_cell_angle_gamma   81.79622682
_symmetry_Int_Tables_number   1
_chemical_formula_structural   C20Cl18O
_chemical_formula_sum   'C40 Cl36 O2'
_cell_volume   1696.21017632
_cell_formula_units_Z   2
loop_
 _symmetry_equiv_pos_site_id
 _symmetry_equiv_pos_as_xyz
  1  'x, y, z'
loop_
 _atom_site_type_symbol
 _atom_site_label
 _atom_site_symmetry_multiplicity
 _atom_site_fract_x
 _atom_site_fract_y
 _atom_site_fract_z
 _atom_site_occupancy
  C  C0  1  0.12167500  0.20190900  0.29316300  1
  C  C1  1  0.87832500  0.79809100  0.70683700  1
  C  C2  1  0.14287800  0.12854900  0.44185800  1
  C  C3  1  0.85712200  0.87145200  0.55814200  1
  C  C4  1  0.23596000  0.39515100  0.16629200  1
  C  C5  1  0.76404000  0.60484900  0.83370800  1
  C  C6  1  0.41578200  0.93457300  0.13974800  1
  C  C7  1  0.58421800  0.06542700  0.86025200  1
  C  C8  1  0.26401000  0.48201200  0.10653500  1
  C  C9  1  0.73599000  0.51798800  0.89346500  1
  C  C10  1  0.23722300  0.94455400  0.18003800  1
  C  C11  1  0.76277700  0.05544600  0.81996200  1
  C  C12  1  0.21761500  0.14493500  0.35682000  1
  C  C13  1  0.78238500  0.85506500  0.64318000  1
  C  C14  1  0.86908400  0.22755400  0.40329300  1
  C  C15  1  0.13091600  0.77244600  0.59670700  1
  C  C16  1  0.78714400  0.59781300  0.00201300  1
  C  C17  1  0.21285600  0.40218700  0.99798700  1
  C  C18  1  0.26181500  0.49091200  0.01721000  1
  C  C19  1  0.73818500  0.50908800  0.98279000  1
  C  C20  1  0.20106100  0.30516600  0.14549700  1
  C  C21  1  0.79893900  0.69483400  0.85450300  1
  C  C22  1  0.51665800  0.01714100  0.11481500  1
  C  C23  1  0.48334200  0.98285900  0.88518500  1
  C  C24  1  0.16427100  0.03593800  0.19814400  1
  C  C25  1  0.83572900  0.96406200  0.80185600  1
  C  C26  1  0.18089400  0.31657300  0.05838100  1
  C  C27  1  0.81910600  0.68342700  0.94161900  1
  C  C28  1  0.26436900  0.11939700  0.17613400  1
  C  C29  1  0.73563100  0.88060300  0.82386600  1
  C  C30  1  0.27034200  0.36761900  0.62845500  1
  C  C31  1  0.72965800  0.63238100  0.37154500  1
  C  C32  1  0.44162400  0.10895100  0.13188300  1
  C  C33  1  0.55837600  0.89104900  0.86811700  1
  C  C34  1  0.03257200  0.83030400  0.53482300  1
  C  C35  1  0.96742800  0.16969600  0.46517700  1
  C  C36  1  0.05419300  0.75589800  0.68157300  1
  C  C37  1  0.94580700  0.24410200  0.31842700  1
  C  C38  1  0.19452100  0.21244600  0.20318800  1
  C  C39  1  0.80547900  0.78755400  0.79681200  1
  Cl  Cl40  1  0.65582300  0.27678600  0.43269700  1
  Cl  Cl41  1  0.34417700  0.72321400  0.56730300  1
  Cl  Cl42  1  0.31106400  0.23603900  0.64866400  1
  Cl  Cl43  1  0.68893600  0.76396100  0.35133600  1
  Cl  Cl44  1  0.08873200  0.22572000  0.03273200  1
  Cl  Cl45  1  0.91126800  0.77428000  0.96726800  1
  Cl  Cl46  1  0.18709800  0.41586800  0.89682100  1
  Cl  Cl47  1  0.81290200  0.58413200  0.10317900  1
  Cl  Cl48  1  0.12531500  0.84954900  0.43172100  1
  Cl  Cl49  1  0.87468500  0.15045100  0.56827900  1
  Cl  Cl50  1  0.11086900  0.84602800  0.20507800  1
  Cl  Cl51  1  0.88913100  0.15397200  0.79492200  1
  Cl  Cl52  1  0.31296800  0.58611700  0.12923000  1
  Cl  Cl53  1  0.68703200  0.41388300  0.87077000  1
  Cl  Cl54  1  0.43787800  0.10161200  0.33124100  1
  Cl  Cl55  1  0.56212200  0.89838800  0.66875900  1
  Cl  Cl56  1  0.24642200  0.41701200  0.52164900  1
  Cl  Cl57  1  0.75357800  0.58298800  0.47835100  1
  Cl  Cl58  1  0.81833800  0.31325100  0.24574200  1
  Cl  Cl59  1  0.18166200  0.68674900  0.75425800  1
  Cl  Cl60  1  0.06959100  0.40089900  0.69261800  1
  Cl  Cl61  1  0.93040900  0.59910100  0.30738200  1
  Cl  Cl62  1  0.26456100  0.06024200  0.51684000  1
  Cl  Cl63  1  0.73543900  0.93975800  0.48316000  1
  Cl  Cl64  1  0.94226500  0.04786900  0.24126300  1
  Cl  Cl65  1  0.05773500  0.95213100  0.75873700  1
  Cl  Cl66  1  0.54878200  0.58276100  0.34949200  1
  Cl  Cl67  1  0.45121800  0.41723900  0.65050800  1
  Cl  Cl68  1  0.27233300  0.39021400  0.26541200  1
  Cl  Cl69  1  0.72766700  0.60978600  0.73458800  1
  Cl  Cl70  1  0.73299900  0.00406500  0.06474800  1
  Cl  Cl71  1  0.26700100  0.99593500  0.93525200  1
  Cl  Cl72  1  0.57430400  0.20538400  0.10232700  1
  Cl  Cl73  1  0.42569600  0.79461600  0.89767300  1
  Cl  Cl74  1  0.50872900  0.82277500  0.12075700  1
  Cl  Cl75  1  0.49127100  0.17722500  0.87924300  1
  O  O76  1  0.70542400  0.43216900  0.03715200  1
  O  O77  1  0.29457600  0.56783200  0.96284800  1
