# generated using pymatgen
data_BaH6C2N4O5
_symmetry_space_group_name_H-M   'P 1'
_cell_length_a   11.63348900
_cell_length_b   6.79705000
_cell_length_c   10.18459409
_cell_angle_alpha   89.30045681
_cell_angle_beta   90.00000000
_cell_angle_gamma   90.00000000
_symmetry_Int_Tables_number   1
_chemical_formula_structural   BaH6C2N4O5
_chemical_formula_sum   'Ba4 H24 C8 N16 O20'
_cell_volume   805.27052374
_cell_formula_units_Z   4
loop_
 _symmetry_equiv_pos_site_id
 _symmetry_equiv_pos_as_xyz
  1  'x, y, z'
loop_
 _atom_site_type_symbol
 _atom_site_label
 _atom_site_symmetry_multiplicity
 _atom_site_fract_x
 _atom_site_fract_y
 _atom_site_fract_z
 _atom_site_occupancy
  Ba  Ba0  1  0.69205700  0.90705000  0.57888000  1
  Ba  Ba1  1  0.30794300  0.09295000  0.42112000  1
  Ba  Ba2  1  0.19205700  0.09295000  0.92112000  1
  Ba  Ba3  1  0.80794300  0.90705000  0.07888000  1
  H  H4  1  0.34058600  0.41629200  0.67023900  1
  H  H5  1  0.65941400  0.58370800  0.32976100  1
  H  H6  1  0.84058600  0.58370800  0.82976100  1
  H  H7  1  0.15941400  0.41629200  0.17023900  1
  H  H8  1  0.02446400  0.69459700  0.84012200  1
  H  H9  1  0.97553600  0.30540300  0.15987800  1
  H  H10  1  0.52446400  0.30540300  0.65987800  1
  H  H11  1  0.47553600  0.69459700  0.34012200  1
  H  H12  1  0.30875100  0.53246800  0.88400800  1
  H  H13  1  0.69124900  0.46753200  0.11599200  1
  H  H14  1  0.80875100  0.46753200  0.61599200  1
  H  H15  1  0.19124900  0.53246800  0.38400800  1
  H  H16  1  0.19638200  0.55490200  0.80224900  1
  H  H17  1  0.80361800  0.44509800  0.19775100  1
  H  H18  1  0.69638200  0.44509800  0.69775100  1
  H  H19  1  0.30361800  0.55490200  0.30224900  1
  H  H20  1  0.41165800  0.54397200  0.57154100  1
  H  H21  1  0.58834200  0.45602800  0.42845900  1
  H  H22  1  0.91165800  0.45602800  0.92845900  1
  H  H23  1  0.08834200  0.54397200  0.07154100  1
  H  H24  1  0.07405200  0.75587000  0.70187900  1
  H  H25  1  0.92594800  0.24413000  0.29812100  1
  H  H26  1  0.57405200  0.24413000  0.79812100  1
  H  H27  1  0.42594800  0.75587000  0.20187900  1
  C  C28  1  0.39981500  0.87984400  0.69422000  1
  C  C29  1  0.60018500  0.12015600  0.30578000  1
  C  C30  1  0.89981500  0.12015600  0.80578000  1
  C  C31  1  0.10018500  0.87984400  0.19422000  1
  C  C32  1  0.45384600  0.82024200  0.82094800  1
  C  C33  1  0.54615400  0.17975800  0.17905200  1
  C  C34  1  0.95384600  0.17975800  0.67905200  1
  C  C35  1  0.04615400  0.82024200  0.32094800  1
  N  N36  1  0.39751000  0.81124600  0.93657600  1
  N  N37  1  0.60249000  0.18875400  0.06342400  1
  N  N38  1  0.89751000  0.18875400  0.56342400  1
  N  N39  1  0.10249000  0.81124600  0.43657600  1
  N  N40  1  0.06591600  0.22134400  0.66467800  1
  N  N41  1  0.93408400  0.77865600  0.33532200  1
  N  N42  1  0.56591600  0.77865600  0.83532200  1
  N  N43  1  0.43408400  0.22134400  0.16467800  1
  N  N44  1  0.02155500  0.76236300  0.52475200  1
  N  N45  1  0.97844500  0.23763700  0.47524800  1
  N  N46  1  0.52155500  0.23763700  0.97524800  1
  N  N47  1  0.47844500  0.76236300  0.02475200  1
  N  N48  1  0.07955500  0.25528100  0.53551700  1
  N  N49  1  0.92044500  0.74471900  0.46448300  1
  N  N50  1  0.57955500  0.74471900  0.96448300  1
  N  N51  1  0.42044500  0.25528100  0.03551700  1
  O  O52  1  0.09607000  0.74078800  0.79616700  1
  O  O53  1  0.90393000  0.25921200  0.20383300  1
  O  O54  1  0.59607000  0.25921200  0.70383300  1
  O  O55  1  0.40393000  0.74078800  0.29616700  1
  O  O56  1  0.39216400  0.40600700  0.59247700  1
  O  O57  1  0.60783600  0.59399300  0.40752300  1
  O  O58  1  0.89216400  0.59399300  0.90752300  1
  O  O59  1  0.10783600  0.40600700  0.09247700  1
  O  O60  1  0.44953100  0.82596900  0.58826500  1
  O  O61  1  0.55046900  0.17403100  0.41173500  1
  O  O62  1  0.94953100  0.17403100  0.91173500  1
  O  O63  1  0.05046900  0.82596900  0.08826500  1
  O  O64  1  0.26250600  0.46298500  0.81903100  1
  O  O65  1  0.73749400  0.53701500  0.18096900  1
  O  O66  1  0.76250600  0.53701500  0.68096900  1
  O  O67  1  0.23749400  0.46298500  0.31903100  1
  O  O68  1  0.30934900  0.98321400  0.69738900  1
  O  O69  1  0.69065100  0.01678600  0.30261100  1
  O  O70  1  0.80934900  0.01678600  0.80261100  1
  O  O71  1  0.19065100  0.98321400  0.19738900  1
