# generated using pymatgen
data_CeIn3Pt
_symmetry_space_group_name_H-M   'P 1'
_cell_length_a   9.83762800
_cell_length_b   9.83762800
_cell_length_c   9.83762800
_cell_angle_alpha   90.00000000
_cell_angle_beta   90.00000000
_cell_angle_gamma   90.00000000
_symmetry_Int_Tables_number   1
_chemical_formula_structural   CeIn3Pt
_chemical_formula_sum   'Ce8 In24 Pt8'
_cell_volume   952.07505911
_cell_formula_units_Z   8
loop_
 _symmetry_equiv_pos_site_id
 _symmetry_equiv_pos_as_xyz
  1  'x, y, z'
loop_
 _atom_site_type_symbol
 _atom_site_label
 _atom_site_symmetry_multiplicity
 _atom_site_fract_x
 _atom_site_fract_y
 _atom_site_fract_z
 _atom_site_occupancy
  Ce  Ce0  1  0.00000000  0.00000000  0.00000000  1
  Ce  Ce1  1  0.50000000  0.50000000  0.50000000  1
  Ce  Ce2  1  0.25000000  0.00000000  0.50000000  1
  Ce  Ce3  1  0.75000000  0.00000000  0.50000000  1
  Ce  Ce4  1  0.50000000  0.25000000  0.00000000  1
  Ce  Ce5  1  0.50000000  0.75000000  0.00000000  1
  Ce  Ce6  1  0.00000000  0.50000000  0.25000000  1
  Ce  Ce7  1  0.00000000  0.50000000  0.75000000  1
  In  In8  1  0.00000000  0.15216500  0.31926800  1
  In  In9  1  0.00000000  0.84783500  0.68073200  1
  In  In10  1  0.00000000  0.84783500  0.31926800  1
  In  In11  1  0.00000000  0.15216500  0.68073200  1
  In  In12  1  0.31926800  0.00000000  0.15216500  1
  In  In13  1  0.65216500  0.50000000  0.18073200  1
  In  In14  1  0.68073200  0.00000000  0.84783500  1
  In  In15  1  0.34783500  0.50000000  0.81926800  1
  In  In16  1  0.31926800  0.00000000  0.84783500  1
  In  In17  1  0.34783500  0.50000000  0.18073200  1
  In  In18  1  0.68073200  0.00000000  0.15216500  1
  In  In19  1  0.65216500  0.50000000  0.81926800  1
  In  In20  1  0.15216500  0.31926800  0.00000000  1
  In  In21  1  0.50000000  0.81926800  0.34783500  1
  In  In22  1  0.84783500  0.68073200  0.00000000  1
  In  In23  1  0.50000000  0.18073200  0.65216500  1
  In  In24  1  0.15216500  0.68073200  0.00000000  1
  In  In25  1  0.50000000  0.18073200  0.34783500  1
  In  In26  1  0.84783500  0.31926800  0.00000000  1
  In  In27  1  0.50000000  0.81926800  0.65216500  1
  In  In28  1  0.18073200  0.65216500  0.50000000  1
  In  In29  1  0.81926800  0.34783500  0.50000000  1
  In  In30  1  0.18073200  0.34783500  0.50000000  1
  In  In31  1  0.81926800  0.65216500  0.50000000  1
  Pt  Pt32  1  0.25000000  0.25000000  0.25000000  1
  Pt  Pt33  1  0.75000000  0.75000000  0.75000000  1
  Pt  Pt34  1  0.75000000  0.75000000  0.25000000  1
  Pt  Pt35  1  0.75000000  0.25000000  0.75000000  1
  Pt  Pt36  1  0.25000000  0.25000000  0.75000000  1
  Pt  Pt37  1  0.25000000  0.75000000  0.25000000  1
  Pt  Pt38  1  0.25000000  0.75000000  0.75000000  1
  Pt  Pt39  1  0.75000000  0.25000000  0.25000000  1
