# generated using pymatgen
data_Ba3N2
_symmetry_space_group_name_H-M   'P 1'
_cell_length_a   11.41616684
_cell_length_b   11.41616684
_cell_length_c   11.41616684
_cell_angle_alpha   109.47122063
_cell_angle_beta   109.47122063
_cell_angle_gamma   109.47122063
_symmetry_Int_Tables_number   1
_chemical_formula_structural   Ba3N2
_chemical_formula_sum   'Ba24 N16'
_cell_volume   1145.35213807
_cell_formula_units_Z   8
loop_
 _symmetry_equiv_pos_site_id
 _symmetry_equiv_pos_as_xyz
  1  'x, y, z'
loop_
 _atom_site_type_symbol
 _atom_site_label
 _atom_site_symmetry_multiplicity
 _atom_site_fract_x
 _atom_site_fract_y
 _atom_site_fract_z
 _atom_site_occupancy
  Ba  Ba0  1  0.04633800  0.27294100  0.00274500  1
  Ba  Ba1  1  0.95366200  0.72705900  0.99725500  1
  Ba  Ba2  1  0.45366200  0.45640700  0.22660300  1
  Ba  Ba3  1  0.72980400  0.22705900  0.27339700  1
  Ba  Ba4  1  0.27294100  0.00274500  0.04633800  1
  Ba  Ba5  1  0.54633800  0.54359300  0.77339700  1
  Ba  Ba6  1  0.27019600  0.77294100  0.72660300  1
  Ba  Ba7  1  0.72705900  0.99725500  0.95366200  1
  Ba  Ba8  1  0.77019600  0.04359300  0.49725500  1
  Ba  Ba9  1  0.45640700  0.22660300  0.45366200  1
  Ba  Ba10  1  0.22980400  0.95640700  0.50274500  1
  Ba  Ba11  1  0.54359300  0.77339700  0.54633800  1
  Ba  Ba12  1  0.22705900  0.27339700  0.72980400  1
  Ba  Ba13  1  0.77294100  0.72660300  0.27019600  1
  Ba  Ba14  1  0.04359300  0.49725500  0.77019600  1
  Ba  Ba15  1  0.95640700  0.50274500  0.22980400  1
  Ba  Ba16  1  0.00274500  0.04633800  0.27294100  1
  Ba  Ba17  1  0.99725500  0.95366200  0.72705900  1
  Ba  Ba18  1  0.27339700  0.72980400  0.22705900  1
  Ba  Ba19  1  0.72660300  0.27019600  0.77294100  1
  Ba  Ba20  1  0.49725500  0.77019600  0.04359300  1
  Ba  Ba21  1  0.50274500  0.22980400  0.95640700  1
  Ba  Ba22  1  0.22660300  0.45366200  0.45640700  1
  Ba  Ba23  1  0.77339700  0.54633800  0.54359300  1
  N  N24  1  0.19300000  0.94300000  0.25000000  1
  N  N25  1  0.80700000  0.05700000  0.75000000  1
  N  N26  1  0.30700000  0.55700000  0.75000000  1
  N  N27  1  0.94300000  0.25000000  0.19300000  1
  N  N28  1  0.69300000  0.44300000  0.25000000  1
  N  N29  1  0.05700000  0.75000000  0.80700000  1
  N  N30  1  0.55700000  0.75000000  0.30700000  1
  N  N31  1  0.44300000  0.25000000  0.69300000  1
  N  N32  1  0.25000000  0.19300000  0.94300000  1
  N  N33  1  0.75000000  0.80700000  0.05700000  1
  N  N34  1  0.75000000  0.30700000  0.55700000  1
  N  N35  1  0.25000000  0.69300000  0.44300000  1
  N  N36  1  0.50000000  0.50000000  0.50000000  1
  N  N37  1  0.00000000  0.50000000  0.00000000  1
  N  N38  1  0.00000000  0.00000000  0.50000000  1
  N  N39  1  0.50000000  0.00000000  0.00000000  1
