# generated using pymatgen
data_Ba2CaMnFe2F14
_symmetry_space_group_name_H-M   'P 1'
_cell_length_a   7.50070859
_cell_length_b   7.50070859
_cell_length_c   15.27585065
_cell_angle_alpha   88.10724323
_cell_angle_beta   88.10724323
_cell_angle_gamma   42.87134675
_symmetry_Int_Tables_number   1
_chemical_formula_structural   Ba2CaMnFe2F14
_chemical_formula_sum   'Ba4 Ca2 Mn2 Fe4 F28'
_cell_volume   584.34810685
_cell_formula_units_Z   2
loop_
 _symmetry_equiv_pos_site_id
 _symmetry_equiv_pos_as_xyz
  1  'x, y, z'
loop_
 _atom_site_type_symbol
 _atom_site_label
 _atom_site_symmetry_multiplicity
 _atom_site_fract_x
 _atom_site_fract_y
 _atom_site_fract_z
 _atom_site_occupancy
  Ba  Ba0  1  0.64380300  0.73968300  0.88060600  1
  Ba  Ba1  1  0.35619700  0.26031700  0.11939400  1
  Ba  Ba2  1  0.26031700  0.35619700  0.61939400  1
  Ba  Ba3  1  0.73968300  0.64380300  0.38060600  1
  Ca  Ca4  1  0.93874200  0.06125800  0.75000000  1
  Ca  Ca5  1  0.06125800  0.93874200  0.25000000  1
  Mn  Mn6  1  0.00000000  0.00000000  0.50000000  1
  Mn  Mn7  1  0.00000000  0.00000000  0.00000000  1
  Fe  Fe8  1  0.61069700  0.62620700  0.62290800  1
  Fe  Fe9  1  0.38930300  0.37379300  0.37709200  1
  Fe  Fe10  1  0.37379300  0.38930300  0.87709200  1
  Fe  Fe11  1  0.62620700  0.61069700  0.12290800  1
  F  F12  1  0.57460000  0.40425200  0.65880700  1
  F  F13  1  0.42540000  0.59574800  0.34119300  1
  F  F14  1  0.59574800  0.42540000  0.84119300  1
  F  F15  1  0.40425200  0.57460000  0.15880700  1
  F  F16  1  0.67143600  0.07746500  0.95087600  1
  F  F17  1  0.32856400  0.92253500  0.04912400  1
  F  F18  1  0.92253500  0.32856400  0.54912400  1
  F  F19  1  0.07746500  0.67143600  0.45087600  1
  F  F20  1  0.53811700  0.13611000  0.77962900  1
  F  F21  1  0.46188300  0.86389000  0.22037100  1
  F  F22  1  0.86389000  0.46188300  0.72037100  1
  F  F23  1  0.13611000  0.53811700  0.27962900  1
  F  F24  1  0.69343000  0.80530500  0.58166400  1
  F  F25  1  0.30657000  0.19469500  0.41833600  1
  F  F26  1  0.19469500  0.30657000  0.91833600  1
  F  F27  1  0.80530500  0.69343000  0.08166400  1
  F  F28  1  0.33119100  0.91969900  0.69680900  1
  F  F29  1  0.66880900  0.08030100  0.30319100  1
  F  F30  1  0.08030100  0.66880900  0.80319100  1
  F  F31  1  0.91969900  0.33119100  0.19680900  1
  F  F32  1  0.40782500  0.75571800  0.51536700  1
  F  F33  1  0.59217500  0.24428200  0.48463300  1
  F  F34  1  0.24428200  0.59217500  0.98463300  1
  F  F35  1  0.75571800  0.40782500  0.01536700  1
  F  F36  1  0.85832100  0.01965800  0.12443400  1
  F  F37  1  0.14167900  0.98034200  0.87556600  1
  F  F38  1  0.98034200  0.14167900  0.37556600  1
  F  F39  1  0.01965800  0.85832100  0.62443400  1
