# generated using pymatgen
data_Ba2MnAl2CuF14
_symmetry_space_group_name_H-M   'P 1'
_cell_length_a   7.44198828
_cell_length_b   7.44198828
_cell_length_c   14.55157252
_cell_angle_alpha   88.01146768
_cell_angle_beta   88.01146768
_cell_angle_gamma   41.41195651
_symmetry_Int_Tables_number   1
_chemical_formula_structural   Ba2MnAl2CuF14
_chemical_formula_sum   'Ba4 Mn2 Al4 Cu2 F28'
_cell_volume   532.71872748
_cell_formula_units_Z   2
loop_
 _symmetry_equiv_pos_site_id
 _symmetry_equiv_pos_as_xyz
  1  'x, y, z'
loop_
 _atom_site_type_symbol
 _atom_site_label
 _atom_site_symmetry_multiplicity
 _atom_site_fract_x
 _atom_site_fract_y
 _atom_site_fract_z
 _atom_site_occupancy
  Ba  Ba0  1  0.62895700  0.74874700  0.87880400  1
  Ba  Ba1  1  0.37104300  0.25125300  0.12119600  1
  Ba  Ba2  1  0.25125300  0.37104300  0.62119600  1
  Ba  Ba3  1  0.74874700  0.62895700  0.37880400  1
  Mn  Mn4  1  0.92500100  0.07499900  0.75000000  1
  Mn  Mn5  1  0.07499900  0.92500100  0.25000000  1
  Al  Al6  1  0.60159800  0.63553600  0.62594300  1
  Al  Al7  1  0.39840200  0.36446400  0.37405700  1
  Al  Al8  1  0.36446400  0.39840200  0.87405700  1
  Al  Al9  1  0.63553600  0.60159800  0.12594300  1
  Cu  Cu10  1  0.00000000  0.00000000  0.50000000  1
  Cu  Cu11  1  0.00000000  0.00000000  0.00000000  1
  F  F12  1  0.57461400  0.42002500  0.65592500  1
  F  F13  1  0.42538600  0.57997500  0.34407500  1
  F  F14  1  0.57997500  0.42538600  0.84407500  1
  F  F15  1  0.42002500  0.57461400  0.15592500  1
  F  F16  1  0.65966900  0.82721500  0.59587500  1
  F  F17  1  0.34033100  0.17278500  0.40412500  1
  F  F18  1  0.17278500  0.34033100  0.90412500  1
  F  F19  1  0.82721500  0.65966900  0.09587500  1
  F  F20  1  0.32669500  0.90210200  0.70396700  1
  F  F21  1  0.67330500  0.09789800  0.29603300  1
  F  F22  1  0.09789800  0.67330500  0.79603300  1
  F  F23  1  0.90210200  0.32669500  0.20396700  1
  F  F24  1  0.62530800  0.10977800  0.95269200  1
  F  F25  1  0.37469200  0.89022200  0.04730800  1
  F  F26  1  0.89022200  0.37469200  0.54730800  1
  F  F27  1  0.10977800  0.62530800  0.45269200  1
  F  F28  1  0.37921100  0.78796100  0.52474600  1
  F  F29  1  0.62078900  0.21203900  0.47525400  1
  F  F30  1  0.21203900  0.62078900  0.97525400  1
  F  F31  1  0.78796100  0.37921100  0.02474600  1
  F  F32  1  0.53747500  0.14752600  0.78018900  1
  F  F33  1  0.46252500  0.85247400  0.21981100  1
  F  F34  1  0.85247400  0.46252500  0.71981100  1
  F  F35  1  0.14752600  0.53747500  0.28018900  1
  F  F36  1  0.89410400  0.99124500  0.12078500  1
  F  F37  1  0.10589600  0.00875500  0.87921500  1
  F  F38  1  0.00875500  0.10589600  0.37921500  1
  F  F39  1  0.99124500  0.89410400  0.62078500  1
