# generated using pymatgen
data_Ba2Zr2(SiO4)3
_symmetry_space_group_name_H-M   'P 1'
_cell_length_a   10.46486500
_cell_length_b   10.46486500
_cell_length_c   10.46486500
_cell_angle_alpha   90.00000000
_cell_angle_beta   90.00000000
_cell_angle_gamma   90.00000000
_symmetry_Int_Tables_number   1
_chemical_formula_structural   Ba2Zr2(SiO4)3
_chemical_formula_sum   'Ba8 Zr8 Si12 O48'
_cell_volume   1146.04294113
_cell_formula_units_Z   4
loop_
 _symmetry_equiv_pos_site_id
 _symmetry_equiv_pos_as_xyz
  1  'x, y, z'
loop_
 _atom_site_type_symbol
 _atom_site_label
 _atom_site_symmetry_multiplicity
 _atom_site_fract_x
 _atom_site_fract_y
 _atom_site_fract_z
 _atom_site_occupancy
  Ba  Ba0  1  0.05200500  0.05200500  0.05200500  1
  Ba  Ba1  1  0.44799500  0.94799500  0.55200500  1
  Ba  Ba2  1  0.94799500  0.55200500  0.44799500  1
  Ba  Ba3  1  0.55200500  0.44799500  0.94799500  1
  Ba  Ba4  1  0.81564400  0.81564400  0.81564400  1
  Ba  Ba5  1  0.68435600  0.18435600  0.31564400  1
  Ba  Ba6  1  0.18435600  0.31564400  0.68435600  1
  Ba  Ba7  1  0.31564400  0.68435600  0.18435600  1
  Zr  Zr8  1  0.33487100  0.33487100  0.33487100  1
  Zr  Zr9  1  0.16512900  0.66512900  0.83487100  1
  Zr  Zr10  1  0.66512900  0.83487100  0.16512900  1
  Zr  Zr11  1  0.83487100  0.16512900  0.66512900  1
  Zr  Zr12  1  0.60067500  0.60067500  0.60067500  1
  Zr  Zr13  1  0.89932500  0.39932500  0.10067500  1
  Zr  Zr14  1  0.39932500  0.10067500  0.89932500  1
  Zr  Zr15  1  0.10067500  0.89932500  0.39932500  1
  Si  Si16  1  0.01988600  0.21402200  0.37602000  1
  Si  Si17  1  0.48011400  0.78597800  0.87602000  1
  Si  Si18  1  0.98011400  0.71402200  0.12398000  1
  Si  Si19  1  0.37602000  0.01988600  0.21402200  1
  Si  Si20  1  0.51988600  0.28597800  0.62398000  1
  Si  Si21  1  0.87602000  0.48011400  0.78597800  1
  Si  Si22  1  0.12398000  0.98011400  0.71402200  1
  Si  Si23  1  0.62398000  0.51988600  0.28597800  1
  Si  Si24  1  0.21402200  0.37602000  0.01988600  1
  Si  Si25  1  0.71402200  0.12398000  0.98011400  1
  Si  Si26  1  0.28597800  0.62398000  0.51988600  1
  Si  Si27  1  0.78597800  0.87602000  0.48011400  1
  O  O28  1  0.01275400  0.06669800  0.32128900  1
  O  O29  1  0.48724600  0.93330200  0.82128900  1
  O  O30  1  0.98724600  0.56669800  0.17871100  1
  O  O31  1  0.32128900  0.01275400  0.06669800  1
  O  O32  1  0.51275400  0.43330200  0.67871100  1
  O  O33  1  0.82128900  0.48724600  0.93330200  1
  O  O34  1  0.17871100  0.98724600  0.56669800  1
  O  O35  1  0.67871100  0.51275400  0.43330200  1
  O  O36  1  0.06669800  0.32128900  0.01275400  1
  O  O37  1  0.56669800  0.17871100  0.98724600  1
  O  O38  1  0.43330200  0.67871100  0.51275400  1
  O  O39  1  0.93330200  0.82128900  0.48724600  1
  O  O40  1  0.26477900  0.49361700  0.43700800  1
  O  O41  1  0.23522100  0.50638300  0.93700800  1
  O  O42  1  0.73522100  0.99361700  0.06299200  1
  O  O43  1  0.43700800  0.26477900  0.49361700  1
  O  O44  1  0.76477900  0.00638300  0.56299200  1
  O  O45  1  0.93700800  0.23522100  0.50638300  1
  O  O46  1  0.06299200  0.73522100  0.99361700  1
  O  O47  1  0.56299200  0.76477900  0.00638300  1
  O  O48  1  0.49361700  0.43700800  0.26477900  1
  O  O49  1  0.99361700  0.06299200  0.73522100  1
  O  O50  1  0.00638300  0.56299200  0.76477900  1
  O  O51  1  0.50638300  0.93700800  0.23522100  1
  O  O52  1  0.05111900  0.80833700  0.22835700  1
  O  O53  1  0.44888100  0.19166300  0.72835700  1
  O  O54  1  0.94888100  0.30833700  0.27164300  1
  O  O55  1  0.22835700  0.05111900  0.80833700  1
  O  O56  1  0.55111900  0.69166300  0.77164300  1
  O  O57  1  0.72835700  0.44888100  0.19166300  1
  O  O58  1  0.27164300  0.94888100  0.30833700  1
  O  O59  1  0.77164300  0.55111900  0.69166300  1
  O  O60  1  0.80833700  0.22835700  0.05111900  1
  O  O61  1  0.30833700  0.27164300  0.94888100  1
  O  O62  1  0.69166300  0.77164300  0.55111900  1
  O  O63  1  0.19166300  0.72835700  0.44888100  1
  O  O64  1  0.16603100  0.25659100  0.40696800  1
  O  O65  1  0.33396900  0.74340900  0.90696800  1
  O  O66  1  0.83396900  0.75659100  0.09303200  1
  O  O67  1  0.40696800  0.16603100  0.25659100  1
  O  O68  1  0.66603100  0.24340900  0.59303200  1
  O  O69  1  0.90696800  0.33396900  0.74340900  1
  O  O70  1  0.09303200  0.83396900  0.75659100  1
  O  O71  1  0.59303200  0.66603100  0.24340900  1
  O  O72  1  0.25659100  0.40696800  0.16603100  1
  O  O73  1  0.75659100  0.09303200  0.83396900  1
  O  O74  1  0.24340900  0.59303200  0.66603100  1
  O  O75  1  0.74340900  0.90696800  0.33396900  1
