# generated using pymatgen
data_Ba3Ho(BO2)9
_symmetry_space_group_name_H-M   'P 1'
_cell_length_a   7.27179011
_cell_length_b   7.27179011
_cell_length_c   17.47789500
_cell_angle_alpha   90.00000000
_cell_angle_beta   90.00000000
_cell_angle_gamma   120.00000102
_symmetry_Int_Tables_number   1
_chemical_formula_structural   Ba3Ho(BO2)9
_chemical_formula_sum   'Ba6 Ho2 B18 O36'
_cell_volume   800.39141842
_cell_formula_units_Z   2
loop_
 _symmetry_equiv_pos_site_id
 _symmetry_equiv_pos_as_xyz
  1  'x, y, z'
loop_
 _atom_site_type_symbol
 _atom_site_label
 _atom_site_symmetry_multiplicity
 _atom_site_fract_x
 _atom_site_fract_y
 _atom_site_fract_z
 _atom_site_occupancy
  Ba  Ba0  1  0.66666700  0.33333300  0.86777600  1
  Ba  Ba1  1  0.33333300  0.66666700  0.13222400  1
  Ba  Ba2  1  0.33333300  0.66666700  0.36777600  1
  Ba  Ba3  1  0.66666700  0.33333300  0.63222400  1
  Ba  Ba4  1  0.00000000  0.00000000  0.75000000  1
  Ba  Ba5  1  0.00000000  0.00000000  0.25000000  1
  Ho  Ho6  1  0.00000000  0.00000000  0.00000000  1
  Ho  Ho7  1  0.00000000  0.00000000  0.50000000  1
  B  B8  1  0.55038000  0.83484000  0.91834100  1
  B  B9  1  0.44962000  0.16516000  0.08165900  1
  B  B10  1  0.28446000  0.44962000  0.91834100  1
  B  B11  1  0.44962000  0.16516000  0.41834100  1
  B  B12  1  0.71554000  0.55038000  0.08165900  1
  B  B13  1  0.55038000  0.83484000  0.58165900  1
  B  B14  1  0.16516000  0.71554000  0.91834100  1
  B  B15  1  0.71554000  0.55038000  0.41834100  1
  B  B16  1  0.83484000  0.28446000  0.08165900  1
  B  B17  1  0.28446000  0.44962000  0.58165900  1
  B  B18  1  0.83484000  0.28446000  0.41834100  1
  B  B19  1  0.16516000  0.71554000  0.58165900  1
  B  B20  1  0.50480000  0.62220100  0.75000000  1
  B  B21  1  0.49520000  0.37779900  0.25000000  1
  B  B22  1  0.11740000  0.49520000  0.75000000  1
  B  B23  1  0.88260000  0.50480000  0.25000000  1
  B  B24  1  0.37779900  0.88260000  0.75000000  1
  B  B25  1  0.62220100  0.11740000  0.25000000  1
  O  O26  1  0.54198900  0.83302800  0.75000000  1
  O  O27  1  0.45801100  0.16697200  0.25000000  1
  O  O28  1  0.29103900  0.45801100  0.75000000  1
  O  O29  1  0.70896100  0.54198900  0.25000000  1
  O  O30  1  0.16697200  0.70896100  0.75000000  1
  O  O31  1  0.83302800  0.29103900  0.25000000  1
  O  O32  1  0.92004900  0.33292000  0.75000000  1
  O  O33  1  0.07995100  0.66708000  0.25000000  1
  O  O34  1  0.41287100  0.07995100  0.75000000  1
  O  O35  1  0.58712900  0.92004900  0.25000000  1
  O  O36  1  0.66708000  0.58712900  0.75000000  1
  O  O37  1  0.33292000  0.41287100  0.25000000  1
  O  O38  1  0.75021400  0.99464400  0.91943000  1
  O  O39  1  0.24978600  0.00535600  0.08057000  1
  O  O40  1  0.24443000  0.24978600  0.91943000  1
  O  O41  1  0.24978600  0.00535600  0.41943000  1
  O  O42  1  0.75557000  0.75021400  0.08057000  1
  O  O43  1  0.75021400  0.99464400  0.58057000  1
  O  O44  1  0.00535600  0.75557000  0.91943000  1
  O  O45  1  0.75557000  0.75021400  0.41943000  1
  O  O46  1  0.99464400  0.24443000  0.08057000  1
  O  O47  1  0.24443000  0.24978600  0.58057000  1
  O  O48  1  0.99464400  0.24443000  0.41943000  1
  O  O49  1  0.00535600  0.75557000  0.58057000  1
  O  O50  1  0.49647700  0.61955700  0.91803500  1
  O  O51  1  0.50352300  0.38044300  0.08196500  1
  O  O52  1  0.12307900  0.50352300  0.91803500  1
  O  O53  1  0.50352300  0.38044300  0.41803500  1
  O  O54  1  0.87692100  0.49647700  0.08196500  1
  O  O55  1  0.49647700  0.61955700  0.58196500  1
  O  O56  1  0.38044300  0.87692100  0.91803500  1
  O  O57  1  0.87692100  0.49647700  0.41803500  1
  O  O58  1  0.61955700  0.12307900  0.08196500  1
  O  O59  1  0.12307900  0.50352300  0.58196500  1
  O  O60  1  0.61955700  0.12307900  0.41803500  1
  O  O61  1  0.38044300  0.87692100  0.58196500  1
