# generated using pymatgen
data_AsH8NO4
_symmetry_space_group_name_H-M   'P 1'
_cell_length_a   7.44687393
_cell_length_b   7.44687393
_cell_length_c   7.44687393
_cell_angle_alpha   107.43288492
_cell_angle_beta   107.43288492
_cell_angle_gamma   113.62964710
_symmetry_Int_Tables_number   1
_chemical_formula_structural   AsH8NO4
_chemical_formula_sum   'As2 H16 N2 O8'
_cell_volume   316.64149668
_cell_formula_units_Z   2
loop_
 _symmetry_equiv_pos_site_id
 _symmetry_equiv_pos_as_xyz
  1  'x, y, z'
loop_
 _atom_site_type_symbol
 _atom_site_label
 _atom_site_symmetry_multiplicity
 _atom_site_fract_x
 _atom_site_fract_y
 _atom_site_fract_z
 _atom_site_occupancy
  As  As0  1  0.00000000  0.00000000  0.00000000  1
  As  As1  1  0.25000000  0.75000000  0.50000000  1
  H  H2  1  0.58030500  0.17871700  0.40141200  1
  H  H3  1  0.77730500  0.17889300  0.59858800  1
  H  H4  1  0.82110700  0.41969500  0.59841300  1
  H  H5  1  0.66969500  0.57110700  0.09841300  1
  H  H6  1  0.82128300  0.22269500  0.40158700  1
  H  H7  1  0.47269500  0.57128300  0.90158700  1
  H  H8  1  0.42889300  0.52730500  0.09858800  1
  H  H9  1  0.42871700  0.33030500  0.90141200  1
  H  H10  1  0.50358700  0.64862300  0.42926800  1
  H  H11  1  0.21935500  0.07431900  0.57073200  1
  H  H12  1  0.92568100  0.49641300  0.14503600  1
  H  H13  1  0.74641300  0.67568100  0.64503600  1
  H  H14  1  0.35137700  0.78064500  0.85496400  1
  H  H15  1  0.03064500  0.10137700  0.35496400  1
  H  H16  1  0.32431900  0.96935500  0.07073200  1
  H  H17  1  0.89862300  0.25358700  0.92926800  1
  N  N18  1  0.50000000  0.50000000  0.00000000  1
  N  N19  1  0.75000000  0.25000000  0.50000000  1
  O  O20  1  0.31440200  0.07641600  0.17549200  1
  O  O21  1  0.90092500  0.13891000  0.82450800  1
  O  O22  1  0.86109000  0.68559800  0.76201400  1
  O  O23  1  0.93559800  0.61109000  0.26201400  1
  O  O24  1  0.92358400  0.09907500  0.23798600  1
  O  O25  1  0.34907500  0.67358400  0.73798600  1
  O  O26  1  0.38891000  0.65092500  0.32450800  1
  O  O27  1  0.32641600  0.06440200  0.67549200  1
