# generated using pymatgen
data_Ba2ErZn2CuO7
_symmetry_space_group_name_H-M   'P 1'
_cell_length_a   3.92208200
_cell_length_b   4.00253800
_cell_length_c   11.65125800
_cell_angle_alpha   90.00000000
_cell_angle_beta   90.00000000
_cell_angle_gamma   90.00000000
_symmetry_Int_Tables_number   1
_chemical_formula_structural   Ba2ErZn2CuO7
_chemical_formula_sum   'Ba2 Er1 Zn2 Cu1 O7'
_cell_volume   182.90473658
_cell_formula_units_Z   1
loop_
 _symmetry_equiv_pos_site_id
 _symmetry_equiv_pos_as_xyz
  1  'x, y, z'
loop_
 _atom_site_type_symbol
 _atom_site_label
 _atom_site_symmetry_multiplicity
 _atom_site_fract_x
 _atom_site_fract_y
 _atom_site_fract_z
 _atom_site_occupancy
  Ba  Ba0  1  0.50000000  0.50000000  0.18053300  1
  Ba  Ba1  1  0.50000000  0.50000000  0.81946700  1
  Er  Er2  1  0.50000000  0.50000000  0.50000000  1
  Zn  Zn3  1  0.00000000  0.00000000  0.34320700  1
  Zn  Zn4  1  0.00000000  0.00000000  0.65679300  1
  Cu  Cu5  1  0.00000000  0.00000000  0.00000000  1
  O  O6  1  0.50000000  0.00000000  0.38029800  1
  O  O7  1  0.50000000  0.00000000  0.61970200  1
  O  O8  1  0.00000000  0.50000000  0.37957200  1
  O  O9  1  0.00000000  0.50000000  0.62042800  1
  O  O10  1  0.00000000  0.00000000  0.16193600  1
  O  O11  1  0.00000000  0.00000000  0.83806400  1
  O  O12  1  0.00000000  0.50000000  0.00000000  1
