# generated using pymatgen
data_CsPbBr3
_symmetry_space_group_name_H-M   'P 1'
_cell_length_a   8.43631265
_cell_length_b   8.43631265
_cell_length_c   6.02834400
_cell_angle_alpha   90.00000000
_cell_angle_beta   90.00000000
_cell_angle_gamma   90.13887476
_symmetry_Int_Tables_number   1
_chemical_formula_structural   CsPbBr3
_chemical_formula_sum   'Cs2 Pb2 Br6'
_cell_volume   429.04424749
_cell_formula_units_Z   2
loop_
 _symmetry_equiv_pos_site_id
 _symmetry_equiv_pos_as_xyz
  1  'x, y, z'
loop_
 _atom_site_type_symbol
 _atom_site_label
 _atom_site_symmetry_multiplicity
 _atom_site_fract_x
 _atom_site_fract_y
 _atom_site_fract_z
 _atom_site_occupancy
  Cs  Cs0  1  0.50109700  0.49890300  0.50000000  1
  Cs  Cs1  1  0.00022300  0.99977700  0.50000000  1
  Pb  Pb2  1  0.99587600  0.50468600  0.00000000  1
  Pb  Pb3  1  0.49531400  0.00412400  0.00000000  1
  Br  Br4  1  0.20115000  0.21270200  0.00000000  1
  Br  Br5  1  0.47328800  0.02638400  0.50000000  1
  Br  Br6  1  0.97361600  0.52671200  0.50000000  1
  Br  Br7  1  0.29262000  0.70738000  0.00000000  1
  Br  Br8  1  0.70751800  0.29248200  0.00000000  1
  Br  Br9  1  0.78729800  0.79885000  0.00000000  1
