# generated using pymatgen
data_BC12ClF10
_symmetry_space_group_name_H-M   'P 1'
_cell_length_a   6.49611200
_cell_length_b   14.75944000
_cell_length_c   16.98184095
_cell_angle_alpha   57.45976846
_cell_angle_beta   90.00000000
_cell_angle_gamma   90.00000000
_symmetry_Int_Tables_number   1
_chemical_formula_structural   BC12ClF10
_chemical_formula_sum   'B4 C48 Cl4 F40'
_cell_volume   1372.59660295
_cell_formula_units_Z   4
loop_
 _symmetry_equiv_pos_site_id
 _symmetry_equiv_pos_as_xyz
  1  'x, y, z'
loop_
 _atom_site_type_symbol
 _atom_site_label
 _atom_site_symmetry_multiplicity
 _atom_site_fract_x
 _atom_site_fract_y
 _atom_site_fract_z
 _atom_site_occupancy
  B  B0  1  0.72656900  0.74929200  0.31404000  1
  B  B1  1  0.27343100  0.25070800  0.68596000  1
  B  B2  1  0.22656900  0.25070800  0.18596000  1
  B  B3  1  0.77343100  0.74929200  0.81404000  1
  C  C4  1  0.78873100  0.49839500  0.15653100  1
  C  C5  1  0.21126900  0.50160500  0.84346900  1
  C  C6  1  0.28873100  0.50160500  0.34346900  1
  C  C7  1  0.71126900  0.49839500  0.65653100  1
  C  C8  1  0.87592700  0.31381700  0.21535200  1
  C  C9  1  0.12407300  0.68618300  0.78464800  1
  C  C10  1  0.37592700  0.68618300  0.28464800  1
  C  C11  1  0.62407300  0.31381700  0.71535200  1
  C  C12  1  0.75131800  0.86123800  0.21948900  1
  C  C13  1  0.24868200  0.13876200  0.78051100  1
  C  C14  1  0.25131800  0.13876200  0.28051100  1
  C  C15  1  0.74868200  0.86123800  0.71948900  1
  C  C16  1  0.97819900  0.52913400  0.11084600  1
  C  C17  1  0.02180100  0.47086600  0.88915400  1
  C  C18  1  0.47819900  0.47086600  0.38915400  1
  C  C19  1  0.52180100  0.52913400  0.61084600  1
  C  C20  1  0.56986000  0.66008000  0.32836200  1
  C  C21  1  0.43014000  0.33992000  0.67163800  1
  C  C22  1  0.06986000  0.33992000  0.17163800  1
  C  C23  1  0.93014000  0.66008000  0.82836200  1
  C  C24  1  0.32064500  0.94359200  0.37087400  1
  C  C25  1  0.67935500  0.05640800  0.62912600  1
  C  C26  1  0.82064500  0.05640800  0.12912600  1
  C  C27  1  0.17935500  0.94359200  0.87087400  1
  C  C28  1  0.72933400  0.87151000  0.13268800  1
  C  C29  1  0.27066600  0.12849000  0.86731200  1
  C  C30  1  0.22933400  0.12849000  0.36731200  1
  C  C31  1  0.77066600  0.87151000  0.63268800  1
  C  C32  1  0.79925600  0.95789000  0.21358900  1
  C  C33  1  0.20074400  0.04211000  0.78641100  1
  C  C34  1  0.29925600  0.04211000  0.28641100  1
  C  C35  1  0.70074400  0.95789000  0.71358900  1
  C  C36  1  0.61206900  0.54892700  0.38209000  1
  C  C37  1  0.38793100  0.45107300  0.61791000  1
  C  C38  1  0.11206900  0.45107300  0.11791000  1
  C  C39  1  0.88793100  0.54892700  0.88209000  1
  C  C40  1  0.29551400  0.93788900  0.45486300  1
  C  C41  1  0.70448600  0.06211100  0.54513700  1
  C  C42  1  0.79551400  0.06211100  0.04513700  1
  C  C43  1  0.20448600  0.93788900  0.95486300  1
  C  C44  1  0.75060000  0.96847200  0.04713000  1
  C  C45  1  0.24940000  0.03152800  0.95287000  1
  C  C46  1  0.25060000  0.03152800  0.45287000  1
  C  C47  1  0.74940000  0.96847200  0.54713000  1
  C  C48  1  0.73722100  0.38956700  0.20859800  1
  C  C49  1  0.26277900  0.61043300  0.79140200  1
  C  C50  1  0.23722100  0.61043300  0.29140200  1
  C  C51  1  0.76277900  0.38956700  0.70859800  1
  Cl  Cl52  1  0.88778300  0.72246900  0.40706000  1
  Cl  Cl53  1  0.11221700  0.27753100  0.59294000  1
  Cl  Cl54  1  0.38778300  0.27753100  0.09294000  1
  Cl  Cl55  1  0.61221700  0.72246900  0.90706000  1
  F  F56  1  0.68660200  0.78467000  0.12827500  1
  F  F57  1  0.31339800  0.21533000  0.87172500  1
  F  F58  1  0.18660200  0.21533000  0.37172500  1
  F  F59  1  0.81339800  0.78467000  0.62827500  1
  F  F60  1  0.55326800  0.35945900  0.25231400  1
  F  F61  1  0.44673200  0.64054100  0.74768600  1
  F  F62  1  0.05326800  0.64054100  0.24768600  1
  F  F63  1  0.94673200  0.35945900  0.75231400  1
  F  F64  1  0.79325000  0.51178700  0.42776600  1
  F  F65  1  0.20675000  0.48821300  0.57223400  1
  F  F66  1  0.29325000  0.48821300  0.07223400  1
  F  F67  1  0.70675000  0.51178700  0.92776600  1
  F  F68  1  0.77324900  0.97290100  0.46614400  1
  F  F69  1  0.22675100  0.02709900  0.53385600  1
  F  F70  1  0.27324900  0.02709900  0.03385600  1
  F  F71  1  0.72675100  0.97290100  0.96614400  1
  F  F72  1  0.46953400  0.63380200  0.56089800  1
  F  F73  1  0.53046600  0.36619800  0.43910200  1
  F  F74  1  0.96953400  0.36619800  0.93910200  1
  F  F75  1  0.03046600  0.63380200  0.06089800  1
  F  F76  1  0.81999200  0.96082100  0.29147300  1
  F  F77  1  0.18000800  0.03917900  0.70852700  1
  F  F78  1  0.31999200  0.03917900  0.20852700  1
  F  F79  1  0.68000800  0.96082100  0.79147300  1
  F  F80  1  0.31440700  0.78983900  0.23275300  1
  F  F81  1  0.68559300  0.21016100  0.76724700  1
  F  F82  1  0.81440700  0.21016100  0.26724700  1
  F  F83  1  0.18559300  0.78983900  0.73275300  1
  F  F84  1  0.65725100  0.57155000  0.15113300  1
  F  F85  1  0.34274900  0.42845000  0.84886700  1
  F  F86  1  0.15725100  0.42845000  0.34886700  1
  F  F87  1  0.84274900  0.57155000  0.65113300  1
  F  F88  1  0.18451400  0.84390600  0.03672700  1
  F  F89  1  0.81548600  0.15609400  0.96327300  1
  F  F90  1  0.68451400  0.15609400  0.46327300  1
  F  F91  1  0.31548600  0.84390600  0.53672700  1
  F  F92  1  0.36521500  0.85350100  0.37239200  1
  F  F93  1  0.63478500  0.14649900  0.62760800  1
  F  F94  1  0.86521500  0.14649900  0.12760800  1
  F  F95  1  0.13478500  0.85350100  0.87239200  1
