# generated using pymatgen
data_Al3FeSiBO9
_symmetry_space_group_name_H-M   'P 1'
_cell_length_a   5.83352700
_cell_length_b   10.46132300
_cell_length_c   11.23762700
_cell_angle_alpha   90.00000000
_cell_angle_beta   90.00000000
_cell_angle_gamma   90.00000000
_symmetry_Int_Tables_number   1
_chemical_formula_structural   Al3FeSiBO9
_chemical_formula_sum   'Al12 Fe4 Si4 B4 O36'
_cell_volume   685.79203471
_cell_formula_units_Z   4
loop_
 _symmetry_equiv_pos_site_id
 _symmetry_equiv_pos_as_xyz
  1  'x, y, z'
loop_
 _atom_site_type_symbol
 _atom_site_label
 _atom_site_symmetry_multiplicity
 _atom_site_fract_x
 _atom_site_fract_y
 _atom_site_fract_z
 _atom_site_occupancy
  Al  Al0  1  0.25000000  0.27327000  0.05200700  1
  Al  Al1  1  0.75000000  0.72673000  0.94799300  1
  Al  Al2  1  0.75000000  0.77327000  0.44799300  1
  Al  Al3  1  0.25000000  0.22673000  0.55200700  1
  Al  Al4  1  0.00000000  0.50000000  0.00000000  1
  Al  Al5  1  0.00000000  0.00000000  0.50000000  1
  Al  Al6  1  0.50000000  0.50000000  0.00000000  1
  Al  Al7  1  0.50000000  0.00000000  0.50000000  1
  Al  Al8  1  0.00000000  0.00000000  0.00000000  1
  Al  Al9  1  0.00000000  0.50000000  0.50000000  1
  Al  Al10  1  0.50000000  0.00000000  0.00000000  1
  Al  Al11  1  0.50000000  0.50000000  0.50000000  1
  Fe  Fe12  1  0.25000000  0.40640800  0.28132500  1
  Fe  Fe13  1  0.75000000  0.59359200  0.71867500  1
  Fe  Fe14  1  0.75000000  0.90640800  0.21867500  1
  Fe  Fe15  1  0.25000000  0.09359200  0.78132500  1
  Si  Si16  1  0.25000000  0.06504000  0.23632400  1
  Si  Si17  1  0.75000000  0.93496000  0.76367600  1
  Si  Si18  1  0.75000000  0.56504000  0.26367600  1
  Si  Si19  1  0.25000000  0.43496000  0.73632400  1
  B  B20  1  0.25000000  0.74898700  0.00006800  1
  B  B21  1  0.75000000  0.25101300  0.99993200  1
  B  B22  1  0.75000000  0.24898700  0.49993200  1
  B  B23  1  0.25000000  0.75101300  0.50006800  1
  O  O24  1  0.04582000  0.68096100  0.00095300  1
  O  O25  1  0.95418000  0.31903900  0.99904700  1
  O  O26  1  0.95418000  0.18096100  0.49904700  1
  O  O27  1  0.54582000  0.31903900  0.99904700  1
  O  O28  1  0.04582000  0.81903900  0.50095300  1
  O  O29  1  0.45418000  0.68096100  0.00095300  1
  O  O30  1  0.45418000  0.81903900  0.50095300  1
  O  O31  1  0.54582000  0.18096100  0.49904700  1
  O  O32  1  0.02450300  0.00607000  0.16954000  1
  O  O33  1  0.97549700  0.99393000  0.83046000  1
  O  O34  1  0.97549700  0.50607000  0.33046000  1
  O  O35  1  0.52450300  0.99393000  0.83046000  1
  O  O36  1  0.02450300  0.49393000  0.66954000  1
  O  O37  1  0.47549700  0.00607000  0.16954000  1
  O  O38  1  0.47549700  0.49393000  0.66954000  1
  O  O39  1  0.52450300  0.50607000  0.33046000  1
  O  O40  1  0.25000000  0.45283800  0.09583600  1
  O  O41  1  0.75000000  0.54716200  0.90416400  1
  O  O42  1  0.75000000  0.95283800  0.40416400  1
  O  O43  1  0.25000000  0.04716200  0.59583600  1
  O  O44  1  0.25000000  0.22190400  0.20834200  1
  O  O45  1  0.75000000  0.77809600  0.79165800  1
  O  O46  1  0.75000000  0.72190400  0.29165800  1
  O  O47  1  0.25000000  0.27809600  0.70834200  1
  O  O48  1  0.25000000  0.02590800  0.37822200  1
  O  O49  1  0.75000000  0.97409200  0.62177800  1
  O  O50  1  0.75000000  0.52590800  0.12177800  1
  O  O51  1  0.25000000  0.47409200  0.87822200  1
  O  O52  1  0.25000000  0.38250200  0.48080000  1
  O  O53  1  0.75000000  0.61749800  0.51920000  1
  O  O54  1  0.75000000  0.88250200  0.01920000  1
  O  O55  1  0.25000000  0.11749800  0.98080000  1
  O  O56  1  0.25000000  0.62158800  0.49577400  1
  O  O57  1  0.75000000  0.37841200  0.50422600  1
  O  O58  1  0.75000000  0.12158800  0.00422600  1
  O  O59  1  0.25000000  0.87841200  0.99577400  1
