# generated using pymatgen
data_B(HO)2
_symmetry_space_group_name_H-M   'P 1'
_cell_length_a   9.48587000
_cell_length_b   8.22438000
_cell_length_c   9.34390088
_cell_angle_alpha   58.33957320
_cell_angle_beta   90.00000000
_cell_angle_gamma   90.00000000
_symmetry_Int_Tables_number   1
_chemical_formula_structural   B(HO)2
_chemical_formula_sum   'B8 H16 O16'
_cell_volume   620.47862868
_cell_formula_units_Z   8
loop_
 _symmetry_equiv_pos_site_id
 _symmetry_equiv_pos_as_xyz
  1  'x, y, z'
loop_
 _atom_site_type_symbol
 _atom_site_label
 _atom_site_symmetry_multiplicity
 _atom_site_fract_x
 _atom_site_fract_y
 _atom_site_fract_z
 _atom_site_occupancy
  B  B0  1  0.92986900  0.99626900  0.05980100  1
  B  B1  1  0.07013100  0.00373100  0.94019900  1
  B  B2  1  0.42986900  0.00373100  0.44019900  1
  B  B3  1  0.57013100  0.99626900  0.55980100  1
  B  B4  1  0.55749700  0.50303700  0.06954800  1
  B  B5  1  0.44250300  0.49696300  0.93045200  1
  B  B6  1  0.05749700  0.49696300  0.43045200  1
  B  B7  1  0.94250300  0.50303700  0.56954800  1
  H  H8  1  0.77424400  0.50203300  0.45217900  1
  H  H9  1  0.22575600  0.49796700  0.54782100  1
  H  H10  1  0.27424400  0.49796700  0.04782100  1
  H  H11  1  0.72575600  0.50203300  0.95217900  1
  H  H12  1  0.72126100  0.99130400  0.07725900  1
  H  H13  1  0.27873900  0.00869600  0.92274100  1
  H  H14  1  0.22126100  0.00869600  0.42274100  1
  H  H15  1  0.77873900  0.99130400  0.57725900  1
  H  H16  1  0.57281500  0.50779200  0.27906000  1
  H  H17  1  0.42718500  0.49220800  0.72094000  1
  H  H18  1  0.07281500  0.49220800  0.22094000  1
  H  H19  1  0.92718500  0.50779200  0.77906000  1
  H  H20  1  0.54563800  0.00344500  0.26885100  1
  H  H21  1  0.45436200  0.99655500  0.73114900  1
  H  H22  1  0.04563800  0.99655500  0.23114900  1
  H  H23  1  0.95436200  0.00344500  0.76885100  1
  O  O24  1  0.50216400  0.50506200  0.20486000  1
  O  O25  1  0.49783600  0.49493800  0.79514000  1
  O  O26  1  0.00216400  0.49493800  0.29514000  1
  O  O27  1  0.99783600  0.50506200  0.70486000  1
  O  O28  1  0.70142500  0.50373900  0.05253000  1
  O  O29  1  0.29857500  0.49626100  0.94747000  1
  O  O30  1  0.20142500  0.49626100  0.44747000  1
  O  O31  1  0.79857500  0.50373900  0.55253000  1
  O  O32  1  0.94605500  0.99346500  0.20758500  1
  O  O33  1  0.05394500  0.00653500  0.79241500  1
  O  O34  1  0.44605500  0.00653500  0.29241500  1
  O  O35  1  0.55394500  0.99346500  0.70758500  1
  O  O36  1  0.79598200  0.99475600  0.00432900  1
  O  O37  1  0.20401800  0.00524400  0.99567100  1
  O  O38  1  0.29598200  0.00524400  0.49567100  1
  O  O39  1  0.70401800  0.99475600  0.50432900  1
