# generated using pymatgen
data_Ba(InSb2)2
_symmetry_space_group_name_H-M   'P 1'
_cell_length_a   4.58718300
_cell_length_b   10.44082900
_cell_length_c   19.87182000
_cell_angle_alpha   90.00000000
_cell_angle_beta   90.00000000
_cell_angle_gamma   90.00000000
_symmetry_Int_Tables_number   1
_chemical_formula_structural   Ba(InSb2)2
_chemical_formula_sum   'Ba4 In8 Sb16'
_cell_volume   951.74081383
_cell_formula_units_Z   4
loop_
 _symmetry_equiv_pos_site_id
 _symmetry_equiv_pos_as_xyz
  1  'x, y, z'
loop_
 _atom_site_type_symbol
 _atom_site_label
 _atom_site_symmetry_multiplicity
 _atom_site_fract_x
 _atom_site_fract_y
 _atom_site_fract_z
 _atom_site_occupancy
  Ba  Ba0  1  0.25000000  0.75249800  0.54493500  1
  Ba  Ba1  1  0.75000000  0.24750200  0.45506500  1
  Ba  Ba2  1  0.75000000  0.74750200  0.04493500  1
  Ba  Ba3  1  0.25000000  0.25249800  0.95506500  1
  In  In4  1  0.25000000  0.64951000  0.86423800  1
  In  In5  1  0.75000000  0.35049000  0.13576200  1
  In  In6  1  0.75000000  0.85049000  0.36423800  1
  In  In7  1  0.25000000  0.14951000  0.63576200  1
  In  In8  1  0.25000000  0.62280400  0.22975400  1
  In  In9  1  0.75000000  0.37719600  0.77024600  1
  In  In10  1  0.75000000  0.87719600  0.72975400  1
  In  In11  1  0.25000000  0.12280400  0.27024600  1
  Sb  Sb12  1  0.25000000  0.50074300  0.09807100  1
  Sb  Sb13  1  0.75000000  0.49925700  0.90192900  1
  Sb  Sb14  1  0.75000000  0.99925700  0.59807100  1
  Sb  Sb15  1  0.25000000  0.00074300  0.40192900  1
  Sb  Sb16  1  0.25000000  0.89804300  0.92928000  1
  Sb  Sb17  1  0.75000000  0.10195700  0.07072000  1
  Sb  Sb18  1  0.75000000  0.60195700  0.42928000  1
  Sb  Sb19  1  0.25000000  0.39804300  0.57072000  1
  Sb  Sb20  1  0.25000000  0.97785600  0.14229900  1
  Sb  Sb21  1  0.75000000  0.02214400  0.85770100  1
  Sb  Sb22  1  0.75000000  0.52214400  0.64229900  1
  Sb  Sb23  1  0.25000000  0.47785600  0.35770100  1
  Sb  Sb24  1  0.25000000  0.70572500  0.72497200  1
  Sb  Sb25  1  0.75000000  0.29427500  0.27502800  1
  Sb  Sb26  1  0.75000000  0.79427500  0.22497200  1
  Sb  Sb27  1  0.25000000  0.20572500  0.77502800  1
