# generated using pymatgen
data_Ag2H8C2S2N5ClO3
_symmetry_space_group_name_H-M   'P 1'
_cell_length_a   6.53473300
_cell_length_b   7.88953820
_cell_length_c   12.09124383
_cell_angle_alpha   82.47973818
_cell_angle_beta   82.76580382
_cell_angle_gamma   77.40187849
_symmetry_Int_Tables_number   1
_chemical_formula_structural   Ag2H8C2S2N5ClO3
_chemical_formula_sum   'Ag4 H16 C4 S4 N10 Cl2 O6'
_cell_volume   600.07257519
_cell_formula_units_Z   2
loop_
 _symmetry_equiv_pos_site_id
 _symmetry_equiv_pos_as_xyz
  1  'x, y, z'
loop_
 _atom_site_type_symbol
 _atom_site_label
 _atom_site_symmetry_multiplicity
 _atom_site_fract_x
 _atom_site_fract_y
 _atom_site_fract_z
 _atom_site_occupancy
  Ag  Ag0  1  0.57504600  0.66732800  0.06484600  1
  Ag  Ag1  1  0.42495400  0.33267200  0.93515400  1
  Ag  Ag2  1  0.01176100  0.62759100  0.84506700  1
  Ag  Ag3  1  0.98823900  0.37240900  0.15493300  1
  H  H4  1  0.26727700  0.58387000  0.26061700  1
  H  H5  1  0.73272300  0.41613000  0.73938300  1
  H  H6  1  0.51222800  0.02589900  0.64524400  1
  H  H7  1  0.48777200  0.97410100  0.35475600  1
  H  H8  1  0.23053300  0.00731200  0.31449800  1
  H  H9  1  0.76946700  0.99268800  0.68550200  1
  H  H10  1  0.75435600  0.29943000  0.42894200  1
  H  H11  1  0.24564400  0.70057000  0.57105800  1
  H  H12  1  0.76247400  0.02392900  0.22607800  1
  H  H13  1  0.23752600  0.97607100  0.77392200  1
  H  H14  1  0.71440100  0.11665300  0.08888300  1
  H  H15  1  0.28559900  0.88334700  0.91111700  1
  H  H16  1  0.49833200  0.25447800  0.45982600  1
  H  H17  1  0.50166800  0.74552200  0.54017400  1
  H  H18  1  0.22110700  0.42491500  0.37202600  1
  H  H19  1  0.77889300  0.57508500  0.62797400  1
  C  C20  1  0.45311000  0.07488400  0.19225000  1
  C  C21  1  0.54689000  0.92511600  0.80775000  1
  C  C22  1  0.52899400  0.45019700  0.33396000  1
  C  C23  1  0.47100600  0.54980300  0.66604000  1
  S  S24  1  0.29864200  0.42873200  0.74576500  1
  S  S25  1  0.70135800  0.57126800  0.25423500  1
  S  S26  1  0.27752600  0.13863900  0.08973200  1
  S  S27  1  0.72247400  0.86136100  0.91026800  1
  N  N28  1  0.12041100  0.16796700  0.55918300  1
  N  N29  1  0.87958900  0.83203300  0.44081700  1
  N  N30  1  0.65823200  0.07291500  0.16746200  1
  N  N31  1  0.34176800  0.92708500  0.83253800  1
  N  N32  1  0.38296300  0.01989900  0.29565200  1
  N  N33  1  0.61703700  0.98010100  0.70434800  1
  N  N34  1  0.60079200  0.32385300  0.41216000  1
  N  N35  1  0.39920800  0.67614700  0.58784000  1
  N  N36  1  0.32432200  0.48899700  0.32103200  1
  N  N37  1  0.67567800  0.51100300  0.67896800  1
  Cl  Cl38  1  0.18331600  0.65999500  0.05749200  1
  Cl  Cl39  1  0.81668400  0.34000500  0.94250800  1
  O  O40  1  0.31970900  0.11489200  0.54157700  1
  O  O41  1  0.68029100  0.88510800  0.45842300  1
  O  O42  1  0.02618300  0.28121900  0.48822300  1
  O  O43  1  0.97381700  0.71878100  0.51177700  1
  O  O44  1  0.02179100  0.10671100  0.64661300  1
  O  O45  1  0.97820900  0.89328900  0.35338700  1
