# generated using pymatgen
data_Ba2LaV3O11
_symmetry_space_group_name_H-M   'P 1'
_cell_length_a   7.88892100
_cell_length_b   12.63535601
_cell_length_c   11.56477080
_cell_angle_alpha   103.45246787
_cell_angle_beta   90.00000000
_cell_angle_gamma   90.00000000
_symmetry_Int_Tables_number   1
_chemical_formula_structural   Ba2LaV3O11
_chemical_formula_sum   'Ba8 La4 V12 O44'
_cell_volume   1121.14032927
_cell_formula_units_Z   4
loop_
 _symmetry_equiv_pos_site_id
 _symmetry_equiv_pos_as_xyz
  1  'x, y, z'
loop_
 _atom_site_type_symbol
 _atom_site_label
 _atom_site_symmetry_multiplicity
 _atom_site_fract_x
 _atom_site_fract_y
 _atom_site_fract_z
 _atom_site_occupancy
  Ba  Ba0  1  0.27319400  0.76439700  0.94166900  1
  Ba  Ba1  1  0.72680600  0.23560300  0.05833100  1
  Ba  Ba2  1  0.77319400  0.23560300  0.55833100  1
  Ba  Ba3  1  0.22680600  0.76439700  0.44166900  1
  Ba  Ba4  1  0.74668600  0.55381800  0.88905700  1
  Ba  Ba5  1  0.25331400  0.44618200  0.11094300  1
  Ba  Ba6  1  0.24668600  0.44618200  0.61094300  1
  Ba  Ba7  1  0.75331400  0.55381800  0.38905700  1
  La  La8  1  0.50009700  0.99744400  0.71578900  1
  La  La9  1  0.49990300  0.00255600  0.28421100  1
  La  La10  1  0.00009700  0.00255600  0.78421100  1
  La  La11  1  0.99990300  0.99744400  0.21578900  1
  V  V12  1  0.74996300  0.90261700  0.97486400  1
  V  V13  1  0.25003700  0.09738300  0.02513600  1
  V  V14  1  0.24996300  0.09738300  0.52513600  1
  V  V15  1  0.75003700  0.90261700  0.47486400  1
  V  V16  1  0.52010500  0.68224900  0.67347400  1
  V  V17  1  0.47989500  0.31775100  0.32652600  1
  V  V18  1  0.02010500  0.31775100  0.82652600  1
  V  V19  1  0.97989500  0.68224900  0.17347400  1
  V  V20  1  0.98060300  0.68537500  0.66948200  1
  V  V21  1  0.01939700  0.31462500  0.33051800  1
  V  V22  1  0.48060300  0.31462500  0.83051800  1
  V  V23  1  0.51939700  0.68537500  0.16948200  1
  O  O24  1  0.44171700  0.81320200  0.72027900  1
  O  O25  1  0.55828300  0.18679800  0.27972100  1
  O  O26  1  0.94171700  0.18679800  0.77972100  1
  O  O27  1  0.05828300  0.81320200  0.22027900  1
  O  O28  1  0.55200800  0.18241000  0.81074300  1
  O  O29  1  0.44799200  0.81759000  0.18925700  1
  O  O30  1  0.05200800  0.81759000  0.68925700  1
  O  O31  1  0.94799200  0.18241000  0.31074300  1
  O  O32  1  0.75041600  0.66773800  0.66699000  1
  O  O33  1  0.24958400  0.33226200  0.33301000  1
  O  O34  1  0.25041600  0.33226200  0.83301000  1
  O  O35  1  0.74958400  0.66773800  0.16699000  1
  O  O36  1  0.94643800  0.37540200  0.96538200  1
  O  O37  1  0.05356200  0.62459800  0.03461800  1
  O  O38  1  0.44643800  0.62459800  0.53461800  1
  O  O39  1  0.55356200  0.37540200  0.46538200  1
  O  O40  1  0.94388500  0.39357900  0.73324700  1
  O  O41  1  0.05611500  0.60642100  0.26675300  1
  O  O42  1  0.44388500  0.60642100  0.76675300  1
  O  O43  1  0.55611500  0.39357900  0.23324700  1
  O  O44  1  0.78641600  0.98557600  0.61932200  1
  O  O45  1  0.21358400  0.01442400  0.38067800  1
  O  O46  1  0.28641600  0.01442400  0.88067800  1
  O  O47  1  0.71358400  0.98557600  0.11932200  1
  O  O48  1  0.96626700  0.87919200  0.97228700  1
  O  O49  1  0.03373300  0.12080800  0.02771300  1
  O  O50  1  0.46626700  0.12080800  0.52771300  1
  O  O51  1  0.53373300  0.87919200  0.47228700  1
  O  O52  1  0.63551100  0.78523300  0.94558000  1
  O  O53  1  0.36448900  0.21476700  0.05442000  1
  O  O54  1  0.13551100  0.21476700  0.55442000  1
  O  O55  1  0.86448900  0.78523300  0.44558000  1
  O  O56  1  0.71678900  0.98190100  0.86804000  1
  O  O57  1  0.28321100  0.01809900  0.13196000  1
  O  O58  1  0.21678900  0.01809900  0.63196000  1
  O  O59  1  0.78321100  0.98190100  0.36804000  1
  O  O60  1  0.55813600  0.36998700  0.72059100  1
  O  O61  1  0.44186400  0.63001300  0.27940900  1
  O  O62  1  0.05813600  0.63001300  0.77940900  1
  O  O63  1  0.94186400  0.36998700  0.22059100  1
  O  O64  1  0.56069900  0.38922600  0.96172700  1
  O  O65  1  0.43930100  0.61077400  0.03827300  1
  O  O66  1  0.06069900  0.61077400  0.53827300  1
  O  O67  1  0.93930100  0.38922600  0.46172700  1
