# generated using pymatgen
data_Al2HPb(CO5)2
_symmetry_space_group_name_H-M   'P 1'
_cell_length_a   5.92245900
_cell_length_b   8.84673400
_cell_length_c   16.46394400
_cell_angle_alpha   90.00000000
_cell_angle_beta   90.00000000
_cell_angle_gamma   90.00000000
_symmetry_Int_Tables_number   1
_chemical_formula_structural   Al2HPb(CO5)2
_chemical_formula_sum   'Al8 H4 Pb4 C8 O40'
_cell_volume   862.61878690
_cell_formula_units_Z   4
loop_
 _symmetry_equiv_pos_site_id
 _symmetry_equiv_pos_as_xyz
  1  'x, y, z'
loop_
 _atom_site_type_symbol
 _atom_site_label
 _atom_site_symmetry_multiplicity
 _atom_site_fract_x
 _atom_site_fract_y
 _atom_site_fract_z
 _atom_site_occupancy
  Al  Al0  1  0.49593200  0.15956300  0.29904100  1
  Al  Al1  1  0.50406800  0.84043700  0.70095900  1
  Al  Al2  1  0.50406800  0.65956300  0.20095900  1
  Al  Al3  1  0.99593200  0.84043700  0.70095900  1
  Al  Al4  1  0.49593200  0.34043700  0.79904100  1
  Al  Al5  1  0.00406800  0.15956300  0.29904100  1
  Al  Al6  1  0.00406800  0.34043700  0.79904100  1
  Al  Al7  1  0.99593200  0.65956300  0.20095900  1
  H  H8  1  0.25000000  0.39064700  0.04123200  1
  H  H9  1  0.75000000  0.60935300  0.95876800  1
  H  H10  1  0.75000000  0.89064700  0.45876800  1
  H  H11  1  0.25000000  0.10935300  0.54123200  1
  Pb  Pb12  1  0.25000000  0.48210000  0.40399000  1
  Pb  Pb13  1  0.75000000  0.51790000  0.59601000  1
  Pb  Pb14  1  0.75000000  0.98210000  0.09601000  1
  Pb  Pb15  1  0.25000000  0.01790000  0.90399000  1
  C  C16  1  0.25000000  0.73858800  0.04967000  1
  C  C17  1  0.75000000  0.26141200  0.95033000  1
  C  C18  1  0.75000000  0.23858800  0.45033000  1
  C  C19  1  0.25000000  0.76141200  0.54967000  1
  C  C20  1  0.25000000  0.08111700  0.14797500  1
  C  C21  1  0.75000000  0.91888300  0.85202500  1
  C  C22  1  0.75000000  0.58111700  0.35202500  1
  C  C23  1  0.25000000  0.41888300  0.64797500  1
  O  O24  1  0.25000000  0.74103600  0.47301800  1
  O  O25  1  0.75000000  0.25896400  0.52698200  1
  O  O26  1  0.75000000  0.24103600  0.02698200  1
  O  O27  1  0.25000000  0.75896400  0.97301800  1
  O  O28  1  0.05713900  0.09948500  0.18643400  1
  O  O29  1  0.94286100  0.90051500  0.81356600  1
  O  O30  1  0.94286100  0.59948500  0.31356600  1
  O  O31  1  0.55713900  0.90051500  0.81356600  1
  O  O32  1  0.05713900  0.40051500  0.68643400  1
  O  O33  1  0.44286100  0.09948500  0.18643400  1
  O  O34  1  0.44286100  0.40051500  0.68643400  1
  O  O35  1  0.55713900  0.59948500  0.31356600  1
  O  O36  1  0.55845400  0.22903900  0.41203800  1
  O  O37  1  0.44154600  0.77096100  0.58796200  1
  O  O38  1  0.44154600  0.72903900  0.08796200  1
  O  O39  1  0.05845400  0.77096100  0.58796200  1
  O  O40  1  0.55845400  0.27096100  0.91203800  1
  O  O41  1  0.94154600  0.22903900  0.41203800  1
  O  O42  1  0.94154600  0.27096100  0.91203800  1
  O  O43  1  0.05845400  0.72903900  0.08796200  1
  O  O44  1  0.25000000  0.77114400  0.23258500  1
  O  O45  1  0.75000000  0.22885600  0.76741500  1
  O  O46  1  0.75000000  0.27114400  0.26741500  1
  O  O47  1  0.25000000  0.72885600  0.73258500  1
  O  O48  1  0.25000000  0.53737200  0.19728400  1
  O  O49  1  0.75000000  0.46262800  0.80271600  1
  O  O50  1  0.75000000  0.03737200  0.30271600  1
  O  O51  1  0.25000000  0.96262800  0.69728400  1
  O  O52  1  0.25000000  0.05077700  0.33471000  1
  O  O53  1  0.75000000  0.94922300  0.66529000  1
  O  O54  1  0.75000000  0.55077700  0.16529000  1
  O  O55  1  0.25000000  0.44922300  0.83471000  1
  O  O56  1  0.25000000  0.29324500  0.29856300  1
  O  O57  1  0.75000000  0.70675500  0.70143700  1
  O  O58  1  0.75000000  0.79324500  0.20143700  1
  O  O59  1  0.25000000  0.20675500  0.79856300  1
  O  O60  1  0.25000000  0.04252400  0.07370400  1
  O  O61  1  0.75000000  0.95747600  0.92629600  1
  O  O62  1  0.75000000  0.54252400  0.42629600  1
  O  O63  1  0.25000000  0.45747600  0.57370400  1
