# generated using pymatgen
data_AlPbF5
_symmetry_space_group_name_H-M   'P 1'
_cell_length_a   10.86812826
_cell_length_b   10.86812826
_cell_length_c   10.86812826
_cell_angle_alpha   96.40441808
_cell_angle_beta   96.40441808
_cell_angle_gamma   140.97841997
_symmetry_Int_Tables_number   1
_chemical_formula_structural   AlPbF5
_chemical_formula_sum   'Al8 Pb8 F40'
_cell_volume   761.82561120
_cell_formula_units_Z   8
loop_
 _symmetry_equiv_pos_site_id
 _symmetry_equiv_pos_as_xyz
  1  'x, y, z'
loop_
 _atom_site_type_symbol
 _atom_site_label
 _atom_site_symmetry_multiplicity
 _atom_site_fract_x
 _atom_site_fract_y
 _atom_site_fract_z
 _atom_site_occupancy
  Al  Al0  1  0.71699400  0.71699400  0.00000000  1
  Al  Al1  1  0.31452900  0.79843600  0.15530600  1
  Al  Al2  1  0.64312900  0.15922300  0.84469400  1
  Al  Al3  1  0.79843600  0.64312900  0.48390600  1
  Al  Al4  1  0.15922300  0.31452900  0.51609400  1
  Al  Al5  1  0.22129200  0.22129200  0.00000000  1
  Al  Al6  1  0.97273200  0.47273200  0.50000000  1
  Al  Al7  1  0.47273200  0.97273200  0.50000000  1
  Pb  Pb8  1  0.03680300  0.75893100  0.82810700  1
  Pb  Pb9  1  0.93082400  0.20869500  0.17189300  1
  Pb  Pb10  1  0.75893100  0.93082400  0.72212900  1
  Pb  Pb11  1  0.20869500  0.03680300  0.27787100  1
  Pb  Pb12  1  0.23888900  0.55317200  0.83081800  1
  Pb  Pb13  1  0.72235400  0.40807000  0.16918200  1
  Pb  Pb14  1  0.55317200  0.72235400  0.31428300  1
  Pb  Pb15  1  0.40807000  0.23888900  0.68571700  1
  F  F16  1  0.09075000  0.69739100  0.18422800  1
  F  F17  1  0.51316200  0.90652200  0.81577200  1
  F  F18  1  0.69739100  0.51316200  0.60664000  1
  F  F19  1  0.90652200  0.09075000  0.39336000  1
  F  F20  1  0.72306400  0.22306400  0.50000000  1
  F  F21  1  0.22306400  0.72306400  0.50000000  1
  F  F22  1  0.46830600  0.46830600  0.00000000  1
  F  F23  1  0.20361000  0.55567100  0.14086100  1
  F  F24  1  0.41480900  0.06274900  0.85913900  1
  F  F25  1  0.55567100  0.41480900  0.35206000  1
  F  F26  1  0.06274900  0.20361000  0.64794000  1
  F  F27  1  0.21751800  0.72793300  0.97988500  1
  F  F28  1  0.74804800  0.23763200  0.02011500  1
  F  F29  1  0.72793300  0.74804800  0.51041600  1
  F  F30  1  0.23763200  0.21751800  0.48958400  1
  F  F31  1  0.76171100  0.40355600  0.85461500  1
  F  F32  1  0.54894100  0.90709600  0.14538500  1
  F  F33  1  0.40355600  0.54894100  0.64184500  1
  F  F34  1  0.90709600  0.76171100  0.35815500  1
  F  F35  1  0.96852300  0.96852300  0.00000000  1
  F  F36  1  0.03982500  0.58357300  0.67381400  1
  F  F37  1  0.90975900  0.36601100  0.32618600  1
  F  F38  1  0.58357300  0.90975900  0.54374800  1
  F  F39  1  0.36601100  0.03982500  0.45625200  1
  F  F40  1  0.09937200  0.26332000  0.93408000  1
  F  F41  1  0.32924000  0.16529200  0.06592000  1
  F  F42  1  0.26332000  0.32924000  0.16394700  1
  F  F43  1  0.16529200  0.09937200  0.83605300  1
  F  F44  1  0.41656600  0.86054400  0.33365600  1
  F  F45  1  0.52688700  0.08291000  0.66634400  1
  F  F46  1  0.86054400  0.52688700  0.44397700  1
  F  F47  1  0.08291000  0.41656600  0.55602300  1
  F  F48  1  0.83923800  0.67732700  0.07162600  1
  F  F49  1  0.60570100  0.76761200  0.92837400  1
  F  F50  1  0.67732700  0.60570100  0.83808900  1
  F  F51  1  0.76761200  0.83923800  0.16191100  1
  F  F52  1  0.85469300  0.24253700  0.80765000  1
  F  F53  1  0.43488700  0.04704300  0.19235000  1
  F  F54  1  0.24253700  0.43488700  0.38784400  1
  F  F55  1  0.04704300  0.85469300  0.61215600  1
