# generated using pymatgen
data_BaH2(CO2)4
_symmetry_space_group_name_H-M   'P 1'
_cell_length_a   9.87816501
_cell_length_b   9.87816501
_cell_length_c   11.99057807
_cell_angle_alpha   64.87996305
_cell_angle_beta   64.87996305
_cell_angle_gamma   27.74168261
_symmetry_Int_Tables_number   1
_chemical_formula_structural   BaH2(CO2)4
_chemical_formula_sum   'Ba2 H4 C8 O16'
_cell_volume   489.80043102
_cell_formula_units_Z   2
loop_
 _symmetry_equiv_pos_site_id
 _symmetry_equiv_pos_as_xyz
  1  'x, y, z'
loop_
 _atom_site_type_symbol
 _atom_site_label
 _atom_site_symmetry_multiplicity
 _atom_site_fract_x
 _atom_site_fract_y
 _atom_site_fract_z
 _atom_site_occupancy
  Ba  Ba0  1  0.85826100  0.14173900  0.75000000  1
  Ba  Ba1  1  0.14173900  0.85826100  0.25000000  1
  H  H2  1  0.19602300  0.12925500  0.71442200  1
  H  H3  1  0.80397700  0.87074500  0.28557800  1
  H  H4  1  0.87074500  0.80397700  0.78557800  1
  H  H5  1  0.12925500  0.19602300  0.21442200  1
  C  C6  1  0.71668900  0.86520600  0.08133800  1
  C  C7  1  0.28331100  0.13479400  0.91866200  1
  C  C8  1  0.13479400  0.28331100  0.41866200  1
  C  C9  1  0.86520600  0.71668900  0.58133800  1
  C  C10  1  0.40782800  0.64634400  0.50571500  1
  C  C11  1  0.59217200  0.35365600  0.49428500  1
  C  C12  1  0.35365600  0.59217200  0.99428500  1
  C  C13  1  0.64634400  0.40782800  0.00571500  1
  O  O14  1  0.22781800  0.28522500  0.82838900  1
  O  O15  1  0.77218200  0.71477500  0.17161100  1
  O  O16  1  0.71477500  0.77218200  0.67161100  1
  O  O17  1  0.28522500  0.22781800  0.32838900  1
  O  O18  1  0.71245300  0.16210500  0.58735300  1
  O  O19  1  0.28754700  0.83789500  0.41264700  1
  O  O20  1  0.83789500  0.28754700  0.91264700  1
  O  O21  1  0.16210500  0.71245300  0.08735300  1
  O  O22  1  0.65431500  0.01854500  0.98994900  1
  O  O23  1  0.34568500  0.98145500  0.01005100  1
  O  O24  1  0.98145500  0.34568500  0.51005100  1
  O  O25  1  0.01854500  0.65431500  0.48994900  1
  O  O26  1  0.39454600  0.66618800  0.60962100  1
  O  O27  1  0.60545400  0.33381200  0.39037900  1
  O  O28  1  0.33381200  0.60545400  0.89037900  1
  O  O29  1  0.66618800  0.39454600  0.10962100  1
