# generated using pymatgen
data_Al3Te3Br
_symmetry_space_group_name_H-M   'P 1'
_cell_length_a   4.14205800
_cell_length_b   11.23288300
_cell_length_c   20.22916700
_cell_angle_alpha   90.00000000
_cell_angle_beta   90.00000000
_cell_angle_gamma   90.00000000
_symmetry_Int_Tables_number   1
_chemical_formula_structural   Al3Te3Br
_chemical_formula_sum   'Al12 Te12 Br4'
_cell_volume   941.20756883
_cell_formula_units_Z   4
loop_
 _symmetry_equiv_pos_site_id
 _symmetry_equiv_pos_as_xyz
  1  'x, y, z'
loop_
 _atom_site_type_symbol
 _atom_site_label
 _atom_site_symmetry_multiplicity
 _atom_site_fract_x
 _atom_site_fract_y
 _atom_site_fract_z
 _atom_site_occupancy
  Al  Al0  1  0.75000000  0.83123400  0.50717800  1
  Al  Al1  1  0.25000000  0.16876600  0.49282200  1
  Al  Al2  1  0.25000000  0.66876600  0.00717800  1
  Al  Al3  1  0.75000000  0.33123400  0.99282200  1
  Al  Al4  1  0.75000000  0.95144200  0.39980800  1
  Al  Al5  1  0.25000000  0.04855800  0.60019200  1
  Al  Al6  1  0.25000000  0.54855800  0.89980800  1
  Al  Al7  1  0.75000000  0.45144200  0.10019200  1
  Al  Al8  1  0.75000000  0.84025800  0.86712200  1
  Al  Al9  1  0.25000000  0.15974200  0.13287800  1
  Al  Al10  1  0.25000000  0.65974200  0.36712200  1
  Al  Al11  1  0.75000000  0.34025800  0.63287800  1
  Te  Te12  1  0.75000000  0.77205400  0.31040200  1
  Te  Te13  1  0.25000000  0.22794600  0.68959800  1
  Te  Te14  1  0.25000000  0.72794600  0.81040200  1
  Te  Te15  1  0.75000000  0.27205400  0.18959800  1
  Te  Te16  1  0.75000000  0.82495200  0.99867000  1
  Te  Te17  1  0.25000000  0.17504800  0.00133000  1
  Te  Te18  1  0.25000000  0.67504800  0.49867000  1
  Te  Te19  1  0.75000000  0.32495200  0.50133000  1
  Te  Te20  1  0.75000000  0.90579700  0.63342300  1
  Te  Te21  1  0.25000000  0.09420300  0.36657700  1
  Te  Te22  1  0.25000000  0.59420300  0.13342300  1
  Te  Te23  1  0.75000000  0.40579700  0.86657700  1
  Br  Br24  1  0.75000000  0.53703000  0.66611400  1
  Br  Br25  1  0.25000000  0.46297000  0.33388600  1
  Br  Br26  1  0.25000000  0.96297000  0.16611400  1
  Br  Br27  1  0.75000000  0.03703000  0.83388600  1
