# generated using pymatgen
data_Ce4In5S13
_symmetry_space_group_name_H-M   'P 1'
_cell_length_a   3.97492800
_cell_length_b   12.06321200
_cell_length_c   21.78278200
_cell_angle_alpha   90.00000000
_cell_angle_beta   90.00000000
_cell_angle_gamma   90.00000000
_symmetry_Int_Tables_number   1
_chemical_formula_structural   Ce4In5S13
_chemical_formula_sum   'Ce8 In10 S26'
_cell_volume   1044.49309147
_cell_formula_units_Z   2
loop_
 _symmetry_equiv_pos_site_id
 _symmetry_equiv_pos_as_xyz
  1  'x, y, z'
loop_
 _atom_site_type_symbol
 _atom_site_label
 _atom_site_symmetry_multiplicity
 _atom_site_fract_x
 _atom_site_fract_y
 _atom_site_fract_z
 _atom_site_occupancy
  Ce  Ce0  1  0.00000000  0.01629400  0.33354600  1
  Ce  Ce1  1  0.00000000  0.98370600  0.66645400  1
  Ce  Ce2  1  0.00000000  0.48370600  0.83354600  1
  Ce  Ce3  1  0.00000000  0.51629400  0.16645400  1
  Ce  Ce4  1  0.00000000  0.16636200  0.15867000  1
  Ce  Ce5  1  0.00000000  0.83363800  0.84133000  1
  Ce  Ce6  1  0.00000000  0.33363800  0.65867000  1
  Ce  Ce7  1  0.00000000  0.66636200  0.34133000  1
  In  In8  1  0.50000000  0.34612600  0.32990600  1
  In  In9  1  0.50000000  0.65387400  0.67009400  1
  In  In10  1  0.50000000  0.15387400  0.82990600  1
  In  In11  1  0.50000000  0.84612600  0.17009400  1
  In  In12  1  0.50000000  0.34465000  0.00782300  1
  In  In13  1  0.50000000  0.65535000  0.99217700  1
  In  In14  1  0.50000000  0.15535000  0.50782300  1
  In  In15  1  0.50000000  0.84465000  0.49217700  1
  In  In16  1  0.00000000  0.00000000  0.00000000  1
  In  In17  1  0.00000000  0.50000000  0.50000000  1
  S  S18  1  0.00000000  0.32898000  0.26055700  1
  S  S19  1  0.00000000  0.67102000  0.73944300  1
  S  S20  1  0.00000000  0.17102000  0.76055700  1
  S  S21  1  0.00000000  0.82898000  0.23944300  1
  S  S22  1  0.50000000  0.07814100  0.24162200  1
  S  S23  1  0.50000000  0.92185900  0.75837800  1
  S  S24  1  0.50000000  0.42185900  0.74162200  1
  S  S25  1  0.50000000  0.57814100  0.25837800  1
  S  S26  1  0.50000000  0.00345900  0.09286100  1
  S  S27  1  0.50000000  0.99654100  0.90713900  1
  S  S28  1  0.50000000  0.49654100  0.59286100  1
  S  S29  1  0.50000000  0.50345900  0.40713900  1
  S  S30  1  0.50000000  0.16257500  0.38737000  1
  S  S31  1  0.50000000  0.83742500  0.61263000  1
  S  S32  1  0.50000000  0.33742500  0.88737000  1
  S  S33  1  0.50000000  0.66257500  0.11263000  1
  S  S34  1  0.00000000  0.00000000  0.50000000  1
  S  S35  1  0.00000000  0.50000000  0.00000000  1
  S  S36  1  0.00000000  0.20256100  0.02201400  1
  S  S37  1  0.00000000  0.79743900  0.97798600  1
  S  S38  1  0.00000000  0.29743900  0.52201400  1
  S  S39  1  0.00000000  0.70256100  0.47798600  1
  S  S40  1  0.50000000  0.34480800  0.13296900  1
  S  S41  1  0.50000000  0.65519200  0.86703100  1
  S  S42  1  0.50000000  0.15519200  0.63296900  1
  S  S43  1  0.50000000  0.84480800  0.36703100  1
