# generated using pymatgen
data_Ce3C2Br3
_symmetry_space_group_name_H-M   'P 1'
_cell_length_a   10.15743440
_cell_length_b   10.15743440
_cell_length_c   16.84735900
_cell_angle_alpha   90.00000000
_cell_angle_beta   90.00000000
_cell_angle_gamma   112.23592479
_symmetry_Int_Tables_number   1
_chemical_formula_structural   Ce3C2Br3
_chemical_formula_sum   'Ce24 C16 Br24'
_cell_volume   1608.93664872
_cell_formula_units_Z   8
loop_
 _symmetry_equiv_pos_site_id
 _symmetry_equiv_pos_as_xyz
  1  'x, y, z'
loop_
 _atom_site_type_symbol
 _atom_site_label
 _atom_site_symmetry_multiplicity
 _atom_site_fract_x
 _atom_site_fract_y
 _atom_site_fract_z
 _atom_site_occupancy
  Ce  Ce0  1  0.97568500  0.48319500  0.62555900  1
  Ce  Ce1  1  0.02431500  0.51680500  0.12555900  1
  Ce  Ce2  1  0.51680500  0.02431500  0.87444100  1
  Ce  Ce3  1  0.48319500  0.97568500  0.37444100  1
  Ce  Ce4  1  0.87465600  0.12534400  0.75000000  1
  Ce  Ce5  1  0.12534400  0.87465600  0.25000000  1
  Ce  Ce6  1  0.89579800  0.17795200  0.51579100  1
  Ce  Ce7  1  0.10420200  0.82204800  0.01579100  1
  Ce  Ce8  1  0.82204800  0.10420200  0.98420900  1
  Ce  Ce9  1  0.17795200  0.89579800  0.48420900  1
  Ce  Ce10  1  0.24466500  0.27515000  0.60465200  1
  Ce  Ce11  1  0.75533500  0.72485000  0.10465200  1
  Ce  Ce12  1  0.72485000  0.75533500  0.89534800  1
  Ce  Ce13  1  0.27515000  0.24466500  0.39534800  1
  Ce  Ce14  1  0.94779300  0.48190300  0.89410800  1
  Ce  Ce15  1  0.05220700  0.51809700  0.39410800  1
  Ce  Ce16  1  0.51809700  0.05220700  0.60589200  1
  Ce  Ce17  1  0.48190300  0.94779300  0.10589200  1
  Ce  Ce18  1  0.35661900  0.61074400  0.50330500  1
  Ce  Ce19  1  0.64338100  0.38925600  0.00330500  1
  Ce  Ce20  1  0.38925600  0.64338100  0.99669500  1
  Ce  Ce21  1  0.61074400  0.35661900  0.49669500  1
  Ce  Ce22  1  0.66371000  0.33629000  0.75000000  1
  Ce  Ce23  1  0.33629000  0.66371000  0.25000000  1
  C  C24  1  0.83782300  0.64298600  0.97471800  1
  C  C25  1  0.16217700  0.35701400  0.47471800  1
  C  C26  1  0.35701400  0.16217700  0.52528200  1
  C  C27  1  0.64298600  0.83782300  0.02528200  1
  C  C28  1  0.78736000  0.22345500  0.64982200  1
  C  C29  1  0.21264000  0.77654500  0.14982200  1
  C  C30  1  0.77654500  0.21264000  0.85017800  1
  C  C31  1  0.22345500  0.78736000  0.35017800  1
  C  C32  1  0.72887100  0.28586300  0.59303400  1
  C  C33  1  0.27112900  0.71413700  0.09303400  1
  C  C34  1  0.71413700  0.27112900  0.90696600  1
  C  C35  1  0.28586300  0.72887100  0.40696600  1
  C  C36  1  0.10135400  0.41697100  0.53172700  1
  C  C37  1  0.89864600  0.58302900  0.03172700  1
  C  C38  1  0.58302900  0.89864600  0.96827300  1
  C  C39  1  0.41697100  0.10135400  0.46827300  1
  Br  Br40  1  0.25407500  0.76610600  0.63049600  1
  Br  Br41  1  0.74592500  0.23389400  0.13049600  1
  Br  Br42  1  0.23389400  0.74592500  0.86950400  1
  Br  Br43  1  0.76610600  0.25407500  0.36950400  1
  Br  Br44  1  0.52586500  0.51501400  0.63130600  1
  Br  Br45  1  0.47413500  0.48498600  0.13130600  1
  Br  Br46  1  0.48498600  0.47413500  0.86869400  1
  Br  Br47  1  0.51501400  0.52586500  0.36869400  1
  Br  Br48  1  0.11899200  0.35736600  0.99770300  1
  Br  Br49  1  0.88100800  0.64263400  0.49770300  1
  Br  Br50  1  0.64263400  0.88100800  0.50229700  1
  Br  Br51  1  0.35736600  0.11899200  0.00229700  1
  Br  Br52  1  0.13464900  0.39708000  0.75746600  1
  Br  Br53  1  0.86535100  0.60292000  0.25746600  1
  Br  Br54  1  0.60292000  0.86535100  0.74253400  1
  Br  Br55  1  0.39708000  0.13464900  0.24253400  1
  Br  Br56  1  0.87235700  0.64011900  0.75809500  1
  Br  Br57  1  0.12764300  0.35988100  0.25809500  1
  Br  Br58  1  0.35988100  0.12764300  0.74190500  1
  Br  Br59  1  0.64011900  0.87235700  0.24190500  1
  Br  Br60  1  0.99717600  0.00942700  0.11790600  1
  Br  Br61  1  0.00282400  0.99057300  0.61790600  1
  Br  Br62  1  0.99057300  0.00282400  0.38209400  1
  Br  Br63  1  0.00942700  0.99717600  0.88209400  1
