# generated using pymatgen
data_Ag8Hg(AsO5)2
_symmetry_space_group_name_H-M   'P 1'
_cell_length_a   6.10923414
_cell_length_b   6.10923414
_cell_length_c   22.16307900
_cell_angle_alpha   90.00000000
_cell_angle_beta   90.00000000
_cell_angle_gamma   120.00000148
_symmetry_Int_Tables_number   1
_chemical_formula_structural   Ag8Hg(AsO5)2
_chemical_formula_sum   'Ag16 Hg2 As4 O20'
_cell_volume   716.36483561
_cell_formula_units_Z   2
loop_
 _symmetry_equiv_pos_site_id
 _symmetry_equiv_pos_as_xyz
  1  'x, y, z'
loop_
 _atom_site_type_symbol
 _atom_site_label
 _atom_site_symmetry_multiplicity
 _atom_site_fract_x
 _atom_site_fract_y
 _atom_site_fract_z
 _atom_site_occupancy
  Ag  Ag0  1  0.62502000  0.65111000  0.80403900  1
  Ag  Ag1  1  0.02609000  0.37498000  0.80403900  1
  Ag  Ag2  1  0.97391000  0.34889000  0.30403900  1
  Ag  Ag3  1  0.34889000  0.97391000  0.80403900  1
  Ag  Ag4  1  0.65111000  0.62502000  0.30403900  1
  Ag  Ag5  1  0.37498000  0.02609000  0.30403900  1
  Ag  Ag6  1  0.66666700  0.33333300  0.95177900  1
  Ag  Ag7  1  0.33333300  0.66666700  0.45177900  1
  Ag  Ag8  1  0.66666700  0.33333300  0.20785600  1
  Ag  Ag9  1  0.33333300  0.66666700  0.70785600  1
  Ag  Ag10  1  0.63906000  0.95928900  0.54975500  1
  Ag  Ag11  1  0.32022900  0.36094000  0.54975500  1
  Ag  Ag12  1  0.67977100  0.04071100  0.04975500  1
  Ag  Ag13  1  0.04071100  0.67977100  0.54975500  1
  Ag  Ag14  1  0.95928900  0.63906000  0.04975500  1
  Ag  Ag15  1  0.36094000  0.32022900  0.04975500  1
  Hg  Hg16  1  0.66666700  0.33333300  0.66696400  1
  Hg  Hg17  1  0.33333300  0.66666700  0.16696400  1
  As  As18  1  0.00000000  0.00000000  0.92030000  1
  As  As19  1  0.00000000  0.00000000  0.42030000  1
  As  As20  1  0.00000000  0.00000000  0.67690300  1
  As  As21  1  0.00000000  0.00000000  0.17690300  1
  O  O22  1  0.69312000  0.85152300  0.64914400  1
  O  O23  1  0.15840300  0.30688000  0.64914400  1
  O  O24  1  0.84159700  0.14847700  0.14914400  1
  O  O25  1  0.14847700  0.84159700  0.64914400  1
  O  O26  1  0.85152300  0.69312000  0.14914400  1
  O  O27  1  0.30688000  0.15840300  0.14914400  1
  O  O28  1  0.66666700  0.33333300  0.57225400  1
  O  O29  1  0.33333300  0.66666700  0.07225400  1
  O  O30  1  0.00000000  0.00000000  0.75518600  1
  O  O31  1  0.00000000  0.00000000  0.25518600  1
  O  O32  1  0.00000000  0.00000000  0.99973200  1
  O  O33  1  0.00000000  0.00000000  0.49973200  1
  O  O34  1  0.86460900  0.17105500  0.89457800  1
  O  O35  1  0.30644600  0.13539100  0.89457800  1
  O  O36  1  0.69355400  0.82894500  0.39457800  1
  O  O37  1  0.82894500  0.69355400  0.89457800  1
  O  O38  1  0.17105500  0.86460900  0.39457800  1
  O  O39  1  0.13539100  0.30644600  0.39457800  1
  O  O40  1  0.66666700  0.33333300  0.76055800  1
  O  O41  1  0.33333300  0.66666700  0.26055800  1
