# generated using pymatgen
data_Ba2YbV3O11
_symmetry_space_group_name_H-M   'P 1'
_cell_length_a   7.86633000
_cell_length_b   12.45032503
_cell_length_c   11.26054477
_cell_angle_alpha   103.13911133
_cell_angle_beta   90.00000000
_cell_angle_gamma   90.00000000
_symmetry_Int_Tables_number   1
_chemical_formula_structural   Ba2YbV3O11
_chemical_formula_sum   'Ba8 Yb4 V12 O44'
_cell_volume   1073.96814158
_cell_formula_units_Z   4
loop_
 _symmetry_equiv_pos_site_id
 _symmetry_equiv_pos_as_xyz
  1  'x, y, z'
loop_
 _atom_site_type_symbol
 _atom_site_label
 _atom_site_symmetry_multiplicity
 _atom_site_fract_x
 _atom_site_fract_y
 _atom_site_fract_z
 _atom_site_occupancy
  Ba  Ba0  1  0.27689000  0.77351000  0.94282800  1
  Ba  Ba1  1  0.72311000  0.22649000  0.05717200  1
  Ba  Ba2  1  0.77689000  0.22649000  0.55717200  1
  Ba  Ba3  1  0.22311000  0.77351000  0.44282800  1
  Ba  Ba4  1  0.74838000  0.55311600  0.88873100  1
  Ba  Ba5  1  0.25162000  0.44688400  0.11126900  1
  Ba  Ba6  1  0.24838000  0.44688400  0.61126900  1
  Ba  Ba7  1  0.75162000  0.55311600  0.38873100  1
  Yb  Yb8  1  0.50024300  0.99728900  0.71815100  1
  Yb  Yb9  1  0.49975700  0.00271100  0.28184900  1
  Yb  Yb10  1  0.00024300  0.00271100  0.78184900  1
  Yb  Yb11  1  0.99975700  0.99728900  0.21815100  1
  V  V12  1  0.75690300  0.91084300  0.97749400  1
  V  V13  1  0.24309700  0.08915700  0.02250600  1
  V  V14  1  0.25690300  0.08915700  0.52250600  1
  V  V15  1  0.74309700  0.91084300  0.47749400  1
  V  V16  1  0.52034700  0.68371100  0.67306600  1
  V  V17  1  0.47965300  0.31628900  0.32693400  1
  V  V18  1  0.02034700  0.31628900  0.82693400  1
  V  V19  1  0.97965300  0.68371100  0.17306600  1
  V  V20  1  0.98086100  0.68760100  0.67088500  1
  V  V21  1  0.01913900  0.31239900  0.32911500  1
  V  V22  1  0.48086100  0.31239900  0.82911500  1
  V  V23  1  0.51913900  0.68760100  0.17088500  1
  O  O24  1  0.44413000  0.81526300  0.71705700  1
  O  O25  1  0.55587000  0.18473700  0.28294300  1
  O  O26  1  0.94413000  0.18473700  0.78294300  1
  O  O27  1  0.05587000  0.81526300  0.21705700  1
  O  O28  1  0.55208800  0.17974400  0.80765100  1
  O  O29  1  0.44791200  0.82025600  0.19234900  1
  O  O30  1  0.05208800  0.82025600  0.69234900  1
  O  O31  1  0.94791200  0.17974400  0.30765100  1
  O  O32  1  0.75077100  0.66568200  0.66751700  1
  O  O33  1  0.24922900  0.33431800  0.33248300  1
  O  O34  1  0.25077100  0.33431800  0.83248300  1
  O  O35  1  0.74922900  0.66568200  0.16751700  1
  O  O36  1  0.94611200  0.37593200  0.96884500  1
  O  O37  1  0.05388800  0.62406800  0.03115500  1
  O  O38  1  0.44611200  0.62406800  0.53115500  1
  O  O39  1  0.55388800  0.37593200  0.46884500  1
  O  O40  1  0.94098700  0.39239100  0.73027400  1
  O  O41  1  0.05901300  0.60760900  0.26972600  1
  O  O42  1  0.44098700  0.60760900  0.76972600  1
  O  O43  1  0.55901300  0.39239100  0.23027400  1
  O  O44  1  0.78427300  0.98993900  0.62326300  1
  O  O45  1  0.21572700  0.01006100  0.37673700  1
  O  O46  1  0.28427300  0.01006100  0.87673700  1
  O  O47  1  0.71572700  0.98993900  0.12326300  1
  O  O48  1  0.97807300  0.88875700  0.97561700  1
  O  O49  1  0.02192700  0.11124300  0.02438300  1
  O  O50  1  0.47807300  0.11124300  0.52438300  1
  O  O51  1  0.52192700  0.88875700  0.47561700  1
  O  O52  1  0.64665800  0.78803300  0.94796800  1
  O  O53  1  0.35334200  0.21196700  0.05203200  1
  O  O54  1  0.14665800  0.21196700  0.55203200  1
  O  O55  1  0.85334200  0.78803300  0.44796800  1
  O  O56  1  0.71925500  0.98595800  0.86701400  1
  O  O57  1  0.28074500  0.01404200  0.13298600  1
  O  O58  1  0.21925500  0.01404200  0.63298600  1
  O  O59  1  0.78074500  0.98595800  0.36701400  1
  O  O60  1  0.55805200  0.36983200  0.71638800  1
  O  O61  1  0.44194800  0.63016800  0.28361200  1
  O  O62  1  0.05805200  0.63016800  0.78361200  1
  O  O63  1  0.94194800  0.36983200  0.21638800  1
  O  O64  1  0.56345700  0.38763200  0.96295000  1
  O  O65  1  0.43654300  0.61236800  0.03705000  1
  O  O66  1  0.06345700  0.61236800  0.53705000  1
  O  O67  1  0.93654300  0.38763200  0.46295000  1
