# generated using pymatgen
data_Al21Pt5
_symmetry_space_group_name_H-M   'P 1'
_cell_length_a   13.36943055
_cell_length_b   13.36943055
_cell_length_c   13.36943055
_cell_angle_alpha   60.00000000
_cell_angle_beta   60.00000000
_cell_angle_gamma   60.00000000
_symmetry_Int_Tables_number   1
_chemical_formula_structural   Al21Pt5
_chemical_formula_sum   'Al84 Pt20'
_cell_volume   1689.75496229
_cell_formula_units_Z   4
loop_
 _symmetry_equiv_pos_site_id
 _symmetry_equiv_pos_as_xyz
  1  'x, y, z'
loop_
 _atom_site_type_symbol
 _atom_site_label
 _atom_site_symmetry_multiplicity
 _atom_site_fract_x
 _atom_site_fract_y
 _atom_site_fract_z
 _atom_site_occupancy
  Al  Al0  1  0.25243800  0.25243800  0.91593500  1
  Al  Al1  1  0.25243800  0.25243800  0.57919000  1
  Al  Al2  1  0.91593500  0.57919000  0.25243800  1
  Al  Al3  1  0.91593500  0.25243800  0.25243800  1
  Al  Al4  1  0.57919000  0.91593500  0.25243800  1
  Al  Al5  1  0.57919000  0.25243800  0.25243800  1
  Al  Al6  1  0.25243800  0.91593500  0.57919000  1
  Al  Al7  1  0.25243800  0.57919000  0.91593500  1
  Al  Al8  1  0.25243800  0.91593500  0.25243800  1
  Al  Al9  1  0.57919000  0.25243800  0.91593500  1
  Al  Al10  1  0.91593500  0.25243800  0.57919000  1
  Al  Al11  1  0.25243800  0.57919000  0.25243800  1
  Al  Al12  1  0.17184700  0.17184700  0.17184700  1
  Al  Al13  1  0.17184700  0.17184700  0.48445900  1
  Al  Al14  1  0.17184700  0.48445900  0.17184700  1
  Al  Al15  1  0.48445900  0.17184700  0.17184700  1
  Al  Al16  1  0.80264000  0.80264000  0.80264000  1
  Al  Al17  1  0.80264000  0.80264000  0.59208100  1
  Al  Al18  1  0.80264000  0.59208100  0.80264000  1
  Al  Al19  1  0.59208100  0.80264000  0.80264000  1
  Al  Al20  1  0.05321200  0.05321200  0.05321200  1
  Al  Al21  1  0.05321200  0.05321200  0.84036400  1
  Al  Al22  1  0.05321200  0.84036400  0.05321200  1
  Al  Al23  1  0.84036400  0.05321200  0.05321200  1
  Al  Al24  1  0.50789000  0.50789000  0.80399000  1
  Al  Al25  1  0.50789000  0.50789000  0.18022900  1
  Al  Al26  1  0.80399000  0.18022900  0.50789000  1
  Al  Al27  1  0.80399000  0.50789000  0.50789000  1
  Al  Al28  1  0.18022900  0.80399000  0.50789000  1
  Al  Al29  1  0.18022900  0.50789000  0.50789000  1
  Al  Al30  1  0.50789000  0.80399000  0.18022900  1
  Al  Al31  1  0.50789000  0.18022900  0.80399000  1
  Al  Al32  1  0.50789000  0.80399000  0.50789000  1
  Al  Al33  1  0.18022900  0.50789000  0.80399000  1
  Al  Al34  1  0.80399000  0.50789000  0.18022900  1
  Al  Al35  1  0.50789000  0.18022900  0.50789000  1
  Al  Al36  1  0.90625100  0.90625100  0.90625100  1
  Al  Al37  1  0.90625100  0.90625100  0.28124800  1
  Al  Al38  1  0.90625100  0.28124800  0.90625100  1
  Al  Al39  1  0.28124800  0.90625100  0.90625100  1
  Al  Al40  1  0.75763900  0.75763900  0.42018200  1
  Al  Al41  1  0.75763900  0.75763900  0.06454000  1
  Al  Al42  1  0.42018200  0.06454000  0.75763900  1
  Al  Al43  1  0.42018200  0.75763900  0.75763900  1
  Al  Al44  1  0.06454000  0.42018200  0.75763900  1
  Al  Al45  1  0.06454000  0.75763900  0.75763900  1
  Al  Al46  1  0.75763900  0.42018200  0.06454000  1
  Al  Al47  1  0.75763900  0.06454000  0.42018200  1
  Al  Al48  1  0.75763900  0.42018200  0.75763900  1
  Al  Al49  1  0.06454000  0.75763900  0.42018200  1
  Al  Al50  1  0.42018200  0.75763900  0.06454000  1
  Al  Al51  1  0.75763900  0.06454000  0.75763900  1
  Al  Al52  1  0.55444100  0.55444100  0.55444100  1
  Al  Al53  1  0.55444100  0.55444100  0.33667600  1
  Al  Al54  1  0.55444100  0.33667600  0.55444100  1
  Al  Al55  1  0.33667600  0.55444100  0.55444100  1
  Al  Al56  1  0.32693900  0.32693900  0.32693900  1
  Al  Al57  1  0.32693900  0.32693900  0.01918300  1
  Al  Al58  1  0.32693900  0.01918300  0.32693900  1
  Al  Al59  1  0.01918300  0.32693900  0.32693900  1
  Al  Al60  1  0.93032500  0.56967500  0.56967500  1
  Al  Al61  1  0.56967500  0.93032500  0.93032500  1
  Al  Al62  1  0.56967500  0.93032500  0.56967500  1
  Al  Al63  1  0.93032500  0.56967500  0.93032500  1
  Al  Al64  1  0.56967500  0.56967500  0.93032500  1
  Al  Al65  1  0.93032500  0.93032500  0.56967500  1
  Al  Al66  1  0.01081200  0.01081200  0.32021900  1
  Al  Al67  1  0.01081200  0.01081200  0.65815800  1
  Al  Al68  1  0.32021900  0.65815800  0.01081200  1
  Al  Al69  1  0.32021900  0.01081200  0.01081200  1
  Al  Al70  1  0.65815800  0.32021900  0.01081200  1
  Al  Al71  1  0.65815800  0.01081200  0.01081200  1
  Al  Al72  1  0.01081200  0.32021900  0.65815800  1
  Al  Al73  1  0.01081200  0.65815800  0.32021900  1
  Al  Al74  1  0.01081200  0.32021900  0.01081200  1
  Al  Al75  1  0.65815800  0.01081200  0.32021900  1
  Al  Al76  1  0.32021900  0.01081200  0.65815800  1
  Al  Al77  1  0.01081200  0.65815800  0.01081200  1
  Al  Al78  1  0.67546500  0.32453500  0.32453500  1
  Al  Al79  1  0.32453500  0.67546500  0.67546500  1
  Al  Al80  1  0.32453500  0.67546500  0.32453500  1
  Al  Al81  1  0.67546500  0.32453500  0.67546500  1
  Al  Al82  1  0.32453500  0.32453500  0.67546500  1
  Al  Al83  1  0.67546500  0.67546500  0.32453500  1
  Pt  Pt84  1  0.65806800  0.65806800  0.65806800  1
  Pt  Pt85  1  0.65806800  0.65806800  0.02579500  1
  Pt  Pt86  1  0.65806800  0.02579500  0.65806800  1
  Pt  Pt87  1  0.02579500  0.65806800  0.65806800  1
  Pt  Pt88  1  0.41956700  0.41956700  0.41956700  1
  Pt  Pt89  1  0.41956700  0.41956700  0.74130000  1
  Pt  Pt90  1  0.41956700  0.74130000  0.41956700  1
  Pt  Pt91  1  0.74130000  0.41956700  0.41956700  1
  Pt  Pt92  1  0.40830500  0.09169500  0.09169500  1
  Pt  Pt93  1  0.09169500  0.40830500  0.40830500  1
  Pt  Pt94  1  0.09169500  0.40830500  0.09169500  1
  Pt  Pt95  1  0.40830500  0.09169500  0.40830500  1
  Pt  Pt96  1  0.09169500  0.09169500  0.40830500  1
  Pt  Pt97  1  0.40830500  0.40830500  0.09169500  1
  Pt  Pt98  1  0.83378300  0.16621700  0.16621700  1
  Pt  Pt99  1  0.16621700  0.83378300  0.83378300  1
  Pt  Pt100  1  0.16621700  0.83378300  0.16621700  1
  Pt  Pt101  1  0.83378300  0.16621700  0.83378300  1
  Pt  Pt102  1  0.16621700  0.16621700  0.83378300  1
  Pt  Pt103  1  0.83378300  0.83378300  0.16621700  1
