# generated using pymatgen
data_Ag2PO2
_symmetry_space_group_name_H-M   'P 1'
_cell_length_a   7.62515800
_cell_length_b   6.53208158
_cell_length_c   10.07756445
_cell_angle_alpha   77.24303549
_cell_angle_beta   67.77012780
_cell_angle_gamma   54.29092433
_symmetry_Int_Tables_number   1
_chemical_formula_structural   Ag2PO2
_chemical_formula_sum   'Ag8 P4 O8'
_cell_volume   377.28114912
_cell_formula_units_Z   4
loop_
 _symmetry_equiv_pos_site_id
 _symmetry_equiv_pos_as_xyz
  1  'x, y, z'
loop_
 _atom_site_type_symbol
 _atom_site_label
 _atom_site_symmetry_multiplicity
 _atom_site_fract_x
 _atom_site_fract_y
 _atom_site_fract_z
 _atom_site_occupancy
  Ag  Ag0  1  0.50343500  0.74290600  0.32154100  1
  Ag  Ag1  1  0.17502400  0.25709400  0.32154100  1
  Ag  Ag2  1  0.75365900  0.74290600  0.67845900  1
  Ag  Ag3  1  0.24656500  0.75709400  0.17845900  1
  Ag  Ag4  1  0.56788200  0.25709400  0.67845900  1
  Ag  Ag5  1  0.57497600  0.24290600  0.17845900  1
  Ag  Ag6  1  0.99634100  0.75709400  0.82154100  1
  Ag  Ag7  1  0.18211800  0.24290600  0.82154100  1
  P  P8  1  0.87500000  0.25000000  0.25000000  1
  P  P9  1  0.87500000  0.75000000  0.25000000  1
  P  P10  1  0.87500000  0.25000000  0.75000000  1
  P  P11  1  0.37500000  0.75000000  0.75000000  1
  O  O12  1  0.01332300  0.23174900  0.09113900  1
  O  O13  1  0.89553800  0.76825100  0.09113900  1
  O  O14  1  0.75492900  0.23174900  0.90886100  1
  O  O15  1  0.73667700  0.26825100  0.40886100  1
  O  O16  1  0.33621100  0.76825100  0.90886100  1
  O  O17  1  0.85446200  0.73174900  0.40886100  1
  O  O18  1  0.99507100  0.26825100  0.59113900  1
  O  O19  1  0.41378900  0.73174900  0.59113900  1
