# generated using pymatgen
data_Ba2Lu2CuPtO8
_symmetry_space_group_name_H-M   'P 1'
_cell_length_a   5.67621600
_cell_length_b   10.34510700
_cell_length_c   13.27454300
_cell_angle_alpha   90.00000000
_cell_angle_beta   90.00000000
_cell_angle_gamma   90.00000000
_symmetry_Int_Tables_number   1
_chemical_formula_structural   Ba2Lu2CuPtO8
_chemical_formula_sum   'Ba8 Lu8 Cu4 Pt4 O32'
_cell_volume   779.49526087
_cell_formula_units_Z   4
loop_
 _symmetry_equiv_pos_site_id
 _symmetry_equiv_pos_as_xyz
  1  'x, y, z'
loop_
 _atom_site_type_symbol
 _atom_site_label
 _atom_site_symmetry_multiplicity
 _atom_site_fract_x
 _atom_site_fract_y
 _atom_site_fract_z
 _atom_site_occupancy
  Ba  Ba0  1  0.25000000  0.40688300  0.42278000  1
  Ba  Ba1  1  0.75000000  0.59311700  0.57722000  1
  Ba  Ba2  1  0.75000000  0.90688300  0.07722000  1
  Ba  Ba3  1  0.25000000  0.09311700  0.92278000  1
  Ba  Ba4  1  0.25000000  0.68480900  0.20710000  1
  Ba  Ba5  1  0.75000000  0.31519100  0.79290000  1
  Ba  Ba6  1  0.75000000  0.18480900  0.29290000  1
  Ba  Ba7  1  0.25000000  0.81519100  0.70710000  1
  Lu  Lu8  1  0.25000000  0.01261300  0.41772700  1
  Lu  Lu9  1  0.75000000  0.98738700  0.58227300  1
  Lu  Lu10  1  0.75000000  0.51261300  0.08227300  1
  Lu  Lu11  1  0.25000000  0.48738700  0.91772700  1
  Lu  Lu12  1  0.25000000  0.31268600  0.14064900  1
  Lu  Lu13  1  0.75000000  0.68731400  0.85935100  1
  Lu  Lu14  1  0.75000000  0.81268600  0.35935100  1
  Lu  Lu15  1  0.25000000  0.18731400  0.64064900  1
  Cu  Cu16  1  0.25000000  0.73433300  0.46071000  1
  Cu  Cu17  1  0.75000000  0.26566700  0.53929000  1
  Cu  Cu18  1  0.75000000  0.23433300  0.03929000  1
  Cu  Cu19  1  0.25000000  0.76566700  0.96071000  1
  Pt  Pt20  1  0.25000000  0.03194900  0.19512400  1
  Pt  Pt21  1  0.75000000  0.96805100  0.80487600  1
  Pt  Pt22  1  0.75000000  0.53194900  0.30487600  1
  Pt  Pt23  1  0.25000000  0.46805100  0.69512400  1
  O  O24  1  0.25000000  0.18556300  0.29759600  1
  O  O25  1  0.75000000  0.81443700  0.70240400  1
  O  O26  1  0.75000000  0.68556300  0.20240400  1
  O  O27  1  0.25000000  0.31443700  0.79759600  1
  O  O28  1  0.50918400  0.44238100  0.21278800  1
  O  O29  1  0.49081600  0.55761900  0.78721200  1
  O  O30  1  0.49081600  0.94238100  0.28721200  1
  O  O31  1  0.00918400  0.55761900  0.78721200  1
  O  O32  1  0.50918400  0.05761900  0.71278800  1
  O  O33  1  0.99081600  0.44238100  0.21278800  1
  O  O34  1  0.99081600  0.05761900  0.71278800  1
  O  O35  1  0.00918400  0.94238100  0.28721200  1
  O  O36  1  0.01138000  0.14165600  0.11405100  1
  O  O37  1  0.98862000  0.85834400  0.88594900  1
  O  O38  1  0.98862000  0.64165600  0.38594900  1
  O  O39  1  0.51138000  0.85834400  0.88594900  1
  O  O40  1  0.01138000  0.35834400  0.61405100  1
  O  O41  1  0.48862000  0.14165600  0.11405100  1
  O  O42  1  0.48862000  0.35834400  0.61405100  1
  O  O43  1  0.51138000  0.64165600  0.38594900  1
  O  O44  1  0.50271900  0.36688900  0.00885400  1
  O  O45  1  0.49728100  0.63311100  0.99114600  1
  O  O46  1  0.49728100  0.86688900  0.49114600  1
  O  O47  1  0.00271900  0.63311100  0.99114600  1
  O  O48  1  0.50271900  0.13311100  0.50885400  1
  O  O49  1  0.99728100  0.36688900  0.00885400  1
  O  O50  1  0.99728100  0.13311100  0.50885400  1
  O  O51  1  0.00271900  0.86688900  0.49114600  1
  O  O52  1  0.25000000  0.60964800  0.58841300  1
  O  O53  1  0.75000000  0.39035200  0.41158700  1
  O  O54  1  0.75000000  0.10964800  0.91158700  1
  O  O55  1  0.25000000  0.89035200  0.08841300  1
