# generated using pymatgen
data_AlCuO4F
_symmetry_space_group_name_H-M   'P 1'
_cell_length_a   5.33897550
_cell_length_b   5.33897550
_cell_length_c   10.59098005
_cell_angle_alpha   81.88438307
_cell_angle_beta   81.88438307
_cell_angle_gamma   31.42050855
_symmetry_Int_Tables_number   1
_chemical_formula_structural   AlCuO4F
_chemical_formula_sum   'Al2 Cu2 O8 F2'
_cell_volume   155.67948962
_cell_formula_units_Z   2
loop_
 _symmetry_equiv_pos_site_id
 _symmetry_equiv_pos_as_xyz
  1  'x, y, z'
loop_
 _atom_site_type_symbol
 _atom_site_label
 _atom_site_symmetry_multiplicity
 _atom_site_fract_x
 _atom_site_fract_y
 _atom_site_fract_z
 _atom_site_occupancy
  Al  Al0  1  0.50000000  0.50000000  0.50000000  1
  Al  Al1  1  0.00000000  0.00000000  0.00000000  1
  Cu  Cu2  1  0.67308200  0.67308200  0.19445400  1
  Cu  Cu3  1  0.32691800  0.32691800  0.80554600  1
  O  O4  1  0.34925800  0.34925800  0.62448800  1
  O  O5  1  0.65074200  0.65074200  0.37551200  1
  O  O6  1  0.06932300  0.06932300  0.15073000  1
  O  O7  1  0.93067700  0.93067700  0.84927000  1
  O  O8  1  0.37976700  0.37976700  0.05818900  1
  O  O9  1  0.62023300  0.62023300  0.94181100  1
  O  O10  1  0.31294500  0.31294500  0.18737700  1
  O  O11  1  0.68705500  0.68705500  0.81262300  1
  F  F12  1  0.07032100  0.07032100  0.57881900  1
  F  F13  1  0.92967900  0.92967900  0.42118100  1
