# generated using pymatgen
data_AlAgF4
_symmetry_space_group_name_H-M   'P 1'
_cell_length_a   5.91941600
_cell_length_b   7.19820800
_cell_length_c   7.20454300
_cell_angle_alpha   90.00000000
_cell_angle_beta   90.00000000
_cell_angle_gamma   90.00000000
_symmetry_Int_Tables_number   1
_chemical_formula_structural   AlAgF4
_chemical_formula_sum   'Al4 Ag4 F16'
_cell_volume   306.97972431
_cell_formula_units_Z   4
loop_
 _symmetry_equiv_pos_site_id
 _symmetry_equiv_pos_as_xyz
  1  'x, y, z'
loop_
 _atom_site_type_symbol
 _atom_site_label
 _atom_site_symmetry_multiplicity
 _atom_site_fract_x
 _atom_site_fract_y
 _atom_site_fract_z
 _atom_site_occupancy
  Al  Al0  1  0.00007100  0.23779300  0.25562700  1
  Al  Al1  1  0.00007100  0.76220700  0.74437300  1
  Al  Al2  1  0.99992900  0.26220700  0.75562700  1
  Al  Al3  1  0.99992900  0.73779300  0.24437300  1
  Ag  Ag4  1  0.49495800  0.00000000  0.50000000  1
  Ag  Ag5  1  0.50504200  0.50000000  0.00000000  1
  Ag  Ag6  1  0.48214600  0.00000000  0.00000000  1
  Ag  Ag7  1  0.51785400  0.50000000  0.50000000  1
  F  F8  1  0.07540700  0.98712100  0.26140200  1
  F  F9  1  0.07540700  0.01287900  0.73859800  1
  F  F10  1  0.92459300  0.51287900  0.76140200  1
  F  F11  1  0.92459300  0.48712100  0.23859800  1
  F  F12  1  0.28940100  0.28028800  0.30749600  1
  F  F13  1  0.28940100  0.71971200  0.69250400  1
  F  F14  1  0.71059900  0.21971200  0.80749600  1
  F  F15  1  0.71059900  0.78028800  0.19250400  1
  F  F16  1  0.07160900  0.24939600  0.00620200  1
  F  F17  1  0.07160900  0.75060400  0.99379800  1
  F  F18  1  0.92839100  0.25060400  0.50620200  1
  F  F19  1  0.92839100  0.74939600  0.49379800  1
  F  F20  1  0.28809200  0.67902400  0.28283400  1
  F  F21  1  0.28809200  0.32097600  0.71716600  1
  F  F22  1  0.71190800  0.82097600  0.78283400  1
  F  F23  1  0.71190800  0.17902400  0.21716600  1
