# generated using pymatgen
data_Be3Co2(NF6)2
_symmetry_space_group_name_H-M   'P 1'
_cell_length_a   9.91544300
_cell_length_b   9.91544300
_cell_length_c   9.91544300
_cell_angle_alpha   90.00000000
_cell_angle_beta   90.00000000
_cell_angle_gamma   90.00000000
_symmetry_Int_Tables_number   1
_chemical_formula_structural   Be3Co2(NF6)2
_chemical_formula_sum   'Be12 Co8 N8 F48'
_cell_volume   974.84679201
_cell_formula_units_Z   4
loop_
 _symmetry_equiv_pos_site_id
 _symmetry_equiv_pos_as_xyz
  1  'x, y, z'
loop_
 _atom_site_type_symbol
 _atom_site_label
 _atom_site_symmetry_multiplicity
 _atom_site_fract_x
 _atom_site_fract_y
 _atom_site_fract_z
 _atom_site_occupancy
  Be  Be0  1  0.02007200  0.21025500  0.37551300  1
  Be  Be1  1  0.47992800  0.78974500  0.87551300  1
  Be  Be2  1  0.97992800  0.71025500  0.12448700  1
  Be  Be3  1  0.37551300  0.02007200  0.21025500  1
  Be  Be4  1  0.52007200  0.28974500  0.62448700  1
  Be  Be5  1  0.87551300  0.47992800  0.78974500  1
  Be  Be6  1  0.12448700  0.97992800  0.71025500  1
  Be  Be7  1  0.62448700  0.52007200  0.28974500  1
  Be  Be8  1  0.21025500  0.37551300  0.02007200  1
  Be  Be9  1  0.71025500  0.12448700  0.97992800  1
  Be  Be10  1  0.28974500  0.62448700  0.52007200  1
  Be  Be11  1  0.78974500  0.87551300  0.47992800  1
  Co  Co12  1  0.33720600  0.33720600  0.33720600  1
  Co  Co13  1  0.16279400  0.66279400  0.83720600  1
  Co  Co14  1  0.66279400  0.83720600  0.16279400  1
  Co  Co15  1  0.83720600  0.16279400  0.66279400  1
  Co  Co16  1  0.60655300  0.60655300  0.60655300  1
  Co  Co17  1  0.89344700  0.39344700  0.10655300  1
  Co  Co18  1  0.39344700  0.10655300  0.89344700  1
  Co  Co19  1  0.10655300  0.89344700  0.39344700  1
  N  N20  1  0.04393300  0.04393300  0.04393300  1
  N  N21  1  0.45606700  0.95606700  0.54393300  1
  N  N22  1  0.95606700  0.54393300  0.45606700  1
  N  N23  1  0.54393300  0.45606700  0.95606700  1
  N  N24  1  0.81765700  0.81765700  0.81765700  1
  N  N25  1  0.68234300  0.18234300  0.31765700  1
  N  N26  1  0.18234300  0.31765700  0.68234300  1
  N  N27  1  0.31765700  0.68234300  0.18234300  1
  F  F28  1  0.01568700  0.05733700  0.33418500  1
  F  F29  1  0.48431300  0.94266300  0.83418500  1
  F  F30  1  0.98431300  0.55733700  0.16581500  1
  F  F31  1  0.33418500  0.01568700  0.05733700  1
  F  F32  1  0.51568700  0.44266300  0.66581500  1
  F  F33  1  0.83418500  0.48431300  0.94266300  1
  F  F34  1  0.16581500  0.98431300  0.55733700  1
  F  F35  1  0.66581500  0.51568700  0.44266300  1
  F  F36  1  0.05733700  0.33418500  0.01568700  1
  F  F37  1  0.55733700  0.16581500  0.98431300  1
  F  F38  1  0.44266300  0.66581500  0.51568700  1
  F  F39  1  0.94266300  0.83418500  0.48431300  1
  F  F40  1  0.27232500  0.49357200  0.43467000  1
  F  F41  1  0.22767500  0.50642800  0.93467000  1
  F  F42  1  0.72767500  0.99357200  0.06533000  1
  F  F43  1  0.43467000  0.27232500  0.49357200  1
  F  F44  1  0.77232500  0.00642800  0.56533000  1
  F  F45  1  0.93467000  0.22767500  0.50642800  1
  F  F46  1  0.06533000  0.72767500  0.99357200  1
  F  F47  1  0.56533000  0.77232500  0.00642800  1
  F  F48  1  0.49357200  0.43467000  0.27232500  1
  F  F49  1  0.99357200  0.06533000  0.72767500  1
  F  F50  1  0.00642800  0.56533000  0.77232500  1
  F  F51  1  0.50642800  0.93467000  0.22767500  1
  F  F52  1  0.04692000  0.80060100  0.23393900  1
  F  F53  1  0.45308000  0.19939900  0.73393900  1
  F  F54  1  0.95308000  0.30060100  0.26606100  1
  F  F55  1  0.23393900  0.04692000  0.80060100  1
  F  F56  1  0.54692000  0.69939900  0.76606100  1
  F  F57  1  0.73393900  0.45308000  0.19939900  1
  F  F58  1  0.26606100  0.95308000  0.30060100  1
  F  F59  1  0.76606100  0.54692000  0.69939900  1
  F  F60  1  0.80060100  0.23393900  0.04692000  1
  F  F61  1  0.30060100  0.26606100  0.95308000  1
  F  F62  1  0.69939900  0.76606100  0.54692000  1
  F  F63  1  0.19939900  0.73393900  0.45308000  1
  F  F64  1  0.17025600  0.25239700  0.39625500  1
  F  F65  1  0.32974400  0.74760300  0.89625500  1
  F  F66  1  0.82974400  0.75239700  0.10374500  1
  F  F67  1  0.39625500  0.17025600  0.25239700  1
  F  F68  1  0.67025600  0.24760300  0.60374500  1
  F  F69  1  0.89625500  0.32974400  0.74760300  1
  F  F70  1  0.10374500  0.82974400  0.75239700  1
  F  F71  1  0.60374500  0.67025600  0.24760300  1
  F  F72  1  0.25239700  0.39625500  0.17025600  1
  F  F73  1  0.75239700  0.10374500  0.82974400  1
  F  F74  1  0.24760300  0.60374500  0.67025600  1
  F  F75  1  0.74760300  0.89625500  0.32974400  1
