# generated using pymatgen
data_Al2Te4O11
_symmetry_space_group_name_H-M   'P 1'
_cell_length_a   7.62873700
_cell_length_b   6.94876100
_cell_length_c   9.67766072
_cell_angle_alpha   80.02538751
_cell_angle_beta   90.00000000
_cell_angle_gamma   90.00000000
_symmetry_Int_Tables_number   1
_chemical_formula_structural   Al2Te4O11
_chemical_formula_sum   'Al4 Te8 O22'
_cell_volume   505.26097564
_cell_formula_units_Z   2
loop_
 _symmetry_equiv_pos_site_id
 _symmetry_equiv_pos_as_xyz
  1  'x, y, z'
loop_
 _atom_site_type_symbol
 _atom_site_label
 _atom_site_symmetry_multiplicity
 _atom_site_fract_x
 _atom_site_fract_y
 _atom_site_fract_z
 _atom_site_occupancy
  Al  Al0  1  0.49697600  0.81825600  0.11471500  1
  Al  Al1  1  0.50302400  0.18174400  0.88528500  1
  Al  Al2  1  0.99697600  0.18174400  0.38528500  1
  Al  Al3  1  0.00302400  0.81825600  0.61471500  1
  Te  Te4  1  0.64016700  0.35463400  0.17711500  1
  Te  Te5  1  0.35983300  0.64536600  0.82288500  1
  Te  Te6  1  0.14016700  0.64536600  0.32288500  1
  Te  Te7  1  0.85983300  0.35463400  0.67711500  1
  Te  Te8  1  0.64390400  0.82416100  0.41390800  1
  Te  Te9  1  0.35609600  0.17583900  0.58609200  1
  Te  Te10  1  0.14390400  0.17583900  0.08609200  1
  Te  Te11  1  0.85609600  0.82416100  0.91390800  1
  O  O12  1  0.35505900  0.66477100  0.01587000  1
  O  O13  1  0.64494100  0.33522900  0.98413000  1
  O  O14  1  0.85505900  0.33522900  0.48413000  1
  O  O15  1  0.14494100  0.66477100  0.51587000  1
  O  O16  1  0.86514100  0.94245300  0.45117800  1
  O  O17  1  0.13485900  0.05754700  0.54882200  1
  O  O18  1  0.36514100  0.05754700  0.04882200  1
  O  O19  1  0.63485900  0.94245300  0.95117800  1
  O  O20  1  0.87985100  0.29176100  0.21568100  1
  O  O21  1  0.12014900  0.70823900  0.78431900  1
  O  O22  1  0.37985100  0.70823900  0.28431900  1
  O  O23  1  0.62014900  0.29176100  0.71568100  1
  O  O24  1  0.00000000  0.00000000  0.00000000  1
  O  O25  1  0.50000000  0.00000000  0.50000000  1
  O  O26  1  0.62613600  0.96932100  0.23123600  1
  O  O27  1  0.37386400  0.03067900  0.76876400  1
  O  O28  1  0.12613600  0.03067900  0.26876400  1
  O  O29  1  0.87386400  0.96932100  0.73123600  1
  O  O30  1  0.68262300  0.63099800  0.15144500  1
  O  O31  1  0.31737700  0.36900200  0.84855500  1
  O  O32  1  0.18262300  0.36900200  0.34855500  1
  O  O33  1  0.81737700  0.63099800  0.65144500  1
