# generated using pymatgen
data_Ca3B5W8Cl2O13
_symmetry_space_group_name_H-M   'P 1'
_cell_length_a   9.03315800
_cell_length_b   8.66344000
_cell_length_c   16.31657526
_cell_angle_alpha   63.65474013
_cell_angle_beta   90.00000000
_cell_angle_gamma   90.00000000
_symmetry_Int_Tables_number   1
_chemical_formula_structural   Ca3B5W8Cl2O13
_chemical_formula_sum   'Ca6 B10 W16 Cl4 O26'
_cell_volume   1144.28178831
_cell_formula_units_Z   2
loop_
 _symmetry_equiv_pos_site_id
 _symmetry_equiv_pos_as_xyz
  1  'x, y, z'
loop_
 _atom_site_type_symbol
 _atom_site_label
 _atom_site_symmetry_multiplicity
 _atom_site_fract_x
 _atom_site_fract_y
 _atom_site_fract_z
 _atom_site_occupancy
  Ca  Ca0  1  0.87298000  0.06376500  0.98919200  1
  Ca  Ca1  1  0.12702000  0.06376500  0.48919200  1
  Ca  Ca2  1  0.95624800  0.26521300  0.59825600  1
  Ca  Ca3  1  0.04375200  0.26521300  0.09825600  1
  Ca  Ca4  1  0.04111800  0.77924400  0.73105500  1
  Ca  Ca5  1  0.95888200  0.77924400  0.23105500  1
  B  B6  1  0.04106400  0.43668500  0.91276300  1
  B  B7  1  0.95893600  0.43668500  0.41276300  1
  B  B8  1  0.01675800  0.59151300  0.62394500  1
  B  B9  1  0.98324200  0.59151300  0.12394500  1
  B  B10  1  0.01996900  0.01570200  0.33499100  1
  B  B11  1  0.98003100  0.01570200  0.83499100  1
  B  B12  1  0.03472200  0.34092200  0.78408800  1
  B  B13  1  0.96527800  0.34092200  0.28408800  1
  B  B14  1  0.99744400  0.69231900  0.94870900  1
  B  B15  1  0.00255600  0.69231900  0.44870900  1
  W  W16  1  0.67402900  0.03149500  0.75216400  1
  W  W17  1  0.32597100  0.03149500  0.25216400  1
  W  W18  1  0.50366300  0.97681900  0.62034100  1
  W  W19  1  0.49633700  0.97681900  0.12034100  1
  W  W20  1  0.61361700  0.28244300  0.50356200  1
  W  W21  1  0.38638300  0.28244300  0.00356200  1
  W  W22  1  0.37227600  0.70672800  0.61106800  1
  W  W23  1  0.62772400  0.70672800  0.11106800  1
  W  W24  1  0.60422200  0.81498800  0.30567400  1
  W  W25  1  0.39577800  0.81498800  0.80567400  1
  W  W26  1  0.34313900  0.17374600  0.68374700  1
  W  W27  1  0.65686100  0.17374600  0.18374700  1
  W  W28  1  0.50459400  0.00384900  0.93722200  1
  W  W29  1  0.49540600  0.00384900  0.43722200  1
  W  W30  1  0.77215100  0.87771600  0.58504300  1
  W  W31  1  0.22784900  0.87771600  0.08504300  1
  Cl  Cl32  1  0.53245700  0.56612000  0.91671400  1
  Cl  Cl33  1  0.46754300  0.56612000  0.41671400  1
  Cl  Cl34  1  0.43613000  0.40319700  0.72670900  1
  Cl  Cl35  1  0.56387000  0.40319700  0.22670900  1
  O  O36  1  0.81239400  0.39269500  0.46327600  1
  O  O37  1  0.18760600  0.39269500  0.96327600  1
  O  O38  1  0.92655100  0.32645700  0.96458700  1
  O  O39  1  0.07344900  0.32645700  0.46458700  1
  O  O40  1  0.99798600  0.57745600  0.03816000  1
  O  O41  1  0.00201400  0.57745600  0.53816000  1
  O  O42  1  0.78585000  0.97379000  0.26263200  1
  O  O43  1  0.21415000  0.97379000  0.76263200  1
  O  O44  1  0.01237400  0.63224200  0.88548400  1
  O  O45  1  0.98762600  0.63224200  0.38548400  1
  O  O46  1  0.87761100  0.65480500  0.64767600  1
  O  O47  1  0.12238900  0.65480500  0.14767600  1
  O  O48  1  0.05196200  0.00194100  0.09379700  1
  O  O49  1  0.94803800  0.00194100  0.59379700  1
  O  O50  1  0.03228800  0.39623800  0.69139000  1
  O  O51  1  0.96771200  0.39623800  0.19139000  1
  O  O52  1  0.85843700  0.69491100  0.12555300  1
  O  O53  1  0.14156300  0.69491100  0.62555300  1
  O  O54  1  0.91263700  0.01603200  0.76066800  1
  O  O55  1  0.08736300  0.01603200  0.26066800  1
  O  O56  1  0.06112500  0.45464600  0.81812800  1
  O  O57  1  0.93887500  0.45464600  0.31812800  1
  O  O58  1  0.01367200  0.16508400  0.84457600  1
  O  O59  1  0.98632800  0.16508400  0.34457600  1
  O  O60  1  0.98862300  0.87163700  0.92173100  1
  O  O61  1  0.01137700  0.87163700  0.42173100  1
