# generated using pymatgen
data_ZrVCuS4
_symmetry_space_group_name_H-M   'P 1'
_cell_length_a   7.19493599
_cell_length_b   7.19493599
_cell_length_c   7.19493599
_cell_angle_alpha   119.73201539
_cell_angle_beta   119.49833181
_cell_angle_gamma   90.66795909
_symmetry_Int_Tables_number   1
_chemical_formula_structural   ZrVCuS4
_chemical_formula_sum   'Zr2 V2 Cu2 S8'
_cell_volume   264.88078057
_cell_formula_units_Z   2
loop_
 _symmetry_equiv_pos_site_id
 _symmetry_equiv_pos_as_xyz
  1  'x, y, z'
loop_
 _atom_site_type_symbol
 _atom_site_label
 _atom_site_symmetry_multiplicity
 _atom_site_fract_x
 _atom_site_fract_y
 _atom_site_fract_z
 _atom_site_occupancy
  Zr  Zr0  1  0.00000000  0.00000000  0.00000000  1
  Zr  Zr1  1  0.50000000  0.00000000  0.50000000  1
  V  V2  1  0.00000000  0.00000000  0.50000000  1
  V  V3  1  0.00000000  0.50000000  0.00000000  1
  Cu  Cu4  1  0.37990000  0.62990000  0.75000000  1
  Cu  Cu5  1  0.62010000  0.37010000  0.25000000  1
  S  S6  1  0.24169700  0.74047000  0.99877300  1
  S  S7  1  0.24169700  0.24292400  0.50122700  1
  S  S8  1  0.22670300  0.74665500  0.48004800  1
  S  S9  1  0.76660700  0.74665500  0.01995200  1
  S  S10  1  0.75830300  0.25953000  0.00122700  1
  S  S11  1  0.75830300  0.75707600  0.49877300  1
  S  S12  1  0.77329700  0.25334500  0.51995200  1
  S  S13  1  0.23339300  0.25334500  0.98004800  1
