# generated using pymatgen
data_ZrIn
_symmetry_space_group_name_H-M   'P 1'
_cell_length_a   5.45183142
_cell_length_b   5.45183142
_cell_length_c   5.45183221
_cell_angle_alpha   34.53533366
_cell_angle_beta   34.53533366
_cell_angle_gamma   34.53533308
_symmetry_Int_Tables_number   1
_chemical_formula_structural   ZrIn
_chemical_formula_sum   'Zr1 In1'
_cell_volume   46.46360741
_cell_formula_units_Z   1
loop_
 _symmetry_equiv_pos_site_id
 _symmetry_equiv_pos_as_xyz
  1  'x, y, z'
loop_
 _atom_site_type_symbol
 _atom_site_label
 _atom_site_symmetry_multiplicity
 _atom_site_fract_x
 _atom_site_fract_y
 _atom_site_fract_z
 _atom_site_occupancy
  Zr  Zr0  1  0.50000000  0.50000000  0.50000000  1
  In  In1  1  0.00000000  0.00000000  0.00000000  1
