# generated using pymatgen
data_K2Fe4O7
_symmetry_space_group_name_H-M   'P 1'
_cell_length_a   5.30839172
_cell_length_b   5.30839172
_cell_length_c   6.98524300
_cell_angle_alpha   90.00000000
_cell_angle_beta   90.00000000
_cell_angle_gamma   119.99999649
_symmetry_Int_Tables_number   1
_chemical_formula_structural   K2Fe4O7
_chemical_formula_sum   'K2 Fe4 O7'
_cell_volume   170.46612609
_cell_formula_units_Z   1
loop_
 _symmetry_equiv_pos_site_id
 _symmetry_equiv_pos_as_xyz
  1  'x, y, z'
loop_
 _atom_site_type_symbol
 _atom_site_label
 _atom_site_symmetry_multiplicity
 _atom_site_fract_x
 _atom_site_fract_y
 _atom_site_fract_z
 _atom_site_occupancy
  K  K0  1  0.33333300  0.66666700  0.00000000  1
  K  K1  1  0.66666700  0.33333300  0.00000000  1
  Fe  Fe2  1  0.00000000  0.00000000  0.27137200  1
  Fe  Fe3  1  0.00000000  0.00000000  0.72862800  1
  Fe  Fe4  1  0.33333300  0.66666700  0.50000000  1
  Fe  Fe5  1  0.66666700  0.33333300  0.50000000  1
  O  O6  1  0.00000000  0.64732900  0.33605500  1
  O  O7  1  0.00000000  0.35267100  0.66394500  1
  O  O8  1  0.00000000  0.00000000  0.00000000  1
  O  O9  1  0.35267100  0.35267100  0.33605500  1
  O  O10  1  0.64732900  0.64732900  0.66394500  1
  O  O11  1  0.35267100  0.00000000  0.66394500  1
  O  O12  1  0.64732900  0.00000000  0.33605500  1
