# generated using pymatgen
data_ZrB4Mo
_symmetry_space_group_name_H-M   'P 1'
_cell_length_a   3.13206624
_cell_length_b   3.13206624
_cell_length_c   6.75036800
_cell_angle_alpha   90.00000000
_cell_angle_beta   90.00000000
_cell_angle_gamma   120.00000508
_symmetry_Int_Tables_number   1
_chemical_formula_structural   ZrB4Mo
_chemical_formula_sum   'Zr1 B4 Mo1'
_cell_volume   57.34821907
_cell_formula_units_Z   1
loop_
 _symmetry_equiv_pos_site_id
 _symmetry_equiv_pos_as_xyz
  1  'x, y, z'
loop_
 _atom_site_type_symbol
 _atom_site_label
 _atom_site_symmetry_multiplicity
 _atom_site_fract_x
 _atom_site_fract_y
 _atom_site_fract_z
 _atom_site_occupancy
  Zr  Zr0  1  0.00000000  0.00000000  0.50000000  1
  B  B1  1  0.66666700  0.33333300  0.76057400  1
  B  B2  1  0.66666700  0.33333300  0.23942600  1
  B  B3  1  0.33333300  0.66666700  0.76057400  1
  B  B4  1  0.33333300  0.66666700  0.23942600  1
  Mo  Mo5  1  0.00000000  0.00000000  0.00000000  1
