# generated using pymatgen
data_BaNaTiF6
_symmetry_space_group_name_H-M   'P 1'
_cell_length_a   5.80470200
_cell_length_b   9.99312500
_cell_length_c   19.41601100
_cell_angle_alpha   90.00000000
_cell_angle_beta   90.00000000
_cell_angle_gamma   90.00000000
_symmetry_Int_Tables_number   1
_chemical_formula_structural   BaNaTiF6
_chemical_formula_sum   'Ba8 Na8 Ti8 F48'
_cell_volume   1126.26673775
_cell_formula_units_Z   8
loop_
 _symmetry_equiv_pos_site_id
 _symmetry_equiv_pos_as_xyz
  1  'x, y, z'
loop_
 _atom_site_type_symbol
 _atom_site_label
 _atom_site_symmetry_multiplicity
 _atom_site_fract_x
 _atom_site_fract_y
 _atom_site_fract_z
 _atom_site_occupancy
  Ba  Ba0  1  0.75686400  0.36438800  0.11290000  1
  Ba  Ba1  1  0.24313600  0.86438800  0.88710000  1
  Ba  Ba2  1  0.74313600  0.36438800  0.61290000  1
  Ba  Ba3  1  0.25686400  0.86438800  0.38710000  1
  Ba  Ba4  1  0.25905000  0.00390900  0.13571900  1
  Ba  Ba5  1  0.74095000  0.50390900  0.86428100  1
  Ba  Ba6  1  0.24095000  0.00390900  0.63571900  1
  Ba  Ba7  1  0.75905000  0.50390900  0.36428100  1
  Na  Na8  1  0.26243500  0.64226300  0.06321600  1
  Na  Na9  1  0.73756500  0.14226300  0.93678400  1
  Na  Na10  1  0.23756500  0.64226300  0.56321600  1
  Na  Na11  1  0.76243500  0.14226300  0.43678400  1
  Na  Na12  1  0.26340200  0.22477400  0.31225100  1
  Na  Na13  1  0.73659800  0.72477400  0.68774900  1
  Na  Na14  1  0.23659800  0.22477400  0.81225100  1
  Na  Na15  1  0.76340200  0.72477400  0.18774900  1
  Ti  Ti16  1  0.26533700  0.26386100  0.49301600  1
  Ti  Ti17  1  0.73466300  0.76386100  0.50698400  1
  Ti  Ti18  1  0.23466300  0.26386100  0.99301600  1
  Ti  Ti19  1  0.76533700  0.76386100  0.00698400  1
  Ti  Ti20  1  0.25332300  0.60337600  0.24388200  1
  Ti  Ti21  1  0.74667700  0.10337600  0.75611800  1
  Ti  Ti22  1  0.24667700  0.60337600  0.74388200  1
  Ti  Ti23  1  0.75332300  0.10337600  0.25611800  1
  F  F24  1  0.02171300  0.17329200  0.06008200  1
  F  F25  1  0.97828700  0.67329200  0.93991800  1
  F  F26  1  0.47828700  0.17329200  0.56008200  1
  F  F27  1  0.52171300  0.67329200  0.43991800  1
  F  F28  1  0.34661200  0.11770200  0.43009800  1
  F  F29  1  0.65338800  0.61770200  0.56990200  1
  F  F30  1  0.15338800  0.11770200  0.93009800  1
  F  F31  1  0.84661200  0.61770200  0.06990200  1
  F  F32  1  0.49903200  0.16114100  0.03472200  1
  F  F33  1  0.50096800  0.66114100  0.96527800  1
  F  F34  1  0.00096800  0.16114100  0.53472200  1
  F  F35  1  0.99903200  0.66114100  0.46527800  1
  F  F36  1  0.48064600  0.54696100  0.17281200  1
  F  F37  1  0.51935400  0.04696100  0.82718800  1
  F  F38  1  0.01935400  0.54696100  0.67281200  1
  F  F39  1  0.98064600  0.04696100  0.32718800  1
  F  F40  1  0.53049700  0.19307800  0.19022300  1
  F  F41  1  0.46950300  0.69307800  0.80977700  1
  F  F42  1  0.96950300  0.19307800  0.69022300  1
  F  F43  1  0.03049700  0.69307800  0.30977700  1
  F  F44  1  0.30389000  0.45997000  0.30853300  1
  F  F45  1  0.69611000  0.95997000  0.69146700  1
  F  F46  1  0.19611000  0.45997000  0.80853300  1
  F  F47  1  0.80389000  0.95997000  0.19146700  1
  F  F48  1  0.04593500  0.32631100  0.42061300  1
  F  F49  1  0.95406500  0.82631100  0.57938700  1
  F  F50  1  0.45406500  0.32631100  0.92061300  1
  F  F51  1  0.54593500  0.82631100  0.07938700  1
  F  F52  1  0.01650000  0.20016000  0.21101400  1
  F  F53  1  0.98350000  0.70016000  0.78898600  1
  F  F54  1  0.48350000  0.20016000  0.71101400  1
  F  F55  1  0.51650000  0.70016000  0.28898600  1
  F  F56  1  0.55843400  0.35583900  0.46304600  1
  F  F57  1  0.44156600  0.85583900  0.53695400  1
  F  F58  1  0.94156600  0.35583900  0.96304600  1
  F  F59  1  0.05843400  0.85583900  0.03695400  1
  F  F60  1  0.18396400  0.74935700  0.18003600  1
  F  F61  1  0.81603600  0.24935700  0.81996400  1
  F  F62  1  0.31603600  0.74935700  0.68003600  1
  F  F63  1  0.68396400  0.24935700  0.31996400  1
  F  F64  1  0.30602200  0.40859600  0.05482000  1
  F  F65  1  0.69397800  0.90859600  0.94518000  1
  F  F66  1  0.19397800  0.40859600  0.55482000  1
  F  F67  1  0.80602200  0.90859600  0.44518000  1
  F  F68  1  0.46610000  0.01062400  0.29001500  1
  F  F69  1  0.53390000  0.51062400  0.70998500  1
  F  F70  1  0.03390000  0.01062400  0.79001500  1
  F  F71  1  0.96610000  0.51062400  0.20998500  1
