# generated using pymatgen
data_ZrTi4Be5
_symmetry_space_group_name_H-M   'P 1'
_cell_length_a   2.98141600
_cell_length_b   2.98141600
_cell_length_c   14.87337100
_cell_angle_alpha   90.00000000
_cell_angle_beta   90.00000000
_cell_angle_gamma   90.00000000
_symmetry_Int_Tables_number   1
_chemical_formula_structural   ZrTi4Be5
_chemical_formula_sum   'Zr1 Ti4 Be5'
_cell_volume   132.20703538
_cell_formula_units_Z   1
loop_
 _symmetry_equiv_pos_site_id
 _symmetry_equiv_pos_as_xyz
  1  'x, y, z'
loop_
 _atom_site_type_symbol
 _atom_site_label
 _atom_site_symmetry_multiplicity
 _atom_site_fract_x
 _atom_site_fract_y
 _atom_site_fract_z
 _atom_site_occupancy
  Zr  Zr0  1  0.50000000  0.50000000  0.00000000  1
  Ti  Ti1  1  0.50000000  0.50000000  0.20908400  1
  Ti  Ti2  1  0.50000000  0.50000000  0.40354100  1
  Ti  Ti3  1  0.50000000  0.50000000  0.59645900  1
  Ti  Ti4  1  0.50000000  0.50000000  0.79091600  1
  Be  Be5  1  0.00000000  0.00000000  0.88369700  1
  Be  Be6  1  0.00000000  0.00000000  0.11630300  1
  Be  Be7  1  0.00000000  0.00000000  0.30628600  1
  Be  Be8  1  0.00000000  0.00000000  0.50000000  1
  Be  Be9  1  0.00000000  0.00000000  0.69371400  1
