# generated using pymatgen
data_ZrTi(PbO3)2
_symmetry_space_group_name_H-M   'P 1'
_cell_length_a   5.86624192
_cell_length_b   5.86624192
_cell_length_c   5.86624212
_cell_angle_alpha   59.22070302
_cell_angle_beta   59.22070302
_cell_angle_gamma   59.22070384
_symmetry_Int_Tables_number   1
_chemical_formula_structural   ZrTi(PbO3)2
_chemical_formula_sum   'Zr1 Ti1 Pb2 O6'
_cell_volume   140.21214037
_cell_formula_units_Z   1
loop_
 _symmetry_equiv_pos_site_id
 _symmetry_equiv_pos_as_xyz
  1  'x, y, z'
loop_
 _atom_site_type_symbol
 _atom_site_label
 _atom_site_symmetry_multiplicity
 _atom_site_fract_x
 _atom_site_fract_y
 _atom_site_fract_z
 _atom_site_occupancy
  Zr  Zr0  1  0.01289900  0.01289900  0.01289900  1
  Ti  Ti1  1  0.51323900  0.51323900  0.51323900  1
  Pb  Pb2  1  0.78103400  0.78103400  0.78103400  1
  Pb  Pb3  1  0.28401400  0.28401400  0.28401400  1
  O  O4  1  0.74279200  0.74279200  0.24444700  1
  O  O5  1  0.25880800  0.25880800  0.72894600  1
  O  O6  1  0.24444700  0.74279200  0.74279200  1
  O  O7  1  0.72894600  0.25880800  0.25880800  1
  O  O8  1  0.74279200  0.24444700  0.74279200  1
  O  O9  1  0.25880800  0.72894600  0.25880800  1
