# generated using pymatgen
data_Ce2Fe14C
_symmetry_space_group_name_H-M   'P 1'
_cell_length_a   8.75394600
_cell_length_b   8.75394600
_cell_length_c   11.78331900
_cell_angle_alpha   90.00000000
_cell_angle_beta   90.00000000
_cell_angle_gamma   90.00000000
_symmetry_Int_Tables_number   1
_chemical_formula_structural   Ce2Fe14C
_chemical_formula_sum   'Ce8 Fe56 C4'
_cell_volume   902.97424151
_cell_formula_units_Z   4
loop_
 _symmetry_equiv_pos_site_id
 _symmetry_equiv_pos_as_xyz
  1  'x, y, z'
loop_
 _atom_site_type_symbol
 _atom_site_label
 _atom_site_symmetry_multiplicity
 _atom_site_fract_x
 _atom_site_fract_y
 _atom_site_fract_z
 _atom_site_occupancy
  Ce  Ce0  1  0.35640100  0.35640100  0.00000000  1
  Ce  Ce1  1  0.64359900  0.64359900  0.00000000  1
  Ce  Ce2  1  0.14359900  0.85640100  0.50000000  1
  Ce  Ce3  1  0.85640100  0.14359900  0.50000000  1
  Ce  Ce4  1  0.23963900  0.76036100  0.00000000  1
  Ce  Ce5  1  0.76036100  0.23963900  0.00000000  1
  Ce  Ce6  1  0.73963900  0.73963900  0.50000000  1
  Ce  Ce7  1  0.26036100  0.26036100  0.50000000  1
  Fe  Fe8  1  0.06503900  0.27539000  0.12009800  1
  Fe  Fe9  1  0.93496100  0.72461000  0.87990200  1
  Fe  Fe10  1  0.93496100  0.72461000  0.12009800  1
  Fe  Fe11  1  0.22461000  0.56503900  0.62009800  1
  Fe  Fe12  1  0.43496100  0.77539000  0.37990200  1
  Fe  Fe13  1  0.06503900  0.27539000  0.87990200  1
  Fe  Fe14  1  0.77539000  0.43496100  0.37990200  1
  Fe  Fe15  1  0.56503900  0.22461000  0.62009800  1
  Fe  Fe16  1  0.77539000  0.43496100  0.62009800  1
  Fe  Fe17  1  0.56503900  0.22461000  0.37990200  1
  Fe  Fe18  1  0.22461000  0.56503900  0.37990200  1
  Fe  Fe19  1  0.43496100  0.77539000  0.62009800  1
  Fe  Fe20  1  0.27539000  0.06503900  0.87990200  1
  Fe  Fe21  1  0.72461000  0.93496100  0.12009800  1
  Fe  Fe22  1  0.72461000  0.93496100  0.87990200  1
  Fe  Fe23  1  0.27539000  0.06503900  0.12009800  1
  Fe  Fe24  1  0.03727800  0.35867600  0.32366200  1
  Fe  Fe25  1  0.96272200  0.64132400  0.67633800  1
  Fe  Fe26  1  0.96272200  0.64132400  0.32366200  1
  Fe  Fe27  1  0.14132400  0.53727800  0.82366200  1
  Fe  Fe28  1  0.46272200  0.85867600  0.17633800  1
  Fe  Fe29  1  0.03727800  0.35867600  0.67633800  1
  Fe  Fe30  1  0.85867600  0.46272200  0.17633800  1
  Fe  Fe31  1  0.53727800  0.14132400  0.82366200  1
  Fe  Fe32  1  0.85867600  0.46272200  0.82366200  1
  Fe  Fe33  1  0.53727800  0.14132400  0.17633800  1
  Fe  Fe34  1  0.14132400  0.53727800  0.17633800  1
  Fe  Fe35  1  0.46272200  0.85867600  0.82366200  1
  Fe  Fe36  1  0.35867600  0.03727800  0.67633800  1
  Fe  Fe37  1  0.64132400  0.96272200  0.32366200  1
  Fe  Fe38  1  0.64132400  0.96272200  0.67633800  1
  Fe  Fe39  1  0.35867600  0.03727800  0.32366200  1
  Fe  Fe40  1  0.31732800  0.31732800  0.25505400  1
  Fe  Fe41  1  0.68267200  0.68267200  0.74494600  1
  Fe  Fe42  1  0.68267200  0.68267200  0.25505400  1
  Fe  Fe43  1  0.18267200  0.81732800  0.75505400  1
  Fe  Fe44  1  0.18267200  0.81732800  0.24494600  1
  Fe  Fe45  1  0.31732800  0.31732800  0.74494600  1
  Fe  Fe46  1  0.81732800  0.18267200  0.24494600  1
  Fe  Fe47  1  0.81732800  0.18267200  0.75505400  1
  Fe  Fe48  1  0.00000000  0.50000000  0.00000000  1
  Fe  Fe49  1  0.00000000  0.50000000  0.50000000  1
  Fe  Fe50  1  0.50000000  0.00000000  0.50000000  1
  Fe  Fe51  1  0.50000000  0.00000000  0.00000000  1
  Fe  Fe52  1  0.09790400  0.09790400  0.29426500  1
  Fe  Fe53  1  0.90209600  0.90209600  0.70573500  1
  Fe  Fe54  1  0.90209600  0.90209600  0.29426500  1
  Fe  Fe55  1  0.40209600  0.59790400  0.79426500  1
  Fe  Fe56  1  0.40209600  0.59790400  0.20573500  1
  Fe  Fe57  1  0.09790400  0.09790400  0.70573500  1
  Fe  Fe58  1  0.59790400  0.40209600  0.20573500  1
  Fe  Fe59  1  0.59790400  0.40209600  0.79426500  1
  Fe  Fe60  1  0.00000000  0.00000000  0.10725200  1
  Fe  Fe61  1  0.00000000  0.00000000  0.89274800  1
  Fe  Fe62  1  0.50000000  0.50000000  0.60725200  1
  Fe  Fe63  1  0.50000000  0.50000000  0.39274800  1
  C  C64  1  0.12484800  0.12484800  0.00000000  1
  C  C65  1  0.87515200  0.87515200  0.00000000  1
  C  C66  1  0.37515200  0.62484800  0.50000000  1
  C  C67  1  0.62484800  0.37515200  0.50000000  1
