# generated using pymatgen
data_Ba6ZnCo5(SiO4)6
_symmetry_space_group_name_H-M   'P 1'
_cell_length_a   8.83792300
_cell_length_b   9.22677342
_cell_length_c   9.23137096
_cell_angle_alpha   119.94877276
_cell_angle_beta   90.02047570
_cell_angle_gamma   90.01734999
_symmetry_Int_Tables_number   1
_chemical_formula_structural   Ba6ZnCo5(SiO4)6
_chemical_formula_sum   'Ba6 Zn1 Co5 Si6 O24'
_cell_volume   652.26002243
_cell_formula_units_Z   1
loop_
 _symmetry_equiv_pos_site_id
 _symmetry_equiv_pos_as_xyz
  1  'x, y, z'
loop_
 _atom_site_type_symbol
 _atom_site_label
 _atom_site_symmetry_multiplicity
 _atom_site_fract_x
 _atom_site_fract_y
 _atom_site_fract_z
 _atom_site_occupancy
  Ba  Ba0  1  0.77809000  0.66677800  0.33309500  1
  Ba  Ba1  1  0.27767900  0.33329500  0.66624800  1
  Ba  Ba2  1  0.77046600  0.33324100  0.66692500  1
  Ba  Ba3  1  0.27036300  0.66593300  0.33346800  1
  Ba  Ba4  1  0.75046200  0.99962900  0.99973100  1
  Ba  Ba5  1  0.25043600  0.00102400  0.00045900  1
  Zn  Zn6  1  0.46621900  0.32999700  0.31939700  1
  Co  Co7  1  0.96434300  0.31823700  0.98858300  1
  Co  Co8  1  0.46414800  0.98837700  0.66972100  1
  Co  Co9  1  0.96418200  0.67007700  0.68158300  1
  Co  Co10  1  0.46405600  0.68163200  0.01142000  1
  Co  Co11  1  0.96435400  0.01153300  0.32972200  1
  Si  Si12  1  0.56771400  0.01126300  0.34010200  1
  Si  Si13  1  0.06735700  0.34023800  0.32921300  1
  Si  Si14  1  0.56735800  0.32851200  0.98890400  1
  Si  Si15  1  0.06747100  0.98900200  0.65989200  1
  Si  Si16  1  0.56734800  0.66007100  0.67077600  1
  Si  Si17  1  0.06754900  0.67094600  0.01099100  1
  O  O18  1  0.47684400  0.08780000  0.23619900  1
  O  O19  1  0.97541600  0.23735600  0.15002000  1
  O  O20  1  0.47578600  0.14900600  0.91164900  1
  O  O21  1  0.97567300  0.91237800  0.76273300  1
  O  O22  1  0.47566600  0.76264400  0.85004600  1
  O  O23  1  0.97570500  0.85024600  0.08761000  1
  O  O24  1  0.51030500  0.09641500  0.53574700  1
  O  O25  1  0.00995100  0.53620600  0.44002100  1
  O  O26  1  0.51046800  0.44001100  0.90422300  1
  O  O27  1  0.01039300  0.90387300  0.46393900  1
  O  O28  1  0.50936600  0.46406600  0.56074300  1
  O  O29  1  0.01051700  0.55996200  0.09620900  1
  O  O30  1  0.54942100  0.80580300  0.23982400  1
  O  O31  1  0.04962200  0.23996200  0.43458600  1
  O  O32  1  0.54900700  0.43364800  0.19437600  1
  O  O33  1  0.04953800  0.19455800  0.76017200  1
  O  O34  1  0.54976400  0.76006100  0.56520600  1
  O  O35  1  0.04957300  0.56557800  0.80560500  1
  O  O36  1  0.24623400  0.34586000  0.28070300  1
  O  O37  1  0.74634200  0.28040100  0.93550000  1
  O  O38  1  0.24643300  0.93512800  0.65488500  1
  O  O39  1  0.74622900  0.65428900  0.71925800  1
  O  O40  1  0.24655000  0.71992700  0.06501500  1
  O  O41  1  0.74660200  0.06500400  0.34543600  1
