# generated using pymatgen
data_ZrMoW
_symmetry_space_group_name_H-M   'P 1'
_cell_length_a   5.41360520
_cell_length_b   5.41360520
_cell_length_c   5.41360520
_cell_angle_alpha   120.23791215
_cell_angle_beta   119.78162800
_cell_angle_gamma   89.98353291
_symmetry_Int_Tables_number   1
_chemical_formula_structural   ZrMoW
_chemical_formula_sum   'Zr2 Mo2 W2'
_cell_volume   112.16877453
_cell_formula_units_Z   2
loop_
 _symmetry_equiv_pos_site_id
 _symmetry_equiv_pos_as_xyz
  1  'x, y, z'
loop_
 _atom_site_type_symbol
 _atom_site_label
 _atom_site_symmetry_multiplicity
 _atom_site_fract_x
 _atom_site_fract_y
 _atom_site_fract_z
 _atom_site_occupancy
  Zr  Zr0  1  0.12495600  0.87495600  0.25000000  1
  Zr  Zr1  1  0.87504400  0.12504400  0.75000000  1
  Mo  Mo2  1  0.50000000  0.50000000  0.50000000  1
  Mo  Mo3  1  0.50000000  0.00000000  0.00000000  1
  W  W4  1  0.50000000  0.50000000  0.00000000  1
  W  W5  1  0.00000000  0.50000000  0.50000000  1
