# generated using pymatgen
data_YbAgS2
_symmetry_space_group_name_H-M   'P 1'
_cell_length_a   6.34932551
_cell_length_b   6.34932551
_cell_length_c   6.34932564
_cell_angle_alpha   37.06203990
_cell_angle_beta   37.06203990
_cell_angle_gamma   37.06203719
_symmetry_Int_Tables_number   1
_chemical_formula_structural   YbAgS2
_chemical_formula_sum   'Yb1 Ag1 S2'
_cell_volume   83.31427125
_cell_formula_units_Z   1
loop_
 _symmetry_equiv_pos_site_id
 _symmetry_equiv_pos_as_xyz
  1  'x, y, z'
loop_
 _atom_site_type_symbol
 _atom_site_label
 _atom_site_symmetry_multiplicity
 _atom_site_fract_x
 _atom_site_fract_y
 _atom_site_fract_z
 _atom_site_occupancy
  Yb  Yb0  1  0.50000000  0.50000000  0.50000000  1
  Ag  Ag1  1  0.00000000  0.00000000  0.00000000  1
  S  S2  1  0.25363200  0.25363200  0.25363200  1
  S  S3  1  0.74636800  0.74636800  0.74636800  1
