# generated using pymatgen
data_Yb4SmS5
_symmetry_space_group_name_H-M   'P 1'
_cell_length_a   16.58929042
_cell_length_b   16.58929042
_cell_length_c   16.58929025
_cell_angle_alpha   13.80223226
_cell_angle_beta   13.80223226
_cell_angle_gamma   13.80223414
_symmetry_Int_Tables_number   1
_chemical_formula_structural   Yb4SmS5
_chemical_formula_sum   'Yb4 Sm1 S5'
_cell_volume   226.12337253
_cell_formula_units_Z   1
loop_
 _symmetry_equiv_pos_site_id
 _symmetry_equiv_pos_as_xyz
  1  'x, y, z'
loop_
 _atom_site_type_symbol
 _atom_site_label
 _atom_site_symmetry_multiplicity
 _atom_site_fract_x
 _atom_site_fract_y
 _atom_site_fract_z
 _atom_site_occupancy
  Yb  Yb0  1  0.09968100  0.09968100  0.09968100  1
  Yb  Yb1  1  0.70005900  0.70005900  0.70005900  1
  Yb  Yb2  1  0.29994100  0.29994100  0.29994100  1
  Yb  Yb3  1  0.90031900  0.90031900  0.90031900  1
  Sm  Sm4  1  0.50000000  0.50000000  0.50000000  1
  S  S5  1  0.59985000  0.59985000  0.59985000  1
  S  S6  1  0.40015000  0.40015000  0.40015000  1
  S  S7  1  0.00000000  0.00000000  0.00000000  1
  S  S8  1  0.20064200  0.20064200  0.20064200  1
  S  S9  1  0.79935800  0.79935800  0.79935800  1
