# generated using pymatgen
data_ZrTi4(PbO3)5
_symmetry_space_group_name_H-M   'P 1'
_cell_length_a   14.22860563
_cell_length_b   14.22860563
_cell_length_c   4.48042200
_cell_angle_alpha   90.00000000
_cell_angle_beta   90.00000000
_cell_angle_gamma   157.40541560
_symmetry_Int_Tables_number   1
_chemical_formula_structural   ZrTi4(PbO3)5
_chemical_formula_sum   'Zr1 Ti4 Pb5 O15'
_cell_volume   348.50585290
_cell_formula_units_Z   1
loop_
 _symmetry_equiv_pos_site_id
 _symmetry_equiv_pos_as_xyz
  1  'x, y, z'
loop_
 _atom_site_type_symbol
 _atom_site_label
 _atom_site_symmetry_multiplicity
 _atom_site_fract_x
 _atom_site_fract_y
 _atom_site_fract_z
 _atom_site_occupancy
  Zr  Zr0  1  0.50000000  0.50000000  0.53584300  1
  Ti  Ti1  1  0.10255400  0.89744600  0.52971900  1
  Ti  Ti2  1  0.89744600  0.10255400  0.52971900  1
  Ti  Ti3  1  0.29900100  0.70099900  0.52906800  1
  Ti  Ti4  1  0.70099900  0.29900100  0.52906800  1
  Pb  Pb5  1  0.60350400  0.39649600  0.97875900  1
  Pb  Pb6  1  0.00000000  0.00000000  0.97859700  1
  Pb  Pb7  1  0.39649600  0.60350400  0.97875900  1
  Pb  Pb8  1  0.79929300  0.20070700  0.97727800  1
  Pb  Pb9  1  0.20070700  0.79929300  0.97727800  1
  O  O10  1  0.40270600  0.09919700  0.62944800  1
  O  O11  1  0.59729400  0.90080300  0.62944800  1
  O  O12  1  0.00000000  0.50000000  0.62600200  1
  O  O13  1  0.81280100  0.70652600  0.62819500  1
  O  O14  1  0.18719900  0.29347400  0.62819500  1
  O  O15  1  0.50000000  0.00000000  0.62600200  1
  O  O16  1  0.70652600  0.81280100  0.62819500  1
  O  O17  1  0.09919700  0.40270600  0.62944800  1
  O  O18  1  0.90080300  0.59729400  0.62944800  1
  O  O19  1  0.29347400  0.18719900  0.62819500  1
  O  O20  1  0.70027600  0.29972400  0.13548100  1
  O  O21  1  0.89667400  0.10332600  0.13629700  1
  O  O22  1  0.29972400  0.70027600  0.13548100  1
  O  O23  1  0.10332600  0.89667400  0.13629700  1
  O  O24  1  0.50000000  0.50000000  0.09128300  1
