# generated using pymatgen
data_NaCl
_symmetry_space_group_name_H-M   'P 1'
_cell_length_a   6.79963400
_cell_length_b   6.79963469
_cell_length_c   7.09483800
_cell_angle_alpha   90.00000000
_cell_angle_beta   90.00000000
_cell_angle_gamma   120.00000637
_symmetry_Int_Tables_number   1
_chemical_formula_structural   NaCl
_chemical_formula_sum   'Na6 Cl6'
_cell_volume   284.08231930
_cell_formula_units_Z   6
loop_
 _symmetry_equiv_pos_site_id
 _symmetry_equiv_pos_as_xyz
  1  'x, y, z'
loop_
 _atom_site_type_symbol
 _atom_site_label
 _atom_site_symmetry_multiplicity
 _atom_site_fract_x
 _atom_site_fract_y
 _atom_site_fract_z
 _atom_site_occupancy
  Na  Na0  1  0.00000000  0.66920000  0.50000000  1
  Na  Na1  1  0.33080000  0.33080000  0.50000000  1
  Na  Na2  1  0.66920000  0.00000000  0.50000000  1
  Na  Na3  1  0.00000000  0.33657100  0.00000000  1
  Na  Na4  1  0.66342900  0.66342900  0.00000000  1
  Na  Na5  1  0.33657100  0.00000000  0.00000000  1
  Cl  Cl6  1  0.66666700  0.33333300  0.25044700  1
  Cl  Cl7  1  0.66666700  0.33333300  0.74955300  1
  Cl  Cl8  1  0.33333300  0.66666700  0.74955300  1
  Cl  Cl9  1  0.33333300  0.66666700  0.25044700  1
  Cl  Cl10  1  0.00000000  0.00000000  0.75091200  1
  Cl  Cl11  1  0.00000000  0.00000000  0.24908800  1
