# generated using pymatgen
data_Zr2BN
_symmetry_space_group_name_H-M   'P 1'
_cell_length_a   5.86594206
_cell_length_b   5.86594206
_cell_length_c   5.86594174
_cell_angle_alpha   33.19662270
_cell_angle_beta   33.19662270
_cell_angle_gamma   33.19662821
_symmetry_Int_Tables_number   1
_chemical_formula_structural   Zr2BN
_chemical_formula_sum   'Zr2 B1 N1'
_cell_volume   53.86296073
_cell_formula_units_Z   1
loop_
 _symmetry_equiv_pos_site_id
 _symmetry_equiv_pos_as_xyz
  1  'x, y, z'
loop_
 _atom_site_type_symbol
 _atom_site_label
 _atom_site_symmetry_multiplicity
 _atom_site_fract_x
 _atom_site_fract_y
 _atom_site_fract_z
 _atom_site_occupancy
  Zr  Zr0  1  0.25238300  0.25238300  0.25238300  1
  Zr  Zr1  1  0.74761700  0.74761700  0.74761700  1
  B  B2  1  0.50000000  0.50000000  0.50000000  1
  N  N3  1  0.00000000  0.00000000  0.00000000  1
