# generated using pymatgen
data_Tl2Cl3
_symmetry_space_group_name_H-M   'P 1'
_cell_length_a   9.40659624
_cell_length_b   9.40659624
_cell_length_c   9.40659627
_cell_angle_alpha   28.20736846
_cell_angle_beta   28.20736846
_cell_angle_gamma   28.20737238
_symmetry_Int_Tables_number   1
_chemical_formula_structural   Tl2Cl3
_chemical_formula_sum   'Tl2 Cl3'
_cell_volume   164.28879869
_cell_formula_units_Z   1
loop_
 _symmetry_equiv_pos_site_id
 _symmetry_equiv_pos_as_xyz
  1  'x, y, z'
loop_
 _atom_site_type_symbol
 _atom_site_label
 _atom_site_symmetry_multiplicity
 _atom_site_fract_x
 _atom_site_fract_y
 _atom_site_fract_z
 _atom_site_occupancy
  Tl  Tl0  1  0.59860900  0.59860900  0.59860900  1
  Tl  Tl1  1  0.40139100  0.40139100  0.40139100  1
  Cl  Cl2  1  0.00000000  0.00000000  0.00000000  1
  Cl  Cl3  1  0.21956100  0.21956100  0.21956100  1
  Cl  Cl4  1  0.78043900  0.78043900  0.78043900  1
