# generated using pymatgen
data_Zr2CoMo3
_symmetry_space_group_name_H-M   'P 1'
_cell_length_a   5.35306217
_cell_length_b   5.35306217
_cell_length_c   5.35306227
_cell_angle_alpha   58.44259945
_cell_angle_beta   58.44259945
_cell_angle_gamma   58.44259887
_symmetry_Int_Tables_number   1
_chemical_formula_structural   Zr2CoMo3
_chemical_formula_sum   'Zr2 Co1 Mo3'
_cell_volume   104.60003065
_cell_formula_units_Z   1
loop_
 _symmetry_equiv_pos_site_id
 _symmetry_equiv_pos_as_xyz
  1  'x, y, z'
loop_
 _atom_site_type_symbol
 _atom_site_label
 _atom_site_symmetry_multiplicity
 _atom_site_fract_x
 _atom_site_fract_y
 _atom_site_fract_z
 _atom_site_occupancy
  Zr  Zr0  1  0.12662800  0.12662800  0.12662800  1
  Zr  Zr1  1  0.87337200  0.87337200  0.87337200  1
  Co  Co2  1  0.50000000  0.50000000  0.50000000  1
  Mo  Mo3  1  0.50000000  0.00000000  0.50000000  1
  Mo  Mo4  1  0.00000000  0.50000000  0.50000000  1
  Mo  Mo5  1  0.50000000  0.50000000  0.00000000  1
