# generated using pymatgen
data_Zr2H(NCl)2
_symmetry_space_group_name_H-M   'P 1'
_cell_length_a   9.48329352
_cell_length_b   9.48329352
_cell_length_c   9.48329451
_cell_angle_alpha   23.15420504
_cell_angle_beta   23.15420504
_cell_angle_gamma   23.15420095
_symmetry_Int_Tables_number   1
_chemical_formula_structural   Zr2H(NCl)2
_chemical_formula_sum   'Zr2 H1 N2 Cl2'
_cell_volume   115.74936672
_cell_formula_units_Z   1
loop_
 _symmetry_equiv_pos_site_id
 _symmetry_equiv_pos_as_xyz
  1  'x, y, z'
loop_
 _atom_site_type_symbol
 _atom_site_label
 _atom_site_symmetry_multiplicity
 _atom_site_fract_x
 _atom_site_fract_y
 _atom_site_fract_z
 _atom_site_occupancy
  Zr  Zr0  1  0.87959600  0.87959600  0.87959600  1
  Zr  Zr1  1  0.12552700  0.12552700  0.12552700  1
  H  H2  1  0.76084400  0.76084400  0.76084400  1
  N  N3  1  0.79852900  0.79852900  0.79852900  1
  N  N4  1  0.20074200  0.20074200  0.20074200  1
  Cl  Cl5  1  0.60954900  0.60954900  0.60954900  1
  Cl  Cl6  1  0.39031300  0.39031300  0.39031300  1
