# generated using pymatgen
data_ZnGaPSe
_symmetry_space_group_name_H-M   'P 1'
_cell_length_a   6.92062045
_cell_length_b   6.92062045
_cell_length_c   6.92061983
_cell_angle_alpha   33.24869328
_cell_angle_beta   33.24869328
_cell_angle_gamma   33.24869694
_symmetry_Int_Tables_number   1
_chemical_formula_structural   ZnGaPSe
_chemical_formula_sum   'Zn1 Ga1 P1 Se1'
_cell_volume   88.70622206
_cell_formula_units_Z   1
loop_
 _symmetry_equiv_pos_site_id
 _symmetry_equiv_pos_as_xyz
  1  'x, y, z'
loop_
 _atom_site_type_symbol
 _atom_site_label
 _atom_site_symmetry_multiplicity
 _atom_site_fract_x
 _atom_site_fract_y
 _atom_site_fract_z
 _atom_site_occupancy
  Zn  Zn0  1  0.00531900  0.00531900  0.00531900  1
  Ga  Ga1  1  0.49538800  0.49538800  0.49538800  1
  P  P2  1  0.12581200  0.12581200  0.12581200  1
  Se  Se3  1  0.62348000  0.62348000  0.62348000  1
