# generated using pymatgen
data_ZrO2F5
_symmetry_space_group_name_H-M   'P 1'
_cell_length_a   5.90487631
_cell_length_b   5.82237382
_cell_length_c   7.15653800
_cell_angle_alpha   90.00000000
_cell_angle_beta   90.00000000
_cell_angle_gamma   108.01285516
_symmetry_Int_Tables_number   1
_chemical_formula_structural   ZrO2F5
_chemical_formula_sum   'Zr2 O4 F10'
_cell_volume   233.98527391
_cell_formula_units_Z   2
loop_
 _symmetry_equiv_pos_site_id
 _symmetry_equiv_pos_as_xyz
  1  'x, y, z'
loop_
 _atom_site_type_symbol
 _atom_site_label
 _atom_site_symmetry_multiplicity
 _atom_site_fract_x
 _atom_site_fract_y
 _atom_site_fract_z
 _atom_site_occupancy
  Zr  Zr0  1  0.19440300  0.80725500  0.00000000  1
  Zr  Zr1  1  0.80559700  0.19274500  0.00000000  1
  O  O2  1  0.50000000  0.50000000  0.58254900  1
  O  O3  1  0.50000000  0.50000000  0.41745100  1
  O  O4  1  0.01973100  0.90678200  0.50000000  1
  O  O5  1  0.98026900  0.09321800  0.50000000  1
  F  F6  1  0.25236900  0.74165100  0.72037000  1
  F  F7  1  0.74763100  0.25834900  0.72037000  1
  F  F8  1  0.74763100  0.25834900  0.27963000  1
  F  F9  1  0.25236900  0.74165100  0.27963000  1
  F  F10  1  0.00000000  0.00000000  0.83615200  1
  F  F11  1  0.00000000  0.00000000  0.16384800  1
  F  F12  1  0.83451200  0.57041500  0.00000000  1
  F  F13  1  0.16548800  0.42958500  0.00000000  1
  F  F14  1  0.56538300  0.82912200  0.00000000  1
  F  F15  1  0.43461700  0.17087800  0.00000000  1
