# generated using pymatgen
data_Zn2PdAu
_symmetry_space_group_name_H-M   'P 1'
_cell_length_a   3.15726500
_cell_length_b   3.15726500
_cell_length_c   6.16971300
_cell_angle_alpha   90.00000000
_cell_angle_beta   90.00000000
_cell_angle_gamma   90.00000000
_symmetry_Int_Tables_number   1
_chemical_formula_structural   Zn2PdAu
_chemical_formula_sum   'Zn2 Pd1 Au1'
_cell_volume   61.50168756
_cell_formula_units_Z   1
loop_
 _symmetry_equiv_pos_site_id
 _symmetry_equiv_pos_as_xyz
  1  'x, y, z'
loop_
 _atom_site_type_symbol
 _atom_site_label
 _atom_site_symmetry_multiplicity
 _atom_site_fract_x
 _atom_site_fract_y
 _atom_site_fract_z
 _atom_site_occupancy
  Zn  Zn0  1  0.50000000  0.50000000  0.26341400  1
  Zn  Zn1  1  0.50000000  0.50000000  0.73658600  1
  Pd  Pd2  1  0.00000000  0.00000000  0.50000000  1
  Au  Au3  1  0.00000000  0.00000000  0.00000000  1
