# generated using pymatgen
data_Zn3InGaO6
_symmetry_space_group_name_H-M   'P 1'
_cell_length_a   14.17307494
_cell_length_b   14.17307494
_cell_length_c   14.17307470
_cell_angle_alpha   13.52134957
_cell_angle_beta   13.52134957
_cell_angle_gamma   13.52135285
_symmetry_Int_Tables_number   1
_chemical_formula_structural   Zn3InGaO6
_chemical_formula_sum   'Zn3 In1 Ga1 O6'
_cell_volume   135.41016075
_cell_formula_units_Z   1
loop_
 _symmetry_equiv_pos_site_id
 _symmetry_equiv_pos_as_xyz
  1  'x, y, z'
loop_
 _atom_site_type_symbol
 _atom_site_label
 _atom_site_symmetry_multiplicity
 _atom_site_fract_x
 _atom_site_fract_y
 _atom_site_fract_z
 _atom_site_occupancy
  Zn  Zn0  1  0.26097000  0.26097000  0.26097000  1
  Zn  Zn1  1  0.74111500  0.74111500  0.74111500  1
  Zn  Zn2  1  0.86572700  0.86572700  0.86572700  1
  In  In3  1  0.00089600  0.00089600  0.00089600  1
  Ga  Ga4  1  0.13717300  0.13717300  0.13717300  1
  O  O5  1  0.91320500  0.91320500  0.91320500  1
  O  O6  1  0.08975200  0.08975200  0.08975200  1
  O  O7  1  0.18472100  0.18472100  0.18472100  1
  O  O8  1  0.80426800  0.80426800  0.80426800  1
  O  O9  1  0.69389600  0.69389600  0.69389600  1
  O  O10  1  0.30827900  0.30827900  0.30827900  1
