# generated using pymatgen
data_YbGaCoO4
_symmetry_space_group_name_H-M   'P 1'
_cell_length_a   8.44185870
_cell_length_b   8.44185870
_cell_length_c   8.44185867
_cell_angle_alpha   23.72540565
_cell_angle_beta   23.72540565
_cell_angle_gamma   23.72540526
_symmetry_Int_Tables_number   1
_chemical_formula_structural   YbGaCoO4
_chemical_formula_sum   'Yb1 Ga1 Co1 O4'
_cell_volume   85.54985438
_cell_formula_units_Z   1
loop_
 _symmetry_equiv_pos_site_id
 _symmetry_equiv_pos_as_xyz
  1  'x, y, z'
loop_
 _atom_site_type_symbol
 _atom_site_label
 _atom_site_symmetry_multiplicity
 _atom_site_fract_x
 _atom_site_fract_y
 _atom_site_fract_z
 _atom_site_occupancy
  Yb  Yb0  1  0.99876700  0.99876700  0.99876700  1
  Ga  Ga1  1  0.78530800  0.78530800  0.78530800  1
  Co  Co2  1  0.21370000  0.21370000  0.21370000  1
  O  O3  1  0.71232800  0.71232800  0.71232800  1
  O  O4  1  0.28483700  0.28483700  0.28483700  1
  O  O5  1  0.86717100  0.86717100  0.86717100  1
  O  O6  1  0.13308800  0.13308800  0.13308800  1
