# generated using pymatgen
data_YbBO3
_symmetry_space_group_name_H-M   'P 1'
_cell_length_a   3.92015357
_cell_length_b   3.92015357
_cell_length_c   8.91345900
_cell_angle_alpha   90.00000000
_cell_angle_beta   90.00000000
_cell_angle_gamma   117.26830202
_symmetry_Int_Tables_number   1
_chemical_formula_structural   YbBO3
_chemical_formula_sum   'Yb2 B2 O6'
_cell_volume   121.75620129
_cell_formula_units_Z   2
loop_
 _symmetry_equiv_pos_site_id
 _symmetry_equiv_pos_as_xyz
  1  'x, y, z'
loop_
 _atom_site_type_symbol
 _atom_site_label
 _atom_site_symmetry_multiplicity
 _atom_site_fract_x
 _atom_site_fract_y
 _atom_site_fract_z
 _atom_site_occupancy
  Yb  Yb0  1  0.94249800  0.94249800  0.50000000  1
  Yb  Yb1  1  0.94249800  0.94249800  0.00000000  1
  B  B2  1  0.49586200  0.24430900  0.25000000  1
  B  B3  1  0.24430900  0.49586200  0.75000000  1
  O  O4  1  0.66253100  0.32257100  0.38989800  1
  O  O5  1  0.32257100  0.66253100  0.61010200  1
  O  O6  1  0.32257100  0.66253100  0.88989800  1
  O  O7  1  0.66253100  0.32257100  0.11010200  1
  O  O8  1  0.09885400  0.05250400  0.25000000  1
  O  O9  1  0.05250400  0.09885400  0.75000000  1
