# generated using pymatgen
data_ZnSiAsP
_symmetry_space_group_name_H-M   'P 1'
_cell_length_a   5.55522100
_cell_length_b   5.52548700
_cell_length_c   6.66322723
_cell_angle_alpha   65.50427407
_cell_angle_beta   65.36371240
_cell_angle_gamma   90.00000000
_symmetry_Int_Tables_number   1
_chemical_formula_structural   ZnSiAsP
_chemical_formula_sum   'Zn2 Si2 As2 P2'
_cell_volume   165.44377634
_cell_formula_units_Z   2
loop_
 _symmetry_equiv_pos_site_id
 _symmetry_equiv_pos_as_xyz
  1  'x, y, z'
loop_
 _atom_site_type_symbol
 _atom_site_label
 _atom_site_symmetry_multiplicity
 _atom_site_fract_x
 _atom_site_fract_y
 _atom_site_fract_z
 _atom_site_occupancy
  Zn  Zn0  1  0.75550600  0.25550600  0.48898800  1
  Zn  Zn1  1  0.99449400  0.99449400  0.01101200  1
  Si  Si2  1  0.25549200  0.75549200  0.48901600  1
  Si  Si3  1  0.49450800  0.49450800  0.01098400  1
  As  As4  1  0.37500000  0.86229200  0.75000000  1
  As  As5  1  0.87500000  0.38770800  0.75000000  1
  P  P6  1  0.14417700  0.12500000  0.25000000  1
  P  P7  1  0.60582300  0.62500000  0.25000000  1
