# generated using pymatgen
data_Zn2InCuTe4
_symmetry_space_group_name_H-M   'P 1'
_cell_length_a   6.24614900
_cell_length_b   6.24614900
_cell_length_c   7.62564918
_cell_angle_alpha   65.82350962
_cell_angle_beta   65.82350962
_cell_angle_gamma   90.00000000
_symmetry_Int_Tables_number   1
_chemical_formula_structural   Zn2InCuTe4
_chemical_formula_sum   'Zn2 In1 Cu1 Te4'
_cell_volume   242.52803889
_cell_formula_units_Z   1
loop_
 _symmetry_equiv_pos_site_id
 _symmetry_equiv_pos_as_xyz
  1  'x, y, z'
loop_
 _atom_site_type_symbol
 _atom_site_label
 _atom_site_symmetry_multiplicity
 _atom_site_fract_x
 _atom_site_fract_y
 _atom_site_fract_z
 _atom_site_occupancy
  Zn  Zn0  1  0.25000000  0.75000000  0.50000000  1
  Zn  Zn1  1  0.75000000  0.25000000  0.50000000  1
  In  In2  1  0.50000000  0.50000000  0.00000000  1
  Cu  Cu3  1  0.00000000  0.00000000  0.00000000  1
  Te  Te4  1  0.36191000  0.89432000  0.74377000  1
  Te  Te5  1  0.63809000  0.63809000  0.25623000  1
  Te  Te6  1  0.89432000  0.36191000  0.74377000  1
  Te  Te7  1  0.10568000  0.10568000  0.25623000  1
