# generated using pymatgen
data_YbYAl6(BO3)8
_symmetry_space_group_name_H-M   'P 1'
_cell_length_a   7.28299194
_cell_length_b   7.28299194
_cell_length_c   7.28299239
_cell_angle_alpha   79.90996645
_cell_angle_beta   79.90996645
_cell_angle_gamma   79.90996464
_symmetry_Int_Tables_number   1
_chemical_formula_structural   YbYAl6(BO3)8
_chemical_formula_sum   'Yb1 Y1 Al6 B8 O24'
_cell_volume   370.26299277
_cell_formula_units_Z   1
loop_
 _symmetry_equiv_pos_site_id
 _symmetry_equiv_pos_as_xyz
  1  'x, y, z'
loop_
 _atom_site_type_symbol
 _atom_site_label
 _atom_site_symmetry_multiplicity
 _atom_site_fract_x
 _atom_site_fract_y
 _atom_site_fract_z
 _atom_site_occupancy
  Yb  Yb0  1  0.50000000  0.50000000  0.50000000  1
  Y  Y1  1  0.00000000  0.00000000  0.00000000  1
  Al  Al2  1  0.44522000  0.00000000  0.55478000  1
  Al  Al3  1  0.94334200  0.50000000  0.05665800  1
  Al  Al4  1  0.00000000  0.55478000  0.44522000  1
  Al  Al5  1  0.50000000  0.05665800  0.94334200  1
  Al  Al6  1  0.55478000  0.44522000  0.00000000  1
  Al  Al7  1  0.05665800  0.94334200  0.50000000  1
  B  B8  1  0.80624300  0.25126500  0.69170300  1
  B  B9  1  0.30829700  0.74873500  0.19375700  1
  B  B10  1  0.25126500  0.69170300  0.80624300  1
  B  B11  1  0.74873500  0.19375700  0.30829700  1
  B  B12  1  0.69170300  0.80624300  0.25126500  1
  B  B13  1  0.19375700  0.30829700  0.74873500  1
  B  B14  1  0.25044500  0.25044500  0.25044500  1
  B  B15  1  0.74955500  0.74955500  0.74955500  1
  O  O16  1  0.39810700  0.24964800  0.10201100  1
  O  O17  1  0.89798900  0.75035200  0.60189300  1
  O  O18  1  0.24964800  0.10201100  0.39810700  1
  O  O19  1  0.75035200  0.60189300  0.89798900  1
  O  O20  1  0.10201100  0.39810700  0.24964800  1
  O  O21  1  0.60189300  0.89798900  0.75035200  1
  O  O22  1  0.93848400  0.08926200  0.68848000  1
  O  O23  1  0.43890400  0.59049500  0.18544300  1
  O  O24  1  0.08926200  0.68848000  0.93848400  1
  O  O25  1  0.59049500  0.18544300  0.43890400  1
  O  O26  1  0.68848000  0.93848400  0.08926200  1
  O  O27  1  0.18544300  0.43890400  0.59049500  1
  O  O28  1  0.81455700  0.40950500  0.56109600  1
  O  O29  1  0.31152000  0.91073800  0.06151600  1
  O  O30  1  0.56109600  0.81455700  0.40950500  1
  O  O31  1  0.06151600  0.31152000  0.91073800  1
  O  O32  1  0.40950500  0.56109600  0.81455700  1
  O  O33  1  0.91073800  0.06151600  0.31152000  1
  O  O34  1  0.65936800  0.24964400  0.84192300  1
  O  O35  1  0.15807700  0.75035600  0.34063200  1
  O  O36  1  0.24964400  0.84192300  0.65936800  1
  O  O37  1  0.75035600  0.34063200  0.15807700  1
  O  O38  1  0.84192300  0.65936800  0.24964400  1
  O  O39  1  0.34063200  0.15807700  0.75035600  1
