# generated using pymatgen
data_Yb4Zr3O12
_symmetry_space_group_name_H-M   'P 1'
_cell_length_a   6.38271000
_cell_length_b   6.40820340
_cell_length_c   6.53224112
_cell_angle_alpha   97.67586184
_cell_angle_beta   99.30492291
_cell_angle_gamma   100.63976521
_symmetry_Int_Tables_number   1
_chemical_formula_structural   Yb4Zr3O12
_chemical_formula_sum   'Yb4 Zr3 O12'
_cell_volume   255.42608686
_cell_formula_units_Z   1
loop_
 _symmetry_equiv_pos_site_id
 _symmetry_equiv_pos_as_xyz
  1  'x, y, z'
loop_
 _atom_site_type_symbol
 _atom_site_label
 _atom_site_symmetry_multiplicity
 _atom_site_fract_x
 _atom_site_fract_y
 _atom_site_fract_z
 _atom_site_occupancy
  Yb  Yb0  1  0.85390800  0.38699000  0.69940000  1
  Yb  Yb1  1  0.39547400  0.70629200  0.86829600  1
  Yb  Yb2  1  0.14609200  0.61301000  0.30060000  1
  Yb  Yb3  1  0.60452600  0.29370800  0.13170400  1
  Zr  Zr4  1  0.00000000  0.00000000  0.00000000  1
  Zr  Zr5  1  0.71604100  0.86435300  0.38463100  1
  Zr  Zr6  1  0.28395900  0.13564700  0.61536900  1
  O  O7  1  0.46811100  0.60050600  0.20025600  1
  O  O8  1  0.55550900  0.15081200  0.43710000  1
  O  O9  1  0.18891400  0.42450900  0.58440700  1
  O  O10  1  0.53188900  0.39949400  0.79974400  1
  O  O11  1  0.44449100  0.84918800  0.56290000  1
  O  O12  1  0.81108600  0.57549100  0.41559300  1
  O  O13  1  0.92681000  0.03474500  0.67569800  1
  O  O14  1  0.04986700  0.68175600  0.94506200  1
  O  O15  1  0.69144900  0.93993300  0.08018600  1
  O  O16  1  0.07319000  0.96525500  0.32430200  1
  O  O17  1  0.95013300  0.31824400  0.05493800  1
  O  O18  1  0.30855100  0.06006700  0.91981400  1
