# generated using pymatgen
data_YbGeAu
_symmetry_space_group_name_H-M   'P 1'
_cell_length_a   5.73544167
_cell_length_b   5.73544167
_cell_length_c   7.22926231
_cell_angle_alpha   51.51276503
_cell_angle_beta   51.51276503
_cell_angle_gamma   46.28362524
_symmetry_Int_Tables_number   1
_chemical_formula_structural   YbGeAu
_chemical_formula_sum   'Yb2 Ge2 Au2'
_cell_volume   126.53320965
_cell_formula_units_Z   2
loop_
 _symmetry_equiv_pos_site_id
 _symmetry_equiv_pos_as_xyz
  1  'x, y, z'
loop_
 _atom_site_type_symbol
 _atom_site_label
 _atom_site_symmetry_multiplicity
 _atom_site_fract_x
 _atom_site_fract_y
 _atom_site_fract_z
 _atom_site_occupancy
  Yb  Yb0  1  0.53726300  0.53726300  0.70077600  1
  Yb  Yb1  1  0.46273700  0.46273700  0.29922400  1
  Ge  Ge2  1  0.84450200  0.84450200  0.10433500  1
  Ge  Ge3  1  0.15549800  0.15549800  0.89566500  1
  Au  Au4  1  0.17878200  0.17878200  0.27918500  1
  Au  Au5  1  0.82121800  0.82121800  0.72081500  1
