# generated using pymatgen
data_ZnCr4CoO8
_symmetry_space_group_name_H-M   'P 1'
_cell_length_a   6.00516939
_cell_length_b   6.00537516
_cell_length_c   10.36319775
_cell_angle_alpha   73.15800184
_cell_angle_beta   90.00015223
_cell_angle_gamma   60.00114123
_symmetry_Int_Tables_number   1
_chemical_formula_structural   ZnCr4CoO8
_chemical_formula_sum   'Zn2 Cr8 Co2 O16'
_cell_volume   305.01377863
_cell_formula_units_Z   2
loop_
 _symmetry_equiv_pos_site_id
 _symmetry_equiv_pos_as_xyz
  1  'x, y, z'
loop_
 _atom_site_type_symbol
 _atom_site_label
 _atom_site_symmetry_multiplicity
 _atom_site_fract_x
 _atom_site_fract_y
 _atom_site_fract_z
 _atom_site_occupancy
  Zn  Zn0  1  0.00003900  0.99992500  0.00010500  1
  Zn  Zn1  1  0.50003200  0.99993800  0.50008900  1
  Cr  Cr2  1  0.56232900  0.37506000  0.68754700  1
  Cr  Cr3  1  0.06260800  0.87478200  0.68754800  1
  Cr  Cr4  1  0.06260600  0.37506100  0.68754800  1
  Cr  Cr5  1  0.81283300  0.37433900  0.43849200  1
  Cr  Cr6  1  0.31198200  0.37604200  0.93593200  1
  Cr  Cr7  1  0.06209400  0.37516300  0.18758400  1
  Cr  Cr8  1  0.56274300  0.87451000  0.18758700  1
  Cr  Cr9  1  0.56274600  0.37515900  0.18758700  1
  Co  Co10  1  0.12481500  0.75036800  0.37444700  1
  Co  Co11  1  0.62501900  0.74996200  0.87505800  1
  O  O12  1  0.43173200  0.13653800  0.29519900  1
  O  O13  1  0.93167100  0.13665600  0.79502100  1
  O  O14  1  0.65832200  0.13683700  0.06798700  1
  O  O15  1  0.16019500  0.13571500  0.56836400  1
  O  O16  1  0.20483600  0.59033000  0.06798500  1
  O  O17  1  0.70408200  0.59183300  0.56836200  1
  O  O18  1  0.20484100  0.13684000  0.06798600  1
  O  O19  1  0.70409200  0.13571500  0.56836200  1
  O  O20  1  0.69326100  0.61347300  0.07978600  1
  O  O21  1  0.19332200  0.61334600  0.57997800  1
  O  O22  1  0.46648900  0.61325300  0.30701700  1
  O  O23  1  0.96457000  0.61432400  0.80680200  1
  O  O24  1  0.92026300  0.15948400  0.30701600  1
  O  O25  1  0.42111300  0.15776700  0.80680200  1
  O  O26  1  0.92025000  0.61326100  0.30701200  1
  O  O27  1  0.42111400  0.61431800  0.80679900  1
