# generated using pymatgen
data_ZnCuP2O7
_symmetry_space_group_name_H-M   'P 1'
_cell_length_a   5.38203994
_cell_length_b   5.38203994
_cell_length_c   4.61465236
_cell_angle_alpha   78.33251242
_cell_angle_beta   78.33251242
_cell_angle_gamma   100.46269952
_symmetry_Int_Tables_number   1
_chemical_formula_structural   ZnCuP2O7
_chemical_formula_sum   'Zn1 Cu1 P2 O7'
_cell_volume   124.70556578
_cell_formula_units_Z   1
loop_
 _symmetry_equiv_pos_site_id
 _symmetry_equiv_pos_as_xyz
  1  'x, y, z'
loop_
 _atom_site_type_symbol
 _atom_site_label
 _atom_site_symmetry_multiplicity
 _atom_site_fract_x
 _atom_site_fract_y
 _atom_site_fract_z
 _atom_site_occupancy
  Zn  Zn0  1  0.30940500  0.69059500  0.50000000  1
  Cu  Cu1  1  0.68959600  0.31040400  0.50000000  1
  P  P2  1  0.21038300  0.19621000  0.09155300  1
  P  P3  1  0.80379000  0.78961700  0.90844700  1
  O  O4  1  0.04746700  0.34924700  0.26439100  1
  O  O5  1  0.37400500  0.06413200  0.28012600  1
  O  O6  1  0.93586800  0.62599500  0.71987400  1
  O  O7  1  0.65075300  0.95253300  0.73560900  1
  O  O8  1  0.38014300  0.37625400  0.78128800  1
  O  O9  1  0.62374600  0.61985700  0.21871200  1
  O  O10  1  0.03164500  0.96835500  0.00000000  1
