# generated using pymatgen
data_Zn4Si2H2O9
_symmetry_space_group_name_H-M   'P 1'
_cell_length_a   7.34845705
_cell_length_b   7.34845705
_cell_length_c   5.20012663
_cell_angle_alpha   69.43215335
_cell_angle_beta   69.43215335
_cell_angle_gamma   97.03260078
_symmetry_Int_Tables_number   1
_chemical_formula_structural   Zn4Si2H2O9
_chemical_formula_sum   'Zn4 Si2 H2 O9'
_cell_volume   236.26796573
_cell_formula_units_Z   1
loop_
 _symmetry_equiv_pos_site_id
 _symmetry_equiv_pos_as_xyz
  1  'x, y, z'
loop_
 _atom_site_type_symbol
 _atom_site_label
 _atom_site_symmetry_multiplicity
 _atom_site_fract_x
 _atom_site_fract_y
 _atom_site_fract_z
 _atom_site_occupancy
  Zn  Zn0  1  0.36837100  0.05526200  0.78872600  1
  Zn  Zn1  1  0.63243100  0.95412900  0.20002500  1
  Zn  Zn2  1  0.95412900  0.63243100  0.20002500  1
  Zn  Zn3  1  0.05526200  0.36837100  0.78872600  1
  Si  Si4  1  0.14463200  0.85824000  0.50554700  1
  Si  Si5  1  0.85824000  0.14463200  0.50554700  1
  H  H6  1  0.43390700  0.43390700  0.59375200  1
  H  H7  1  0.67233100  0.67233100  0.58049300  1
  O  O8  1  0.16258400  0.84226400  0.19176700  1
  O  O9  1  0.84226400  0.16258400  0.19176700  1
  O  O10  1  0.36753800  0.95775700  0.47558700  1
  O  O11  1  0.63380500  0.03527000  0.79488000  1
  O  O12  1  0.03527000  0.63380500  0.79488000  1
  O  O13  1  0.95775700  0.36753800  0.47558700  1
  O  O14  1  0.31576000  0.31576000  0.73224100  1
  O  O15  1  0.68713600  0.68713600  0.37895000  1
  O  O16  1  0.99958300  0.99958300  0.59620200  1
