# generated using pymatgen
data_ZnRe2(MoS4)2
_symmetry_space_group_name_H-M   'P 1'
_cell_length_a   6.88941332
_cell_length_b   6.88941332
_cell_length_c   6.88941332
_cell_angle_alpha   90.02896284
_cell_angle_beta   60.21685594
_cell_angle_gamma   120.25085361
_symmetry_Int_Tables_number   1
_chemical_formula_structural   ZnRe2(MoS4)2
_chemical_formula_sum   'Zn1 Re2 Mo2 S8'
_cell_volume   231.15910987
_cell_formula_units_Z   1
loop_
 _symmetry_equiv_pos_site_id
 _symmetry_equiv_pos_as_xyz
  1  'x, y, z'
loop_
 _atom_site_type_symbol
 _atom_site_label
 _atom_site_symmetry_multiplicity
 _atom_site_fract_x
 _atom_site_fract_y
 _atom_site_fract_z
 _atom_site_occupancy
  Zn  Zn0  1  0.00000000  0.00175900  0.99824100  1
  Re  Re1  1  0.79345100  0.18956900  0.60388300  1
  Re  Re2  1  0.20654900  0.60266600  0.60388300  1
  Mo  Mo3  1  0.20468400  0.60178600  0.19353000  1
  Mo  Mo4  1  0.79531600  0.60178600  0.60289800  1
  S  S5  1  0.72225600  0.86437600  0.41336800  1
  S  S6  1  0.27774400  0.86437600  0.85788000  1
  S  S7  1  0.27210400  0.41138500  0.86071900  1
  S  S8  1  0.72789600  0.86717700  0.86071900  1
  S  S9  1  0.73374800  0.36461500  0.90163700  1
  S  S10  1  0.26625200  0.36461500  0.36913300  1
  S  S11  1  0.27002000  0.90296500  0.36705500  1
  S  S12  1  0.72998000  0.36292500  0.36705500  1
