# generated using pymatgen
data_YbSm4S5
_symmetry_space_group_name_H-M   'P 1'
_cell_length_a   16.41416275
_cell_length_b   16.41416275
_cell_length_c   16.41416321
_cell_angle_alpha   14.05340659
_cell_angle_beta   14.05340659
_cell_angle_gamma   14.05340667
_symmetry_Int_Tables_number   1
_chemical_formula_structural   YbSm4S5
_chemical_formula_sum   'Yb1 Sm4 S5'
_cell_volume   226.96022417
_cell_formula_units_Z   1
loop_
 _symmetry_equiv_pos_site_id
 _symmetry_equiv_pos_as_xyz
  1  'x, y, z'
loop_
 _atom_site_type_symbol
 _atom_site_label
 _atom_site_symmetry_multiplicity
 _atom_site_fract_x
 _atom_site_fract_y
 _atom_site_fract_z
 _atom_site_occupancy
  Yb  Yb0  1  0.00000000  0.00000000  0.00000000  1
  Sm  Sm1  1  0.59878400  0.59878400  0.59878400  1
  Sm  Sm2  1  0.20118700  0.20118700  0.20118700  1
  Sm  Sm3  1  0.79881300  0.79881300  0.79881300  1
  Sm  Sm4  1  0.40121600  0.40121600  0.40121600  1
  S  S5  1  0.69926700  0.69926700  0.69926700  1
  S  S6  1  0.50000000  0.50000000  0.50000000  1
  S  S7  1  0.09990500  0.09990500  0.09990500  1
  S  S8  1  0.30073300  0.30073300  0.30073300  1
  S  S9  1  0.90009500  0.90009500  0.90009500  1
