# generated using pymatgen
data_YbAlCu4
_symmetry_space_group_name_H-M   'P 1'
_cell_length_a   5.14510780
_cell_length_b   5.14510780
_cell_length_c   4.03203900
_cell_angle_alpha   90.00000000
_cell_angle_beta   90.00000000
_cell_angle_gamma   119.99999740
_symmetry_Int_Tables_number   1
_chemical_formula_structural   YbAlCu4
_chemical_formula_sum   'Yb1 Al1 Cu4'
_cell_volume   92.43667684
_cell_formula_units_Z   1
loop_
 _symmetry_equiv_pos_site_id
 _symmetry_equiv_pos_as_xyz
  1  'x, y, z'
loop_
 _atom_site_type_symbol
 _atom_site_label
 _atom_site_symmetry_multiplicity
 _atom_site_fract_x
 _atom_site_fract_y
 _atom_site_fract_z
 _atom_site_occupancy
  Yb  Yb0  1  0.00000000  0.00000000  0.00000000  1
  Al  Al1  1  0.33333300  0.66666700  0.00000000  1
  Cu  Cu2  1  0.66666700  0.33333300  0.00000000  1
  Cu  Cu3  1  0.99827300  0.49913700  0.50000000  1
  Cu  Cu4  1  0.50086300  0.49913700  0.50000000  1
  Cu  Cu5  1  0.50086300  0.00172700  0.50000000  1
