# generated using pymatgen
data_Zn2FeS3
_symmetry_space_group_name_H-M   'P 1'
_cell_length_a   7.37866184
_cell_length_b   7.37866184
_cell_length_c   7.37866215
_cell_angle_alpha   53.43511275
_cell_angle_beta   53.43511275
_cell_angle_gamma   53.43511876
_symmetry_Int_Tables_number   1
_chemical_formula_structural   Zn2FeS3
_chemical_formula_sum   'Zn4 Fe2 S6'
_cell_volume   240.41896676
_cell_formula_units_Z   2
loop_
 _symmetry_equiv_pos_site_id
 _symmetry_equiv_pos_as_xyz
  1  'x, y, z'
loop_
 _atom_site_type_symbol
 _atom_site_label
 _atom_site_symmetry_multiplicity
 _atom_site_fract_x
 _atom_site_fract_y
 _atom_site_fract_z
 _atom_site_occupancy
  Zn  Zn0  1  0.50002900  0.50002900  0.50002900  1
  Zn  Zn1  1  0.00074900  0.66643700  0.33391400  1
  Zn  Zn2  1  0.66643700  0.33391400  0.00074900  1
  Zn  Zn3  1  0.33391400  0.00074900  0.66643700  1
  Fe  Fe4  1  0.16718000  0.16718000  0.16718000  1
  Fe  Fe5  1  0.83378100  0.83378100  0.83378100  1
  S  S6  1  0.29017500  0.29017500  0.29017500  1
  S  S7  1  0.95699600  0.95699600  0.95699600  1
  S  S8  1  0.62487200  0.62487200  0.62487200  1
  S  S9  1  0.12255200  0.79506800  0.45881900  1
  S  S10  1  0.79506800  0.45881900  0.12255200  1
  S  S11  1  0.45881900  0.12255200  0.79506800  1
