# generated using pymatgen
data_YbTe4Pb3
_symmetry_space_group_name_H-M   'P 1'
_cell_length_a   8.00090266
_cell_length_b   8.00090266
_cell_length_c   7.99847068
_cell_angle_alpha   80.31711839
_cell_angle_beta   80.31711839
_cell_angle_gamma   33.51620936
_symmetry_Int_Tables_number   1
_chemical_formula_structural   YbTe4Pb3
_chemical_formula_sum   'Yb1 Te4 Pb3'
_cell_volume   278.32643961
_cell_formula_units_Z   1
loop_
 _symmetry_equiv_pos_site_id
 _symmetry_equiv_pos_as_xyz
  1  'x, y, z'
loop_
 _atom_site_type_symbol
 _atom_site_label
 _atom_site_symmetry_multiplicity
 _atom_site_fract_x
 _atom_site_fract_y
 _atom_site_fract_z
 _atom_site_occupancy
  Yb  Yb0  1  0.00000000  0.00000000  0.00000000  1
  Te  Te1  1  0.62111600  0.62111600  0.12073700  1
  Te  Te2  1  0.87702700  0.87702700  0.36877000  1
  Te  Te3  1  0.12297300  0.12297300  0.63123000  1
  Te  Te4  1  0.37888400  0.37888400  0.87926300  1
  Pb  Pb5  1  0.24997500  0.24997500  0.24965600  1
  Pb  Pb6  1  0.50000000  0.50000000  0.50000000  1
  Pb  Pb7  1  0.75002500  0.75002500  0.75034400  1
