# generated using pymatgen
data_Yb(AlC)3
_symmetry_space_group_name_H-M   'P 1'
_cell_length_a   3.42732653
_cell_length_b   3.42732653
_cell_length_c   17.48351100
_cell_angle_alpha   90.00000000
_cell_angle_beta   90.00000000
_cell_angle_gamma   120.00001031
_symmetry_Int_Tables_number   1
_chemical_formula_structural   Yb(AlC)3
_chemical_formula_sum   'Yb2 Al6 C6'
_cell_volume   177.85668942
_cell_formula_units_Z   2
loop_
 _symmetry_equiv_pos_site_id
 _symmetry_equiv_pos_as_xyz
  1  'x, y, z'
loop_
 _atom_site_type_symbol
 _atom_site_label
 _atom_site_symmetry_multiplicity
 _atom_site_fract_x
 _atom_site_fract_y
 _atom_site_fract_z
 _atom_site_occupancy
  Yb  Yb0  1  0.00000000  0.00000000  0.49904100  1
  Yb  Yb1  1  0.00000000  0.00000000  0.99904100  1
  Al  Al2  1  0.66666700  0.33333300  0.63198600  1
  Al  Al3  1  0.33333300  0.66666700  0.36497700  1
  Al  Al4  1  0.33333300  0.66666700  0.13198600  1
  Al  Al5  1  0.66666700  0.33333300  0.86497700  1
  Al  Al6  1  0.66666700  0.33333300  0.24493600  1
  Al  Al7  1  0.33333300  0.66666700  0.74493600  1
  C  C8  1  0.66666700  0.33333300  0.74898400  1
  C  C9  1  0.33333300  0.66666700  0.24898400  1
  C  C10  1  0.66666700  0.33333300  0.09959500  1
  C  C11  1  0.33333300  0.66666700  0.90148100  1
  C  C12  1  0.33333300  0.66666700  0.59959500  1
  C  C13  1  0.66666700  0.33333300  0.40148100  1
