# generated using pymatgen
data_Zn3InAgS5
_symmetry_space_group_name_H-M   'P 1'
_cell_length_a   6.50350100
_cell_length_b   6.86600088
_cell_length_c   10.50052790
_cell_angle_alpha   70.91720373
_cell_angle_beta   89.95483137
_cell_angle_gamma   89.95759144
_symmetry_Int_Tables_number   1
_chemical_formula_structural   Zn3InAgS5
_chemical_formula_sum   'Zn6 In2 Ag2 S10'
_cell_volume   443.11399950
_cell_formula_units_Z   2
loop_
 _symmetry_equiv_pos_site_id
 _symmetry_equiv_pos_as_xyz
  1  'x, y, z'
loop_
 _atom_site_type_symbol
 _atom_site_label
 _atom_site_symmetry_multiplicity
 _atom_site_fract_x
 _atom_site_fract_y
 _atom_site_fract_z
 _atom_site_occupancy
  Zn  Zn0  1  0.50736000  0.52857200  0.59265900  1
  Zn  Zn1  1  0.49857400  0.13938100  0.40185700  1
  Zn  Zn2  1  0.49513100  0.72563700  0.20724600  1
  Zn  Zn3  1  0.00097300  0.66901100  0.00263000  1
  Zn  Zn4  1  0.99904300  0.27201400  0.79283100  1
  Zn  Zn5  1  0.00316200  0.46507500  0.40532000  1
  In  In6  1  0.50044000  0.93700500  0.79936100  1
  In  In7  1  0.00152700  0.06842800  0.19874900  1
  Ag  Ag8  1  0.50223400  0.33269000  0.99912900  1
  Ag  Ag9  1  0.99989800  0.85981800  0.60011200  1
  S  S10  1  0.89528000  0.34773300  0.98938000  1
  S  S11  1  0.88378300  0.93570300  0.81445500  1
  S  S12  1  0.86661000  0.51178500  0.59785400  1
  S  S13  1  0.86343600  0.15266100  0.39479500  1
  S  S14  1  0.86668500  0.72032000  0.20365800  1
  S  S15  1  0.38502700  0.05003300  0.21423900  1
  S  S16  1  0.36401100  0.67858500  0.01014300  1
  S  S17  1  0.36241200  0.28196000  0.78435500  1
  S  S18  1  0.39532100  0.85977100  0.59238300  1
  S  S19  1  0.36909400  0.46381800  0.39884500  1
