# generated using pymatgen
data_NaV3F10
_symmetry_space_group_name_H-M   'P 1'
_cell_length_a   10.35960221
_cell_length_b   8.82184823
_cell_length_c   7.63923736
_cell_angle_alpha   77.63541496
_cell_angle_beta   56.28515178
_cell_angle_gamma   46.07943326
_symmetry_Int_Tables_number   1
_chemical_formula_structural   NaV3F10
_chemical_formula_sum   'Na2 V6 F20'
_cell_volume   400.92807649
_cell_formula_units_Z   2
loop_
 _symmetry_equiv_pos_site_id
 _symmetry_equiv_pos_as_xyz
  1  'x, y, z'
loop_
 _atom_site_type_symbol
 _atom_site_label
 _atom_site_symmetry_multiplicity
 _atom_site_fract_x
 _atom_site_fract_y
 _atom_site_fract_z
 _atom_site_occupancy
  Na  Na0  1  0.98731900  0.01268100  0.01268100  1
  Na  Na1  1  0.23731900  0.26268100  0.26268100  1
  V  V2  1  0.50522800  0.49477200  0.49477200  1
  V  V3  1  0.75522800  0.74477200  0.74477200  1
  V  V4  1  0.25756100  0.24208200  0.74237000  1
  V  V5  1  0.75798700  0.74237000  0.24208200  1
  V  V6  1  0.50763000  0.49201300  0.99243900  1
  V  V7  1  0.00791800  0.99243900  0.49201300  1
  F  F8  1  0.14603200  0.12035500  0.84782600  1
  F  F9  1  0.88578700  0.84782600  0.12035500  1
  F  F10  1  0.40217400  0.36421300  0.10396800  1
  F  F11  1  0.12964500  0.10396800  0.36421300  1
  F  F12  1  0.80820200  0.19921700  0.78473600  1
  F  F13  1  0.20784600  0.78473600  0.19921700  1
  F  F14  1  0.46526400  0.04215400  0.44179800  1
  F  F15  1  0.05078300  0.44179800  0.04215400  1
  F  F16  1  0.84388400  0.65248800  0.45242500  1
  F  F17  1  0.05120300  0.45242500  0.65248800  1
  F  F18  1  0.79757500  0.19879700  0.40611600  1
  F  F19  1  0.59751200  0.40611600  0.19879700  1
  F  F20  1  0.62675500  0.62054200  0.37318300  1
  F  F21  1  0.37952000  0.37318300  0.62054200  1
  F  F22  1  0.87681700  0.87048000  0.62324500  1
  F  F23  1  0.62945800  0.62324500  0.87048000  1
  F  F24  1  0.46551700  0.03708900  0.82742700  1
  F  F25  1  0.66996700  0.82742700  0.03708900  1
  F  F26  1  0.42257300  0.58003300  0.78448300  1
  F  F27  1  0.21291100  0.78448300  0.58003300  1
