# generated using pymatgen
data_ZnNi4O5
_symmetry_space_group_name_H-M   'P 1'
_cell_length_a   7.95056631
_cell_length_b   7.95056631
_cell_length_c   7.95056631
_cell_angle_alpha   158.21275280
_cell_angle_beta   149.03099613
_cell_angle_gamma   38.18541706
_symmetry_Int_Tables_number   1
_chemical_formula_structural   ZnNi4O5
_chemical_formula_sum   'Zn1 Ni4 O5'
_cell_volume   95.84879455
_cell_formula_units_Z   1
loop_
 _symmetry_equiv_pos_site_id
 _symmetry_equiv_pos_as_xyz
  1  'x, y, z'
loop_
 _atom_site_type_symbol
 _atom_site_label
 _atom_site_symmetry_multiplicity
 _atom_site_fract_x
 _atom_site_fract_y
 _atom_site_fract_z
 _atom_site_occupancy
  Zn  Zn0  1  0.00000000  0.00000000  0.00000000  1
  Ni  Ni1  1  0.60068600  0.60068600  0.00000000  1
  Ni  Ni2  1  0.20056500  0.20056500  0.00000000  1
  Ni  Ni3  1  0.79943500  0.79943500  0.00000000  1
  Ni  Ni4  1  0.39931400  0.39931400  0.00000000  1
  O  O5  1  0.30041900  0.80041900  0.50000000  1
  O  O6  1  0.89764300  0.39764300  0.50000000  1
  O  O7  1  0.50000000  0.00000000  0.50000000  1
  O  O8  1  0.10235700  0.60235700  0.50000000  1
  O  O9  1  0.69958100  0.19958100  0.50000000  1
