# generated using pymatgen
data_YbSm2CuS5
_symmetry_space_group_name_H-M   'P 1'
_cell_length_a   3.88132200
_cell_length_b   11.71025500
_cell_length_c   16.66569800
_cell_angle_alpha   90.00000000
_cell_angle_beta   90.00000000
_cell_angle_gamma   90.00000000
_symmetry_Int_Tables_number   1
_chemical_formula_structural   YbSm2CuS5
_chemical_formula_sum   'Yb4 Sm8 Cu4 S20'
_cell_volume   757.47714549
_cell_formula_units_Z   4
loop_
 _symmetry_equiv_pos_site_id
 _symmetry_equiv_pos_as_xyz
  1  'x, y, z'
loop_
 _atom_site_type_symbol
 _atom_site_label
 _atom_site_symmetry_multiplicity
 _atom_site_fract_x
 _atom_site_fract_y
 _atom_site_fract_z
 _atom_site_occupancy
  Yb  Yb0  1  0.25000000  0.80186000  0.37045700  1
  Yb  Yb1  1  0.25000000  0.30186000  0.12954300  1
  Yb  Yb2  1  0.75000000  0.19814000  0.62954300  1
  Yb  Yb3  1  0.75000000  0.69814000  0.87045700  1
  Sm  Sm4  1  0.25000000  0.87295300  0.60234700  1
  Sm  Sm5  1  0.25000000  0.37295300  0.89765300  1
  Sm  Sm6  1  0.75000000  0.12704700  0.39765300  1
  Sm  Sm7  1  0.75000000  0.62704700  0.10234700  1
  Sm  Sm8  1  0.75000000  0.96368100  0.18467900  1
  Sm  Sm9  1  0.75000000  0.46368100  0.31532100  1
  Sm  Sm10  1  0.25000000  0.03631900  0.81532100  1
  Sm  Sm11  1  0.25000000  0.53631900  0.68467900  1
  Cu  Cu12  1  0.75000000  0.58837200  0.49744300  1
  Cu  Cu13  1  0.75000000  0.08837200  0.00255700  1
  Cu  Cu14  1  0.25000000  0.41162800  0.50255700  1
  Cu  Cu15  1  0.25000000  0.91162800  0.99744300  1
  S  S16  1  0.75000000  0.73406400  0.26466500  1
  S  S17  1  0.75000000  0.23406400  0.23533500  1
  S  S18  1  0.25000000  0.26593600  0.73533500  1
  S  S19  1  0.25000000  0.76593600  0.76466500  1
  S  S20  1  0.25000000  0.81155600  0.11354600  1
  S  S21  1  0.25000000  0.31155600  0.38645400  1
  S  S22  1  0.75000000  0.18844400  0.88645400  1
  S  S23  1  0.75000000  0.68844400  0.61354600  1
  S  S24  1  0.75000000  0.88731000  0.47582700  1
  S  S25  1  0.75000000  0.38731000  0.02417300  1
  S  S26  1  0.25000000  0.11269000  0.52417300  1
  S  S27  1  0.25000000  0.61269000  0.97582700  1
  S  S28  1  0.25000000  0.57889600  0.42024500  1
  S  S29  1  0.25000000  0.07889600  0.07975500  1
  S  S30  1  0.75000000  0.42110400  0.57975500  1
  S  S31  1  0.75000000  0.92110400  0.92024500  1
  S  S32  1  0.25000000  0.00994000  0.30242100  1
  S  S33  1  0.25000000  0.50994000  0.19757900  1
  S  S34  1  0.75000000  0.99006000  0.69757900  1
  S  S35  1  0.75000000  0.49006000  0.80242100  1
