# generated using pymatgen
data_Zn3InCuS5
_symmetry_space_group_name_H-M   'P 1'
_cell_length_a   6.36507502
_cell_length_b   6.71898455
_cell_length_c   10.26313057
_cell_angle_alpha   70.91654512
_cell_angle_beta   89.99477802
_cell_angle_gamma   90.00623433
_symmetry_Int_Tables_number   1
_chemical_formula_structural   Zn3InCuS5
_chemical_formula_sum   'Zn6 In2 Cu2 S10'
_cell_volume   414.80000569
_cell_formula_units_Z   2
loop_
 _symmetry_equiv_pos_site_id
 _symmetry_equiv_pos_as_xyz
  1  'x, y, z'
loop_
 _atom_site_type_symbol
 _atom_site_label
 _atom_site_symmetry_multiplicity
 _atom_site_fract_x
 _atom_site_fract_y
 _atom_site_fract_z
 _atom_site_occupancy
  Zn  Zn0  1  0.49333900  0.13130400  0.40138300  1
  Zn  Zn1  1  0.50030900  0.53562500  0.59908200  1
  Zn  Zn2  1  0.50584600  0.93257200  0.79814000  1
  Zn  Zn3  1  0.99818000  0.66351500  0.00261500  1
  Zn  Zn4  1  0.00136400  0.06709500  0.20492800  1
  Zn  Zn5  1  0.99904800  0.87073800  0.59272300  1
  In  In6  1  0.49985800  0.73409700  0.20083000  1
  In  In7  1  0.99830800  0.27136200  0.79995900  1
  Cu  Cu8  1  0.49929700  0.33310600  0.00024700  1
  Cu  Cu9  1  0.00015400  0.46307400  0.39986600  1
  S  S10  1  0.13527100  0.33564600  0.00926400  1
  S  S11  1  0.10696200  0.73076800  0.20174500  1
  S  S12  1  0.12520700  0.13574500  0.40043300  1
  S  S13  1  0.12896900  0.54351000  0.58890500  1
  S  S14  1  0.13103200  0.91932000  0.79960800  1
  S  S15  1  0.60643100  0.26707700  0.80220500  1
  S  S16  1  0.62895700  0.66088900  0.99101500  1
  S  S17  1  0.62940600  0.08489700  0.19813000  1
  S  S18  1  0.63500400  0.45424300  0.40868100  1
  S  S19  1  0.62705800  0.86541600  0.60024100  1
