# generated using pymatgen
data_YSiPd
_symmetry_space_group_name_H-M   'P 1'
_cell_length_a   5.61169892
_cell_length_b   5.61169892
_cell_length_c   6.99661047
_cell_angle_alpha   51.52992377
_cell_angle_beta   51.52992377
_cell_angle_gamma   44.44467090
_symmetry_Int_Tables_number   1
_chemical_formula_structural   YSiPd
_chemical_formula_sum   'Y2 Si2 Pd2'
_cell_volume   114.24960375
_cell_formula_units_Z   2
loop_
 _symmetry_equiv_pos_site_id
 _symmetry_equiv_pos_as_xyz
  1  'x, y, z'
loop_
 _atom_site_type_symbol
 _atom_site_label
 _atom_site_symmetry_multiplicity
 _atom_site_fract_x
 _atom_site_fract_y
 _atom_site_fract_z
 _atom_site_occupancy
  Y  Y0  1  0.44933000  0.44933000  0.79048600  1
  Y  Y1  1  0.55067000  0.55067000  0.20951400  1
  Si  Si2  1  0.15122000  0.15122000  0.79640600  1
  Si  Si3  1  0.84878000  0.84878000  0.20359400  1
  Pd  Pd4  1  0.81672500  0.81672500  0.61986800  1
  Pd  Pd5  1  0.18327500  0.18327500  0.38013200  1
