# generated using pymatgen
data_Zn3Cu(WO4)4
_symmetry_space_group_name_H-M   'P 1'
_cell_length_a   5.82615400
_cell_length_b   6.76529900
_cell_length_c   7.02924194
_cell_angle_alpha   86.74158530
_cell_angle_beta   90.00000000
_cell_angle_gamma   90.00000000
_symmetry_Int_Tables_number   1
_chemical_formula_structural   Zn3Cu(WO4)4
_chemical_formula_sum   'Zn3 Cu1 W4 O16'
_cell_volume   276.61439023
_cell_formula_units_Z   1
loop_
 _symmetry_equiv_pos_site_id
 _symmetry_equiv_pos_as_xyz
  1  'x, y, z'
loop_
 _atom_site_type_symbol
 _atom_site_label
 _atom_site_symmetry_multiplicity
 _atom_site_fract_x
 _atom_site_fract_y
 _atom_site_fract_z
 _atom_site_occupancy
  Zn  Zn0  1  0.32616300  0.24807400  0.25191800  1
  Zn  Zn1  1  0.32616300  0.75192600  0.74808200  1
  Zn  Zn2  1  0.67241700  0.50000000  0.50000000  1
  Cu  Cu3  1  0.66459900  0.00000000  0.00000000  1
  W  W4  1  0.82767600  0.50000000  0.00000000  1
  W  W5  1  0.82500300  0.00000000  0.50000000  1
  W  W6  1  0.17412300  0.24760300  0.74929100  1
  W  W7  1  0.17412300  0.75239700  0.25070900  1
  O  O8  1  0.10777000  0.20062600  0.48326400  1
  O  O9  1  0.10660400  0.69852500  0.98368700  1
  O  O10  1  0.89310200  0.54637300  0.26353200  1
  O  O11  1  0.89718200  0.04850700  0.76103900  1
  O  O12  1  0.10660400  0.30147500  0.01631300  1
  O  O13  1  0.10777000  0.79937400  0.51673600  1
  O  O14  1  0.89310200  0.45362700  0.73646800  1
  O  O15  1  0.89718200  0.95149300  0.23896100  1
  O  O16  1  0.62546300  0.20631100  0.44573100  1
  O  O17  1  0.63062200  0.71200300  0.95015100  1
  O  O18  1  0.37478100  0.54216800  0.30097800  1
  O  O19  1  0.37618300  0.04160300  0.80357000  1
  O  O20  1  0.63062200  0.28799700  0.04984900  1
  O  O21  1  0.62546300  0.79368900  0.55426900  1
  O  O22  1  0.37478100  0.45783200  0.69902200  1
  O  O23  1  0.37618300  0.95839700  0.19643000  1
