# generated using pymatgen
data_TiZnSnO4
_symmetry_space_group_name_H-M   'P 1'
_cell_length_a   9.31378439
_cell_length_b   9.31378439
_cell_length_c   9.27246300
_cell_angle_alpha   90.00000000
_cell_angle_beta   90.00000000
_cell_angle_gamma   120.00000277
_symmetry_Int_Tables_number   1
_chemical_formula_structural   TiZnSnO4
_chemical_formula_sum   'Ti6 Zn6 Sn6 O24'
_cell_volume   696.59136819
_cell_formula_units_Z   6
loop_
 _symmetry_equiv_pos_site_id
 _symmetry_equiv_pos_as_xyz
  1  'x, y, z'
loop_
 _atom_site_type_symbol
 _atom_site_label
 _atom_site_symmetry_multiplicity
 _atom_site_fract_x
 _atom_site_fract_y
 _atom_site_fract_z
 _atom_site_occupancy
  Ti  Ti0  1  0.69126300  0.67435500  0.92660400  1
  Ti  Ti1  1  0.98309200  0.30873700  0.92660400  1
  Ti  Ti2  1  0.32564500  0.01690800  0.92660400  1
  Ti  Ti3  1  0.30873700  0.32564500  0.42660400  1
  Ti  Ti4  1  0.01690800  0.69126300  0.42660400  1
  Ti  Ti5  1  0.67435500  0.98309200  0.42660400  1
  Zn  Zn6  1  0.02334200  0.66824400  0.04997500  1
  Zn  Zn7  1  0.64490200  0.97665800  0.04997500  1
  Zn  Zn8  1  0.33175600  0.35509800  0.04997500  1
  Zn  Zn9  1  0.97665800  0.33175600  0.54997500  1
  Zn  Zn10  1  0.35509800  0.02334200  0.54997500  1
  Zn  Zn11  1  0.66824400  0.64490200  0.54997500  1
  Sn  Sn12  1  0.00000000  0.00000000  0.67091900  1
  Sn  Sn13  1  0.00000000  0.00000000  0.17091900  1
  Sn  Sn14  1  0.66666700  0.33333300  0.83117100  1
  Sn  Sn15  1  0.33333300  0.66666700  0.33117100  1
  Sn  Sn16  1  0.33333300  0.66666700  0.79519500  1
  Sn  Sn17  1  0.66666700  0.33333300  0.29519500  1
  O  O18  1  0.88594300  0.77973700  0.03348400  1
  O  O19  1  0.89379400  0.11405700  0.03348400  1
  O  O20  1  0.22026300  0.10620600  0.03348400  1
  O  O21  1  0.11405700  0.22026300  0.53348400  1
  O  O22  1  0.10620600  0.88594300  0.53348400  1
  O  O23  1  0.77973700  0.89379400  0.53348400  1
  O  O24  1  0.56329400  0.45648500  0.98625000  1
  O  O25  1  0.89319100  0.43670600  0.98625000  1
  O  O26  1  0.54351500  0.10680900  0.98625000  1
  O  O27  1  0.43670600  0.54351500  0.48625000  1
  O  O28  1  0.10680900  0.56329400  0.48625000  1
  O  O29  1  0.45648500  0.89319100  0.48625000  1
  O  O30  1  0.56018600  0.77324300  0.92491700  1
  O  O31  1  0.21305700  0.43981400  0.92491700  1
  O  O32  1  0.22675700  0.78694300  0.92491700  1
  O  O33  1  0.43981400  0.22675700  0.42491700  1
  O  O34  1  0.78694300  0.56018600  0.42491700  1
  O  O35  1  0.77324300  0.21305700  0.42491700  1
  O  O36  1  0.10150000  0.74232900  0.24736500  1
  O  O37  1  0.64082900  0.89850000  0.24736500  1
  O  O38  1  0.25767100  0.35917100  0.24736500  1
  O  O39  1  0.89850000  0.25767100  0.74736500  1
  O  O40  1  0.35917100  0.10150000  0.74736500  1
  O  O41  1  0.74232900  0.64082900  0.74736500  1
