# generated using pymatgen
data_Yb(CuSe)3
_symmetry_space_group_name_H-M   'P 1'
_cell_length_a   7.86636968
_cell_length_b   7.86636968
_cell_length_c   7.86636884
_cell_angle_alpha   52.34166987
_cell_angle_beta   52.34166987
_cell_angle_gamma   52.34166968
_symmetry_Int_Tables_number   1
_chemical_formula_structural   Yb(CuSe)3
_chemical_formula_sum   'Yb2 Cu6 Se6'
_cell_volume   282.28601132
_cell_formula_units_Z   2
loop_
 _symmetry_equiv_pos_site_id
 _symmetry_equiv_pos_as_xyz
  1  'x, y, z'
loop_
 _atom_site_type_symbol
 _atom_site_label
 _atom_site_symmetry_multiplicity
 _atom_site_fract_x
 _atom_site_fract_y
 _atom_site_fract_z
 _atom_site_occupancy
  Yb  Yb0  1  0.66643900  0.66643900  0.66643900  1
  Yb  Yb1  1  0.33356100  0.33356100  0.33356100  1
  Cu  Cu2  1  0.87438000  0.53515300  0.21800800  1
  Cu  Cu3  1  0.53515300  0.21800800  0.87438000  1
  Cu  Cu4  1  0.21800800  0.87438000  0.53515300  1
  Cu  Cu5  1  0.78199200  0.12562000  0.46484700  1
  Cu  Cu6  1  0.46484700  0.78199200  0.12562000  1
  Cu  Cu7  1  0.12562000  0.46484700  0.78199200  1
  Se  Se8  1  0.08457300  0.75821800  0.41344000  1
  Se  Se9  1  0.41344000  0.08457300  0.75821800  1
  Se  Se10  1  0.75821800  0.41344000  0.08457300  1
  Se  Se11  1  0.24178200  0.58656000  0.91542700  1
  Se  Se12  1  0.58656000  0.91542700  0.24178200  1
  Se  Se13  1  0.91542700  0.24178200  0.58656000  1
