# generated using pymatgen
data_Yb2US3O2
_symmetry_space_group_name_H-M   'P 1'
_cell_length_a   10.58912007
_cell_length_b   10.58912007
_cell_length_c   10.58912007
_cell_angle_alpha   159.42788291
_cell_angle_beta   159.42788291
_cell_angle_gamma   29.25406994
_symmetry_Int_Tables_number   1
_chemical_formula_structural   Yb2US3O2
_chemical_formula_sum   'Yb2 U1 S3 O2'
_cell_volume   146.52544326
_cell_formula_units_Z   1
loop_
 _symmetry_equiv_pos_site_id
 _symmetry_equiv_pos_as_xyz
  1  'x, y, z'
loop_
 _atom_site_type_symbol
 _atom_site_label
 _atom_site_symmetry_multiplicity
 _atom_site_fract_x
 _atom_site_fract_y
 _atom_site_fract_z
 _atom_site_occupancy
  Yb  Yb0  1  0.49491800  0.49491800  0.00000000  1
  Yb  Yb1  1  0.81347000  0.81347000  0.00000000  1
  U  U2  1  0.18861800  0.18861800  0.00000000  1
  S  S3  1  0.62796500  0.62796500  0.00000000  1
  S  S4  1  0.36283900  0.36283900  0.00000000  1
  S  S5  1  0.03537900  0.03537900  0.00000000  1
  O  O6  1  0.73840500  0.23840500  0.50000000  1
  O  O7  1  0.23840500  0.73840500  0.50000000  1
