# generated using pymatgen
data_YbEu(FeO2)4
_symmetry_space_group_name_H-M   'P 1'
_cell_length_a   3.52450200
_cell_length_b   6.08159900
_cell_length_c   8.76603303
_cell_angle_alpha   76.69519512
_cell_angle_beta   90.00000000
_cell_angle_gamma   90.00000000
_symmetry_Int_Tables_number   1
_chemical_formula_structural   YbEu(FeO2)4
_chemical_formula_sum   'Yb1 Eu1 Fe4 O8'
_cell_volume   182.85325939
_cell_formula_units_Z   1
loop_
 _symmetry_equiv_pos_site_id
 _symmetry_equiv_pos_as_xyz
  1  'x, y, z'
loop_
 _atom_site_type_symbol
 _atom_site_label
 _atom_site_symmetry_multiplicity
 _atom_site_fract_x
 _atom_site_fract_y
 _atom_site_fract_z
 _atom_site_occupancy
  Yb  Yb0  1  0.50000000  0.50000000  0.00000000  1
  Eu  Eu1  1  0.00000000  0.00000000  0.00000000  1
  Fe  Fe2  1  0.50000000  0.71310400  0.35690000  1
  Fe  Fe3  1  0.00000000  0.21674100  0.35397900  1
  Fe  Fe4  1  0.50000000  0.28689600  0.64310000  1
  Fe  Fe5  1  0.00000000  0.78325900  0.64602100  1
  O  O6  1  0.50000000  0.78121600  0.13891900  1
  O  O7  1  0.00000000  0.29406400  0.13741200  1
  O  O8  1  0.50000000  0.21878400  0.86108100  1
  O  O9  1  0.00000000  0.70593600  0.86258800  1
  O  O10  1  0.50000000  0.63261400  0.60626600  1
  O  O11  1  0.00000000  0.13052400  0.60804700  1
  O  O12  1  0.50000000  0.36738600  0.39373400  1
  O  O13  1  0.00000000  0.86947600  0.39195300  1
