data_image0
_chemical_formula_structural       Ca2Mn3O8
_chemical_formula_sum              "Ca2 Mn3 O8"
_cell_length_a       5.11919
_cell_length_b       6.05231
_cell_length_c       6.50195
_cell_angle_alpha    117.737
_cell_angle_beta     107.568
_cell_angle_gamma    90.0006

_space_group_name_H-M_alt    "P 1"
_space_group_IT_number       1

loop_
  _space_group_symop_operation_xyz
  'x, y, z'

loop_
  _atom_site_type_symbol
  _atom_site_label
  _atom_site_symmetry_multiplicity
  _atom_site_fract_x
  _atom_site_fract_y
  _atom_site_fract_z
  _atom_site_occupancy
  Ca  Ca1       1.0  0.67600  0.72700  0.45300  1.0000
  Ca  Ca2       1.0  0.32400  0.27400  0.54700  1.0000
  Mn  Mn1       1.0  0.00000  0.74100  1.00000  1.0000
  Mn  Mn2       1.0  0.00000  0.25900  0.00000  1.0000
  Mn  Mn3       1.0  0.50000  0.00000  0.00000  1.0000
  O   O1        1.0  0.90200  0.09340  0.18700  1.0000
  O   O2        1.0  0.96000  0.60000  0.20000  1.0000
  O   O3        1.0  0.39000  0.31800  0.20100  1.0000
  O   O4        1.0  0.39000  0.88300  0.20100  1.0000
  O   O5        1.0  0.61000  0.68200  0.79900  1.0000
  O   O6        1.0  0.61000  0.11700  0.79900  1.0000
  O   O7        1.0  0.03990  0.40000  0.80000  1.0000
  O   O8        1.0  0.09790  0.90700  0.81300  1.0000
