# generated using pymatgen
data_NaMn2BiO6
_symmetry_space_group_name_H-M   'P 1'
_cell_length_a   5.45548744
_cell_length_b   5.45548744
_cell_length_c   5.45548726
_cell_angle_alpha   59.92402664
_cell_angle_beta   59.92402664
_cell_angle_gamma   59.92403271
_symmetry_Int_Tables_number   1
_chemical_formula_structural   NaMn2BiO6
_chemical_formula_sum   'Na1 Mn2 Bi1 O6'
_cell_volume   114.61372061
_cell_formula_units_Z   1
loop_
 _symmetry_equiv_pos_site_id
 _symmetry_equiv_pos_as_xyz
  1  'x, y, z'
loop_
 _atom_site_type_symbol
 _atom_site_label
 _atom_site_symmetry_multiplicity
 _atom_site_fract_x
 _atom_site_fract_y
 _atom_site_fract_z
 _atom_site_occupancy
  Na  Na0  1  0.73005000  0.73005000  0.73005000  1
  Mn  Mn1  1  0.99154500  0.99154600  0.99154600  1
  Mn  Mn2  1  0.49189700  0.49189700  0.49189700  1
  Bi  Bi3  1  0.21856300  0.21856300  0.21856300  1
  O  O4  1  0.66606000  0.25052500  0.82614800  1
  O  O5  1  0.25052500  0.82614800  0.66606000  1
  O  O6  1  0.82614800  0.66606000  0.25052500  1
  O  O7  1  0.17019700  0.31966600  0.76954700  1
  O  O8  1  0.76954700  0.17019700  0.31966600  1
  O  O9  1  0.31966600  0.76954700  0.17019700  1
