# generated using pymatgen
data_ZnMo3O14
_symmetry_space_group_name_H-M   'P 1'
_cell_length_a   9.50869530
_cell_length_b   9.50869530
_cell_length_c   9.50869530
_cell_angle_alpha   157.05824019
_cell_angle_beta   124.25667875
_cell_angle_gamma   61.06593345
_symmetry_Int_Tables_number   1
_chemical_formula_structural   ZnMo3O14
_chemical_formula_sum   'Zn1 Mo3 O14'
_cell_volume   275.38459649
_cell_formula_units_Z   1
loop_
 _symmetry_equiv_pos_site_id
 _symmetry_equiv_pos_as_xyz
  1  'x, y, z'
loop_
 _atom_site_type_symbol
 _atom_site_label
 _atom_site_symmetry_multiplicity
 _atom_site_fract_x
 _atom_site_fract_y
 _atom_site_fract_z
 _atom_site_occupancy
  Zn  Zn0  1  0.65162900  0.15162900  0.50000000  1
  Mo  Mo1  1  0.19377400  0.98668400  0.20709000  1
  Mo  Mo2  1  0.77959500  0.98668400  0.79291000  1
  Mo  Mo3  1  0.13696000  0.63696000  0.50000000  1
  O  O4  1  0.16636900  0.50789200  0.65847700  1
  O  O5  1  0.84941500  0.50789200  0.34152300  1
  O  O6  1  0.09872000  0.09872000  0.00000000  1
  O  O7  1  0.93704800  0.93704800  0.00000000  1
  O  O8  1  0.69533900  0.69533900  0.00000000  1
  O  O9  1  0.32472200  0.32472200  0.00000000  1
  O  O10  1  0.40809700  0.07209000  0.33600600  1
  O  O11  1  0.22457600  0.90309100  0.32148500  1
  O  O12  1  0.58160600  0.90309100  0.67851500  1
  O  O13  1  0.73608400  0.07209000  0.66399400  1
  O  O14  1  0.35288800  0.70197900  0.65090900  1
  O  O15  1  0.05107000  0.70197900  0.34909100  1
  O  O16  1  0.87642700  0.26655500  0.60987200  1
  O  O17  1  0.65668300  0.26655500  0.39012800  1
