# generated using pymatgen
data_ZnH7C3NO6
_symmetry_space_group_name_H-M   'P 1'
_cell_length_a   7.35322555
_cell_length_b   7.46898815
_cell_length_c   8.26014238
_cell_angle_alpha   90.93434360
_cell_angle_beta   89.99999891
_cell_angle_gamma   119.48860409
_symmetry_Int_Tables_number   1
_chemical_formula_structural   ZnH7C3NO6
_chemical_formula_sum   'Zn2 H14 C6 N2 O12'
_cell_volume   394.81769365
_cell_formula_units_Z   2
loop_
 _symmetry_equiv_pos_site_id
 _symmetry_equiv_pos_as_xyz
  1  'x, y, z'
loop_
 _atom_site_type_symbol
 _atom_site_label
 _atom_site_symmetry_multiplicity
 _atom_site_fract_x
 _atom_site_fract_y
 _atom_site_fract_z
 _atom_site_occupancy
  Zn  Zn0  1  0.33523400  0.66742200  0.25055200  1
  Zn  Zn1  1  0.66781200  0.33257800  0.74944800  1
  H  H2  1  0.99952400  0.41567500  0.49655200  1
  H  H3  1  0.41522100  0.00000000  0.50000000  1
  H  H4  1  0.58385000  0.58432500  0.50344800  1
  H  H5  1  0.99873500  0.58469400  0.99904300  1
  H  H6  1  0.58204300  0.00000000  0.00000000  1
  H  H7  1  0.41404200  0.41530600  0.00095700  1
  H  H8  1  0.89454100  0.92903500  0.34677700  1
  H  H9  1  0.08273800  0.15282500  0.27205100  1
  H  H10  1  0.96550600  0.07096500  0.65322300  1
  H  H11  1  0.92991400  0.84717500  0.72794900  1
  H  H12  1  0.92767300  0.03774500  0.84624700  1
  H  H13  1  0.15491500  0.06799100  0.77354400  1
  H  H14  1  0.88992700  0.96225500  0.15375300  1
  H  H15  1  0.08692400  0.93200900  0.22645600  1
  C  C16  1  0.00228900  0.56496500  0.50166200  1
  C  C17  1  0.56572300  0.00000000  0.50000000  1
  C  C18  1  0.43732400  0.43503500  0.49833800  1
  C  C19  1  0.00080200  0.43775000  0.99979100  1
  C  C20  1  0.43164300  0.00000000  0.00000000  1
  C  C21  1  0.56305200  0.56225000  0.00020900  1
  N  N22  1  0.99183400  0.99579700  0.24992100  1
  N  N23  1  0.99603700  0.00420300  0.75007900  1
  O  O24  1  0.11484500  0.69994400  0.40024400  1
  O  O25  1  0.58892800  0.88242800  0.39961100  1
  O  O26  1  0.30242500  0.41049000  0.39086400  1
  O  O27  1  0.41490100  0.30005600  0.59975600  1
  O  O28  1  0.70649900  0.11757200  0.60038900  1
  O  O29  1  0.89193500  0.58951000  0.60913600  1
  O  O30  1  0.88545400  0.29805800  0.89755200  1
  O  O31  1  0.40607000  0.10789200  0.89441000  1
  O  O32  1  0.69985700  0.58274900  0.89769100  1
  O  O33  1  0.58739500  0.70194200  0.10244800  1
  O  O34  1  0.29817800  0.89210800  0.10559000  1
  O  O35  1  0.11710800  0.41725100  0.10230900  1
