# generated using pymatgen
data_Zr10(IrPt)3
_symmetry_space_group_name_H-M   'P 1'
_cell_length_a   5.51526100
_cell_length_b   8.18829656
_cell_length_c   8.18819770
_cell_angle_alpha   120.00040506
_cell_angle_beta   90.00039413
_cell_angle_gamma   89.99921257
_symmetry_Int_Tables_number   1
_chemical_formula_structural   Zr10(IrPt)3
_chemical_formula_sum   'Zr10 Ir3 Pt3'
_cell_volume   320.24091059
_cell_formula_units_Z   1
loop_
 _symmetry_equiv_pos_site_id
 _symmetry_equiv_pos_as_xyz
  1  'x, y, z'
loop_
 _atom_site_type_symbol
 _atom_site_label
 _atom_site_symmetry_multiplicity
 _atom_site_fract_x
 _atom_site_fract_y
 _atom_site_fract_z
 _atom_site_occupancy
  Zr  Zr0  1  0.50288200  0.33330800  0.66669700  1
  Zr  Zr1  1  0.50288200  0.66661100  0.33330300  1
  Zr  Zr2  1  0.99711900  0.66667600  0.33330300  1
  Zr  Zr3  1  0.99711900  0.33337300  0.66669700  1
  Zr  Zr4  1  0.75000900  0.24502500  0.00000000  1
  Zr  Zr5  1  0.74999500  0.75495100  0.75497500  1
  Zr  Zr6  1  0.74999500  0.99997600  0.24502500  1
  Zr  Zr7  1  0.25000800  0.75314100  0.00000000  1
  Zr  Zr8  1  0.24999500  0.24688600  0.24685100  1
  Zr  Zr9  1  0.24999500  0.00003500  0.75314900  1
  Ir  Ir10  1  0.74999800  0.60797200  0.00000000  1
  Ir  Ir11  1  0.75000100  0.39200400  0.39204900  1
  Ir  Ir12  1  0.75000100  0.99995500  0.60795100  1
  Pt  Pt13  1  0.24999300  0.39399400  0.00000000  1
  Pt  Pt14  1  0.25000300  0.60604000  0.60598500  1
  Pt  Pt15  1  0.25000300  0.00005400  0.39401500  1
