# generated using pymatgen
data_Yb2Fe3Cu
_symmetry_space_group_name_H-M   'P 1'
_cell_length_a   5.22613130
_cell_length_b   5.22613130
_cell_length_c   5.22613124
_cell_angle_alpha   57.34199219
_cell_angle_beta   57.34199219
_cell_angle_gamma   57.34198702
_symmetry_Int_Tables_number   1
_chemical_formula_structural   Yb2Fe3Cu
_chemical_formula_sum   'Yb2 Fe3 Cu1'
_cell_volume   94.75609769
_cell_formula_units_Z   1
loop_
 _symmetry_equiv_pos_site_id
 _symmetry_equiv_pos_as_xyz
  1  'x, y, z'
loop_
 _atom_site_type_symbol
 _atom_site_label
 _atom_site_symmetry_multiplicity
 _atom_site_fract_x
 _atom_site_fract_y
 _atom_site_fract_z
 _atom_site_occupancy
  Yb  Yb0  1  0.12492500  0.12492500  0.12492500  1
  Yb  Yb1  1  0.87507500  0.87507500  0.87507500  1
  Fe  Fe2  1  0.50000000  0.00000000  0.50000000  1
  Fe  Fe3  1  0.00000000  0.50000000  0.50000000  1
  Fe  Fe4  1  0.50000000  0.50000000  0.00000000  1
  Cu  Cu5  1  0.50000000  0.50000000  0.50000000  1
