# generated using pymatgen
data_Zn2Hg2Se2O9
_symmetry_space_group_name_H-M   'P 1'
_cell_length_a   4.94361217
_cell_length_b   6.41578500
_cell_length_c   9.08583675
_cell_angle_alpha   69.32508698
_cell_angle_beta   93.29715490
_cell_angle_gamma   90.00000000
_symmetry_Int_Tables_number   1
_chemical_formula_structural   Zn2Hg2Se2O9
_chemical_formula_sum   'Zn2 Hg2 Se2 O9'
_cell_volume   269.10798773
_cell_formula_units_Z   1
loop_
 _symmetry_equiv_pos_site_id
 _symmetry_equiv_pos_as_xyz
  1  'x, y, z'
loop_
 _atom_site_type_symbol
 _atom_site_label
 _atom_site_symmetry_multiplicity
 _atom_site_fract_x
 _atom_site_fract_y
 _atom_site_fract_z
 _atom_site_occupancy
  Zn  Zn0  1  0.99993300  0.49578400  0.50435600  1
  Zn  Zn1  1  0.99993300  0.99986000  0.50435600  1
  Hg  Hg2  1  0.96920900  0.57620100  0.84759700  1
  Hg  Hg3  1  0.04135600  0.42483200  0.15033500  1
  Se  Se4  1  0.47946200  0.13689200  0.72621700  1
  Se  Se5  1  0.53549600  0.86527800  0.26944500  1
  O  O6  1  0.72243900  0.20307200  0.59385600  1
  O  O7  1  0.26483700  0.80760000  0.38479900  1
  O  O8  1  0.28544300  0.36817100  0.69616000  1
  O  O9  1  0.28544300  0.93566900  0.69616000  1
  O  O10  1  0.72838800  0.63260100  0.30386200  1
  O  O11  1  0.72838800  0.06353800  0.30386200  1
  O  O12  1  0.86317800  0.69954300  0.60091500  1
  O  O13  1  0.12992800  0.30050300  0.39899300  1
  O  O14  1  0.62156900  0.04595700  0.90808600  1
