# generated using pymatgen
data_YAl2BN4
_symmetry_space_group_name_H-M   'P 1'
_cell_length_a   3.11900700
_cell_length_b   4.35881838
_cell_length_c   6.43678100
_cell_angle_alpha   89.44125772
_cell_angle_beta   90.00000000
_cell_angle_gamma   90.00000000
_symmetry_Int_Tables_number   1
_chemical_formula_structural   YAl2BN4
_chemical_formula_sum   'Y1 Al2 B1 N4'
_cell_volume   87.50506776
_cell_formula_units_Z   1
loop_
 _symmetry_equiv_pos_site_id
 _symmetry_equiv_pos_as_xyz
  1  'x, y, z'
loop_
 _atom_site_type_symbol
 _atom_site_label
 _atom_site_symmetry_multiplicity
 _atom_site_fract_x
 _atom_site_fract_y
 _atom_site_fract_z
 _atom_site_occupancy
  Y  Y0  1  0.00000000  0.00705200  0.02208200  1
  Al  Al1  1  0.00000000  0.01059300  0.48748000  1
  Al  Al2  1  0.50000000  0.49201100  0.73010800  1
  B  B3  1  0.50000000  0.51621700  0.26438800  1
  N  N4  1  0.50000000  0.64606600  0.02326600  1
  N  N5  1  0.00000000  0.32247800  0.28643000  1
  N  N6  1  0.50000000  0.75239200  0.46470100  1
  N  N7  1  0.00000000  0.25318900  0.72154500  1
