# generated using pymatgen
data_Zn6S5Cl2
_symmetry_space_group_name_H-M   'P 1'
_cell_length_a   8.51963000
_cell_length_b   7.73955463
_cell_length_c   10.74677874
_cell_angle_alpha   90.49087835
_cell_angle_beta   66.64789130
_cell_angle_gamma   90.00000000
_symmetry_Int_Tables_number   1
_chemical_formula_structural   Zn6S5Cl2
_chemical_formula_sum   'Zn12 S10 Cl4'
_cell_volume   650.54836798
_cell_formula_units_Z   2
loop_
 _symmetry_equiv_pos_site_id
 _symmetry_equiv_pos_as_xyz
  1  'x, y, z'
loop_
 _atom_site_type_symbol
 _atom_site_label
 _atom_site_symmetry_multiplicity
 _atom_site_fract_x
 _atom_site_fract_y
 _atom_site_fract_z
 _atom_site_occupancy
  Zn  Zn0  1  0.81517500  0.99834200  0.99808400  1
  Zn  Zn1  1  0.26372000  0.97684800  0.04869900  1
  Zn  Zn2  1  0.81325900  0.50165800  0.00191600  1
  Zn  Zn3  1  0.31241900  0.52315200  0.95130100  1
  Zn  Zn4  1  0.48536000  0.75807500  0.32245900  1
  Zn  Zn5  1  0.19590100  0.17206500  0.36869100  1
  Zn  Zn6  1  0.56459200  0.32793500  0.63130900  1
  Zn  Zn7  1  0.80781900  0.74192500  0.67754100  1
  Zn  Zn8  1  0.79965200  0.99202500  0.34894500  1
  Zn  Zn9  1  0.75109700  0.49696500  0.36968200  1
  Zn  Zn10  1  0.12077900  0.00303500  0.63031800  1
  Zn  Zn11  1  0.14859700  0.50797500  0.65105500  1
  S  S12  1  0.22893900  0.75391700  0.50971100  1
  S  S13  1  0.27678500  0.24846200  0.53147400  1
  S  S14  1  0.80825800  0.25153800  0.46852600  1
  S  S15  1  0.73864900  0.74608300  0.49028900  1
  S  S16  1  0.63280100  0.00470600  0.22116100  1
  S  S17  1  0.10290800  0.97503700  0.26876900  1
  S  S18  1  0.61714100  0.50008200  0.22217700  1
  S  S19  1  0.83931900  0.99991800  0.77782300  1
  S  S20  1  0.37167700  0.52496300  0.73123100  1
  S  S21  1  0.85396200  0.49529400  0.77883900  1
  Cl  Cl22  1  0.98922800  0.25000000  0.00000000  1
  Cl  Cl23  1  0.06708500  0.75000000  0.00000000  1
  Cl  Cl24  1  0.46426500  0.75000000  0.00000000  1
  Cl  Cl25  1  0.40601300  0.25000000  0.00000000  1
