# generated using pymatgen
data_Yb4CdS7
_symmetry_space_group_name_H-M   'P 1'
_cell_length_a   7.40352905
_cell_length_b   7.40352905
_cell_length_c   11.22723228
_cell_angle_alpha   63.16514237
_cell_angle_beta   63.16514237
_cell_angle_gamma   31.45876437
_symmetry_Int_Tables_number   1
_chemical_formula_structural   Yb4CdS7
_chemical_formula_sum   'Yb4 Cd1 S7'
_cell_volume   283.65316231
_cell_formula_units_Z   1
loop_
 _symmetry_equiv_pos_site_id
 _symmetry_equiv_pos_as_xyz
  1  'x, y, z'
loop_
 _atom_site_type_symbol
 _atom_site_label
 _atom_site_symmetry_multiplicity
 _atom_site_fract_x
 _atom_site_fract_y
 _atom_site_fract_z
 _atom_site_occupancy
  Yb  Yb0  1  0.32257700  0.32257700  0.76478100  1
  Yb  Yb1  1  0.68334500  0.68334500  0.23908300  1
  Yb  Yb2  1  0.00495500  0.00495500  0.00059000  1
  Yb  Yb3  1  0.91369900  0.91369900  0.40317600  1
  Cd  Cd4  1  0.07354000  0.07354000  0.60441600  1
  S  S5  1  0.28931100  0.28931100  0.35335600  1
  S  S6  1  0.70170400  0.70170400  0.64145200  1
  S  S7  1  0.65871500  0.65871500  0.84873800  1
  S  S8  1  0.34850900  0.34850900  0.14056100  1
  S  S9  1  0.91468700  0.91468700  0.83531700  1
  S  S10  1  0.09046600  0.09046600  0.16786200  1
  S  S11  1  0.49849100  0.49849100  0.50066700  1
