# generated using pymatgen
data_Yb5In4Cu20Rh
_symmetry_space_group_name_H-M   'P 1'
_cell_length_a   20.56350338
_cell_length_b   20.56350338
_cell_length_c   20.56350335
_cell_angle_alpha   14.17297597
_cell_angle_beta   14.17297597
_cell_angle_gamma   14.17297582
_symmetry_Int_Tables_number   1
_chemical_formula_structural   Yb5In4Cu20Rh
_chemical_formula_sum   'Yb5 In4 Cu20 Rh1'
_cell_volume   453.76532412
_cell_formula_units_Z   1
loop_
 _symmetry_equiv_pos_site_id
 _symmetry_equiv_pos_as_xyz
  1  'x, y, z'
loop_
 _atom_site_type_symbol
 _atom_site_label
 _atom_site_symmetry_multiplicity
 _atom_site_fract_x
 _atom_site_fract_y
 _atom_site_fract_z
 _atom_site_occupancy
  Yb  Yb0  1  0.39794300  0.39794300  0.39794300  1
  Yb  Yb1  1  0.19988600  0.19988600  0.19988600  1
  Yb  Yb2  1  0.80004600  0.80004600  0.80004600  1
  Yb  Yb3  1  0.00165900  0.00165900  0.00165900  1
  Yb  Yb4  1  0.59992600  0.59992600  0.59992600  1
  In  In5  1  0.95012500  0.95012500  0.95012500  1
  In  In6  1  0.54983500  0.54983500  0.54983500  1
  In  In7  1  0.14996300  0.14996300  0.14996300  1
  In  In8  1  0.74979100  0.74979100  0.74979100  1
  Cu  Cu9  1  0.47425100  0.97807800  0.47425100  1
  Cu  Cu10  1  0.07508600  0.57490300  0.07508600  1
  Cu  Cu11  1  0.67478500  0.17538000  0.67478500  1
  Cu  Cu12  1  0.27489700  0.77498200  0.27489700  1
  Cu  Cu13  1  0.87420300  0.37517800  0.87420300  1
  Cu  Cu14  1  0.47425100  0.47425100  0.97807800  1
  Cu  Cu15  1  0.07508600  0.07508600  0.57490300  1
  Cu  Cu16  1  0.67478500  0.67478500  0.17538000  1
  Cu  Cu17  1  0.27489700  0.27489700  0.77498200  1
  Cu  Cu18  1  0.87420300  0.87420300  0.37517800  1
  Cu  Cu19  1  0.27548900  0.27548900  0.27548900  1
  Cu  Cu20  1  0.87511200  0.87511200  0.87511200  1
  Cu  Cu21  1  0.47519800  0.47519800  0.47519800  1
  Cu  Cu22  1  0.07498600  0.07498600  0.07498600  1
  Cu  Cu23  1  0.67506400  0.67506400  0.67506400  1
  Cu  Cu24  1  0.97807800  0.47425100  0.47425100  1
  Cu  Cu25  1  0.57490300  0.07508600  0.07508600  1
  Cu  Cu26  1  0.17538000  0.67478500  0.67478500  1
  Cu  Cu27  1  0.77498200  0.27489700  0.27489700  1
  Cu  Cu28  1  0.37517800  0.87420300  0.87420300  1
  Rh  Rh29  1  0.35001100  0.35001100  0.35001100  1
