# generated using pymatgen
data_Zn2Cu10Sn5Hg3S20
_symmetry_space_group_name_H-M   'P 1'
_cell_length_a   6.77486015
_cell_length_b   6.77486015
_cell_length_c   24.87875168
_cell_angle_alpha   89.57294748
_cell_angle_beta   89.57294748
_cell_angle_gamma   48.40739488
_symmetry_Int_Tables_number   1
_chemical_formula_structural   Zn2Cu10Sn5Hg3S20
_chemical_formula_sum   'Zn2 Cu10 Sn5 Hg3 S20'
_cell_volume   853.98229168
_cell_formula_units_Z   1
loop_
 _symmetry_equiv_pos_site_id
 _symmetry_equiv_pos_as_xyz
  1  'x, y, z'
loop_
 _atom_site_type_symbol
 _atom_site_label
 _atom_site_symmetry_multiplicity
 _atom_site_fract_x
 _atom_site_fract_y
 _atom_site_fract_z
 _atom_site_occupancy
  Zn  Zn0  1  0.60042600  0.20031000  0.40056400  1
  Zn  Zn1  1  0.79969000  0.39957400  0.59943600  1
  Cu  Cu2  1  0.30018400  0.90012100  0.84989200  1
  Cu  Cu3  1  0.69747300  0.30109000  0.25125800  1
  Cu  Cu4  1  0.49984400  0.10027100  0.04996100  1
  Cu  Cu5  1  0.10229500  0.69898300  0.64875900  1
  Cu  Cu6  1  0.89984200  0.50000900  0.45009500  1
  Cu  Cu7  1  0.69891000  0.30252700  0.74874200  1
  Cu  Cu8  1  0.09987900  0.69981600  0.15010800  1
  Cu  Cu9  1  0.89972900  0.50015600  0.95003900  1
  Cu  Cu10  1  0.49999100  0.10015800  0.54990500  1
  Cu  Cu11  1  0.30101700  0.89770500  0.35124100  1
  Sn  Sn12  1  0.39820500  0.99840000  0.69731800  1
  Sn  Sn13  1  0.79978300  0.40004000  0.10039600  1
  Sn  Sn14  1  0.59996000  0.20021700  0.89960400  1
  Sn  Sn15  1  0.19995500  0.80004500  0.50000000  1
  Sn  Sn16  1  0.00160000  0.60179500  0.30268200  1
  Hg  Hg17  1  0.99928900  0.59989700  0.79942000  1
  Hg  Hg18  1  0.19993700  0.80006300  0.00000000  1
  Hg  Hg19  1  0.40010300  0.00071100  0.20058000  1
  S  S20  1  0.49979600  0.58326200  0.67416800  1
  S  S21  1  0.67952500  0.79681700  0.88023700  1
  S  S22  1  0.87899100  0.99733900  0.08044100  1
  S  S23  1  0.07816700  0.19980800  0.28146600  1
  S  S24  1  0.29840000  0.38600900  0.47532100  1
  S  S25  1  0.09729100  0.17033800  0.77541800  1
  S  S26  1  0.29424400  0.37479300  0.97637700  1
  S  S27  1  0.49405000  0.57437300  0.17734100  1
  S  S28  1  0.68470900  0.80602500  0.37899000  1
  S  S29  1  0.88769800  0.00221800  0.57738800  1
  S  S30  1  0.42562700  0.50595000  0.82265900  1
  S  S31  1  0.62520700  0.70575600  0.02362300  1
  S  S32  1  0.82966200  0.90270900  0.22458200  1
  S  S33  1  0.99778200  0.11230200  0.42261200  1
  S  S34  1  0.19397500  0.31529100  0.62101000  1
  S  S35  1  0.00266100  0.12100900  0.91955900  1
  S  S36  1  0.20318300  0.32047500  0.11976300  1
  S  S37  1  0.41673800  0.50020400  0.32583200  1
  S  S38  1  0.61399100  0.70160000  0.52467900  1
  S  S39  1  0.80019200  0.92183300  0.71853400  1
