# generated using pymatgen
data_YNO4
_symmetry_space_group_name_H-M   'P 1'
_cell_length_a   3.95587477
_cell_length_b   3.95587477
_cell_length_c   10.09543900
_cell_angle_alpha   90.00000000
_cell_angle_beta   90.00000000
_cell_angle_gamma   91.68909530
_symmetry_Int_Tables_number   1
_chemical_formula_structural   YNO4
_chemical_formula_sum   'Y2 N2 O8'
_cell_volume   157.91432595
_cell_formula_units_Z   2
loop_
 _symmetry_equiv_pos_site_id
 _symmetry_equiv_pos_as_xyz
  1  'x, y, z'
loop_
 _atom_site_type_symbol
 _atom_site_label
 _atom_site_symmetry_multiplicity
 _atom_site_fract_x
 _atom_site_fract_y
 _atom_site_fract_z
 _atom_site_occupancy
  Y  Y0  1  0.29903100  0.20096900  0.11282000  1
  Y  Y1  1  0.79903100  0.70096900  0.88718000  1
  N  N2  1  0.16100400  0.33899600  0.66821300  1
  N  N3  1  0.66100400  0.83899600  0.33178700  1
  O  O4  1  0.28787300  0.71212700  0.00000000  1
  O  O5  1  0.78787300  0.21212700  0.00000000  1
  O  O6  1  0.28048500  0.21951500  0.56910500  1
  O  O7  1  0.78048500  0.71951500  0.43089500  1
  O  O8  1  0.39149900  0.71289200  0.27322900  1
  O  O9  1  0.78710800  0.10850100  0.27322900  1
  O  O10  1  0.89149900  0.21289200  0.72677100  1
  O  O11  1  0.28710800  0.60850100  0.72677100  1
