# generated using pymatgen
data_Y2WO6
_symmetry_space_group_name_H-M   'P 1'
_cell_length_a   5.38082200
_cell_length_b   5.43589900
_cell_length_c   8.21511100
_cell_angle_alpha   90.00000000
_cell_angle_beta   90.00000000
_cell_angle_gamma   90.00000000
_symmetry_Int_Tables_number   1
_chemical_formula_structural   Y2WO6
_chemical_formula_sum   'Y4 W2 O12'
_cell_volume   240.28875120
_cell_formula_units_Z   2
loop_
 _symmetry_equiv_pos_site_id
 _symmetry_equiv_pos_as_xyz
  1  'x, y, z'
loop_
 _atom_site_type_symbol
 _atom_site_label
 _atom_site_symmetry_multiplicity
 _atom_site_fract_x
 _atom_site_fract_y
 _atom_site_fract_z
 _atom_site_occupancy
  Y  Y0  1  0.00000000  0.50000000  0.00458400  1
  Y  Y1  1  0.50000000  0.00000000  0.99541600  1
  Y  Y2  1  0.50000000  0.50000000  0.67320800  1
  Y  Y3  1  0.00000000  0.00000000  0.32679200  1
  W  W4  1  0.50000000  0.50000000  0.27566700  1
  W  W5  1  0.00000000  0.00000000  0.72433300  1
  O  O6  1  0.26619000  0.25533500  0.16981000  1
  O  O7  1  0.73381000  0.25533500  0.16981000  1
  O  O8  1  0.26619000  0.74466500  0.16981000  1
  O  O9  1  0.73381000  0.74466500  0.16981000  1
  O  O10  1  0.23381000  0.24466500  0.83019000  1
  O  O11  1  0.76619000  0.24466500  0.83019000  1
  O  O12  1  0.23381000  0.75533500  0.83019000  1
  O  O13  1  0.76619000  0.75533500  0.83019000  1
  O  O14  1  0.26770900  0.50000000  0.44592200  1
  O  O15  1  0.73229100  0.50000000  0.44592200  1
  O  O16  1  0.23229100  0.00000000  0.55407800  1
  O  O17  1  0.76770900  0.00000000  0.55407800  1
