# generated using pymatgen
data_ZnCu(MoO4)2
_symmetry_space_group_name_H-M   'P 1'
_cell_length_a   6.91873045
_cell_length_b   8.57135076
_cell_length_c   10.07935893
_cell_angle_alpha   100.68847539
_cell_angle_beta   106.45939659
_cell_angle_gamma   101.00821584
_symmetry_Int_Tables_number   1
_chemical_formula_structural   ZnCu(MoO4)2
_chemical_formula_sum   'Zn3 Cu3 Mo6 O24'
_cell_volume   544.16577646
_cell_formula_units_Z   3
loop_
 _symmetry_equiv_pos_site_id
 _symmetry_equiv_pos_as_xyz
  1  'x, y, z'
loop_
 _atom_site_type_symbol
 _atom_site_label
 _atom_site_symmetry_multiplicity
 _atom_site_fract_x
 _atom_site_fract_y
 _atom_site_fract_z
 _atom_site_occupancy
  Zn  Zn0  1  0.45945800  0.29182100  0.51670100  1
  Zn  Zn1  1  0.96364600  0.88818400  0.71867100  1
  Zn  Zn2  1  0.03435700  0.11049200  0.28143200  1
  Cu  Cu3  1  0.24178000  0.69118500  0.90635200  1
  Cu  Cu4  1  0.75760800  0.30642700  0.09468300  1
  Cu  Cu5  1  0.53876100  0.69873400  0.49055300  1
  Mo  Mo6  1  0.50368100  0.99379800  0.75424200  1
  Mo  Mo7  1  0.49356700  0.00798800  0.23820600  1
  Mo  Mo8  1  0.69883100  0.60250300  0.84429200  1
  Mo  Mo9  1  0.30440500  0.39749900  0.16091700  1
  Mo  Mo10  1  0.98723400  0.70664600  0.38116300  1
  Mo  Mo11  1  0.01516200  0.29304400  0.62230700  1
  O  O12  1  0.75446700  0.28560100  0.52657300  1
  O  O13  1  0.25061200  0.71209000  0.47495800  1
  O  O14  1  0.64838000  0.85539500  0.68077300  1
  O  O15  1  0.34667600  0.14764400  0.30921700  1
  O  O16  1  0.99022800  0.87514200  0.29894100  1
  O  O17  1  0.01197000  0.12453800  0.70501000  1
  O  O18  1  0.74782900  0.44820700  0.93092100  1
  O  O19  1  0.25668100  0.55231400  0.07541000  1
  O  O20  1  0.84967600  0.72742800  0.51423500  1
  O  O21  1  0.14250900  0.26908800  0.48500600  1
  O  O22  1  0.95573700  0.73746600  0.86109900  1
  O  O23  1  0.04307400  0.26577000  0.13831200  1
  O  O24  1  0.55057100  0.87921700  0.35118700  1
  O  O25  1  0.44849100  0.12765400  0.64311100  1
  O  O26  1  0.25965700  0.88371700  0.76165700  1
  O  O27  1  0.73967400  0.11802000  0.23089900  1
  O  O28  1  0.86562000  0.51724800  0.24872100  1
  O  O29  1  0.13603800  0.48524000  0.75296900  1
  O  O30  1  0.66566000  0.10821900  0.92774200  1
  O  O31  1  0.33300200  0.88796600  0.06490800  1
  O  O32  1  0.55650200  0.50653300  0.65819100  1
  O  O33  1  0.44619500  0.49561700  0.34874000  1
  O  O34  1  0.53890000  0.70927000  0.91929500  1
  O  O35  1  0.46336200  0.29229700  0.08260600  1
