# generated using pymatgen
data_YBiRu2O7
_symmetry_space_group_name_H-M   'P 1'
_cell_length_a   7.30083451
_cell_length_b   7.30083451
_cell_length_c   7.30083451
_cell_angle_alpha   120.29176509
_cell_angle_beta   119.75345815
_cell_angle_gamma   89.96147261
_symmetry_Int_Tables_number   1
_chemical_formula_structural   YBiRu2O7
_chemical_formula_sum   'Y2 Bi2 Ru4 O14'
_cell_volume   275.06919920
_cell_formula_units_Z   2
loop_
 _symmetry_equiv_pos_site_id
 _symmetry_equiv_pos_as_xyz
  1  'x, y, z'
loop_
 _atom_site_type_symbol
 _atom_site_label
 _atom_site_symmetry_multiplicity
 _atom_site_fract_x
 _atom_site_fract_y
 _atom_site_fract_z
 _atom_site_occupancy
  Y  Y0  1  0.50000000  0.50000000  0.00000000  1
  Y  Y1  1  0.00000000  0.50000000  0.50000000  1
  Bi  Bi2  1  0.50000000  0.50000000  0.50000000  1
  Bi  Bi3  1  0.50000000  0.00000000  0.00000000  1
  Ru  Ru4  1  0.00000000  0.00000000  0.50000000  1
  Ru  Ru5  1  0.00000000  0.50000000  0.00000000  1
  Ru  Ru6  1  0.00000000  0.00000000  0.00000000  1
  Ru  Ru7  1  0.50000000  0.00000000  0.50000000  1
  O  O8  1  0.33092900  0.07931600  0.66131600  1
  O  O9  1  0.91800000  0.07931600  0.24838700  1
  O  O10  1  0.91818200  0.66818200  0.25000000  1
  O  O11  1  0.91800000  0.66961200  0.83868400  1
  O  O12  1  0.33092900  0.66961200  0.25161300  1
  O  O13  1  0.33012200  0.08012200  0.25000000  1
  O  O14  1  0.66907100  0.92068400  0.33868400  1
  O  O15  1  0.08200000  0.92068400  0.75161300  1
  O  O16  1  0.08181800  0.33181800  0.75000000  1
  O  O17  1  0.08200000  0.33038800  0.16131600  1
  O  O18  1  0.66907100  0.33038800  0.74838700  1
  O  O19  1  0.66987800  0.91987800  0.75000000  1
  O  O20  1  0.63406600  0.38406600  0.25000000  1
  O  O21  1  0.36593400  0.61593400  0.75000000  1
