# generated using pymatgen
data_Ge13Sb13Te32
_symmetry_space_group_name_H-M   'P 1'
_cell_length_a   12.26784300
_cell_length_b   12.35538723
_cell_length_c   12.42291665
_cell_angle_alpha   91.38315146
_cell_angle_beta   89.99497281
_cell_angle_gamma   90.25590161
_symmetry_Int_Tables_number   1
_chemical_formula_structural   Ge13Sb13Te32
_chemical_formula_sum   'Ge13 Sb13 Te32'
_cell_volume   1882.42313665
_cell_formula_units_Z   1
loop_
 _symmetry_equiv_pos_site_id
 _symmetry_equiv_pos_as_xyz
  1  'x, y, z'
loop_
 _atom_site_type_symbol
 _atom_site_label
 _atom_site_symmetry_multiplicity
 _atom_site_fract_x
 _atom_site_fract_y
 _atom_site_fract_z
 _atom_site_occupancy
  Ge  Ge0  1  0.99803300  0.77206800  0.23966400  1
  Ge  Ge1  1  0.00034300  0.26257300  0.23470200  1
  Ge  Ge2  1  0.99919300  0.75737700  0.72510400  1
  Ge  Ge3  1  0.74977300  0.76921500  0.99008600  1
  Ge  Ge4  1  0.74622300  0.25643600  0.99460900  1
  Ge  Ge5  1  0.74032100  0.26769700  0.49096200  1
  Ge  Ge6  1  0.75165700  0.49510900  0.73095200  1
  Ge  Ge7  1  0.50321100  0.26284300  0.23566100  1
  Ge  Ge8  1  0.50155300  0.48632600  0.50678700  1
  Ge  Ge9  1  0.50038500  0.26243000  0.72297400  1
  Ge  Ge10  1  0.25167800  0.75607300  0.99464700  1
  Ge  Ge11  1  0.24486900  0.00161200  0.23847000  1
  Ge  Ge12  1  0.23432200  0.26083100  0.49662800  1
  Sb  Sb13  1  0.99715100  0.00420400  0.02080700  1
  Sb  Sb14  1  0.00240100  0.49827300  0.00955500  1
  Sb  Sb15  1  0.00426900  0.25613200  0.72464000  1
  Sb  Sb16  1  0.75190800  0.48542200  0.23884300  1
  Sb  Sb17  1  0.75650900  0.77508200  0.48918300  1
  Sb  Sb18  1  0.75163900  0.00273300  0.73696200  1
  Sb  Sb19  1  0.50097000  0.00863800  0.01772100  1
  Sb  Sb20  1  0.50402800  0.77384500  0.23600000  1
  Sb  Sb21  1  0.50237200  0.75924600  0.73354800  1
  Sb  Sb22  1  0.25255200  0.48973200  0.22978900  1
  Sb  Sb23  1  0.24220500  0.76903400  0.49223300  1
  Sb  Sb24  1  0.24853800  0.00491100  0.72938800  1
  Sb  Sb25  1  0.25887000  0.49405700  0.73126200  1
  Te  Te26  1  0.99849700  0.74963600  0.01286900  1
  Te  Te27  1  0.99697300  0.24676100  0.01189100  1
  Te  Te28  1  0.00792200  0.99576400  0.25776700  1
  Te  Te29  1  0.00321700  0.48982600  0.25884300  1
  Te  Te30  1  0.99900000  0.72414900  0.50581600  1
  Te  Te31  1  0.00366300  0.23954300  0.50047800  1
  Te  Te32  1  0.00116800  0.98997800  0.76381700  1
  Te  Te33  1  0.99514300  0.49841200  0.76379200  1
  Te  Te34  1  0.75090600  0.99099500  0.00619600  1
  Te  Te35  1  0.74638200  0.48540400  0.00582800  1
  Te  Te36  1  0.75554700  0.74688900  0.25375100  1
  Te  Te37  1  0.74782500  0.24767800  0.26110700  1
  Te  Te38  1  0.74878000  0.00320600  0.50525200  1
  Te  Te39  1  0.74531500  0.49204100  0.51088800  1
  Te  Te40  1  0.75549300  0.74149800  0.75613400  1
  Te  Te41  1  0.74271500  0.25150000  0.75811500  1
  Te  Te42  1  0.50031800  0.74172300  0.00728900  1
  Te  Te43  1  0.50601600  0.24509500  0.01322100  1
  Te  Te44  1  0.49514700  0.00329500  0.25829800  1
  Te  Te45  1  0.49989800  0.48874800  0.26589700  1
  Te  Te46  1  0.50017600  0.73741700  0.50409600  1
  Te  Te47  1  0.50588400  0.24926400  0.50534600  1
  Te  Te48  1  0.49921400  0.99869200  0.76192400  1
  Te  Te49  1  0.50315400  0.49090000  0.75765500  1
  Te  Te50  1  0.24922100  0.98940800  0.01145900  1
  Te  Te51  1  0.24846000  0.50079700  0.00330800  1
  Te  Te52  1  0.24420100  0.75024800  0.25591200  1
  Te  Te53  1  0.24683800  0.24386500  0.26614500  1
  Te  Te54  1  0.25693000  0.99967200  0.49910800  1
  Te  Te55  1  0.25281300  0.48888000  0.50248000  1
  Te  Te56  1  0.24475800  0.74877700  0.75859000  1
  Te  Te57  1  0.25345000  0.24803800  0.75555300  1
