# generated using pymatgen
data_Yb4ZrCo33
_symmetry_space_group_name_H-M   'P 1'
_cell_length_a   8.30992015
_cell_length_b   8.30992015
_cell_length_c   8.16047200
_cell_angle_alpha   90.00000000
_cell_angle_beta   90.00000000
_cell_angle_gamma   120.00000122
_symmetry_Int_Tables_number   1
_chemical_formula_structural   Yb4ZrCo33
_chemical_formula_sum   'Yb4 Zr1 Co33'
_cell_volume   488.02223214
_cell_formula_units_Z   1
loop_
 _symmetry_equiv_pos_site_id
 _symmetry_equiv_pos_as_xyz
  1  'x, y, z'
loop_
 _atom_site_type_symbol
 _atom_site_label
 _atom_site_symmetry_multiplicity
 _atom_site_fract_x
 _atom_site_fract_y
 _atom_site_fract_z
 _atom_site_occupancy
  Yb  Yb0  1  0.00000000  0.00000000  0.23823900  1
  Yb  Yb1  1  0.66666700  0.33333300  0.75045400  1
  Yb  Yb2  1  0.33333300  0.66666700  0.75154100  1
  Yb  Yb3  1  0.33333300  0.66666700  0.24806000  1
  Zr  Zr4  1  0.00000000  0.00000000  0.61164800  1
  Co  Co5  1  0.17190600  0.34381200  0.47523300  1
  Co  Co6  1  0.17190600  0.82809400  0.47523300  1
  Co  Co7  1  0.65618800  0.82809400  0.47523300  1
  Co  Co8  1  0.49979300  0.99958600  0.51910300  1
  Co  Co9  1  0.49979300  0.50020700  0.51910300  1
  Co  Co10  1  0.00041400  0.50020700  0.51910300  1
  Co  Co11  1  0.50058600  0.00117200  0.98419000  1
  Co  Co12  1  0.50058600  0.49941400  0.98419000  1
  Co  Co13  1  0.99882800  0.49941400  0.98419000  1
  Co  Co14  1  0.16720500  0.33441100  0.01827300  1
  Co  Co15  1  0.16720500  0.83279500  0.01827300  1
  Co  Co16  1  0.66558900  0.83279500  0.01827300  1
  Co  Co17  1  0.82744200  0.65488500  0.49873400  1
  Co  Co18  1  0.82744200  0.17255800  0.49873400  1
  Co  Co19  1  0.34511500  0.17255800  0.49873400  1
  Co  Co20  1  0.83303600  0.66607300  0.99890600  1
  Co  Co21  1  0.83303600  0.16696400  0.99890600  1
  Co  Co22  1  0.33392700  0.16696400  0.99890600  1
  Co  Co23  1  0.00586500  0.70171300  0.75146300  1
  Co  Co24  1  0.69584700  0.99413500  0.75146300  1
  Co  Co25  1  0.29828700  0.30415300  0.75146300  1
  Co  Co26  1  0.69584700  0.70171300  0.75146300  1
  Co  Co27  1  0.29828700  0.99413500  0.75146300  1
  Co  Co28  1  0.00586500  0.30415300  0.75146300  1
  Co  Co29  1  0.66223500  0.62265700  0.25030000  1
  Co  Co30  1  0.96042200  0.33776500  0.25030000  1
  Co  Co31  1  0.37734300  0.03957800  0.25030000  1
  Co  Co32  1  0.96042200  0.62265700  0.25030000  1
  Co  Co33  1  0.37734300  0.33776500  0.25030000  1
  Co  Co34  1  0.66223500  0.03957800  0.25030000  1
  Co  Co35  1  0.66666700  0.33333300  0.38953900  1
  Co  Co36  1  0.66666700  0.33333300  0.10586800  1
  Co  Co37  1  0.00000000  0.00000000  0.91085600  1
