# generated using pymatgen
data_YZrO3
_symmetry_space_group_name_H-M   'P 1'
_cell_length_a   9.07894037
_cell_length_b   9.07894037
_cell_length_c   9.07894037
_cell_angle_alpha   109.57915615
_cell_angle_beta   109.42338032
_cell_angle_gamma   109.41117962
_symmetry_Int_Tables_number   1
_chemical_formula_structural   YZrO3
_chemical_formula_sum   'Y8 Zr8 O24'
_cell_volume   576.07952481
_cell_formula_units_Z   8
loop_
 _symmetry_equiv_pos_site_id
 _symmetry_equiv_pos_as_xyz
  1  'x, y, z'
loop_
 _atom_site_type_symbol
 _atom_site_label
 _atom_site_symmetry_multiplicity
 _atom_site_fract_x
 _atom_site_fract_y
 _atom_site_fract_z
 _atom_site_occupancy
  Y  Y0  1  0.48803000  0.25000000  0.73803000  1
  Y  Y1  1  0.01197000  0.75000000  0.76197000  1
  Y  Y2  1  0.27349100  0.52349100  0.75000000  1
  Y  Y3  1  0.22650900  0.97650900  0.25000000  1
  Y  Y4  1  0.75000000  0.27158500  0.52158500  1
  Y  Y5  1  0.25000000  0.22841500  0.97841500  1
  Y  Y6  1  0.52118600  0.75000000  0.27118600  1
  Y  Y7  1  0.97881400  0.25000000  0.22881400  1
  Zr  Zr8  1  0.99768000  0.97644300  0.50130700  1
  Zr  Zr9  1  0.97513600  0.49637300  0.99869300  1
  Zr  Zr10  1  0.50232000  0.00362700  0.97876300  1
  Zr  Zr11  1  0.52486400  0.52355700  0.52123700  1
  Zr  Zr12  1  0.74189100  0.49189100  0.25000000  1
  Zr  Zr13  1  0.75810900  0.00810900  0.75000000  1
  Zr  Zr14  1  0.25000000  0.74278600  0.49278600  1
  Zr  Zr15  1  0.75000000  0.75721400  0.00721400  1
  O  O16  1  0.99989500  0.02372200  0.26416400  1
  O  O17  1  0.25955800  0.73573100  0.23583600  1
  O  O18  1  0.50010500  0.76426900  0.02382700  1
  O  O19  1  0.24044200  0.47627800  0.47617300  1
  O  O20  1  0.27301700  0.00853400  0.03082900  1
  O  O21  1  0.22698300  0.25781200  0.73551700  1
  O  O22  1  0.02229500  0.49146600  0.76448300  1
  O  O23  1  0.47770500  0.24218800  0.46917100  1
  O  O24  1  0.02769400  0.26792900  0.00898400  1
  O  O25  1  0.74105400  0.23207100  0.25976400  1
  O  O26  1  0.75894600  0.01871000  0.49101600  1
  O  O27  1  0.47230600  0.48129000  0.24023500  1
  O  O28  1  0.98129800  0.97418500  0.72876000  1
  O  O29  1  0.74542500  0.25253800  0.77124000  1
  O  O30  1  0.51870200  0.24746200  0.99288700  1
  O  O31  1  0.75457500  0.52581500  0.50711300  1
  O  O32  1  0.72822200  0.98595700  0.96309400  1
  O  O33  1  0.77177800  0.73487200  0.25773500  1
  O  O34  1  0.97713700  0.51404300  0.24226500  1
  O  O35  1  0.52286300  0.76512800  0.53690600  1
  O  O36  1  0.96611900  0.72789800  0.99554300  1
  O  O37  1  0.26764500  0.77210200  0.73822100  1
  O  O38  1  0.23235500  0.97057600  0.50445700  1
  O  O39  1  0.53388100  0.52942400  0.76177900  1
