# generated using pymatgen
data_Yb4MnS7
_symmetry_space_group_name_H-M   'P 1'
_cell_length_a   6.96389980
_cell_length_b   6.96389980
_cell_length_c   10.85088216
_cell_angle_alpha   72.98928714
_cell_angle_beta   72.98928714
_cell_angle_gamma   31.98125724
_symmetry_Int_Tables_number   1
_chemical_formula_structural   Yb4MnS7
_chemical_formula_sum   'Yb4 Mn1 S7'
_cell_volume   265.49009730
_cell_formula_units_Z   1
loop_
 _symmetry_equiv_pos_site_id
 _symmetry_equiv_pos_as_xyz
  1  'x, y, z'
loop_
 _atom_site_type_symbol
 _atom_site_label
 _atom_site_symmetry_multiplicity
 _atom_site_fract_x
 _atom_site_fract_y
 _atom_site_fract_z
 _atom_site_occupancy
  Yb  Yb0  1  0.68568700  0.68568700  0.17783000  1
  Yb  Yb1  1  0.30575100  0.30575100  0.77160800  1
  Yb  Yb2  1  0.01769300  0.01769300  0.99704300  1
  Yb  Yb3  1  0.09747600  0.09747600  0.56261400  1
  Mn  Mn4  1  0.89072700  0.89072700  0.42599700  1
  S  S5  1  0.73638800  0.73638800  0.59795100  1
  S  S6  1  0.30918100  0.30918100  0.33560400  1
  S  S7  1  0.34966300  0.34966300  0.13401900  1
  S  S8  1  0.66875800  0.66875800  0.94005600  1
  S  S9  1  0.03549800  0.03549800  0.25099300  1
  S  S10  1  0.94966700  0.94966700  0.78986400  1
  S  S11  1  0.45351100  0.45351100  0.51642200  1
