# generated using pymatgen
data_ZnTcNiO4
_symmetry_space_group_name_H-M   'P 1'
_cell_length_a   6.09756579
_cell_length_b   10.12917913
_cell_length_c   6.08742296
_cell_angle_alpha   106.82927640
_cell_angle_beta   119.05853607
_cell_angle_gamma   85.87691979
_symmetry_Int_Tables_number   1
_chemical_formula_structural   ZnTcNiO4
_chemical_formula_sum   'Zn4 Tc4 Ni4 O16'
_cell_volume   313.51417662
_cell_formula_units_Z   4
loop_
 _symmetry_equiv_pos_site_id
 _symmetry_equiv_pos_as_xyz
  1  'x, y, z'
loop_
 _atom_site_type_symbol
 _atom_site_label
 _atom_site_symmetry_multiplicity
 _atom_site_fract_x
 _atom_site_fract_y
 _atom_site_fract_z
 _atom_site_occupancy
  Zn  Zn0  1  0.54363300  0.18172200  0.11317800  1
  Zn  Zn1  1  0.04424400  0.68191300  0.11341500  1
  Zn  Zn2  1  0.00014000  0.00022100  0.00171000  1
  Zn  Zn3  1  0.49973100  0.49975600  0.00138900  1
  Tc  Tc4  1  0.04705100  0.20353100  0.62357800  1
  Tc  Tc5  1  0.54771100  0.70400700  0.62448700  1
  Tc  Tc6  1  0.83007500  0.42112000  0.62398800  1
  Tc  Tc7  1  0.33078800  0.92142700  0.62436100  1
  Ni  Ni8  1  0.05409100  0.68499500  0.62820900  1
  Ni  Ni9  1  0.15554300  0.38685700  0.26029900  1
  Ni  Ni10  1  0.55376900  0.18478300  0.62739900  1
  Ni  Ni11  1  0.65683200  0.88575900  0.26091400  1
  O  O12  1  0.18857700  0.06225800  0.84730200  1
  O  O13  1  0.68885900  0.56236800  0.84793400  1
  O  O14  1  0.19835800  0.06567600  0.40603800  1
  O  O15  1  0.69857200  0.56578800  0.40634600  1
  O  O16  1  0.93742700  0.31309900  0.36307500  1
  O  O17  1  0.43781500  0.81346400  0.36352900  1
  O  O18  1  0.91694100  0.30371100  0.86996300  1
  O  O19  1  0.41663700  0.80458000  0.87030200  1
  O  O20  1  0.64565900  0.05172400  0.85049900  1
  O  O21  1  0.14521900  0.55138100  0.85048200  1
  O  O22  1  0.39884400  0.29718500  0.84964100  1
  O  O23  1  0.89941800  0.79757900  0.85061400  1
  O  O24  1  0.48614700  0.31681200  0.40363900  1
  O  O25  1  0.98759800  0.81692300  0.40509300  1
  O  O26  1  0.71961900  0.08533300  0.40554900  1
  O  O27  1  0.22070100  0.58603000  0.40706400  1
