# generated using pymatgen
data_Y2USe3
_symmetry_space_group_name_H-M   'P 1'
_cell_length_a   4.01205427
_cell_length_b   4.01205427
_cell_length_c   10.27266900
_cell_angle_alpha   90.00000000
_cell_angle_beta   90.00000000
_cell_angle_gamma   120.00000449
_symmetry_Int_Tables_number   1
_chemical_formula_structural   Y2USe3
_chemical_formula_sum   'Y2 U1 Se3'
_cell_volume   143.20147961
_cell_formula_units_Z   1
loop_
 _symmetry_equiv_pos_site_id
 _symmetry_equiv_pos_as_xyz
  1  'x, y, z'
loop_
 _atom_site_type_symbol
 _atom_site_label
 _atom_site_symmetry_multiplicity
 _atom_site_fract_x
 _atom_site_fract_y
 _atom_site_fract_z
 _atom_site_occupancy
  Y  Y0  1  0.33333300  0.66666700  0.67320900  1
  Y  Y1  1  0.66666700  0.33333300  0.32679100  1
  U  U2  1  0.00000000  0.00000000  0.00000000  1
  Se  Se3  1  0.33333300  0.66666700  0.16802700  1
  Se  Se4  1  0.66666700  0.33333300  0.83197300  1
  Se  Se5  1  0.00000000  0.00000000  0.50000000  1
