# generated using pymatgen
data_Y4Ge(O4F)2
_symmetry_space_group_name_H-M   'P 1'
_cell_length_a   5.64553200
_cell_length_b   6.41743303
_cell_length_c   6.92104509
_cell_angle_alpha   90.27495711
_cell_angle_beta   109.78371084
_cell_angle_gamma   110.42803850
_symmetry_Int_Tables_number   1
_chemical_formula_structural   Y4Ge(O4F)2
_chemical_formula_sum   'Y4 Ge1 O8 F2'
_cell_volume   218.95052882
_cell_formula_units_Z   1
loop_
 _symmetry_equiv_pos_site_id
 _symmetry_equiv_pos_as_xyz
  1  'x, y, z'
loop_
 _atom_site_type_symbol
 _atom_site_label
 _atom_site_symmetry_multiplicity
 _atom_site_fract_x
 _atom_site_fract_y
 _atom_site_fract_z
 _atom_site_occupancy
  Y  Y0  1  0.86104300  0.71521900  0.86509800  1
  Y  Y1  1  0.12327200  0.27258700  0.13939500  1
  Y  Y2  1  0.55105100  0.94035400  0.25558800  1
  Y  Y3  1  0.44974700  0.07388600  0.74833300  1
  Ge  Ge4  1  0.09076100  0.44334000  0.63693700  1
  O  O5  1  0.93414000  0.26346600  0.39725100  1
  O  O6  1  0.10223100  0.72382300  0.64655300  1
  O  O7  1  0.51901600  0.57863200  0.21691600  1
  O  O8  1  0.41977700  0.43296300  0.75554300  1
  O  O9  1  0.15184200  0.63649600  0.16929900  1
  O  O10  1  0.89312900  0.34822300  0.80292500  1
  O  O11  1  0.73371300  0.96485800  0.01215900  1
  O  O12  1  0.25795100  0.04131300  0.98897100  1
  F  F13  1  0.64918600  0.87683900  0.59944500  1
  F  F14  1  0.35884100  0.12290200  0.40668900  1
