# generated using pymatgen
data_Zr3Ti(PbO3)4
_symmetry_space_group_name_H-M   'P 1'
_cell_length_a   5.86739207
_cell_length_b   5.93340987
_cell_length_c   10.17431452
_cell_angle_alpha   106.61679449
_cell_angle_beta   90.01994625
_cell_angle_gamma   119.63860145
_symmetry_Int_Tables_number   1
_chemical_formula_structural   Zr3Ti(PbO3)4
_chemical_formula_sum   'Zr3 Ti1 Pb4 O12'
_cell_volume   290.69966696
_cell_formula_units_Z   1
loop_
 _symmetry_equiv_pos_site_id
 _symmetry_equiv_pos_as_xyz
  1  'x, y, z'
loop_
 _atom_site_type_symbol
 _atom_site_label
 _atom_site_symmetry_multiplicity
 _atom_site_fract_x
 _atom_site_fract_y
 _atom_site_fract_z
 _atom_site_occupancy
  Zr  Zr0  1  0.35050600  0.70112500  0.11366200  1
  Zr  Zr1  1  0.85470100  0.70829100  0.62208000  1
  Zr  Zr2  1  0.10364700  0.20709800  0.36819300  1
  Ti  Ti3  1  0.60021800  0.20000200  0.86652500  1
  Pb  Pb4  1  0.19761100  0.39638500  0.73985100  1
  Pb  Pb5  1  0.69500800  0.38892500  0.22333000  1
  Pb  Pb6  1  0.44834000  0.89405300  0.48508500  1
  Pb  Pb7  1  0.93956300  0.88154800  0.97924100  1
  O  O8  1  0.76758400  0.01460300  0.76870600  1
  O  O9  1  0.27958500  0.00402200  0.25854200  1
  O  O10  1  0.47657800  0.50847900  0.51558200  1
  O  O11  1  0.96819600  0.49584000  0.00696900  1
  O  O12  1  0.97332400  0.00801300  0.51272700  1
  O  O13  1  0.47945200  0.01243600  0.99790200  1
  O  O14  1  0.49882600  0.49566200  0.97814900  1
  O  O15  1  0.99942800  0.50851400  0.48365200  1
  O  O16  1  0.27237700  0.01392400  0.74156500  1
  O  O17  1  0.75599400  0.00487200  0.22824900  1
  O  O18  1  0.77738800  0.49701200  0.76037200  1
  O  O19  1  0.28507400  0.50599600  0.25741800  1
