# generated using pymatgen
data_Y4GeS3
_symmetry_space_group_name_H-M   'P 1'
_cell_length_a   4.01747102
_cell_length_b   4.01747102
_cell_length_c   13.06449032
_cell_angle_alpha   81.15538436
_cell_angle_beta   98.84461564
_cell_angle_gamma   120.00000000
_symmetry_Int_Tables_number   1
_chemical_formula_structural   Y4GeS3
_chemical_formula_sum   'Y4 Ge1 S3'
_cell_volume   179.71061408
_cell_formula_units_Z   1
loop_
 _symmetry_equiv_pos_site_id
 _symmetry_equiv_pos_as_xyz
  1  'x, y, z'
loop_
 _atom_site_type_symbol
 _atom_site_label
 _atom_site_symmetry_multiplicity
 _atom_site_fract_x
 _atom_site_fract_y
 _atom_site_fract_z
 _atom_site_occupancy
  Y  Y0  1  0.62433900  0.37566100  0.87301800  1
  Y  Y1  1  0.87283700  0.12716300  0.61851200  1
  Y  Y2  1  0.37566100  0.62433900  0.12698200  1
  Y  Y3  1  0.12716300  0.87283700  0.38148800  1
  Ge  Ge4  1  0.00000000  0.00000000  0.00000000  1
  S  S5  1  0.75274400  0.24725600  0.25823200  1
  S  S6  1  0.50000000  0.50000000  0.50000000  1
  S  S7  1  0.24725600  0.75274400  0.74176800  1
