# generated using pymatgen
data_Zn3CrH80S8(NO7)8
_symmetry_space_group_name_H-M   'P 1'
_cell_length_a   9.61293300
_cell_length_b   12.70750999
_cell_length_c   14.05358396
_cell_angle_alpha   109.10509639
_cell_angle_beta   100.02167180
_cell_angle_gamma   111.50992012
_symmetry_Int_Tables_number   1
_chemical_formula_structural   Zn3CrH80S8(NO7)8
_chemical_formula_sum   'Zn3 Cr1 H80 S8 N8 O56'
_cell_volume   1422.28303741
_cell_formula_units_Z   1
loop_
 _symmetry_equiv_pos_site_id
 _symmetry_equiv_pos_as_xyz
  1  'x, y, z'
loop_
 _atom_site_type_symbol
 _atom_site_label
 _atom_site_symmetry_multiplicity
 _atom_site_fract_x
 _atom_site_fract_y
 _atom_site_fract_z
 _atom_site_occupancy
  Zn  Zn0  1  0.50000000  0.00000000  0.50000000  1
  Zn  Zn1  1  0.00000000  0.00000000  0.00000000  1
  Zn  Zn2  1  0.50000000  0.50000000  0.00000000  1
  Cr  Cr3  1  0.00000000  0.50000000  0.50000000  1
  H  H4  1  0.51769800  0.18643600  0.07861400  1
  H  H5  1  0.01776100  0.68648300  0.07862300  1
  H  H6  1  0.56083600  0.39211100  0.57851700  1
  H  H7  1  0.06097900  0.89215400  0.57859200  1
  H  H8  1  0.98223900  0.31351700  0.92137700  1
  H  H9  1  0.48230200  0.81356400  0.92138600  1
  H  H10  1  0.93902100  0.10784600  0.42140800  1
  H  H11  1  0.43916400  0.60788900  0.42148300  1
  H  H12  1  0.70271700  0.27321200  0.16951300  1
  H  H13  1  0.20291200  0.77318700  0.16943000  1
  H  H14  1  0.46656300  0.39635900  0.66954700  1
  H  H15  1  0.96658000  0.89631400  0.66955700  1
  H  H16  1  0.79708800  0.22681300  0.83057000  1
  H  H17  1  0.29728300  0.72678800  0.83048700  1
  H  H18  1  0.03342000  0.10368600  0.33044300  1
  H  H19  1  0.53343700  0.60364100  0.33045300  1
  H  H20  1  0.67693900  0.40865100  0.41039000  1
  H  H21  1  0.18201600  0.90900600  0.41203600  1
  H  H22  1  0.73000200  0.50305200  0.91203000  1
  H  H23  1  0.23003400  0.00307200  0.91203000  1
  H  H24  1  0.81798400  0.09099400  0.58796400  1
  H  H25  1  0.32306100  0.59134900  0.58961000  1
  H  H26  1  0.76996600  0.99692800  0.08797000  1
  H  H27  1  0.26999800  0.49694800  0.08797000  1
  H  H28  1  0.75751600  0.52113500  0.37855100  1
  H  H29  1  0.26325700  0.02120100  0.38039900  1
  H  H30  1  0.61719500  0.35919100  0.88041300  1
  H  H31  1  0.11722900  0.85924700  0.88042100  1
  H  H32  1  0.73674300  0.97879900  0.61960100  1
  H  H33  1  0.24248400  0.47886500  0.62144900  1
  H  H34  1  0.88277100  0.14075300  0.11957900  1
  H  H35  1  0.38280500  0.64080900  0.11958700  1
  H  H36  1  0.57645400  0.14691500  0.17810000  1
  H  H37  1  0.07647400  0.64689100  0.17808200  1
  H  H38  1  0.60149700  0.53129300  0.67812700  1
  H  H39  1  0.10157700  0.03126400  0.67814300  1
  H  H40  1  0.92352600  0.35310900  0.82191800  1
  H  H41  1  0.42354600  0.85308500  0.82190000  1
  H  H42  1  0.89842300  0.96873600  0.32185700  1
  H  H43  1  0.39850300  0.46870700  0.32187300  1
  H  H44  1  0.91106600  0.31247000  0.55939900  1
  H  H45  1  0.41182400  0.81323100  0.55915500  1
  H  H46  1  0.64766400  0.74592500  0.05903700  1
  H  H47  1  0.14769800  0.24589500  0.05904100  1
  H  H48  1  0.58817600  0.18676900  0.44084500  1
  H  H49  1  0.08893400  0.68753000  0.44060100  1
  H  H50  1  0.85230200  0.75410500  0.94095900  1
  H  H51  1  0.35233600  0.25407500  0.94096300  1
  H  H52  1  0.61455500  0.84764600  0.40152500  1
  H  H53  1  0.11553500  0.34591300  0.40007300  1
  H  H54  1  0.28700900  0.55393400  0.90158100  1
  H  H55  1  0.78693000  0.05388700  0.90158100  1
  H  H56  1  0.88446500  0.65408700  0.59992700  1
  H  H57  1  0.38544500  0.15235400  0.59847500  1
  H  H58  1  0.21307000  0.94611300  0.09841900  1
  H  H59  1  0.71299100  0.44606600  0.09841900  1
  H  H60  1  0.54459400  0.27449500  0.20762700  1
  H  H61  1  0.04403700  0.77418200  0.20735800  1
  H  H62  1  0.66300900  0.43316800  0.70730600  1
  H  H63  1  0.16307700  0.93313300  0.70728400  1
  H  H64  1  0.95596300  0.22581800  0.79264200  1
  H  H65  1  0.45540600  0.72550500  0.79237300  1
  H  H66  1  0.83692300  0.06686700  0.29271600  1
  H  H67  1  0.33699100  0.56683200  0.29269400  1
  H  H68  1  0.47947800  0.83819800  0.31146200  1
  H  H69  1  0.97965600  0.33629700  0.30982800  1
  H  H70  1  0.33218000  0.47340000  0.81145400  1
  H  H71  1  0.83208200  0.97323200  0.81145300  1
  H  H72  1  0.02034400  0.66370300  0.69017200  1
  H  H73  1  0.52052200  0.16180200  0.68853800  1
  H  H74  1  0.16791800  0.02676800  0.18854700  1
  H  H75  1  0.66782000  0.52660000  0.18854600  1
  H  H76  1  0.89935700  0.42265500  0.64585900  1
  H  H77  1  0.39987500  0.92308000  0.64526200  1
  H  H78  1  0.24532800  0.22215900  0.14522200  1
  H  H79  1  0.74528400  0.72216500  0.14519500  1
  H  H80  1  0.60012500  0.07692000  0.35473800  1
  H  H81  1  0.10064300  0.57734500  0.35414100  1
  H  H82  1  0.25471600  0.27783500  0.85480500  1
  H  H83  1  0.75467200  0.77784100  0.85477800  1
  S  S84  1  0.49075500  0.90519900  0.13232200  1
  S  S85  1  0.99070700  0.40522900  0.13235300  1
  S  S86  1  0.14146200  0.22702700  0.63232500  1
  S  S87  1  0.64169800  0.72728000  0.63230900  1
  S  S88  1  0.00929300  0.59477100  0.86764700  1
  S  S89  1  0.50924500  0.09480100  0.86767800  1
  S  S90  1  0.35830200  0.27272000  0.36769100  1
  S  S91  1  0.85853800  0.77297300  0.36767500  1
  N  N92  1  0.58457100  0.22072600  0.15857300  1
  N  N93  1  0.08470200  0.72078100  0.15860700  1
  N  N94  1  0.57393500  0.43791200  0.65863300  1
  N  N95  1  0.07397400  0.93789700  0.65866200  1
  N  N96  1  0.91529800  0.27921900  0.84139300  1
  N  N97  1  0.41542900  0.77927400  0.84142700  1
  N  N98  1  0.92602600  0.06210300  0.34133800  1
  N  N99  1  0.42606500  0.56208800  0.34136700  1
  O  O100  1  0.00880000  0.34366300  0.38375000  1
  O  O101  1  0.50827400  0.84603400  0.38552400  1
  O  O102  1  0.87726500  0.03946500  0.88550700  1
  O  O103  1  0.37728000  0.53936800  0.88558600  1
  O  O104  1  0.49172600  0.15396600  0.61447600  1
  O  O105  1  0.99120000  0.65633700  0.61625000  1
  O  O106  1  0.62272000  0.46063200  0.11441400  1
  O  O107  1  0.12273500  0.96053500  0.11449300  1
  O  O108  1  0.36506000  0.91874000  0.06838400  1
  O  O109  1  0.86519100  0.41887600  0.06843800  1
  O  O110  1  0.70333700  0.64945200  0.56808000  1
  O  O111  1  0.20310000  0.14930700  0.56807600  1
  O  O112  1  0.13480900  0.58112400  0.93156200  1
  O  O113  1  0.63494000  0.08126000  0.93161600  1
  O  O114  1  0.79690000  0.85069300  0.43192400  1
  O  O115  1  0.29666300  0.35054800  0.43192000  1
  O  O116  1  0.76341100  0.44812000  0.38538900  1
  O  O117  1  0.27345000  0.95140600  0.39185400  1
  O  O118  1  0.61852500  0.44044700  0.89176300  1
  O  O119  1  0.11854000  0.94049200  0.89180800  1
  O  O120  1  0.72655000  0.04859400  0.60814600  1
  O  O121  1  0.23658900  0.55188000  0.61461100  1
  O  O122  1  0.88146000  0.05950800  0.10819200  1
  O  O123  1  0.38147500  0.55955300  0.10823700  1
  O  O124  1  0.88814700  0.38455700  0.56911400  1
  O  O125  1  0.38645400  0.88400600  0.56829400  1
  O  O126  1  0.68163500  0.68416000  0.06838100  1
  O  O127  1  0.18161200  0.18413000  0.06839400  1
  O  O128  1  0.61354600  0.11599400  0.43170600  1
  O  O129  1  0.11185300  0.61544300  0.43088600  1
  O  O130  1  0.81838800  0.81587000  0.93160600  1
  O  O131  1  0.31836500  0.31584000  0.93161900  1
  O  O132  1  0.60581000  0.02936200  0.22441600  1
  O  O133  1  0.10575500  0.52945600  0.22463400  1
  O  O134  1  0.11802500  0.19472600  0.72435800  1
  O  O135  1  0.61879500  0.69515300  0.72441700  1
  O  O136  1  0.89424500  0.47054400  0.77536600  1
  O  O137  1  0.39419000  0.97063800  0.77558400  1
  O  O138  1  0.38120500  0.30484700  0.27558300  1
  O  O139  1  0.88197500  0.80527400  0.27564200  1
  O  O140  1  0.42073800  0.81146500  0.17532900  1
  O  O141  1  0.92079400  0.31147500  0.17527900  1
  O  O142  1  0.25448400  0.36346200  0.67543000  1
  O  O143  1  0.75456000  0.86390800  0.67525900  1
  O  O144  1  0.07920600  0.68852500  0.82472100  1
  O  O145  1  0.57926200  0.18853500  0.82467100  1
  O  O146  1  0.24544000  0.13609200  0.32474100  1
  O  O147  1  0.74551600  0.63653800  0.32457000  1
  O  O148  1  0.58189900  0.86396600  0.06405400  1
  O  O149  1  0.08196100  0.36414700  0.06412500  1
  O  O150  1  0.98243700  0.20042600  0.56424900  1
  O  O151  1  0.48300100  0.70058800  0.56398800  1
  O  O152  1  0.91803900  0.63585300  0.93587500  1
  O  O153  1  0.41810100  0.13603400  0.93594600  1
  O  O154  1  0.51699900  0.29941200  0.43601200  1
  O  O155  1  0.01756300  0.79957400  0.43575100  1
