# generated using pymatgen
data_ZnAgPO4
_symmetry_space_group_name_H-M   'P 1'
_cell_length_a   8.39080600
_cell_length_b   10.29286582
_cell_length_c   10.29904956
_cell_angle_alpha   119.86696045
_cell_angle_beta   90.54050729
_cell_angle_gamma   89.74266297
_symmetry_Int_Tables_number   1
_chemical_formula_structural   ZnAgPO4
_chemical_formula_sum   'Zn8 Ag8 P8 O32'
_cell_volume   771.31022146
_cell_formula_units_Z   8
loop_
 _symmetry_equiv_pos_site_id
 _symmetry_equiv_pos_as_xyz
  1  'x, y, z'
loop_
 _atom_site_type_symbol
 _atom_site_label
 _atom_site_symmetry_multiplicity
 _atom_site_fract_x
 _atom_site_fract_y
 _atom_site_fract_z
 _atom_site_occupancy
  Zn  Zn0  1  0.74413400  0.33176400  0.66523300  1
  Zn  Zn1  1  0.24404200  0.66612100  0.33444000  1
  Zn  Zn2  1  0.69479000  0.32833000  0.14743800  1
  Zn  Zn3  1  0.69554200  0.85175400  0.18014300  1
  Zn  Zn4  1  0.69232800  0.81947100  0.67243200  1
  Zn  Zn5  1  0.19514200  0.67143900  0.85252900  1
  Zn  Zn6  1  0.19251600  0.14884500  0.82093800  1
  Zn  Zn7  1  0.19499400  0.18145500  0.32772700  1
  Ag  Ag8  1  0.02340800  0.97461800  0.48362500  1
  Ag  Ag9  1  0.02765400  0.51432900  0.49066800  1
  Ag  Ag10  1  0.02150700  0.50973100  0.02979100  1
  Ag  Ag11  1  0.52478400  0.02534800  0.51653600  1
  Ag  Ag12  1  0.52276800  0.48267600  0.50873100  1
  Ag  Ag13  1  0.52498300  0.48952000  0.97270400  1
  Ag  Ag14  1  0.01745900  0.99937700  0.00019800  1
  Ag  Ag15  1  0.51748000  0.99945000  0.00060500  1
  P  P16  1  0.32587600  0.33212900  0.66442900  1
  P  P17  1  0.82587100  0.66440400  0.33325900  1
  P  P18  1  0.31580000  0.32296700  0.13839200  1
  P  P19  1  0.31217700  0.86037100  0.18568500  1
  P  P20  1  0.31172900  0.81641000  0.67767100  1
  P  P21  1  0.81270200  0.67458100  0.85995400  1
  P  P22  1  0.81245700  0.13884300  0.81619300  1
  P  P23  1  0.81452500  0.18464900  0.32256300  1
  O  O24  1  0.30551500  0.18381900  0.15999600  1
  O  O25  1  0.30276500  0.84114200  0.02599400  1
  O  O26  1  0.30340000  0.97653500  0.81676400  1
  O  O27  1  0.80504200  0.81490000  0.84021300  1
  O  O28  1  0.80428700  0.15982700  0.97650600  1
  O  O29  1  0.80204900  0.02446700  0.18339700  1
  O  O30  1  0.30458800  0.46681900  0.29424400  1
  O  O31  1  0.29018300  0.70437200  0.17229400  1
  O  O32  1  0.29366200  0.82932700  0.53407500  1
  O  O33  1  0.79065500  0.53244900  0.70379400  1
  O  O34  1  0.79542000  0.29508400  0.82855600  1
  O  O35  1  0.80263700  0.17274700  0.46654300  1
  O  O36  1  0.28522200  0.47949500  0.81144900  1
  O  O37  1  0.25633100  0.19379200  0.66641300  1
  O  O38  1  0.26077200  0.34024000  0.52656100  1
  O  O39  1  0.76095300  0.52690300  0.18774000  1
  O  O40  1  0.78386700  0.81187000  0.33307100  1
  O  O41  1  0.75745900  0.66613600  0.47347400  1
  O  O42  1  0.47717000  0.31698900  0.06133000  1
  O  O43  1  0.47761000  0.92932900  0.25711400  1
  O  O44  1  0.47502200  0.74427100  0.68002000  1
  O  O45  1  0.97759700  0.67203100  0.93059900  1
  O  O46  1  0.97511500  0.06463500  0.74513200  1
  O  O47  1  0.97704100  0.25492000  0.31685500  1
  O  O48  1  0.17953700  0.31642800  0.03037100  1
  O  O49  1  0.18131300  0.97275400  0.28769200  1
  O  O50  1  0.17798300  0.71549600  0.68629400  1
  O  O51  1  0.68087400  0.68446700  0.97097400  1
  O  O52  1  0.67794200  0.02931300  0.71487300  1
  O  O53  1  0.67991300  0.28670200  0.31521200  1
  O  O54  1  0.50941800  0.31416600  0.65073800  1
  O  O55  1  0.00965300  0.65009500  0.33672900  1
