# generated using pymatgen
data_VPO5
_symmetry_space_group_name_H-M   'P 1'
_cell_length_a   5.19809082
_cell_length_b   5.19809082
_cell_length_c   7.06525384
_cell_angle_alpha   71.91077808
_cell_angle_beta   71.91077808
_cell_angle_gamma   94.59275729
_symmetry_Int_Tables_number   1
_chemical_formula_structural   VPO5
_chemical_formula_sum   'V2 P2 O10'
_cell_volume   169.17724765
_cell_formula_units_Z   2
loop_
 _symmetry_equiv_pos_site_id
 _symmetry_equiv_pos_as_xyz
  1  'x, y, z'
loop_
 _atom_site_type_symbol
 _atom_site_label
 _atom_site_symmetry_multiplicity
 _atom_site_fract_x
 _atom_site_fract_y
 _atom_site_fract_z
 _atom_site_occupancy
  V  V0  1  0.00000000  0.00000000  0.50000000  1
  V  V1  1  0.00000000  0.00000000  0.00000000  1
  P  P2  1  0.64294000  0.35706000  0.25000000  1
  P  P3  1  0.35706000  0.64294000  0.75000000  1
  O  O4  1  0.73006000  0.21086000  0.08504300  1
  O  O5  1  0.21086000  0.73006000  0.58504300  1
  O  O6  1  0.67078100  0.71790200  0.63372700  1
  O  O7  1  0.71790200  0.67078100  0.13372700  1
  O  O8  1  0.26994000  0.78914000  0.91495700  1
  O  O9  1  0.78914000  0.26994000  0.41495700  1
  O  O10  1  0.32921900  0.28209800  0.36627300  1
  O  O11  1  0.28209800  0.32921900  0.86627300  1
  O  O12  1  0.94192000  0.05808000  0.75000000  1
  O  O13  1  0.05808000  0.94192000  0.25000000  1
