# generated using pymatgen
data_Y2Al3Ga3(BO3)8
_symmetry_space_group_name_H-M   'P 1'
_cell_length_a   5.98409700
_cell_length_b   6.00002128
_cell_length_c   11.30397080
_cell_angle_alpha   98.23334229
_cell_angle_beta   98.05324222
_cell_angle_gamma   104.12767599
_symmetry_Int_Tables_number   1
_chemical_formula_structural   Y2Al3Ga3(BO3)8
_chemical_formula_sum   'Y2 Al3 Ga3 B8 O24'
_cell_volume   382.99966919
_cell_formula_units_Z   1
loop_
 _symmetry_equiv_pos_site_id
 _symmetry_equiv_pos_as_xyz
  1  'x, y, z'
loop_
 _atom_site_type_symbol
 _atom_site_label
 _atom_site_symmetry_multiplicity
 _atom_site_fract_x
 _atom_site_fract_y
 _atom_site_fract_z
 _atom_site_occupancy
  Y  Y0  1  0.99993100  0.99967400  0.99989300  1
  Y  Y1  1  0.49983400  0.49996700  0.49995200  1
  Al  Al2  1  0.44628300  0.55404900  0.99905400  1
  Al  Al3  1  0.33083400  0.77584000  0.77804100  1
  Al  Al4  1  0.82969500  0.27645400  0.27620000  1
  Ga  Ga5  1  0.72283600  0.17234500  0.72521800  1
  Ga  Ga6  1  0.22355200  0.67100800  0.22327500  1
  Ga  Ga7  1  0.94820300  0.05176500  0.49891800  1
  B  B8  1  0.02850300  0.58173400  0.52814500  1
  B  B9  1  0.52756900  0.08372400  0.02765300  1
  B  B10  1  0.80590700  0.69600900  0.75027500  1
  B  B11  1  0.30609200  0.19618500  0.25000100  1
  B  B12  1  0.91697100  0.47355500  0.97316400  1
  B  B13  1  0.41852400  0.97246800  0.47257100  1
  B  B14  1  0.25182700  0.25171100  0.75247300  1
  B  B15  1  0.74891300  0.74890000  0.24787400  1
  O  O16  1  0.45390000  0.86216100  0.95407800  1
  O  O17  1  0.95550700  0.36556200  0.45070400  1
  O  O18  1  0.65368300  0.83713400  0.75289600  1
  O  O19  1  0.15401000  0.33750600  0.25190700  1
  O  O20  1  0.63729300  0.04562700  0.54583200  1
  O  O21  1  0.14088000  0.54739900  0.04230100  1
  O  O22  1  0.23557500  0.63648100  0.61028600  1
  O  O23  1  0.73575400  0.13747000  0.10966100  1
  O  O24  1  0.71297200  0.47284200  0.68314900  1
  O  O25  1  0.21368200  0.97314800  0.18274000  1
  O  O26  1  0.76766300  0.61316700  0.98612300  1
  O  O27  1  0.27560100  0.11889000  0.48414400  1
  O  O28  1  0.88176000  0.72560600  0.51516200  1
  O  O29  1  0.38748100  0.23368400  0.01313700  1
  O  O30  1  0.86415300  0.26061900  0.89590200  1
  O  O31  1  0.36472500  0.76085100  0.39510200  1
  O  O32  1  0.03197100  0.78507600  0.81339500  1
  O  O33  1  0.53225700  0.28583200  0.31297300  1
  O  O34  1  0.32678700  0.47338400  0.82495200  1
  O  O35  1  0.82123900  0.97204300  0.31843700  1
  O  O36  1  0.39138200  0.09765400  0.75247500  1
  O  O37  1  0.89132900  0.59794200  0.25230000  1
  O  O38  1  0.03308500  0.17998700  0.67808500  1
  O  O39  1  0.53183700  0.67454900  0.17155500  1
