# generated using pymatgen
data_Y4FeS7
_symmetry_space_group_name_H-M   'P 1'
_cell_length_a   6.48867712
_cell_length_b   6.48867712
_cell_length_c   11.38308508
_cell_angle_alpha   76.15822612
_cell_angle_beta   76.15822612
_cell_angle_gamma   33.96058223
_symmetry_Int_Tables_number   1
_chemical_formula_structural   Y4FeS7
_chemical_formula_sum   'Y4 Fe1 S7'
_cell_volume   259.21452642
_cell_formula_units_Z   1
loop_
 _symmetry_equiv_pos_site_id
 _symmetry_equiv_pos_as_xyz
  1  'x, y, z'
loop_
 _atom_site_type_symbol
 _atom_site_label
 _atom_site_symmetry_multiplicity
 _atom_site_fract_x
 _atom_site_fract_y
 _atom_site_fract_z
 _atom_site_occupancy
  Y  Y0  1  0.69345800  0.69345800  0.20827200  1
  Y  Y1  1  0.30653800  0.30653800  0.80030300  1
  Y  Y2  1  0.99935100  0.99935100  0.00713900  1
  Y  Y3  1  0.11185700  0.11185700  0.56267200  1
  Fe  Fe4  1  0.88896100  0.88896100  0.42494100  1
  S  S5  1  0.74612700  0.74612700  0.63590500  1
  S  S6  1  0.27172400  0.27172400  0.35403300  1
  S  S7  1  0.33754000  0.33754000  0.05204100  1
  S  S8  1  0.65990200  0.65990200  0.94849600  1
  S  S9  1  0.03080300  0.03080300  0.23012600  1
  S  S10  1  0.96462300  0.96462300  0.78347800  1
  S  S11  1  0.48911500  0.48911500  0.49259400  1
