# generated using pymatgen
data_YEr3Fe34
_symmetry_space_group_name_H-M   'P 1'
_cell_length_a   8.46459585
_cell_length_b   8.46459585
_cell_length_c   8.24604900
_cell_angle_alpha   90.00000000
_cell_angle_beta   90.00000000
_cell_angle_gamma   119.99999886
_symmetry_Int_Tables_number   1
_chemical_formula_structural   YEr3Fe34
_chemical_formula_sum   'Y1 Er3 Fe34'
_cell_volume   511.66887859
_cell_formula_units_Z   1
loop_
 _symmetry_equiv_pos_site_id
 _symmetry_equiv_pos_as_xyz
  1  'x, y, z'
loop_
 _atom_site_type_symbol
 _atom_site_label
 _atom_site_symmetry_multiplicity
 _atom_site_fract_x
 _atom_site_fract_y
 _atom_site_fract_z
 _atom_site_occupancy
  Y  Y0  1  0.33333300  0.66666700  0.50000000  1
  Er  Er1  1  0.00000000  0.00000000  0.00000000  1
  Er  Er2  1  0.66666700  0.33333300  0.00000000  1
  Er  Er3  1  0.66666700  0.33333300  0.50000000  1
  Fe  Fe4  1  0.33333300  0.66666700  0.14313100  1
  Fe  Fe5  1  0.00000000  0.00000000  0.35618500  1
  Fe  Fe6  1  0.00000000  0.00000000  0.64381500  1
  Fe  Fe7  1  0.33333300  0.66666700  0.85686900  1
  Fe  Fe8  1  0.99783800  0.49891900  0.26456600  1
  Fe  Fe9  1  0.50108100  0.49891900  0.26456600  1
  Fe  Fe10  1  0.50108100  0.00216200  0.26456600  1
  Fe  Fe11  1  0.33482400  0.16741200  0.23495600  1
  Fe  Fe12  1  0.83258800  0.16741200  0.23495600  1
  Fe  Fe13  1  0.83258800  0.66517600  0.23495600  1
  Fe  Fe14  1  0.33482400  0.16741200  0.76504400  1
  Fe  Fe15  1  0.83258800  0.16741200  0.76504400  1
  Fe  Fe16  1  0.83258800  0.66517600  0.76504400  1
  Fe  Fe17  1  0.99783800  0.49891900  0.73543400  1
  Fe  Fe18  1  0.50108100  0.49891900  0.73543400  1
  Fe  Fe19  1  0.50108100  0.00216200  0.73543400  1
  Fe  Fe20  1  0.66727800  0.83363900  0.24957900  1
  Fe  Fe21  1  0.16636100  0.83363900  0.24957900  1
  Fe  Fe22  1  0.16636100  0.33272200  0.24957900  1
  Fe  Fe23  1  0.66727800  0.83363900  0.75042100  1
  Fe  Fe24  1  0.16636100  0.83363900  0.75042100  1
  Fe  Fe25  1  0.16636100  0.33272200  0.75042100  1
  Fe  Fe26  1  0.62924800  0.66252500  0.00000000  1
  Fe  Fe27  1  0.33747500  0.96672300  0.00000000  1
  Fe  Fe28  1  0.03327700  0.37075200  0.00000000  1
  Fe  Fe29  1  0.62924800  0.96672300  0.00000000  1
  Fe  Fe30  1  0.33747500  0.37075200  0.00000000  1
  Fe  Fe31  1  0.03327700  0.66252500  0.00000000  1
  Fe  Fe32  1  0.70549100  0.00441400  0.50000000  1
  Fe  Fe33  1  0.99558600  0.70107800  0.50000000  1
  Fe  Fe34  1  0.29892200  0.29450900  0.50000000  1
  Fe  Fe35  1  0.70549100  0.70107800  0.50000000  1
  Fe  Fe36  1  0.99558600  0.29450900  0.50000000  1
  Fe  Fe37  1  0.29892200  0.00441400  0.50000000  1
