# generated using pymatgen
data_Y2Ti12(CuO4)9
_symmetry_space_group_name_H-M   'P 1'
_cell_length_a   6.44781374
_cell_length_b   10.50053004
_cell_length_c   10.50053004
_cell_angle_alpha   60.00000000
_cell_angle_beta   90.00000000
_cell_angle_gamma   90.00000000
_symmetry_Int_Tables_number   1
_chemical_formula_structural   Y2Ti12(CuO4)9
_chemical_formula_sum   'Y2 Ti12 Cu9 O36'
_cell_volume   615.69490392
_cell_formula_units_Z   1
loop_
 _symmetry_equiv_pos_site_id
 _symmetry_equiv_pos_as_xyz
  1  'x, y, z'
loop_
 _atom_site_type_symbol
 _atom_site_label
 _atom_site_symmetry_multiplicity
 _atom_site_fract_x
 _atom_site_fract_y
 _atom_site_fract_z
 _atom_site_occupancy
  Y  Y0  1  0.00472200  0.00000000  0.00000000  1
  Y  Y1  1  0.66194500  0.33333300  0.33333300  1
  Ti  Ti2  1  0.83333300  0.16666700  0.16666700  1
  Ti  Ti3  1  0.49682900  0.50602800  0.50841900  1
  Ti  Ti4  1  0.16983800  0.82730500  0.82491400  1
  Ti  Ti5  1  0.17398200  0.33333300  0.33333300  1
  Ti  Ti6  1  0.83333300  0.66666700  0.66666700  1
  Ti  Ti7  1  0.49268500  0.00000000  0.00000000  1
  Ti  Ti8  1  0.49682900  0.50841900  0.98555300  1
  Ti  Ti9  1  0.16983800  0.82491400  0.34778000  1
  Ti  Ti10  1  0.83333300  0.16666700  0.66666700  1
  Ti  Ti11  1  0.16983800  0.34778000  0.82730500  1
  Ti  Ti12  1  0.83333300  0.66666700  0.16666700  1
  Ti  Ti13  1  0.49682900  0.98555300  0.50602800  1
  Cu  Cu14  1  0.99624500  0.49889800  0.49887100  1
  Cu  Cu15  1  0.67042200  0.83443500  0.83446200  1
  Cu  Cu16  1  0.33333300  0.16666700  0.16666700  1
  Cu  Cu17  1  0.67042200  0.33110100  0.83443500  1
  Cu  Cu18  1  0.33333300  0.66666700  0.16666700  1
  Cu  Cu19  1  0.99624500  0.00223200  0.49889800  1
  Cu  Cu20  1  0.33333300  0.16666700  0.66666700  1
  Cu  Cu21  1  0.99624500  0.49887100  0.00223200  1
  Cu  Cu22  1  0.67042200  0.83446200  0.33110100  1
  O  O23  1  0.24570100  0.44194500  0.62281700  1
  O  O24  1  0.91856500  0.78458400  0.95905500  1
  O  O25  1  0.58386900  0.11779200  0.29220400  1
  O  O26  1  0.35100800  0.35012200  0.17597700  1
  O  O27  1  0.00396500  0.68406700  0.50256300  1
  O  O28  1  0.68636500  0.01648200  0.84294300  1
  O  O29  1  0.98030200  0.31685100  0.49039000  1
  O  O30  1  0.66270100  0.64926700  0.83077100  1
  O  O31  1  0.31565900  0.98321100  0.15735600  1
  O  O32  1  0.08279700  0.21554200  0.04113000  1
  O  O33  1  0.74810200  0.54874900  0.37427800  1
  O  O34  1  0.42096600  0.89138800  0.71051600  1
  O  O35  1  0.42096600  0.39809500  0.89138800  1
  O  O36  1  0.08279700  0.74332900  0.21554200  1
  O  O37  1  0.74810200  0.07697300  0.54874900  1
  O  O38  1  0.66270100  0.51996300  0.64926700  1
  O  O39  1  0.31565900  0.85943300  0.98321100  1
  O  O40  1  0.98030200  0.19275800  0.31685100  1
  O  O41  1  0.68636500  0.14057500  0.01648200  1
  O  O42  1  0.35100800  0.47390000  0.35012200  1
  O  O43  1  0.00396500  0.81337100  0.68406700  1
  O  O44  1  0.91856500  0.25636000  0.78458400  1
  O  O45  1  0.58386900  0.59000500  0.11779200  1
  O  O46  1  0.24570100  0.93523800  0.44194500  1
  O  O47  1  0.00396500  0.50256300  0.81337100  1
  O  O48  1  0.68636500  0.84294300  0.14057500  1
  O  O49  1  0.35100800  0.17597700  0.47390000  1
  O  O50  1  0.58386900  0.29220400  0.59000500  1
  O  O51  1  0.24570100  0.62281700  0.93523800  1
  O  O52  1  0.91856500  0.95905500  0.25636000  1
  O  O53  1  0.74810200  0.37427800  0.07697300  1
  O  O54  1  0.42096600  0.71051600  0.39809500  1
  O  O55  1  0.08279700  0.04113000  0.74332900  1
  O  O56  1  0.31565900  0.15735600  0.85943300  1
  O  O57  1  0.98030200  0.49039000  0.19275800  1
  O  O58  1  0.66270100  0.83077100  0.51996300  1
