# generated using pymatgen
data_WNO
_symmetry_space_group_name_H-M   'P 1'
_cell_length_a   5.12372964
_cell_length_b   5.12372964
_cell_length_c   5.12372950
_cell_angle_alpha   36.34224972
_cell_angle_beta   36.34224972
_cell_angle_gamma   36.34223864
_symmetry_Int_Tables_number   1
_chemical_formula_structural   WNO
_chemical_formula_sum   'W1 N1 O1'
_cell_volume   42.27650750
_cell_formula_units_Z   1
loop_
 _symmetry_equiv_pos_site_id
 _symmetry_equiv_pos_as_xyz
  1  'x, y, z'
loop_
 _atom_site_type_symbol
 _atom_site_label
 _atom_site_symmetry_multiplicity
 _atom_site_fract_x
 _atom_site_fract_y
 _atom_site_fract_z
 _atom_site_occupancy
  W  W0  1  0.99476100  0.99476100  0.99476100  1
  N  N1  1  0.26926300  0.26926300  0.26926300  1
  O  O2  1  0.73597700  0.73597700  0.73597700  1
