# generated using pymatgen
data_VRe11B4
_symmetry_space_group_name_H-M   'P 1'
_cell_length_a   4.89740298
_cell_length_b   4.89740298
_cell_length_c   14.63330600
_cell_angle_alpha   90.00000000
_cell_angle_beta   90.00000000
_cell_angle_gamma   145.14922113
_symmetry_Int_Tables_number   1
_chemical_formula_structural   VRe11B4
_chemical_formula_sum   'V1 Re11 B4'
_cell_volume   200.56059333
_cell_formula_units_Z   1
loop_
 _symmetry_equiv_pos_site_id
 _symmetry_equiv_pos_as_xyz
  1  'x, y, z'
loop_
 _atom_site_type_symbol
 _atom_site_label
 _atom_site_symmetry_multiplicity
 _atom_site_fract_x
 _atom_site_fract_y
 _atom_site_fract_z
 _atom_site_occupancy
  V  V0  1  0.57117400  0.42882600  0.00000000  1
  Re  Re1  1  0.86489700  0.13510300  0.09215000  1
  Re  Re2  1  0.86662600  0.13337400  0.59274400  1
  Re  Re3  1  0.13715100  0.86284900  0.15172600  1
  Re  Re4  1  0.13417800  0.86582200  0.65871300  1
  Re  Re5  1  0.86489700  0.13510300  0.90785000  1
  Re  Re6  1  0.86662600  0.13337400  0.40725600  1
  Re  Re7  1  0.13417800  0.86582200  0.34128700  1
  Re  Re8  1  0.13715100  0.86284900  0.84827400  1
  Re  Re9  1  0.57681700  0.42318300  0.50000000  1
  Re  Re10  1  0.42611900  0.57388100  0.24843600  1
  Re  Re11  1  0.42611900  0.57388100  0.75156400  1
  B  B12  1  0.25000600  0.74999400  0.00000000  1
  B  B13  1  0.25478800  0.74521200  0.50000000  1
  B  B14  1  0.74463600  0.25536400  0.24912000  1
  B  B15  1  0.74463600  0.25536400  0.75088000  1
