# generated using pymatgen
data_Y9Er3Al20O48
_symmetry_space_group_name_H-M   'P 1'
_cell_length_a   10.50106368
_cell_length_b   10.50106368
_cell_length_c   12.12198348
_cell_angle_alpha   54.74414315
_cell_angle_beta   54.74414315
_cell_angle_gamma   70.52642792
_symmetry_Int_Tables_number   1
_chemical_formula_structural   Y9Er3Al20O48
_chemical_formula_sum   'Y9 Er3 Al20 O48'
_cell_volume   891.33395480
_cell_formula_units_Z   1
loop_
 _symmetry_equiv_pos_site_id
 _symmetry_equiv_pos_as_xyz
  1  'x, y, z'
loop_
 _atom_site_type_symbol
 _atom_site_label
 _atom_site_symmetry_multiplicity
 _atom_site_fract_x
 _atom_site_fract_y
 _atom_site_fract_z
 _atom_site_occupancy
  Y  Y0  1  0.62486600  0.37513400  0.00000000  1
  Y  Y1  1  0.62504200  0.12482600  0.87486200  1
  Y  Y2  1  0.87517400  0.37495800  0.12513800  1
  Y  Y3  1  0.75003100  0.74996300  0.37504300  1
  Y  Y4  1  0.25003700  0.24996900  0.62495700  1
  Y  Y5  1  0.12507300  0.87492700  0.00000000  1
  Y  Y6  1  0.37493000  0.62507000  0.50000000  1
  Y  Y7  1  0.37495500  0.87498300  0.62503500  1
  Y  Y8  1  0.12501700  0.62504500  0.37496500  1
  Er  Er9  1  0.24967700  0.24992100  0.12529000  1
  Er  Er10  1  0.75007900  0.75032300  0.87471000  1
  Er  Er11  1  0.87516200  0.12483800  0.50000000  1
  Al  Al12  1  0.24961600  0.24985600  0.37461800  1
  Al  Al13  1  0.75014400  0.75038400  0.62538200  1
  Al  Al14  1  0.62556500  0.37443500  0.50000000  1
  Al  Al15  1  0.87492900  0.12507100  0.00000000  1
  Al  Al16  1  0.37519600  0.87516500  0.12479000  1
  Al  Al17  1  0.12483500  0.62480400  0.87521000  1
  Al  Al18  1  0.75001200  0.75006400  0.12440800  1
  Al  Al19  1  0.24993600  0.24998800  0.87559200  1
  Al  Al20  1  0.37516300  0.62483700  0.00000000  1
  Al  Al21  1  0.12425400  0.87574600  0.50000000  1
  Al  Al22  1  0.62524800  0.12500300  0.37511800  1
  Al  Al23  1  0.87499700  0.37475200  0.62488200  1
  Al  Al24  1  0.00016200  0.00038200  0.25029800  1
  Al  Al25  1  0.49966100  0.49970800  0.75055100  1
  Al  Al26  1  0.99961800  0.99983800  0.74970200  1
  Al  Al27  1  0.50029200  0.50033900  0.24944900  1
  Al  Al28  1  0.00027500  0.49922800  0.25008900  1
  Al  Al29  1  0.50077200  0.99972500  0.74991100  1
  Al  Al30  1  0.49955800  0.00031600  0.24984500  1
  Al  Al31  1  0.99968400  0.50044200  0.75015500  1
  O  O32  1  0.09850800  0.29877300  0.33106200  1
  O  O33  1  0.40040600  0.20023300  0.22935100  1
  O  O34  1  0.70122700  0.90149200  0.66893800  1
  O  O35  1  0.79976700  0.59959400  0.77064900  1
  O  O36  1  0.62002700  0.17955700  0.65059400  1
  O  O37  1  0.82044300  0.37997300  0.34940600  1
  O  O38  1  0.68018700  0.11818200  0.05006100  1
  O  O39  1  0.88181800  0.31981300  0.94993900  1
  O  O40  1  0.41726300  0.02071400  0.13161600  1
  O  O41  1  0.52071300  0.91741000  0.93030600  1
  O  O42  1  0.08259000  0.47928700  0.06969400  1
  O  O43  1  0.97928600  0.58273700  0.86838400  1
  O  O44  1  0.90129200  0.69953300  0.16840800  1
  O  O45  1  0.59858700  0.80024600  0.26944400  1
  O  O46  1  0.30046700  0.09870800  0.83159200  1
  O  O47  1  0.19975400  0.40141300  0.73055600  1
  O  O48  1  0.38185000  0.81980400  0.84853300  1
  O  O49  1  0.18019600  0.61815000  0.15146700  1
  O  O50  1  0.31959100  0.88178600  0.44995700  1
  O  O51  1  0.11821400  0.68040900  0.55004300  1
  O  O52  1  0.58147700  0.98050800  0.36817800  1
  O  O53  1  0.48037600  0.08138100  0.57003700  1
  O  O54  1  0.91861900  0.51962400  0.42996300  1
  O  O55  1  0.01949200  0.41852300  0.63182200  1
  O  O56  1  0.91855700  0.98054200  0.15143100  1
  O  O57  1  0.01945800  0.08144300  0.84856900  1
  O  O58  1  0.58152200  0.51935900  0.55038700  1
  O  O59  1  0.48064100  0.41847800  0.44961300  1
  O  O60  1  0.59866000  0.69983800  0.63196900  1
  O  O61  1  0.90143200  0.80021600  0.43028100  1
  O  O62  1  0.19978400  0.09856800  0.56971900  1
  O  O63  1  0.30016200  0.40134000  0.36803100  1
  O  O64  1  0.11822100  0.81984700  0.83147300  1
  O  O65  1  0.31984800  0.61828100  0.73025900  1
  O  O66  1  0.18015300  0.88177900  0.16852700  1
  O  O67  1  0.38171900  0.68015200  0.26974100  1
  O  O68  1  0.08099600  0.02162300  0.34867900  1
  O  O69  1  0.97837700  0.91900400  0.65132100  1
  O  O70  1  0.41739200  0.47926200  0.95104500  1
  O  O71  1  0.52073800  0.58260800  0.04895500  1
  O  O72  1  0.40062400  0.29977900  0.87004600  1
  O  O73  1  0.09943800  0.20012200  0.07053700  1
  O  O74  1  0.79987800  0.90056200  0.92946300  1
  O  O75  1  0.70022100  0.59937600  0.12995400  1
  O  O76  1  0.88174600  0.18028200  0.66722900  1
  O  O77  1  0.68029600  0.38169100  0.76969900  1
  O  O78  1  0.81971800  0.11825400  0.33277100  1
  O  O79  1  0.61830900  0.31970400  0.23030100  1
