# generated using pymatgen
data_Zn2Fe3Cu10(SnSe4)5
_symmetry_space_group_name_H-M   'P 1'
_cell_length_a   15.78931095
_cell_length_b   15.78931095
_cell_length_c   15.78931095
_cell_angle_alpha   158.97901786
_cell_angle_beta   137.63727524
_cell_angle_gamma   47.75184307
_symmetry_Int_Tables_number   1
_chemical_formula_structural   Zn2Fe3Cu10(SnSe4)5
_chemical_formula_sum   'Zn2 Fe3 Cu10 Sn5 Se20'
_cell_volume   948.97030346
_cell_formula_units_Z   1
loop_
 _symmetry_equiv_pos_site_id
 _symmetry_equiv_pos_as_xyz
  1  'x, y, z'
loop_
 _atom_site_type_symbol
 _atom_site_label
 _atom_site_symmetry_multiplicity
 _atom_site_fract_x
 _atom_site_fract_y
 _atom_site_fract_z
 _atom_site_occupancy
  Zn  Zn0  1  0.70000200  0.70000200  0.00000000  1
  Zn  Zn1  1  0.29999800  0.29999800  0.00000000  1
  Fe  Fe2  1  0.90010900  0.90010900  0.00000000  1
  Fe  Fe3  1  0.50000000  0.50000000  0.00000000  1
  Fe  Fe4  1  0.09989100  0.09989100  0.00000000  1
  Cu  Cu5  1  0.44947700  0.19898500  0.24871900  1
  Cu  Cu6  1  0.24978200  0.00000000  0.24978200  1
  Cu  Cu7  1  0.85032300  0.59865800  0.24913400  1
  Cu  Cu8  1  0.04973400  0.80101500  0.25049300  1
  Cu  Cu9  1  0.65047600  0.40134200  0.25166500  1
  Cu  Cu10  1  0.34952400  0.60118900  0.75086600  1
  Cu  Cu11  1  0.14967700  0.39881100  0.74833500  1
  Cu  Cu12  1  0.75021800  0.00000000  0.75021800  1
  Cu  Cu13  1  0.95026600  0.20075900  0.75128100  1
  Cu  Cu14  1  0.55052300  0.79924100  0.74950700  1
  Sn  Sn15  1  0.59966700  0.09966700  0.50000000  1
  Sn  Sn16  1  0.40033300  0.90033300  0.50000000  1
  Sn  Sn17  1  0.00000000  0.50000000  0.50000000  1
  Sn  Sn18  1  0.19978200  0.69978200  0.50000000  1
  Sn  Sn19  1  0.80021800  0.30021800  0.50000000  1
  Se  Se20  1  0.41339600  0.77804100  0.09874600  1
  Se  Se21  1  0.01388800  0.37853300  0.09962000  1
  Se  Se22  1  0.61179900  0.98612400  0.10256800  1
  Se  Se23  1  0.21193000  0.58617000  0.10243400  1
  Se  Se24  1  0.81316100  0.17761500  0.09808400  1
  Se  Se25  1  0.51626400  0.41383000  0.62576000  1
  Se  Se26  1  0.11644400  0.01387600  0.62567500  1
  Se  Se27  1  0.72108700  0.62146700  0.63535500  1
  Se  Se28  1  0.32070600  0.22195900  0.63535500  1
  Se  Se29  1  0.92046800  0.82238500  0.63554600  1
  Se  Se30  1  0.27891300  0.91426800  0.90038000  1
  Se  Se31  1  0.88355600  0.50923100  0.89743200  1
  Se  Se32  1  0.48373600  0.10949600  0.89756600  1
  Se  Se33  1  0.07953200  0.71507700  0.90191600  1
  Se  Se34  1  0.67929400  0.31465000  0.90125400  1
  Se  Se35  1  0.38820100  0.49076900  0.37432500  1
  Se  Se36  1  0.98611300  0.08573200  0.36464500  1
  Se  Se37  1  0.58660400  0.68535000  0.36464500  1
  Se  Se38  1  0.18683900  0.28492300  0.36445400  1
  Se  Se39  1  0.78807000  0.89050400  0.37424000  1
