# generated using pymatgen
data_W2CO
_symmetry_space_group_name_H-M   'P 1'
_cell_length_a   3.01550100
_cell_length_b   3.03662000
_cell_length_c   5.09183600
_cell_angle_alpha   90.00000000
_cell_angle_beta   90.00000000
_cell_angle_gamma   90.00000000
_symmetry_Int_Tables_number   1
_chemical_formula_structural   W2CO
_chemical_formula_sum   'W2 C1 O1'
_cell_volume   46.62558912
_cell_formula_units_Z   1
loop_
 _symmetry_equiv_pos_site_id
 _symmetry_equiv_pos_as_xyz
  1  'x, y, z'
loop_
 _atom_site_type_symbol
 _atom_site_label
 _atom_site_symmetry_multiplicity
 _atom_site_fract_x
 _atom_site_fract_y
 _atom_site_fract_z
 _atom_site_occupancy
  W  W0  1  0.50000000  0.00000000  0.98500600  1
  W  W1  1  0.00000000  0.00000000  0.51410500  1
  C  C2  1  0.00000000  0.50000000  0.83370100  1
  O  O3  1  0.50000000  0.50000000  0.33388800  1
