# generated using pymatgen
data_Yb6Mn25(Cl3O10)4
_symmetry_space_group_name_H-M   'P 1'
_cell_length_a   9.70674000
_cell_length_b   9.70674000
_cell_length_c   13.70894200
_cell_angle_alpha   90.00000000
_cell_angle_beta   90.00000000
_cell_angle_gamma   90.00000000
_symmetry_Int_Tables_number   1
_chemical_formula_structural   Yb6Mn25(Cl3O10)4
_chemical_formula_sum   'Yb6 Mn25 Cl12 O40'
_cell_volume   1291.66750196
_cell_formula_units_Z   1
loop_
 _symmetry_equiv_pos_site_id
 _symmetry_equiv_pos_as_xyz
  1  'x, y, z'
loop_
 _atom_site_type_symbol
 _atom_site_label
 _atom_site_symmetry_multiplicity
 _atom_site_fract_x
 _atom_site_fract_y
 _atom_site_fract_z
 _atom_site_occupancy
  Yb  Yb0  1  0.00000000  0.00000000  0.00000000  1
  Yb  Yb1  1  0.50000000  0.50000000  0.50000000  1
  Yb  Yb2  1  0.50000000  0.00000000  0.74970200  1
  Yb  Yb3  1  0.00000000  0.50000000  0.25029800  1
  Yb  Yb4  1  0.50000000  0.00000000  0.25029800  1
  Yb  Yb5  1  0.00000000  0.50000000  0.74970200  1
  Mn  Mn6  1  0.34896400  0.00000000  0.00000000  1
  Mn  Mn7  1  0.85107900  0.50000000  0.50000000  1
  Mn  Mn8  1  0.17774900  0.82225100  0.82755600  1
  Mn  Mn9  1  0.67249500  0.32750500  0.32275000  1
  Mn  Mn10  1  0.17774900  0.17774900  0.82755600  1
  Mn  Mn11  1  0.67249500  0.67249500  0.32275000  1
  Mn  Mn12  1  0.50000000  0.14892100  0.50000000  1
  Mn  Mn13  1  0.00000000  0.65103600  0.00000000  1
  Mn  Mn14  1  0.67249500  0.32750500  0.67725000  1
  Mn  Mn15  1  0.17774900  0.82225100  0.17244400  1
  Mn  Mn16  1  0.32750500  0.32750500  0.67725000  1
  Mn  Mn17  1  0.82225100  0.82225100  0.17244400  1
  Mn  Mn18  1  0.50000000  0.85107900  0.50000000  1
  Mn  Mn19  1  0.00000000  0.34896400  0.00000000  1
  Mn  Mn20  1  0.32750500  0.67249500  0.67725000  1
  Mn  Mn21  1  0.82225100  0.17774900  0.17244400  1
  Mn  Mn22  1  0.67249500  0.67249500  0.67725000  1
  Mn  Mn23  1  0.17774900  0.17774900  0.17244400  1
  Mn  Mn24  1  0.65103600  0.00000000  0.00000000  1
  Mn  Mn25  1  0.14892100  0.50000000  0.50000000  1
  Mn  Mn26  1  0.32750500  0.67249500  0.32275000  1
  Mn  Mn27  1  0.82225100  0.17774900  0.82755600  1
  Mn  Mn28  1  0.32750500  0.32750500  0.32275000  1
  Mn  Mn29  1  0.82225100  0.82225100  0.82755600  1
  Mn  Mn30  1  0.00000000  0.00000000  0.50000000  1
  Cl  Cl31  1  0.00000000  0.00000000  0.69480900  1
  Cl  Cl32  1  0.50000000  0.50000000  0.21809500  1
  Cl  Cl33  1  0.80185200  0.80185200  0.50000000  1
  Cl  Cl34  1  0.28127400  0.28127400  0.00000000  1
  Cl  Cl35  1  0.80185200  0.19814800  0.50000000  1
  Cl  Cl36  1  0.28127400  0.71872600  0.00000000  1
  Cl  Cl37  1  0.00000000  0.00000000  0.30519100  1
  Cl  Cl38  1  0.50000000  0.50000000  0.78190500  1
  Cl  Cl39  1  0.19814800  0.19814800  0.50000000  1
  Cl  Cl40  1  0.71872600  0.71872600  0.00000000  1
  Cl  Cl41  1  0.19814800  0.80185200  0.50000000  1
  Cl  Cl42  1  0.71872600  0.28127400  0.00000000  1
  O  O43  1  0.50000000  0.00000000  0.91260000  1
  O  O44  1  0.00000000  0.50000000  0.41224900  1
  O  O45  1  0.33900600  0.83605900  0.75104400  1
  O  O46  1  0.83605900  0.33900600  0.24895600  1
  O  O47  1  0.33900600  0.16394100  0.75104400  1
  O  O48  1  0.83605900  0.66099400  0.24895600  1
  O  O49  1  0.50000000  0.00000000  0.58775100  1
  O  O50  1  0.00000000  0.50000000  0.08740000  1
  O  O51  1  0.66099400  0.16394100  0.75104400  1
  O  O52  1  0.16394100  0.66099400  0.24895600  1
  O  O53  1  0.66099400  0.83605900  0.75104400  1
  O  O54  1  0.16394100  0.33900600  0.24895600  1
  O  O55  1  0.50000000  0.00000000  0.08740000  1
  O  O56  1  0.00000000  0.50000000  0.58775100  1
  O  O57  1  0.66099400  0.16394100  0.24895600  1
  O  O58  1  0.16394100  0.66099400  0.75104400  1
  O  O59  1  0.66099400  0.83605900  0.24895600  1
  O  O60  1  0.16394100  0.33900600  0.75104400  1
  O  O61  1  0.50000000  0.00000000  0.41224900  1
  O  O62  1  0.00000000  0.50000000  0.91260000  1
  O  O63  1  0.33900600  0.83605900  0.24895600  1
  O  O64  1  0.83605900  0.33900600  0.75104400  1
  O  O65  1  0.33900600  0.16394100  0.24895600  1
  O  O66  1  0.83605900  0.66099400  0.75104400  1
  O  O67  1  0.20310500  0.00000000  0.89646700  1
  O  O68  1  0.70498700  0.50000000  0.39917800  1
  O  O69  1  0.50000000  0.29501300  0.60082200  1
  O  O70  1  0.00000000  0.79689500  0.10353300  1
  O  O71  1  0.50000000  0.70498700  0.60082200  1
  O  O72  1  0.00000000  0.20310500  0.10353300  1
  O  O73  1  0.79689500  0.00000000  0.89646700  1
  O  O74  1  0.29501300  0.50000000  0.39917800  1
  O  O75  1  0.79689500  0.00000000  0.10353300  1
  O  O76  1  0.29501300  0.50000000  0.60082200  1
  O  O77  1  0.50000000  0.70498700  0.39917800  1
  O  O78  1  0.00000000  0.20310500  0.89646700  1
  O  O79  1  0.50000000  0.29501300  0.39917800  1
  O  O80  1  0.00000000  0.79689500  0.89646700  1
  O  O81  1  0.20310500  0.00000000  0.10353300  1
  O  O82  1  0.70498700  0.50000000  0.60082200  1
