# generated using pymatgen
data_Y14Ge4O29F5
_symmetry_space_group_name_H-M   'P 1'
_cell_length_a   5.63765112
_cell_length_b   11.01371320
_cell_length_c   12.22723089
_cell_angle_alpha   89.95672528
_cell_angle_beta   89.98709093
_cell_angle_gamma   79.97712826
_symmetry_Int_Tables_number   1
_chemical_formula_structural   Y14Ge4O29F5
_chemical_formula_sum   'Y14 Ge4 O29 F5'
_cell_volume   747.61981067
_cell_formula_units_Z   1
loop_
 _symmetry_equiv_pos_site_id
 _symmetry_equiv_pos_as_xyz
  1  'x, y, z'
loop_
 _atom_site_type_symbol
 _atom_site_label
 _atom_site_symmetry_multiplicity
 _atom_site_fract_x
 _atom_site_fract_y
 _atom_site_fract_z
 _atom_site_occupancy
  Y  Y0  1  0.05779600  0.82800300  0.85552600  1
  Y  Y1  1  0.55392200  0.32746000  0.35241900  1
  Y  Y2  1  0.94473700  0.17210700  0.85326300  1
  Y  Y3  1  0.44412300  0.67149900  0.35497500  1
  Y  Y4  1  0.94336700  0.17193500  0.14529700  1
  Y  Y5  1  0.44435300  0.67096400  0.64507000  1
  Y  Y6  1  0.05705100  0.82837800  0.14492300  1
  Y  Y7  1  0.55668700  0.32805700  0.64489600  1
  Y  Y8  1  0.99814600  0.49918200  0.50141500  1
  Y  Y9  1  0.49575700  0.99830400  0.00247600  1
  Y  Y10  1  0.36833300  0.32589900  0.00303700  1
  Y  Y11  1  0.87492300  0.82550100  0.49962400  1
  Y  Y12  1  0.63012600  0.67524900  0.00052300  1
  Y  Y13  1  0.12663700  0.17450000  0.50225200  1
  Ge  Ge14  1  0.00021700  0.49994400  0.22062800  1
  Ge  Ge15  1  0.50001300  0.00025000  0.72114000  1
  Ge  Ge16  1  0.00000400  0.49960200  0.77908000  1
  Ge  Ge17  1  0.50011900  0.00073400  0.27922800  1
  O  O18  1  0.80936900  0.84210500  0.99945900  1
  O  O19  1  0.30885200  0.33972900  0.49961700  1
  O  O20  1  0.18730400  0.15819400  0.99974800  1
  O  O21  1  0.68919300  0.66048600  0.49980000  1
  O  O22  1  0.93268700  0.63425300  0.86167900  1
  O  O23  1  0.43123300  0.13391900  0.36214800  1
  O  O24  1  0.06375000  0.36518100  0.86121200  1
  O  O25  1  0.56077400  0.86567700  0.36186900  1
  O  O26  1  0.06302900  0.36545800  0.13838600  1
  O  O27  1  0.56080400  0.86593800  0.63863000  1
  O  O28  1  0.92855900  0.63492600  0.13936400  1
  O  O29  1  0.43273000  0.13405200  0.63791400  1
  O  O30  1  0.24060900  0.50141800  0.31778800  1
  O  O31  1  0.74096200  0.00349600  0.81755100  1
  O  O32  1  0.75892000  0.49643300  0.31756100  1
  O  O33  1  0.25840800  0.99835600  0.81705100  1
  O  O34  1  0.75918700  0.49852700  0.68214300  1
  O  O35  1  0.25845400  0.99766100  0.18292600  1
  O  O36  1  0.24075200  0.50209800  0.68209800  1
  O  O37  1  0.74053600  0.00085300  0.18220300  1
  O  O38  1  0.69477200  0.16478300  0.00170700  1
  O  O39  1  0.19292100  0.66347700  0.49995100  1
  O  O40  1  0.30399700  0.83434400  0.99991300  1
  O  O41  1  0.80330100  0.33481800  0.50044700  1
  O  O42  1  0.43230800  0.51716100  0.99947600  1
  O  O43  1  0.57629100  0.30256600  0.16699100  1
  O  O44  1  0.07930400  0.80252300  0.66955200  1
  O  O45  1  0.92432600  0.20023700  0.67067000  1
  O  O46  1  0.07892500  0.80259100  0.33055300  1
  F  F47  1  0.93960300  0.01528800  0.49883100  1
  F  F48  1  0.43092500  0.70016100  0.17360200  1
  F  F49  1  0.43145400  0.69901000  0.82723300  1
  F  F50  1  0.92859100  0.20054100  0.32788800  1
  F  F51  1  0.57086000  0.30017100  0.82826400  1
