# generated using pymatgen
data_WSeS
_symmetry_space_group_name_H-M   'P 1'
_cell_length_a   3.25759738
_cell_length_b   3.25707800
_cell_length_c   14.91631803
_cell_angle_alpha   90.00000000
_cell_angle_beta   90.00660292
_cell_angle_gamma   60.00527401
_symmetry_Int_Tables_number   1
_chemical_formula_structural   WSeS
_chemical_formula_sum   'W2 Se2 S2'
_cell_volume   137.06952467
_cell_formula_units_Z   2
loop_
 _symmetry_equiv_pos_site_id
 _symmetry_equiv_pos_as_xyz
  1  'x, y, z'
loop_
 _atom_site_type_symbol
 _atom_site_label
 _atom_site_symmetry_multiplicity
 _atom_site_fract_x
 _atom_site_fract_y
 _atom_site_fract_z
 _atom_site_occupancy
  W  W0  1  0.66674900  0.66662500  0.74231400  1
  W  W1  1  0.33325100  0.33337500  0.25768600  1
  Se  Se2  1  0.66655400  0.66672300  0.14260200  1
  Se  Se3  1  0.33344600  0.33327700  0.85739800  1
  S  S4  1  0.33329600  0.33335200  0.63926800  1
  S  S5  1  0.66670400  0.66664800  0.36073200  1
