# generated using pymatgen
data_VCu12As3S16
_symmetry_space_group_name_H-M   'P 1'
_cell_length_a   10.58424332
_cell_length_b   10.58424332
_cell_length_c   10.58424358
_cell_angle_alpha   90.07787697
_cell_angle_beta   90.07787697
_cell_angle_gamma   90.07788017
_symmetry_Int_Tables_number   1
_chemical_formula_structural   VCu12As3S16
_chemical_formula_sum   'V2 Cu24 As6 S32'
_cell_volume   1185.70937077
_cell_formula_units_Z   2
loop_
 _symmetry_equiv_pos_site_id
 _symmetry_equiv_pos_as_xyz
  1  'x, y, z'
loop_
 _atom_site_type_symbol
 _atom_site_label
 _atom_site_symmetry_multiplicity
 _atom_site_fract_x
 _atom_site_fract_y
 _atom_site_fract_z
 _atom_site_occupancy
  V  V0  1  0.49978700  0.49978700  0.49978700  1
  V  V1  1  0.99978700  0.99978700  0.99978700  1
  Cu  Cu2  1  0.49923800  0.49898900  0.24113700  1
  Cu  Cu3  1  0.75703500  0.50041900  0.50060500  1
  Cu  Cu4  1  0.49898900  0.24113700  0.49923800  1
  Cu  Cu5  1  0.24113700  0.49923800  0.49898900  1
  Cu  Cu6  1  0.50060500  0.75703500  0.50041900  1
  Cu  Cu7  1  0.50041900  0.50060500  0.75703500  1
  Cu  Cu8  1  0.74113700  0.99898900  0.99923800  1
  Cu  Cu9  1  0.00060500  0.00041900  0.25703500  1
  Cu  Cu10  1  0.99923800  0.74113700  0.99898900  1
  Cu  Cu11  1  0.99898900  0.99923800  0.74113700  1
  Cu  Cu12  1  0.00041900  0.25703500  0.00060500  1
  Cu  Cu13  1  0.25703500  0.00060500  0.00041900  1
  Cu  Cu14  1  0.49923200  0.00120700  0.25145700  1
  Cu  Cu15  1  0.75145700  0.50120700  0.99923200  1
  Cu  Cu16  1  0.00120700  0.25145700  0.49923200  1
  Cu  Cu17  1  0.25145700  0.49923200  0.00120700  1
  Cu  Cu18  1  0.99923200  0.75145700  0.50120700  1
  Cu  Cu19  1  0.50120700  0.99923200  0.75145700  1
  Cu  Cu20  1  0.75050900  0.24939700  0.24932300  1
  Cu  Cu21  1  0.24932300  0.75050900  0.24939700  1
  Cu  Cu22  1  0.24939700  0.24932300  0.75050900  1
  Cu  Cu23  1  0.74932300  0.74939700  0.25050900  1
  Cu  Cu24  1  0.74939700  0.25050900  0.74932300  1
  Cu  Cu25  1  0.25050900  0.74932300  0.74939700  1
  As  As26  1  0.00189500  0.49814500  0.25390600  1
  As  As27  1  0.75390600  0.99814500  0.50189500  1
  As  As28  1  0.49814500  0.25390600  0.00189500  1
  As  As29  1  0.25390600  0.00189500  0.49814500  1
  As  As30  1  0.50189500  0.75390600  0.99814500  1
  As  As31  1  0.99814500  0.50189500  0.75390600  1
  S  S32  1  0.87237600  0.37753600  0.12816400  1
  S  S33  1  0.87235300  0.12833200  0.37658500  1
  S  S34  1  0.62223200  0.12837500  0.12753000  1
  S  S35  1  0.12753000  0.62223200  0.12837500  1
  S  S36  1  0.12816400  0.87237600  0.37753600  1
  S  S37  1  0.37658500  0.87235300  0.12833200  1
  S  S38  1  0.12833200  0.37658500  0.87235300  1
  S  S39  1  0.12837500  0.12753000  0.62223200  1
  S  S40  1  0.37753600  0.12816400  0.87237600  1
  S  S41  1  0.87292100  0.62325200  0.86825400  1
  S  S42  1  0.86825400  0.87292100  0.62325200  1
  S  S43  1  0.62325200  0.86825400  0.87292100  1
  S  S44  1  0.62816400  0.87753600  0.37237600  1
  S  S45  1  0.87658500  0.62833200  0.37235300  1
  S  S46  1  0.62753000  0.62837500  0.12223200  1
  S  S47  1  0.62837500  0.12223200  0.62753000  1
  S  S48  1  0.87753600  0.37237600  0.62816400  1
  S  S49  1  0.62833200  0.37235300  0.87658500  1
  S  S50  1  0.37235300  0.87658500  0.62833200  1
  S  S51  1  0.12223200  0.62753000  0.62837500  1
  S  S52  1  0.37237600  0.62816400  0.87753600  1
  S  S53  1  0.36825400  0.12325200  0.37292100  1
  S  S54  1  0.12325200  0.37292100  0.36825400  1
  S  S55  1  0.37292100  0.36825400  0.12325200  1
  S  S56  1  0.62095400  0.37857300  0.37887700  1
  S  S57  1  0.37887700  0.62095400  0.37857300  1
  S  S58  1  0.37857300  0.37887700  0.62095400  1
  S  S59  1  0.62010700  0.62010700  0.62010700  1
  S  S60  1  0.87887700  0.87857300  0.12095400  1
  S  S61  1  0.87857300  0.12095400  0.87887700  1
  S  S62  1  0.12095400  0.87887700  0.87857300  1
  S  S63  1  0.12010700  0.12010700  0.12010700  1
