# generated using pymatgen
data_V3P4WO20
_symmetry_space_group_name_H-M   'P 1'
_cell_length_a   4.34788500
_cell_length_b   6.20410500
_cell_length_c   12.41339432
_cell_angle_alpha   89.97354314
_cell_angle_beta   90.00000000
_cell_angle_gamma   90.00000000
_symmetry_Int_Tables_number   1
_chemical_formula_structural   V3P4WO20
_chemical_formula_sum   'V3 P4 W1 O20'
_cell_volume   334.84798747
_cell_formula_units_Z   1
loop_
 _symmetry_equiv_pos_site_id
 _symmetry_equiv_pos_as_xyz
  1  'x, y, z'
loop_
 _atom_site_type_symbol
 _atom_site_label
 _atom_site_symmetry_multiplicity
 _atom_site_fract_x
 _atom_site_fract_y
 _atom_site_fract_z
 _atom_site_occupancy
  V  V0  1  0.21050400  0.49890800  0.25327400  1
  V  V1  1  0.21050400  0.50109200  0.74672600  1
  V  V2  1  0.78541100  0.00000000  0.50000000  1
  P  P3  1  0.49234100  0.00123200  0.25420700  1
  P  P4  1  0.49234100  0.99876800  0.74579300  1
  P  P5  1  0.50110700  0.50000000  0.50000000  1
  P  P6  1  0.48523900  0.50000000  0.00000000  1
  W  W7  1  0.78175200  0.00000000  0.00000000  1
  O  O8  1  0.83688300  0.49975400  0.24988500  1
  O  O9  1  0.83688300  0.50024600  0.75011500  1
  O  O10  1  0.15704600  0.00000000  0.50000000  1
  O  O11  1  0.18695700  0.00000000  0.00000000  1
  O  O12  1  0.29808800  0.19690200  0.22452100  1
  O  O13  1  0.29574300  0.19738100  0.72680000  1
  O  O14  1  0.29574300  0.80261900  0.27320000  1
  O  O15  1  0.29808800  0.80309800  0.77547900  1
  O  O16  1  0.29741600  0.45256900  0.40174900  1
  O  O17  1  0.29611300  0.45028000  0.90111200  1
  O  O18  1  0.29741600  0.54743100  0.59825100  1
  O  O19  1  0.29611300  0.54972000  0.09888800  1
  O  O20  1  0.70438700  0.29916600  0.52219700  1
  O  O21  1  0.70748800  0.30465500  0.02316500  1
  O  O22  1  0.70438700  0.70083400  0.47780300  1
  O  O23  1  0.70748800  0.69534500  0.97683500  1
  O  O24  1  0.70821600  0.04607100  0.34954300  1
  O  O25  1  0.70406500  0.04476300  0.84875000  1
  O  O26  1  0.70406500  0.95523700  0.15125000  1
  O  O27  1  0.70821600  0.95392900  0.65045700  1
