# generated using pymatgen
data_VCrP2
_symmetry_space_group_name_H-M   'P 1'
_cell_length_a   3.11539900
_cell_length_b   5.40467800
_cell_length_c   6.06561500
_cell_angle_alpha   90.00000000
_cell_angle_beta   90.00000000
_cell_angle_gamma   90.00000000
_symmetry_Int_Tables_number   1
_chemical_formula_structural   VCrP2
_chemical_formula_sum   'V2 Cr2 P4'
_cell_volume   102.13117817
_cell_formula_units_Z   2
loop_
 _symmetry_equiv_pos_site_id
 _symmetry_equiv_pos_as_xyz
  1  'x, y, z'
loop_
 _atom_site_type_symbol
 _atom_site_label
 _atom_site_symmetry_multiplicity
 _atom_site_fract_x
 _atom_site_fract_y
 _atom_site_fract_z
 _atom_site_occupancy
  V  V0  1  0.00000000  0.50532400  0.44171400  1
  V  V1  1  0.00000000  0.00532400  0.55828600  1
  Cr  Cr2  1  0.50000000  0.49126000  0.06072100  1
  Cr  Cr3  1  0.50000000  0.99126000  0.93927900  1
  P  P4  1  0.50000000  0.31438000  0.69297600  1
  P  P5  1  0.50000000  0.81438000  0.30702400  1
  P  P6  1  0.00000000  0.68903600  0.82335200  1
  P  P7  1  0.00000000  0.18903600  0.17664800  1
