# generated using pymatgen
data_Y6O5F8
_symmetry_space_group_name_H-M   'P 1'
_cell_length_a   5.48070600
_cell_length_b   5.60833000
_cell_length_c   33.48866900
_cell_angle_alpha   90.00000000
_cell_angle_beta   90.00000000
_cell_angle_gamma   90.00000000
_symmetry_Int_Tables_number   1
_chemical_formula_structural   Y6O5F8
_chemical_formula_sum   'Y24 O20 F32'
_cell_volume   1029.36157618
_cell_formula_units_Z   4
loop_
 _symmetry_equiv_pos_site_id
 _symmetry_equiv_pos_as_xyz
  1  'x, y, z'
loop_
 _atom_site_type_symbol
 _atom_site_label
 _atom_site_symmetry_multiplicity
 _atom_site_fract_x
 _atom_site_fract_y
 _atom_site_fract_z
 _atom_site_occupancy
  Y  Y0  1  0.29023400  0.50000000  0.50000000  1
  Y  Y1  1  0.70976600  0.00000000  0.00000000  1
  Y  Y2  1  0.71043400  0.00000000  0.50000000  1
  Y  Y3  1  0.28956600  0.50000000  0.00000000  1
  Y  Y4  1  0.70171800  0.47281100  0.58237000  1
  Y  Y5  1  0.29828200  0.02718900  0.08237000  1
  Y  Y6  1  0.70171800  0.52718900  0.41763000  1
  Y  Y7  1  0.29828200  0.97281100  0.91763000  1
  Y  Y8  1  0.29702500  0.02245300  0.41805200  1
  Y  Y9  1  0.70297500  0.47754700  0.91805200  1
  Y  Y10  1  0.29702500  0.97754700  0.58194800  1
  Y  Y11  1  0.70297500  0.52245300  0.08194800  1
  Y  Y12  1  0.29218300  0.53659300  0.66416200  1
  Y  Y13  1  0.70781700  0.96340700  0.16416200  1
  Y  Y14  1  0.29218300  0.46340700  0.33583800  1
  Y  Y15  1  0.70781700  0.03659300  0.83583800  1
  Y  Y16  1  0.71148600  0.98911200  0.33588700  1
  Y  Y17  1  0.28851400  0.51088800  0.83588700  1
  Y  Y18  1  0.71148600  0.01088800  0.66411300  1
  Y  Y19  1  0.28851400  0.48911200  0.16411300  1
  Y  Y20  1  0.72247700  0.46393400  0.74923500  1
  Y  Y21  1  0.27752300  0.03606600  0.24923500  1
  Y  Y22  1  0.72247700  0.53606600  0.25076500  1
  Y  Y23  1  0.27752300  0.96393400  0.75076500  1
  O  O24  1  0.51539800  0.72560300  0.54157600  1
  O  O25  1  0.48460200  0.77439700  0.04157600  1
  O  O26  1  0.51539800  0.27439700  0.45842400  1
  O  O27  1  0.48460200  0.22560300  0.95842400  1
  O  O28  1  0.48504000  0.77369000  0.45807200  1
  O  O29  1  0.51496000  0.72631000  0.95807200  1
  O  O30  1  0.48504000  0.22631000  0.54192800  1
  O  O31  1  0.51496000  0.27369000  0.04192800  1
  O  O32  1  0.53046900  0.75652000  0.62501700  1
  O  O33  1  0.46953100  0.74348000  0.12501700  1
  O  O34  1  0.53046900  0.24348000  0.37498300  1
  O  O35  1  0.46953100  0.25652000  0.87498300  1
  O  O36  1  0.47097000  0.74312900  0.37257600  1
  O  O37  1  0.52903000  0.75687100  0.87257600  1
  O  O38  1  0.47097000  0.25687100  0.62742400  1
  O  O39  1  0.52903000  0.24312900  0.12742400  1
  O  O40  1  0.53558100  0.74213500  0.71038200  1
  O  O41  1  0.46441900  0.75786500  0.21038200  1
  O  O42  1  0.53558100  0.25786500  0.28961800  1
  O  O43  1  0.46441900  0.24213500  0.78961800  1
  F  F44  1  0.90872400  0.38182300  0.68513100  1
  F  F45  1  0.09127600  0.11817700  0.18513100  1
  F  F46  1  0.90872400  0.61817700  0.31486900  1
  F  F47  1  0.09127600  0.88182300  0.81486900  1
  F  F48  1  0.09190600  0.10772500  0.31609800  1
  F  F49  1  0.90809400  0.39227500  0.81609800  1
  F  F50  1  0.09190600  0.89227500  0.68390200  1
  F  F51  1  0.90809400  0.60772500  0.18390200  1
  F  F52  1  0.10548200  0.59698100  0.75148200  1
  F  F53  1  0.89451800  0.90301900  0.25148200  1
  F  F54  1  0.10548200  0.40301900  0.24851800  1
  F  F55  1  0.89451800  0.09698100  0.74851800  1
  F  F56  1  0.97505900  0.33284300  0.53661000  1
  F  F57  1  0.02494100  0.16715700  0.03661000  1
  F  F58  1  0.97505900  0.66715700  0.46339000  1
  F  F59  1  0.02494100  0.83284300  0.96339000  1
  F  F60  1  0.02601000  0.16614200  0.46355700  1
  F  F61  1  0.97399000  0.33385800  0.96355700  1
  F  F62  1  0.02601000  0.83385800  0.53644300  1
  F  F63  1  0.97399000  0.66614200  0.03644300  1
  F  F64  1  0.05236400  0.63611400  0.61137100  1
  F  F65  1  0.94763600  0.86388600  0.11137100  1
  F  F66  1  0.05236400  0.36388600  0.38862900  1
  F  F67  1  0.94763600  0.13611400  0.88862900  1
  F  F68  1  0.94412700  0.87005400  0.38945800  1
  F  F69  1  0.05587300  0.62994600  0.88945800  1
  F  F70  1  0.94412700  0.12994600  0.61054200  1
  F  F71  1  0.05587300  0.37005400  0.11054200  1
  F  F72  1  0.45151000  0.75858000  0.29188300  1
  F  F73  1  0.54849000  0.74142000  0.79188300  1
  F  F74  1  0.45151000  0.24142000  0.70811700  1
  F  F75  1  0.54849000  0.25858000  0.20811700  1
