# generated using pymatgen
data_Y12Ge5S28
_symmetry_space_group_name_H-M   'P 1'
_cell_length_a   9.89711375
_cell_length_b   11.43450655
_cell_length_c   11.43821068
_cell_angle_alpha   60.32255794
_cell_angle_beta   115.63603068
_cell_angle_gamma   115.63723716
_symmetry_Int_Tables_number   1
_chemical_formula_structural   Y12Ge5S28
_chemical_formula_sum   'Y12 Ge5 S28'
_cell_volume   973.70818169
_cell_formula_units_Z   1
loop_
 _symmetry_equiv_pos_site_id
 _symmetry_equiv_pos_as_xyz
  1  'x, y, z'
loop_
 _atom_site_type_symbol
 _atom_site_label
 _atom_site_symmetry_multiplicity
 _atom_site_fract_x
 _atom_site_fract_y
 _atom_site_fract_z
 _atom_site_occupancy
  Y  Y0  1  0.23475900  0.06657200  0.29755400  1
  Y  Y1  1  0.22176700  0.53767200  0.80842100  1
  Y  Y2  1  0.65312300  0.30255500  0.57325000  1
  Y  Y3  1  0.63733300  0.81926500  0.05133200  1
  Y  Y4  1  0.12567000  0.25412400  0.52531100  1
  Y  Y5  1  0.12650300  0.76602200  0.99743400  1
  Y  Y6  1  0.77696200  0.96349100  0.69270900  1
  Y  Y7  1  0.76802300  0.43399200  0.19898900  1
  Y  Y8  1  0.36610600  0.68353700  0.44853000  1
  Y  Y9  1  0.34405900  0.19628700  0.92594400  1
  Y  Y10  1  0.86683500  0.73396300  0.49796300  1
  Y  Y11  1  0.87798600  0.24629000  0.97687900  1
  Ge  Ge12  1  0.33533200  0.91999500  0.74615700  1
  Ge  Ge13  1  0.33150600  0.42011400  0.24729600  1
  Ge  Ge14  1  0.66725200  0.00258300  0.33217700  1
  Ge  Ge15  1  0.66611200  0.50022200  0.83204000  1
  Ge  Ge16  1  0.00030700  0.76201500  0.23826800  1
  S  S17  1  0.10314300  0.75856500  0.74973300  1
  S  S18  1  0.09597400  0.26593400  0.25735000  1
  S  S19  1  0.47820200  0.79142800  0.78268900  1
  S  S20  1  0.49058100  0.30115200  0.29261000  1
  S  S21  1  0.41416500  0.95602400  0.94536500  1
  S  S22  1  0.41986600  0.45419600  0.44676200  1
  S  S23  1  0.90124100  0.99425000  0.48779300  1
  S  S24  1  0.90072400  0.49483700  0.98922100  1
  S  S25  1  0.51505000  0.96093500  0.45511400  1
  S  S26  1  0.51844100  0.46270900  0.95661900  1
  S  S27  1  0.58309300  0.80282500  0.29658500  1
  S  S28  1  0.58144500  0.30200200  0.79667500  1
  S  S29  1  0.33346000  0.11093600  0.55686700  1
  S  S30  1  0.33303800  0.61001900  0.05567800  1
  S  S31  1  0.67144700  0.69710000  0.64703400  1
  S  S32  1  0.66190100  0.18712900  0.13590900  1
  S  S33  1  0.14891800  0.77106700  0.46658800  1
  S  S34  1  0.16630400  0.26219100  0.99824300  1
  S  S35  1  0.74043200  0.08579900  0.82095900  1
  S  S36  1  0.76218500  0.60713300  0.30326000  1
  S  S37  1  0.09192200  0.04968800  0.78378100  1
  S  S38  1  0.08950600  0.57681800  0.27378500  1
  S  S39  1  0.83577100  0.25750900  0.48331000  1
  S  S40  1  0.84272600  0.75417300  0.00323500  1
  S  S41  1  0.24230300  0.91812500  0.16706100  1
  S  S42  1  0.25873300  0.43468200  0.66008400  1
  S  S43  1  0.91494500  0.95466800  0.20310200  1
  S  S44  1  0.90485100  0.46890600  0.69483400  1
