# generated using pymatgen
data_Yb20Zn30Ge31
_symmetry_space_group_name_H-M   'P 1'
_cell_length_a   4.33270998
_cell_length_b   8.23620385
_cell_length_c   46.87913937
_cell_angle_alpha   93.44280829
_cell_angle_beta   90.00000000
_cell_angle_gamma   105.24982904
_symmetry_Int_Tables_number   1
_chemical_formula_structural   Yb20Zn30Ge31
_chemical_formula_sum   'Yb20 Zn30 Ge31'
_cell_volume   1610.85092215
_cell_formula_units_Z   1
loop_
 _symmetry_equiv_pos_site_id
 _symmetry_equiv_pos_as_xyz
  1  'x, y, z'
loop_
 _atom_site_type_symbol
 _atom_site_label
 _atom_site_symmetry_multiplicity
 _atom_site_fract_x
 _atom_site_fract_y
 _atom_site_fract_z
 _atom_site_occupancy
  Yb  Yb0  1  0.60124505  0.20249011  0.98180918  1
  Yb  Yb1  1  0.40239553  0.80479107  0.58193616  1
  Yb  Yb2  1  0.00226919  0.00453839  0.78196032  1
  Yb  Yb3  1  0.20112275  0.40224551  0.18341800  1
  Yb  Yb4  1  0.80253423  0.60506846  0.38198289  1
  Yb  Yb5  1  0.79746577  0.59493154  0.81801711  1
  Yb  Yb6  1  0.59773081  0.19546161  0.41803968  1
  Yb  Yb7  1  0.19760447  0.39520893  0.61806384  1
  Yb  Yb8  1  0.39887725  0.79775449  0.01658200  1
  Yb  Yb9  1  0.99875495  0.99750989  0.21819082  1
  Yb  Yb10  1  0.00537575  0.01075150  0.86646795  1
  Yb  Yb11  1  0.80497494  0.60994988  0.46626326  1
  Yb  Yb12  1  0.40508524  0.81017047  0.66630095  1
  Yb  Yb13  1  0.60801989  0.21603978  0.06538518  1
  Yb  Yb14  1  0.20494497  0.40988994  0.26631623  1
  Yb  Yb15  1  0.39505503  0.79011006  0.93368377  1
  Yb  Yb16  1  0.19491476  0.38982953  0.53369905  1
  Yb  Yb17  1  0.79502506  0.59005012  0.73373674  1
  Yb  Yb18  1  0.99198011  0.98396022  0.13461482  1
  Yb  Yb19  1  0.59462425  0.18924850  0.33353205  1
  Zn  Zn20  1  0.80829912  0.61659823  0.97848534  1
  Zn  Zn21  1  0.60832243  0.21664486  0.57982597  1
  Zn  Zn22  1  0.20829842  0.41659683  0.77984774  1
  Zn  Zn23  1  0.40979472  0.81958945  0.18168127  1
  Zn  Zn24  1  0.00830378  0.01660756  0.37978828  1
  Zn  Zn25  1  0.59169622  0.18339244  0.82021172  1
  Zn  Zn26  1  0.39170158  0.78340317  0.42015226  1
  Zn  Zn27  1  0.99167757  0.98335514  0.62017403  1
  Zn  Zn28  1  0.19020528  0.38041055  0.01831873  1
  Zn  Zn29  1  0.79170088  0.58340177  0.22151466  1
  Zn  Zn30  1  0.72097973  0.44195945  0.92831515  1
  Zn  Zn31  1  0.52232134  0.04464269  0.52852924  1
  Zn  Zn32  1  0.12232376  0.24464753  0.72856823  1
  Zn  Zn33  1  0.32849847  0.65699693  0.13300905  1
  Zn  Zn34  1  0.92238636  0.84477272  0.32853779  1
  Zn  Zn35  1  0.67761364  0.35522728  0.87146221  1
  Zn  Zn36  1  0.47767624  0.95535247  0.47143177  1
  Zn  Zn37  1  0.07767866  0.15535731  0.67147076  1
  Zn  Zn38  1  0.27150153  0.54300307  0.06699095  1
  Zn  Zn39  1  0.87902027  0.75804055  0.27168485  1
  Zn  Zn40  1  0.06878103  0.13756205  0.93486999  1
  Zn  Zn41  1  0.86824661  0.73649322  0.53490282  1
  Zn  Zn42  1  0.46814201  0.93628402  0.73493311  1
  Zn  Zn43  1  0.66172111  0.32344221  0.13647598  1
  Zn  Zn44  1  0.26826209  0.53652419  0.33483183  1
  Zn  Zn45  1  0.33173791  0.66347581  0.86516817  1
  Zn  Zn46  1  0.13185799  0.26371598  0.46506689  1
  Zn  Zn47  1  0.73175339  0.46350678  0.66509718  1
  Zn  Zn48  1  0.93827889  0.87655779  0.06352402  1
  Zn  Zn49  1  0.53121897  0.06243795  0.26513001  1
  Ge  Ge50  1  0.83393875  0.66787750  0.89230954  1
  Ge  Ge51  1  0.63390518  0.26781036  0.49216058  1
  Ge  Ge52  1  0.23398985  0.46797969  0.69223800  1
  Ge  Ge53  1  0.43658253  0.87316507  0.09286213  1
  Ge  Ge54  1  0.03437473  0.06874947  0.29222591  1
  Ge  Ge55  1  0.56562527  0.13125053  0.90777409  1
  Ge  Ge56  1  0.36601015  0.73202031  0.50776200  1
  Ge  Ge57  1  0.96609482  0.93218964  0.70783942  1
  Ge  Ge58  1  0.16341747  0.32683493  0.10713787  1
  Ge  Ge59  1  0.76606125  0.53212250  0.30769046  1
  Ge  Ge60  1  0.17624138  0.35248276  0.83512480  1
  Ge  Ge61  1  0.97614862  0.95229725  0.43509167  1
  Ge  Ge62  1  0.57619279  0.15238557  0.63514593  1
  Ge  Ge63  1  0.77747536  0.55495072  0.03375402  1
  Ge  Ge64  1  0.37566962  0.75133924  0.23495586  1
  Ge  Ge65  1  0.22433038  0.44866076  0.96504414  1
  Ge  Ge66  1  0.02380721  0.04761443  0.56485407  1
  Ge  Ge67  1  0.62385138  0.24770275  0.76490833  1
  Ge  Ge68  1  0.82252464  0.64504928  0.16624598  1
  Ge  Ge69  1  0.42375862  0.84751724  0.36487520  1
  Ge  Ge70  1  0.96492429  0.92984859  0.97509278  1
  Ge  Ge71  1  0.76508308  0.53016616  0.57538487  1
  Ge  Ge72  1  0.36508857  0.73017713  0.77544647  1
  Ge  Ge73  1  0.56353744  0.12707489  0.17598820  1
  Ge  Ge74  1  0.16499371  0.32998741  0.37533283  1
  Ge  Ge75  1  0.43500629  0.87001259  0.82466717  1
  Ge  Ge76  1  0.23491143  0.46982287  0.42455353  1
  Ge  Ge77  1  0.83491692  0.66983384  0.62461513  1
  Ge  Ge78  1  0.03646256  0.07292511  0.02401180  1
  Ge  Ge79  1  0.63507571  0.27015141  0.22490722  1
  Ge  Ge80  1  0.80000000  0.60000000  0.10000000  1
