# generated using pymatgen
data_V2ZnCuO7
_symmetry_space_group_name_H-M   'P 1'
_cell_length_a   5.64571415
_cell_length_b   5.64571415
_cell_length_c   10.23241469
_cell_angle_alpha   76.22746797
_cell_angle_beta   76.22746797
_cell_angle_gamma   94.00276951
_symmetry_Int_Tables_number   1
_chemical_formula_structural   V2ZnCuO7
_chemical_formula_sum   'V4 Zn2 Cu2 O14'
_cell_volume   304.88591912
_cell_formula_units_Z   2
loop_
 _symmetry_equiv_pos_site_id
 _symmetry_equiv_pos_as_xyz
  1  'x, y, z'
loop_
 _atom_site_type_symbol
 _atom_site_label
 _atom_site_symmetry_multiplicity
 _atom_site_fract_x
 _atom_site_fract_y
 _atom_site_fract_z
 _atom_site_occupancy
  V  V0  1  0.49845900  0.03086200  0.53955400  1
  V  V1  1  0.96913800  0.50154100  0.46044600  1
  V  V2  1  0.50335500  0.96828300  0.95784100  1
  V  V3  1  0.03171700  0.49664500  0.04215900  1
  Zn  Zn4  1  0.09768000  0.24625800  0.76975400  1
  Zn  Zn5  1  0.75374200  0.90232000  0.23024600  1
  Cu  Cu6  1  0.88473500  0.73898500  0.73437700  1
  Cu  Cu7  1  0.26101500  0.11526500  0.26562300  1
  O  O8  1  0.21057000  0.02584800  0.64531400  1
  O  O9  1  0.97415200  0.78943000  0.35468600  1
  O  O10  1  0.79980600  0.97131400  0.85098400  1
  O  O11  1  0.02868600  0.20019400  0.14901600  1
  O  O12  1  0.47612600  0.96752400  0.37972900  1
  O  O13  1  0.03247600  0.52387400  0.62027100  1
  O  O14  1  0.51510100  0.03864700  0.11434000  1
  O  O15  1  0.96135300  0.48489900  0.88566000  1
  O  O16  1  0.66795600  0.33204400  0.50000000  1
  O  O17  1  0.33209300  0.66790700  0.00000000  1
  O  O18  1  0.65017400  0.82757500  0.62713600  1
  O  O19  1  0.17242500  0.34982600  0.37286400  1
  O  O20  1  0.35541300  0.17617200  0.87266300  1
  O  O21  1  0.82382800  0.64458700  0.12733700  1
