# generated using pymatgen
data_VCr3GaSe8
_symmetry_space_group_name_H-M   'P 1'
_cell_length_a   7.34164165
_cell_length_b   7.34164165
_cell_length_c   7.34164103
_cell_angle_alpha   60.56719461
_cell_angle_beta   60.56719461
_cell_angle_gamma   60.56719090
_symmetry_Int_Tables_number   1
_chemical_formula_structural   VCr3GaSe8
_chemical_formula_sum   'V1 Cr3 Ga1 Se8'
_cell_volume   283.39600562
_cell_formula_units_Z   1
loop_
 _symmetry_equiv_pos_site_id
 _symmetry_equiv_pos_as_xyz
  1  'x, y, z'
loop_
 _atom_site_type_symbol
 _atom_site_label
 _atom_site_symmetry_multiplicity
 _atom_site_fract_x
 _atom_site_fract_y
 _atom_site_fract_z
 _atom_site_occupancy
  V  V0  1  0.39269100  0.39269100  0.39269100  1
  Cr  Cr1  1  0.84912300  0.38213400  0.38213400  1
  Cr  Cr2  1  0.38213400  0.84912300  0.38213400  1
  Cr  Cr3  1  0.38213400  0.38213400  0.84912300  1
  Ga  Ga4  1  0.99743000  0.99743000  0.99743000  1
  Se  Se5  1  0.13436300  0.13436300  0.13436300  1
  Se  Se6  1  0.58784100  0.13795000  0.13795000  1
  Se  Se7  1  0.13795000  0.58784100  0.13795000  1
  Se  Se8  1  0.13795000  0.13795000  0.58784100  1
  Se  Se9  1  0.61974400  0.61974400  0.61974400  1
  Se  Se10  1  0.12941100  0.62461500  0.62461500  1
  Se  Se11  1  0.62461500  0.12941100  0.62461500  1
  Se  Se12  1  0.62461500  0.62461500  0.12941100  1
