# generated using pymatgen
data_UAl7GaFe4
_symmetry_space_group_name_H-M   'P 1'
_cell_length_a   5.13085100
_cell_length_b   6.68483976
_cell_length_c   6.68483976
_cell_angle_alpha   98.60690376
_cell_angle_beta   112.56725347
_cell_angle_gamma   67.43274653
_symmetry_Int_Tables_number   1
_chemical_formula_structural   UAl7GaFe4
_chemical_formula_sum   'U1 Al7 Ga1 Fe4'
_cell_volume   195.51379248
_cell_formula_units_Z   1
loop_
 _symmetry_equiv_pos_site_id
 _symmetry_equiv_pos_as_xyz
  1  'x, y, z'
loop_
 _atom_site_type_symbol
 _atom_site_label
 _atom_site_symmetry_multiplicity
 _atom_site_fract_x
 _atom_site_fract_y
 _atom_site_fract_z
 _atom_site_occupancy
  U  U0  1  0.00000000  0.00124700  0.00124700  1
  Al  Al1  1  0.49759300  0.99909300  0.49728500  1
  Al  Al2  1  0.00059800  0.99909300  0.49728500  1
  Al  Al3  1  0.50240700  0.49728500  0.99909300  1
  Al  Al4  1  0.99940200  0.49728500  0.99909300  1
  Al  Al5  1  0.64547100  0.35249400  0.64343500  1
  Al  Al6  1  0.35452900  0.64343500  0.35249400  1
  Al  Al7  1  0.00000000  0.35871700  0.35871700  1
  Ga  Ga8  1  0.00000000  0.64725800  0.64725800  1
  Fe  Fe9  1  0.70079500  0.79675800  0.19834800  1
  Fe  Fe10  1  0.29920500  0.19834800  0.79675800  1
  Fe  Fe11  1  0.50000000  0.79470200  0.79470200  1
  Fe  Fe12  1  0.50000000  0.21428600  0.21428600  1
