# generated using pymatgen
data_TiVH4
_symmetry_space_group_name_H-M   'P 1'
_cell_length_a   5.29267135
_cell_length_b   5.29267135
_cell_length_c   5.29267134
_cell_angle_alpha   33.56330656
_cell_angle_beta   33.56330656
_cell_angle_gamma   33.56331116
_symmetry_Int_Tables_number   1
_chemical_formula_structural   TiVH4
_chemical_formula_sum   'Ti1 V1 H4'
_cell_volume   40.36446981
_cell_formula_units_Z   1
loop_
 _symmetry_equiv_pos_site_id
 _symmetry_equiv_pos_as_xyz
  1  'x, y, z'
loop_
 _atom_site_type_symbol
 _atom_site_label
 _atom_site_symmetry_multiplicity
 _atom_site_fract_x
 _atom_site_fract_y
 _atom_site_fract_z
 _atom_site_occupancy
  Ti  Ti0  1  0.00000000  0.00000000  0.00000000  1
  V  V1  1  0.50000000  0.50000000  0.50000000  1
  H  H2  1  0.62150200  0.62150200  0.62150200  1
  H  H3  1  0.12836800  0.12836800  0.12836800  1
  H  H4  1  0.87163200  0.87163200  0.87163200  1
  H  H5  1  0.37849800  0.37849800  0.37849800  1
