# generated using pymatgen
data_UCu3Pd2
_symmetry_space_group_name_H-M   'P 1'
_cell_length_a   5.12573648
_cell_length_b   5.12573648
_cell_length_c   5.12573648
_cell_angle_alpha   122.32864116
_cell_angle_beta   116.71629403
_cell_angle_gamma   90.89683843
_symmetry_Int_Tables_number   1
_chemical_formula_structural   UCu3Pd2
_chemical_formula_sum   'U1 Cu3 Pd2'
_cell_volume   95.61798324
_cell_formula_units_Z   1
loop_
 _symmetry_equiv_pos_site_id
 _symmetry_equiv_pos_as_xyz
  1  'x, y, z'
loop_
 _atom_site_type_symbol
 _atom_site_label
 _atom_site_symmetry_multiplicity
 _atom_site_fract_x
 _atom_site_fract_y
 _atom_site_fract_z
 _atom_site_occupancy
  U  U0  1  0.00268000  0.00268000  0.00000000  1
  Cu  Cu1  1  0.62164400  0.37038500  0.74874100  1
  Cu  Cu2  1  0.62164400  0.87290300  0.25125900  1
  Cu  Cu3  1  0.25549200  0.75549200  0.50000000  1
  Pd  Pd4  1  0.62334300  0.37427000  0.24907300  1
  Pd  Pd5  1  0.12519700  0.37427000  0.75092700  1
