# generated using pymatgen
data_TlIn5S8
_symmetry_space_group_name_H-M   'P 1'
_cell_length_a   9.89305186
_cell_length_b   9.89305186
_cell_length_c   9.35323868
_cell_angle_alpha   77.58639240
_cell_angle_beta   77.58639240
_cell_angle_gamma   22.78831017
_symmetry_Int_Tables_number   1
_chemical_formula_structural   TlIn5S8
_chemical_formula_sum   'Tl1 In5 S8'
_cell_volume   345.93887974
_cell_formula_units_Z   1
loop_
 _symmetry_equiv_pos_site_id
 _symmetry_equiv_pos_as_xyz
  1  'x, y, z'
loop_
 _atom_site_type_symbol
 _atom_site_label
 _atom_site_symmetry_multiplicity
 _atom_site_fract_x
 _atom_site_fract_y
 _atom_site_fract_z
 _atom_site_occupancy
  Tl  Tl0  1  0.46987300  0.46987300  0.48009900  1
  In  In1  1  0.71113700  0.71113700  0.66262600  1
  In  In2  1  0.28634900  0.28634900  0.33627800  1
  In  In3  1  0.35433400  0.35433400  0.91068300  1
  In  In4  1  0.64523200  0.64523200  0.08998500  1
  In  In5  1  0.00065100  0.00065100  0.99939300  1
  S  S6  1  0.23729000  0.23729000  0.84762000  1
  S  S7  1  0.76291100  0.76291100  0.15231900  1
  S  S8  1  0.58479700  0.58479700  0.87439000  1
  S  S9  1  0.41534400  0.41534400  0.12649600  1
  S  S10  1  0.16731300  0.16731300  0.52173100  1
  S  S11  1  0.83505500  0.83505500  0.47784500  1
  S  S12  1  0.92926900  0.92926900  0.78586400  1
  S  S13  1  0.07046400  0.07046400  0.21456300  1
