# generated using pymatgen
data_TlCNO
_symmetry_space_group_name_H-M   'P 1'
_cell_length_a   5.81263481
_cell_length_b   5.81263481
_cell_length_c   5.81263481
_cell_angle_alpha   113.98022560
_cell_angle_beta   113.86261713
_cell_angle_gamma   100.89639624
_symmetry_Int_Tables_number   1
_chemical_formula_structural   TlCNO
_chemical_formula_sum   'Tl2 C2 N2 O2'
_cell_volume   148.69595111
_cell_formula_units_Z   2
loop_
 _symmetry_equiv_pos_site_id
 _symmetry_equiv_pos_as_xyz
  1  'x, y, z'
loop_
 _atom_site_type_symbol
 _atom_site_label
 _atom_site_symmetry_multiplicity
 _atom_site_fract_x
 _atom_site_fract_y
 _atom_site_fract_z
 _atom_site_occupancy
  Tl  Tl0  1  0.24386700  0.00000000  0.24386700  1
  Tl  Tl1  1  0.74386700  0.50000000  0.24386700  1
  C  C2  1  0.00230500  0.24754000  0.74984500  1
  C  C3  1  0.50230500  0.75246000  0.75476500  1
  N  N4  1  0.13779000  0.11470500  0.75249500  1
  N  N5  1  0.63779000  0.88529500  0.02308400  1
  O  O6  1  0.86603800  0.38520200  0.75124000  1
  O  O7  1  0.36603800  0.61479800  0.48083700  1
