# generated using pymatgen
data_Tm4US7
_symmetry_space_group_name_H-M   'P 1'
_cell_length_a   6.61896684
_cell_length_b   6.61896684
_cell_length_c   11.56482131
_cell_angle_alpha   75.81335904
_cell_angle_beta   75.81335904
_cell_angle_gamma   32.84108152
_symmetry_Int_Tables_number   1
_chemical_formula_structural   Tm4US7
_chemical_formula_sum   'Tm4 U1 S7'
_cell_volume   265.64886306
_cell_formula_units_Z   1
loop_
 _symmetry_equiv_pos_site_id
 _symmetry_equiv_pos_as_xyz
  1  'x, y, z'
loop_
 _atom_site_type_symbol
 _atom_site_label
 _atom_site_symmetry_multiplicity
 _atom_site_fract_x
 _atom_site_fract_y
 _atom_site_fract_z
 _atom_site_occupancy
  Tm  Tm0  1  0.69961400  0.69961400  0.18735200  1
  Tm  Tm1  1  0.30177000  0.30177000  0.81159800  1
  Tm  Tm2  1  0.11791900  0.11791900  0.57747900  1
  Tm  Tm3  1  0.99983600  0.99983600  0.99740100  1
  U  U4  1  0.88428200  0.88428200  0.42392100  1
  S  S5  1  0.73902600  0.73902600  0.65379300  1
  S  S6  1  0.25381900  0.25381900  0.34844500  1
  S  S7  1  0.04106600  0.04106600  0.21212700  1
  S  S8  1  0.95950100  0.95950100  0.78445400  1
  S  S9  1  0.50236400  0.50236400  0.50339900  1
  S  S10  1  0.34142000  0.34142000  0.05039600  1
  S  S11  1  0.65938300  0.65938300  0.94963600  1
