# generated using pymatgen
data_U2Al3Si
_symmetry_space_group_name_H-M   'P 1'
_cell_length_a   5.38599544
_cell_length_b   5.38599544
_cell_length_c   5.38599515
_cell_angle_alpha   59.69476074
_cell_angle_beta   59.69476074
_cell_angle_gamma   59.69474786
_symmetry_Int_Tables_number   1
_chemical_formula_structural   U2Al3Si
_chemical_formula_sum   'U2 Al3 Si1'
_cell_volume   109.71376627
_cell_formula_units_Z   1
loop_
 _symmetry_equiv_pos_site_id
 _symmetry_equiv_pos_as_xyz
  1  'x, y, z'
loop_
 _atom_site_type_symbol
 _atom_site_label
 _atom_site_symmetry_multiplicity
 _atom_site_fract_x
 _atom_site_fract_y
 _atom_site_fract_z
 _atom_site_occupancy
  U  U0  1  0.12480600  0.12480600  0.12480600  1
  U  U1  1  0.87519400  0.87519400  0.87519400  1
  Al  Al2  1  0.50000000  0.00000000  0.50000000  1
  Al  Al3  1  0.00000000  0.50000000  0.50000000  1
  Al  Al4  1  0.50000000  0.50000000  0.00000000  1
  Si  Si5  1  0.50000000  0.50000000  0.50000000  1
