# generated using pymatgen
data_Tm4CdS7
_symmetry_space_group_name_H-M   'P 1'
_cell_length_a   6.58248134
_cell_length_b   6.58248134
_cell_length_c   11.48495699
_cell_angle_alpha   75.73586925
_cell_angle_beta   75.73586925
_cell_angle_gamma   33.44145502
_symmetry_Int_Tables_number   1
_chemical_formula_structural   Tm4CdS7
_chemical_formula_sum   'Tm4 Cd1 S7'
_cell_volume   265.00660229
_cell_formula_units_Z   1
loop_
 _symmetry_equiv_pos_site_id
 _symmetry_equiv_pos_as_xyz
  1  'x, y, z'
loop_
 _atom_site_type_symbol
 _atom_site_label
 _atom_site_symmetry_multiplicity
 _atom_site_fract_x
 _atom_site_fract_y
 _atom_site_fract_z
 _atom_site_occupancy
  Tm  Tm0  1  0.69409600  0.69409600  0.19814300  1
  Tm  Tm1  1  0.30681600  0.30681600  0.80487200  1
  Tm  Tm2  1  0.00019200  0.00019200  0.00195600  1
  Tm  Tm3  1  0.11517700  0.11517700  0.57219500  1
  Cd  Cd4  1  0.88481600  0.88481600  0.42060600  1
  S  S5  1  0.74054300  0.74054300  0.64849200  1
  S  S6  1  0.25573800  0.25573800  0.35086700  1
  S  S7  1  0.34112900  0.34112900  0.04933600  1
  S  S8  1  0.65949100  0.65949100  0.94862500  1
  S  S9  1  0.04021700  0.04021700  0.21575800  1
  S  S10  1  0.96045500  0.96045500  0.78561500  1
  S  S11  1  0.50133000  0.50133000  0.50353500  1
