# generated using pymatgen
data_Tl2Fe3Se4
_symmetry_space_group_name_H-M   'P 1'
_cell_length_a   5.51334410
_cell_length_b   5.52673105
_cell_length_c   7.45716074
_cell_angle_alpha   90.00000000
_cell_angle_beta   68.30486433
_cell_angle_gamma   90.00000000
_symmetry_Int_Tables_number   1
_chemical_formula_structural   Tl2Fe3Se4
_chemical_formula_sum   'Tl2 Fe3 Se4'
_cell_volume   211.12968003
_cell_formula_units_Z   1
loop_
 _symmetry_equiv_pos_site_id
 _symmetry_equiv_pos_as_xyz
  1  'x, y, z'
loop_
 _atom_site_type_symbol
 _atom_site_label
 _atom_site_symmetry_multiplicity
 _atom_site_fract_x
 _atom_site_fract_y
 _atom_site_fract_z
 _atom_site_occupancy
  Tl  Tl0  1  0.50000000  0.49346300  0.00000000  1
  Tl  Tl1  1  0.00000000  0.00653700  0.00000000  1
  Fe  Fe2  1  0.50000000  0.25000000  0.50000000  1
  Fe  Fe3  1  0.50000000  0.75000000  0.50000000  1
  Fe  Fe4  1  0.00000000  0.25000000  0.50000000  1
  Se  Se5  1  0.34916400  0.99963600  0.30354200  1
  Se  Se6  1  0.84729400  0.50036400  0.30354200  1
  Se  Se7  1  0.15270600  0.50036400  0.69645800  1
  Se  Se8  1  0.65083600  0.99963600  0.69645800  1
