# generated using pymatgen
data_Tm4MgS7
_symmetry_space_group_name_H-M   'P 1'
_cell_length_a   6.51634394
_cell_length_b   6.51634394
_cell_length_c   11.38441840
_cell_angle_alpha   75.83726133
_cell_angle_beta   75.83726133
_cell_angle_gamma   33.52582119
_symmetry_Int_Tables_number   1
_chemical_formula_structural   Tm4MgS7
_chemical_formula_sum   'Tm4 Mg1 S7'
_cell_volume   258.13113789
_cell_formula_units_Z   1
loop_
 _symmetry_equiv_pos_site_id
 _symmetry_equiv_pos_as_xyz
  1  'x, y, z'
loop_
 _atom_site_type_symbol
 _atom_site_label
 _atom_site_symmetry_multiplicity
 _atom_site_fract_x
 _atom_site_fract_y
 _atom_site_fract_z
 _atom_site_occupancy
  Tm  Tm0  1  0.69324100  0.69324100  0.20287400  1
  Tm  Tm1  1  0.30623400  0.30623400  0.80280600  1
  Tm  Tm2  1  0.99988600  0.99988600  0.00458100  1
  Tm  Tm3  1  0.11371900  0.11371900  0.56889400  1
  Mg  Mg4  1  0.88564300  0.88564300  0.42126900  1
  S  S5  1  0.74277800  0.74277800  0.64189900  1
  S  S6  1  0.26509500  0.26509500  0.35265700  1
  S  S7  1  0.33940300  0.33940300  0.05039900  1
  S  S8  1  0.65959000  0.65959000  0.94869200  1
  S  S9  1  0.03658200  0.03658200  0.22211800  1
  S  S10  1  0.96208200  0.96208200  0.78487600  1
  S  S11  1  0.49574700  0.49574700  0.49893400  1
