# generated using pymatgen
data_Tm2Ga3Ni
_symmetry_space_group_name_H-M   'P 1'
_cell_length_a   5.49944556
_cell_length_b   5.49944556
_cell_length_c   6.99871061
_cell_angle_alpha   51.57285009
_cell_angle_beta   51.57285009
_cell_angle_gamma   46.28358955
_symmetry_Int_Tables_number   1
_chemical_formula_structural   Tm2Ga3Ni
_chemical_formula_sum   'Tm2 Ga3 Ni1'
_cell_volume   112.74984364
_cell_formula_units_Z   1
loop_
 _symmetry_equiv_pos_site_id
 _symmetry_equiv_pos_as_xyz
  1  'x, y, z'
loop_
 _atom_site_type_symbol
 _atom_site_label
 _atom_site_symmetry_multiplicity
 _atom_site_fract_x
 _atom_site_fract_y
 _atom_site_fract_z
 _atom_site_occupancy
  Tm  Tm0  1  0.54286400  0.54286400  0.70541400  1
  Tm  Tm1  1  0.45215000  0.45215000  0.29821200  1
  Ga  Ga2  1  0.85118000  0.85118000  0.68757400  1
  Ga  Ga3  1  0.82416200  0.82416200  0.12037300  1
  Ga  Ga4  1  0.16266100  0.16266100  0.90578900  1
  Ni  Ni5  1  0.16698300  0.16698300  0.28263800  1
