# generated using pymatgen
data_Cd2Hg
_symmetry_space_group_name_H-M   'P 1'
_cell_length_a   5.26633670
_cell_length_b   5.26633670
_cell_length_c   5.26633670
_cell_angle_alpha   134.84818432
_cell_angle_beta   134.84818432
_cell_angle_gamma   65.76617848
_symmetry_Int_Tables_number   1
_chemical_formula_structural   Cd2Hg
_chemical_formula_sum   'Cd2 Hg1'
_cell_volume   72.31089328
_cell_formula_units_Z   1
loop_
 _symmetry_equiv_pos_site_id
 _symmetry_equiv_pos_as_xyz
  1  'x, y, z'
loop_
 _atom_site_type_symbol
 _atom_site_label
 _atom_site_symmetry_multiplicity
 _atom_site_fract_x
 _atom_site_fract_y
 _atom_site_fract_z
 _atom_site_occupancy
  Cd  Cd0  1  0.33337500  0.33337500  0.00000000  1
  Cd  Cd1  1  0.66662500  0.66662500  0.00000000  1
  Hg  Hg2  1  0.00000000  0.00000000  0.00000000  1
