# generated using pymatgen
data_Tm2SiPd2
_symmetry_space_group_name_H-M   'P 1'
_cell_length_a   4.10567900
_cell_length_b   7.49279500
_cell_length_c   13.61214200
_cell_angle_alpha   90.00000000
_cell_angle_beta   90.00000000
_cell_angle_gamma   90.00000000
_symmetry_Int_Tables_number   1
_chemical_formula_structural   Tm2SiPd2
_chemical_formula_sum   'Tm8 Si4 Pd8'
_cell_volume   418.75047521
_cell_formula_units_Z   4
loop_
 _symmetry_equiv_pos_site_id
 _symmetry_equiv_pos_as_xyz
  1  'x, y, z'
loop_
 _atom_site_type_symbol
 _atom_site_label
 _atom_site_symmetry_multiplicity
 _atom_site_fract_x
 _atom_site_fract_y
 _atom_site_fract_z
 _atom_site_occupancy
  Tm  Tm0  1  0.50000000  0.04250300  0.37409300  1
  Tm  Tm1  1  0.50000000  0.95749600  0.62590700  1
  Tm  Tm2  1  0.00000000  0.54250400  0.12590700  1
  Tm  Tm3  1  0.00000000  0.45749600  0.87409300  1
  Tm  Tm4  1  0.50000000  0.94863700  0.13077100  1
  Tm  Tm5  1  0.50000000  0.05136300  0.86922900  1
  Tm  Tm6  1  0.00000000  0.44863700  0.36922900  1
  Tm  Tm7  1  0.00000000  0.55136300  0.63077100  1
  Si  Si8  1  0.50000000  0.65286000  0.47225400  1
  Si  Si9  1  0.50000000  0.34714000  0.52774600  1
  Si  Si10  1  0.00000000  0.15286000  0.02774600  1
  Si  Si11  1  0.00000000  0.84714000  0.97225400  1
  Pd  Pd12  1  0.50000000  0.67277200  0.28096900  1
  Pd  Pd13  1  0.50000000  0.32722800  0.71903100  1
  Pd  Pd14  1  0.00000000  0.17277200  0.21903100  1
  Pd  Pd15  1  0.00000000  0.82722800  0.78096900  1
  Pd  Pd16  1  0.50000000  0.67872000  0.98081900  1
  Pd  Pd17  1  0.50000000  0.32128000  0.01918100  1
  Pd  Pd18  1  0.00000000  0.17872000  0.51918100  1
  Pd  Pd19  1  0.00000000  0.82128000  0.48081900  1
