# generated using pymatgen
data_U2Si5Ru2Rh
_symmetry_space_group_name_H-M   'P 1'
_cell_length_a   8.13006240
_cell_length_b   8.13006240
_cell_length_c   5.64648216
_cell_angle_alpha   70.80058198
_cell_angle_beta   70.80058198
_cell_angle_gamma   92.85187660
_symmetry_Int_Tables_number   1
_chemical_formula_structural   U2Si5Ru2Rh
_chemical_formula_sum   'U4 Si10 Ru4 Rh2'
_cell_volume   327.59957639
_cell_formula_units_Z   2
loop_
 _symmetry_equiv_pos_site_id
 _symmetry_equiv_pos_as_xyz
  1  'x, y, z'
loop_
 _atom_site_type_symbol
 _atom_site_label
 _atom_site_symmetry_multiplicity
 _atom_site_fract_x
 _atom_site_fract_y
 _atom_site_fract_z
 _atom_site_occupancy
  U  U0  1  0.86610700  0.59214300  0.76680700  1
  U  U1  1  0.40785700  0.13389300  0.73319300  1
  U  U2  1  0.13389300  0.40785700  0.23319300  1
  U  U3  1  0.59214300  0.86610700  0.26680700  1
  Si  Si4  1  0.06085000  0.26561500  0.83471400  1
  Si  Si5  1  0.73438500  0.93915000  0.66528600  1
  Si  Si6  1  0.93915000  0.73438500  0.16528600  1
  Si  Si7  1  0.26561500  0.06085000  0.33471400  1
  Si  Si8  1  0.51351200  0.48648800  0.75000000  1
  Si  Si9  1  0.48648800  0.51351200  0.25000000  1
  Si  Si10  1  0.20697600  0.79302400  0.75000000  1
  Si  Si11  1  0.79302400  0.20697600  0.25000000  1
  Si  Si12  1  0.77709900  0.22290100  0.75000000  1
  Si  Si13  1  0.22290100  0.77709900  0.25000000  1
  Ru  Ru14  1  0.25422800  0.54095100  0.63407800  1
  Ru  Ru15  1  0.45904900  0.74577200  0.86592200  1
  Ru  Ru16  1  0.74577200  0.45904900  0.36592200  1
  Ru  Ru17  1  0.54095100  0.25422800  0.13407800  1
  Rh  Rh18  1  0.99989300  0.00010700  0.75000000  1
  Rh  Rh19  1  0.00010700  0.99989300  0.25000000  1
