# generated using pymatgen
data_TiNb(BiO3)3
_symmetry_space_group_name_H-M   'P 1'
_cell_length_a   12.95140779
_cell_length_b   12.95140779
_cell_length_c   12.95140779
_cell_angle_alpha   162.83207236
_cell_angle_beta   162.83207236
_cell_angle_gamma   24.37171566
_symmetry_Int_Tables_number   1
_chemical_formula_structural   TiNb(BiO3)3
_chemical_formula_sum   'Ti1 Nb1 Bi3 O9'
_cell_volume   189.23096958
_cell_formula_units_Z   1
loop_
 _symmetry_equiv_pos_site_id
 _symmetry_equiv_pos_as_xyz
  1  'x, y, z'
loop_
 _atom_site_type_symbol
 _atom_site_label
 _atom_site_symmetry_multiplicity
 _atom_site_fract_x
 _atom_site_fract_y
 _atom_site_fract_z
 _atom_site_occupancy
  Ti  Ti0  1  0.40942700  0.40942700  0.00000000  1
  Nb  Nb1  1  0.58908000  0.58908000  0.00000000  1
  Bi  Bi2  1  0.20074400  0.20074400  0.00000000  1
  Bi  Bi3  1  0.80046900  0.80046900  0.00000000  1
  Bi  Bi4  1  0.98678600  0.98678600  0.00000000  1
  O  O5  1  0.33897800  0.33897800  0.00000000  1
  O  O6  1  0.66489500  0.66489500  0.00000000  1
  O  O7  1  0.07901900  0.57901900  0.50000000  1
  O  O8  1  0.42452100  0.92452100  0.50000000  1
  O  O9  1  0.92452100  0.42452100  0.50000000  1
  O  O10  1  0.57901900  0.07901900  0.50000000  1
  O  O11  1  0.50014000  0.50014000  0.00000000  1
  O  O12  1  0.25120500  0.75120500  0.50000000  1
  O  O13  1  0.75120500  0.25120500  0.50000000  1
