# generated using pymatgen
data_Tl2V9CrS16
_symmetry_space_group_name_H-M   'P 1'
_cell_length_a   3.26023300
_cell_length_b   8.55027948
_cell_length_c   17.45673511
_cell_angle_alpha   104.62320895
_cell_angle_beta   90.00000000
_cell_angle_gamma   90.00000000
_symmetry_Int_Tables_number   1
_chemical_formula_structural   Tl2V9CrS16
_chemical_formula_sum   'Tl2 V9 Cr1 S16'
_cell_volume   470.85909806
_cell_formula_units_Z   1
loop_
 _symmetry_equiv_pos_site_id
 _symmetry_equiv_pos_as_xyz
  1  'x, y, z'
loop_
 _atom_site_type_symbol
 _atom_site_label
 _atom_site_symmetry_multiplicity
 _atom_site_fract_x
 _atom_site_fract_y
 _atom_site_fract_z
 _atom_site_occupancy
  Tl  Tl0  1  0.50000000  0.00000000  0.00000000  1
  Tl  Tl1  1  0.00000000  0.00000000  0.50000000  1
  V  V2  1  0.50000000  0.85981200  0.21131000  1
  V  V3  1  0.00000000  0.86028200  0.71139600  1
  V  V4  1  0.00000000  0.13971800  0.28860400  1
  V  V5  1  0.50000000  0.14018800  0.78869000  1
  V  V6  1  0.50000000  0.49511700  0.14792500  1
  V  V7  1  0.00000000  0.49599300  0.64650100  1
  V  V8  1  0.00000000  0.50400700  0.35349900  1
  V  V9  1  0.50000000  0.50488300  0.85207500  1
  V  V10  1  0.00000000  0.50000000  0.00000000  1
  Cr  Cr11  1  0.50000000  0.50000000  0.50000000  1
  S  S12  1  0.50000000  0.67969700  0.41616700  1
  S  S13  1  0.00000000  0.68163400  0.91491900  1
  S  S14  1  0.00000000  0.31836600  0.08508100  1
  S  S15  1  0.50000000  0.32030300  0.58383300  1
  S  S16  1  0.50000000  0.34012800  0.25989700  1
  S  S17  1  0.00000000  0.33985000  0.75901200  1
  S  S18  1  0.00000000  0.66015000  0.24098800  1
  S  S19  1  0.50000000  0.65987200  0.74010300  1
  S  S20  1  0.50000000  0.00101000  0.34048100  1
  S  S21  1  0.00000000  0.99977100  0.84002300  1
  S  S22  1  0.00000000  0.00022900  0.15997700  1
  S  S23  1  0.50000000  0.99899000  0.65951900  1
  S  S24  1  0.50000000  0.67860700  0.07438800  1
  S  S25  1  0.00000000  0.67536100  0.57222900  1
  S  S26  1  0.00000000  0.32463900  0.42777100  1
  S  S27  1  0.50000000  0.32139300  0.92561200  1
