# generated using pymatgen
data_TiNb2O7
_symmetry_space_group_name_H-M   'P 1'
_cell_length_a   10.48423567
_cell_length_b   10.48423567
_cell_length_c   12.16311687
_cell_angle_alpha   60.27565580
_cell_angle_beta   60.27565580
_cell_angle_gamma   21.21590895
_symmetry_Int_Tables_number   1
_chemical_formula_structural   TiNb2O7
_chemical_formula_sum   'Ti3 Nb6 O21'
_cell_volume   417.75349343
_cell_formula_units_Z   3
loop_
 _symmetry_equiv_pos_site_id
 _symmetry_equiv_pos_as_xyz
  1  'x, y, z'
loop_
 _atom_site_type_symbol
 _atom_site_label
 _atom_site_symmetry_multiplicity
 _atom_site_fract_x
 _atom_site_fract_y
 _atom_site_fract_z
 _atom_site_occupancy
  Ti  Ti0  1  0.70791200  0.70791200  0.36261700  1
  Ti  Ti1  1  0.29399700  0.29399700  0.63017900  1
  Ti  Ti2  1  0.81100700  0.81100700  0.01221500  1
  Nb  Nb3  1  0.91832500  0.91832500  0.64326200  1
  Nb  Nb4  1  0.08013900  0.08013900  0.36154500  1
  Nb  Nb5  1  0.88602900  0.88602900  0.37096900  1
  Nb  Nb6  1  0.11369000  0.11369000  0.62837400  1
  Nb  Nb7  1  0.99587200  0.99587200  0.99985800  1
  Nb  Nb8  1  0.18945800  0.18945800  0.98725700  1
  O  O9  1  0.62425600  0.62425600  0.58268100  1
  O  O10  1  0.37518900  0.37518900  0.41958000  1
  O  O11  1  0.94575800  0.94575800  0.19710000  1
  O  O12  1  0.05440100  0.05440100  0.80274900  1
  O  O13  1  0.59891000  0.59891000  0.37755200  1
  O  O14  1  0.40095500  0.40095500  0.62298700  1
  O  O15  1  0.87068100  0.87068100  0.81491000  1
  O  O16  1  0.12855800  0.12855800  0.18830900  1
  O  O17  1  0.90145200  0.90145200  0.00530500  1
  O  O18  1  0.09793600  0.09793600  0.99515700  1
  O  O19  1  0.82595400  0.82595400  0.59676800  1
  O  O20  1  0.17396600  0.17396600  0.40352800  1
  O  O21  1  0.70982200  0.70982200  0.99830600  1
  O  O22  1  0.29170300  0.29170300  0.00298500  1
  O  O23  1  0.78791500  0.78791500  0.39168500  1
  O  O24  1  0.21285300  0.21285300  0.60760000  1
  O  O25  1  0.75552700  0.75552700  0.19568700  1
  O  O26  1  0.24596300  0.24596300  0.80068000  1
  O  O27  1  0.97620900  0.97620900  0.41428200  1
  O  O28  1  0.02357600  0.02357600  0.58616600  1
  O  O29  1  0.50198700  0.50198700  0.99970500  1
