# generated using pymatgen
data_TlIn5Se8
_symmetry_space_group_name_H-M   'P 1'
_cell_length_a   10.37977303
_cell_length_b   10.37977303
_cell_length_c   9.91307320
_cell_angle_alpha   79.26469878
_cell_angle_beta   79.26469878
_cell_angle_gamma   22.60972145
_symmetry_Int_Tables_number   1
_chemical_formula_structural   TlIn5Se8
_chemical_formula_sum   'Tl1 In5 Se8'
_cell_volume   403.13056774
_cell_formula_units_Z   1
loop_
 _symmetry_equiv_pos_site_id
 _symmetry_equiv_pos_as_xyz
  1  'x, y, z'
loop_
 _atom_site_type_symbol
 _atom_site_label
 _atom_site_symmetry_multiplicity
 _atom_site_fract_x
 _atom_site_fract_y
 _atom_site_fract_z
 _atom_site_occupancy
  Tl  Tl0  1  0.50000000  0.50000000  0.50000000  1
  In  In1  1  0.36318800  0.36318800  0.88718200  1
  In  In2  1  0.63681200  0.63681200  0.11281800  1
  In  In3  1  0.72156600  0.72156600  0.66086900  1
  In  In4  1  0.27843400  0.27843400  0.33913100  1
  In  In5  1  0.00000000  0.00000000  0.00000000  1
  Se  Se6  1  0.24212900  0.24212900  0.84434300  1
  Se  Se7  1  0.75787100  0.75787100  0.15565700  1
  Se  Se8  1  0.93795800  0.93795800  0.76662200  1
  Se  Se9  1  0.06204200  0.06204200  0.23337800  1
  Se  Se10  1  0.16350200  0.16350200  0.53302100  1
  Se  Se11  1  0.83649800  0.83649800  0.46697900  1
  Se  Se12  1  0.58736200  0.58736200  0.88499200  1
  Se  Se13  1  0.41263800  0.41263800  0.11500800  1
