# generated using pymatgen
data_TmScSi
_symmetry_space_group_name_H-M   'P 1'
_cell_length_a   6.08404403
_cell_length_b   8.52994791
_cell_length_c   9.04207236
_cell_angle_alpha   122.01737023
_cell_angle_beta   89.99923390
_cell_angle_gamma   90.01033481
_symmetry_Int_Tables_number   1
_chemical_formula_structural   TmScSi
_chemical_formula_sum   'Tm6 Sc6 Si6'
_cell_volume   397.87337628
_cell_formula_units_Z   6
loop_
 _symmetry_equiv_pos_site_id
 _symmetry_equiv_pos_as_xyz
  1  'x, y, z'
loop_
 _atom_site_type_symbol
 _atom_site_label
 _atom_site_symmetry_multiplicity
 _atom_site_fract_x
 _atom_site_fract_y
 _atom_site_fract_z
 _atom_site_occupancy
  Tm  Tm0  1  0.75011400  0.26835700  0.97381200  1
  Tm  Tm1  1  0.74992800  0.73162200  0.70515300  1
  Tm  Tm2  1  0.74998900  0.00025900  0.30858800  1
  Tm  Tm3  1  0.24991000  0.74723200  0.00041600  1
  Tm  Tm4  1  0.25006600  0.25297500  0.25326700  1
  Tm  Tm5  1  0.25001000  0.99995500  0.75480600  1
  Sc  Sc6  1  0.49808800  0.31197200  0.65781500  1
  Sc  Sc7  1  0.49801300  0.68785000  0.34611500  1
  Sc  Sc8  1  0.00194800  0.68786200  0.34606100  1
  Sc  Sc9  1  0.00195900  0.31200300  0.65785600  1
  Sc  Sc10  1  0.74983900  0.63837100  0.99488400  1
  Sc  Sc11  1  0.75009000  0.36164500  0.35635000  1
  Si  Si12  1  0.55626700  0.99996500  0.02436100  1
  Si  Si13  1  0.94371400  0.99998000  0.02437300  1
  Si  Si14  1  0.75001600  0.00002600  0.61724300  1
  Si  Si15  1  0.25013300  0.40665100  0.98781200  1
  Si  Si16  1  0.24992100  0.59347200  0.58102000  1
  Si  Si17  1  0.24999500  0.99980300  0.41006500  1
