# generated using pymatgen
data_TiNi5(BO5)2
_symmetry_space_group_name_H-M   'P 1'
_cell_length_a   3.02328000
_cell_length_b   9.30698400
_cell_length_c   12.35572400
_cell_angle_alpha   90.00000000
_cell_angle_beta   90.00000000
_cell_angle_gamma   90.00000000
_symmetry_Int_Tables_number   1
_chemical_formula_structural   TiNi5(BO5)2
_chemical_formula_sum   'Ti2 Ni10 B4 O20'
_cell_volume   347.66064928
_cell_formula_units_Z   2
loop_
 _symmetry_equiv_pos_site_id
 _symmetry_equiv_pos_as_xyz
  1  'x, y, z'
loop_
 _atom_site_type_symbol
 _atom_site_label
 _atom_site_symmetry_multiplicity
 _atom_site_fract_x
 _atom_site_fract_y
 _atom_site_fract_z
 _atom_site_occupancy
  Ti  Ti0  1  0.00000000  0.01037100  0.61358900  1
  Ti  Ti1  1  0.00000000  0.98962900  0.11358900  1
  Ni  Ni2  1  0.50000000  0.25952800  0.21988000  1
  Ni  Ni3  1  0.50000000  0.25924600  0.78478200  1
  Ni  Ni4  1  0.50000000  0.74075400  0.28478200  1
  Ni  Ni5  1  0.50000000  0.74047200  0.71988000  1
  Ni  Ni6  1  0.50000000  0.25987300  0.49655000  1
  Ni  Ni7  1  0.50000000  0.74012700  0.99655000  1
  Ni  Ni8  1  0.00000000  0.73997600  0.49701100  1
  Ni  Ni9  1  0.00000000  0.26002400  0.99701100  1
  Ni  Ni10  1  0.00000000  0.48790900  0.38521600  1
  Ni  Ni11  1  0.00000000  0.51209100  0.88521600  1
  B  B12  1  0.00000000  0.52584300  0.13998400  1
  B  B13  1  0.00000000  0.97993300  0.85998600  1
  B  B14  1  0.00000000  0.02006700  0.35998600  1
  B  B15  1  0.00000000  0.47415700  0.63998400  1
  O  O16  1  0.00000000  0.39778800  0.54375800  1
  O  O17  1  0.00000000  0.09515500  0.45887300  1
  O  O18  1  0.00000000  0.90484500  0.95887300  1
  O  O19  1  0.00000000  0.60221200  0.04375800  1
  O  O20  1  0.50000000  0.63880700  0.42451700  1
  O  O21  1  0.50000000  0.87624300  0.57728000  1
  O  O22  1  0.50000000  0.12375700  0.07728000  1
  O  O23  1  0.50000000  0.36119300  0.92451700  1
  O  O24  1  0.00000000  0.60023400  0.23659500  1
  O  O25  1  0.00000000  0.90580100  0.76111700  1
  O  O26  1  0.00000000  0.09419900  0.26111700  1
  O  O27  1  0.00000000  0.39976600  0.73659500  1
  O  O28  1  0.50000000  0.35392900  0.35659000  1
  O  O29  1  0.50000000  0.13591300  0.64524400  1
  O  O30  1  0.50000000  0.86408700  0.14524400  1
  O  O31  1  0.50000000  0.64607100  0.85659000  1
  O  O32  1  0.00000000  0.37512600  0.14046600  1
  O  O33  1  0.00000000  0.12630600  0.85856200  1
  O  O34  1  0.00000000  0.87369400  0.35856200  1
  O  O35  1  0.00000000  0.62487400  0.64046600  1
