# generated using pymatgen
data_Tl3In3SnSe8
_symmetry_space_group_name_H-M   'P 1'
_cell_length_a   6.64265958
_cell_length_b   6.64265958
_cell_length_c   10.85441833
_cell_angle_alpha   83.34098488
_cell_angle_beta   83.34098488
_cell_angle_gamma   71.16714544
_symmetry_Int_Tables_number   1
_chemical_formula_structural   Tl3In3SnSe8
_chemical_formula_sum   'Tl3 In3 Sn1 Se8'
_cell_volume   448.67776591
_cell_formula_units_Z   1
loop_
 _symmetry_equiv_pos_site_id
 _symmetry_equiv_pos_as_xyz
  1  'x, y, z'
loop_
 _atom_site_type_symbol
 _atom_site_label
 _atom_site_symmetry_multiplicity
 _atom_site_fract_x
 _atom_site_fract_y
 _atom_site_fract_z
 _atom_site_occupancy
  Tl  Tl0  1  0.37685100  0.62314900  0.00000000  1
  Tl  Tl1  1  0.12865300  0.36572000  0.26632900  1
  Tl  Tl2  1  0.63428000  0.87134700  0.73367100  1
  In  In3  1  0.06817000  0.28461600  0.68430700  1
  In  In4  1  0.71538400  0.93183000  0.31569300  1
  In  In5  1  0.87512700  0.12487300  0.00000000  1
  Sn  Sn6  1  0.26964400  0.73035600  0.50000000  1
  Se  Se7  1  0.96561000  0.60543100  0.06027800  1
  Se  Se8  1  0.44443900  0.09464900  0.52922600  1
  Se  Se9  1  0.54440400  0.37083900  0.21593900  1
  Se  Se10  1  0.04235600  0.86900000  0.72512600  1
  Se  Se11  1  0.39456900  0.03439000  0.93972200  1
  Se  Se12  1  0.90535100  0.55556100  0.47077400  1
  Se  Se13  1  0.13100000  0.95764400  0.27487400  1
  Se  Se14  1  0.62916100  0.45559600  0.78406100  1
