# generated using pymatgen
data_Ti4Mn2O
_symmetry_space_group_name_H-M   'P 1'
_cell_length_a   8.40704284
_cell_length_b   8.40704284
_cell_length_c   8.40704284
_cell_angle_alpha   60.00000000
_cell_angle_beta   60.00000000
_cell_angle_gamma   60.00000000
_symmetry_Int_Tables_number   1
_chemical_formula_structural   Ti4Mn2O
_chemical_formula_sum   'Ti16 Mn8 O4'
_cell_volume   420.16007619
_cell_formula_units_Z   4
loop_
 _symmetry_equiv_pos_site_id
 _symmetry_equiv_pos_as_xyz
  1  'x, y, z'
loop_
 _atom_site_type_symbol
 _atom_site_label
 _atom_site_symmetry_multiplicity
 _atom_site_fract_x
 _atom_site_fract_y
 _atom_site_fract_z
 _atom_site_occupancy
  Ti  Ti0  1  0.32022500  0.32022500  0.67977500  1
  Ti  Ti1  1  0.67977500  0.32022500  0.67977500  1
  Ti  Ti2  1  0.32022500  0.67977500  0.67977500  1
  Ti  Ti3  1  0.67977500  0.67977500  0.32022500  1
  Ti  Ti4  1  0.32022500  0.67977500  0.32022500  1
  Ti  Ti5  1  0.67977500  0.32022500  0.32022500  1
  Ti  Ti6  1  0.42984700  0.42984700  0.07015300  1
  Ti  Ti7  1  0.07015300  0.42984700  0.07015300  1
  Ti  Ti8  1  0.42984700  0.07015300  0.07015300  1
  Ti  Ti9  1  0.07015300  0.07015300  0.42984700  1
  Ti  Ti10  1  0.42984700  0.07015300  0.42984700  1
  Ti  Ti11  1  0.07015300  0.42984700  0.42984700  1
  Ti  Ti12  1  0.08608900  0.08608900  0.74173300  1
  Ti  Ti13  1  0.08608900  0.74173300  0.08608900  1
  Ti  Ti14  1  0.74173300  0.08608900  0.08608900  1
  Ti  Ti15  1  0.08608900  0.08608900  0.08608900  1
  Mn  Mn16  1  0.87505300  0.87505300  0.37484000  1
  Mn  Mn17  1  0.87505300  0.37484000  0.87505300  1
  Mn  Mn18  1  0.37484000  0.87505300  0.87505300  1
  Mn  Mn19  1  0.87505300  0.87505300  0.87505300  1
  Mn  Mn20  1  0.66113400  0.66113400  0.01659800  1
  Mn  Mn21  1  0.66113400  0.01659800  0.66113400  1
  Mn  Mn22  1  0.01659800  0.66113400  0.66113400  1
  Mn  Mn23  1  0.66113400  0.66113400  0.66113400  1
  O  O24  1  0.37511300  0.37511300  0.87466200  1
  O  O25  1  0.37511300  0.87466200  0.37511300  1
  O  O26  1  0.87466200  0.37511300  0.37511300  1
  O  O27  1  0.37511300  0.37511300  0.37511300  1
