# generated using pymatgen
data_Ti2VTe4
_symmetry_space_group_name_H-M   'P 1'
_cell_length_a   7.39650799
_cell_length_b   7.39650799
_cell_length_c   6.98979859
_cell_angle_alpha   62.50263625
_cell_angle_beta   62.50263625
_cell_angle_gamma   30.42121860
_symmetry_Int_Tables_number   1
_chemical_formula_structural   Ti2VTe4
_chemical_formula_sum   'Ti2 V1 Te4'
_cell_volume   170.02690794
_cell_formula_units_Z   1
loop_
 _symmetry_equiv_pos_site_id
 _symmetry_equiv_pos_as_xyz
  1  'x, y, z'
loop_
 _atom_site_type_symbol
 _atom_site_label
 _atom_site_symmetry_multiplicity
 _atom_site_fract_x
 _atom_site_fract_y
 _atom_site_fract_z
 _atom_site_occupancy
  Ti  Ti0  1  0.00199700  0.00199700  0.99694300  1
  Ti  Ti1  1  0.24937900  0.24937900  0.70636500  1
  V  V2  1  0.74914100  0.74914100  0.29482400  1
  Te  Te3  1  0.10978900  0.10978900  0.54545300  1
  Te  Te4  1  0.89128600  0.89128600  0.44852100  1
  Te  Te5  1  0.36254800  0.36254800  0.97067000  1
  Te  Te6  1  0.63585900  0.63585900  0.03722400  1
