data_image0
_chemical_formula_structural       Se16Ti4Tl16
_chemical_formula_sum              "Se16 Ti4 Tl16"
_cell_length_a       8.3567
_cell_length_b       8.23024
_cell_length_c       15.2078
_cell_angle_alpha    90
_cell_angle_beta     102.814
_cell_angle_gamma    90

_space_group_name_H-M_alt    "P 1"
_space_group_IT_number       1

loop_
  _space_group_symop_operation_xyz
  'x, y, z'

loop_
  _atom_site_type_symbol
  _atom_site_label
  _atom_site_symmetry_multiplicity
  _atom_site_fract_x
  _atom_site_fract_y
  _atom_site_fract_z
  _atom_site_occupancy
  Se  Se1       1.0  0.94600  0.18500  0.28200  1.0000
  Se  Se2       1.0  0.05350  0.68500  0.21800  1.0000
  Se  Se3       1.0  0.05350  0.81500  0.71800  1.0000
  Se  Se4       1.0  0.94600  0.31500  0.78200  1.0000
  Se  Se5       1.0  0.39800  0.04950  0.29300  1.0000
  Se  Se6       1.0  0.60200  0.55000  0.20700  1.0000
  Se  Se7       1.0  0.60200  0.95000  0.70700  1.0000
  Se  Se8       1.0  0.39800  0.45000  0.79300  1.0000
  Se  Se9       1.0  0.29400  0.34000  0.47100  1.0000
  Se  Se10      1.0  0.70600  0.84000  0.02890  1.0000
  Se  Se11      1.0  0.70600  0.66000  0.52900  1.0000
  Se  Se12      1.0  0.29400  0.16000  0.97100  1.0000
  Se  Se13      1.0  0.16200  0.87400  0.46800  1.0000
  Se  Se14      1.0  0.83800  0.37400  0.03220  1.0000
  Se  Se15      1.0  0.83800  0.12600  0.53200  1.0000
  Se  Se16      1.0  0.16200  0.62600  0.96800  1.0000
  Ti  Ti1       1.0  0.20100  0.10800  0.38100  1.0000
  Ti  Ti2       1.0  0.79900  0.60800  0.11900  1.0000
  Ti  Ti3       1.0  0.79900  0.89200  0.61900  1.0000
  Ti  Ti4       1.0  0.20100  0.39200  0.88100  1.0000
  Tl  Tl1       1.0  0.40100  0.67200  0.61300  1.0000
  Tl  Tl2       1.0  0.59900  0.17200  0.88700  1.0000
  Tl  Tl3       1.0  0.59900  0.32800  0.38700  1.0000
  Tl  Tl4       1.0  0.40100  0.82800  0.11300  1.0000
  Tl  Tl5       1.0  0.21000  0.10600  0.64200  1.0000
  Tl  Tl6       1.0  0.79000  0.60600  0.85800  1.0000
  Tl  Tl7       1.0  0.79000  0.89400  0.35800  1.0000
  Tl  Tl8       1.0  0.21000  0.39400  0.14200  1.0000
  Tl  Tl9       1.0  0.61300  0.30000  0.63600  1.0000
  Tl  Tl10      1.0  0.38700  0.80000  0.86400  1.0000
  Tl  Tl11      1.0  0.38700  0.70000  0.36400  1.0000
  Tl  Tl12      1.0  0.61300  0.20000  0.13600  1.0000
  Tl  Tl13      1.0  0.03430  0.48800  0.62000  1.0000
  Tl  Tl14      1.0  0.96600  0.98800  0.88000  1.0000
  Tl  Tl15      1.0  0.96600  0.51200  0.38000  1.0000
  Tl  Tl16      1.0  0.03430  0.01230  0.12000  1.0000
