# generated using pymatgen
data_Ti3Co(CuS4)2
_symmetry_space_group_name_H-M   'P 1'
_cell_length_a   7.04108185
_cell_length_b   7.04108185
_cell_length_c   7.04108159
_cell_angle_alpha   59.29183175
_cell_angle_beta   59.29183175
_cell_angle_gamma   59.29182783
_symmetry_Int_Tables_number   1
_chemical_formula_structural   Ti3Co(CuS4)2
_chemical_formula_sum   'Ti3 Co1 Cu2 S8'
_cell_volume   242.85257150
_cell_formula_units_Z   1
loop_
 _symmetry_equiv_pos_site_id
 _symmetry_equiv_pos_as_xyz
  1  'x, y, z'
loop_
 _atom_site_type_symbol
 _atom_site_label
 _atom_site_symmetry_multiplicity
 _atom_site_fract_x
 _atom_site_fract_y
 _atom_site_fract_z
 _atom_site_occupancy
  Ti  Ti0  1  0.00000000  0.50000000  0.50000000  1
  Ti  Ti1  1  0.50000000  0.50000000  0.00000000  1
  Ti  Ti2  1  0.50000000  0.00000000  0.50000000  1
  Co  Co3  1  0.50000000  0.50000000  0.50000000  1
  Cu  Cu4  1  0.12408200  0.12408200  0.12408200  1
  Cu  Cu5  1  0.87591800  0.87591800  0.87591800  1
  S  S6  1  0.26344500  0.72807800  0.26344500  1
  S  S7  1  0.26344500  0.26344500  0.72807800  1
  S  S8  1  0.72807800  0.26344500  0.26344500  1
  S  S9  1  0.25407600  0.25407600  0.25407600  1
  S  S10  1  0.73655500  0.27192200  0.73655500  1
  S  S11  1  0.73655500  0.73655500  0.27192200  1
  S  S12  1  0.27192200  0.73655500  0.73655500  1
  S  S13  1  0.74592400  0.74592400  0.74592400  1
