# generated using pymatgen
data_Ti3(TeSe)2
_symmetry_space_group_name_H-M   'P 1'
_cell_length_a   7.16535404
_cell_length_b   7.16535404
_cell_length_c   6.83152334
_cell_angle_alpha   63.60252246
_cell_angle_beta   63.60252246
_cell_angle_gamma   29.81981779
_symmetry_Int_Tables_number   1
_chemical_formula_structural   Ti3(TeSe)2
_chemical_formula_sum   'Ti3 Te2 Se2'
_cell_volume   154.86032640
_cell_formula_units_Z   1
loop_
 _symmetry_equiv_pos_site_id
 _symmetry_equiv_pos_as_xyz
  1  'x, y, z'
loop_
 _atom_site_type_symbol
 _atom_site_label
 _atom_site_symmetry_multiplicity
 _atom_site_fract_x
 _atom_site_fract_y
 _atom_site_fract_z
 _atom_site_occupancy
  Ti  Ti0  1  0.25281000  0.25281000  0.81283800  1
  Ti  Ti1  1  0.74719000  0.74719000  0.18716200  1
  Ti  Ti2  1  0.00000000  0.00000000  0.00000000  1
  Te  Te3  1  0.36541100  0.36541100  0.31735000  1
  Te  Te4  1  0.63458900  0.63458900  0.68265000  1
  Se  Se5  1  0.11229900  0.11229900  0.21508600  1
  Se  Se6  1  0.88770100  0.88770100  0.78491400  1
