# generated using pymatgen
data_Ti3WC3N
_symmetry_space_group_name_H-M   'P 1'
_cell_length_a   10.21341438
_cell_length_b   10.21341438
_cell_length_c   10.21341506
_cell_angle_alpha   17.23250785
_cell_angle_beta   17.23250785
_cell_angle_gamma   17.23250585
_symmetry_Int_Tables_number   1
_chemical_formula_structural   Ti3WC3N
_chemical_formula_sum   'Ti3 W1 C3 N1'
_cell_volume   81.58705316
_cell_formula_units_Z   1
loop_
 _symmetry_equiv_pos_site_id
 _symmetry_equiv_pos_as_xyz
  1  'x, y, z'
loop_
 _atom_site_type_symbol
 _atom_site_label
 _atom_site_symmetry_multiplicity
 _atom_site_fract_x
 _atom_site_fract_y
 _atom_site_fract_z
 _atom_site_occupancy
  Ti  Ti0  1  0.99861600  0.99861600  0.99861600  1
  Ti  Ti1  1  0.24979600  0.24979600  0.24979600  1
  Ti  Ti2  1  0.50061100  0.50061100  0.50061100  1
  W  W3  1  0.75126200  0.75126200  0.75126200  1
  C  C4  1  0.62569700  0.62569700  0.62569700  1
  C  C5  1  0.87514500  0.87514500  0.87514500  1
  C  C6  1  0.12501500  0.12501500  0.12501500  1
  N  N7  1  0.37385800  0.37385800  0.37385800  1
