# generated using pymatgen
data_Tm4Fe34C3
_symmetry_space_group_name_H-M   'P 1'
_cell_length_a   6.45367602
_cell_length_b   6.41533598
_cell_length_c   12.84897529
_cell_angle_alpha   82.79750405
_cell_angle_beta   83.33878933
_cell_angle_gamma   83.64731326
_symmetry_Int_Tables_number   1
_chemical_formula_structural   Tm4Fe34C3
_chemical_formula_sum   'Tm4 Fe34 C3'
_cell_volume   521.72009022
_cell_formula_units_Z   1
loop_
 _symmetry_equiv_pos_site_id
 _symmetry_equiv_pos_as_xyz
  1  'x, y, z'
loop_
 _atom_site_type_symbol
 _atom_site_label
 _atom_site_symmetry_multiplicity
 _atom_site_fract_x
 _atom_site_fract_y
 _atom_site_fract_z
 _atom_site_occupancy
  Tm  Tm0  1  0.66356900  0.65505300  0.32794000  1
  Tm  Tm1  1  0.66123300  0.66079000  0.82661000  1
  Tm  Tm2  1  0.33643100  0.34494700  0.17206000  1
  Tm  Tm3  1  0.33876700  0.33921000  0.67339000  1
  Fe  Fe4  1  0.34196300  0.34542800  0.42627600  1
  Fe  Fe5  1  0.34391200  0.34291800  0.92391300  1
  Fe  Fe6  1  0.34257300  0.85056000  0.17226000  1
  Fe  Fe7  1  0.34428800  0.84893400  0.67313300  1
  Fe  Fe8  1  0.85227200  0.34484200  0.17276300  1
  Fe  Fe9  1  0.84807900  0.34485100  0.67300700  1
  Fe  Fe10  1  0.65803700  0.65457200  0.07372400  1
  Fe  Fe11  1  0.65608800  0.65708200  0.57608700  1
  Fe  Fe12  1  0.65742700  0.14944000  0.32774000  1
  Fe  Fe13  1  0.65571200  0.15106600  0.82686700  1
  Fe  Fe14  1  0.14772800  0.65515800  0.32723700  1
  Fe  Fe15  1  0.15192100  0.65514900  0.82699300  1
  Fe  Fe16  1  0.90169700  0.90376400  0.45252500  1
  Fe  Fe17  1  0.90531600  0.90425300  0.95040000  1
  Fe  Fe18  1  0.09830300  0.09623600  0.04747500  1
  Fe  Fe19  1  0.09468400  0.09574700  0.54960000  1
  Fe  Fe20  1  0.00000000  0.00000000  0.25000000  1
  Fe  Fe21  1  0.00000000  0.00000000  0.75000000  1
  Fe  Fe22  1  0.99879100  0.49995200  0.50046600  1
  Fe  Fe23  1  0.00120900  0.50004800  0.99953400  1
  Fe  Fe24  1  0.50058400  0.99747800  0.99892900  1
  Fe  Fe25  1  0.49941600  0.00252200  0.50107100  1
  Fe  Fe26  1  0.28438300  0.71566400  0.50022000  1
  Fe  Fe27  1  0.28420200  0.71582700  0.99989000  1
  Fe  Fe28  1  0.71588000  0.99932200  0.14185300  1
  Fe  Fe29  1  0.70748700  0.00016700  0.64739900  1
  Fe  Fe30  1  0.00134000  0.29184500  0.35436600  1
  Fe  Fe31  1  0.99923600  0.29296600  0.85298900  1
  Fe  Fe32  1  0.28412000  0.00067800  0.35814700  1
  Fe  Fe33  1  0.29251300  0.99983300  0.85260100  1
  Fe  Fe34  1  0.99866000  0.70815500  0.14563400  1
  Fe  Fe35  1  0.00076400  0.70703400  0.64701100  1
  Fe  Fe36  1  0.71561700  0.28433600  0.99978000  1
  Fe  Fe37  1  0.71579800  0.28417300  0.50011000  1
  C  C38  1  0.49897000  0.49910600  0.99948400  1
  C  C39  1  0.50103000  0.50089400  0.50051600  1
  C  C40  1  0.50000000  0.00000000  0.25000000  1
