# generated using pymatgen
data_VH6SO10
_symmetry_space_group_name_H-M   'P 1'
_cell_length_a   7.46901900
_cell_length_b   7.68390909
_cell_length_c   7.90515487
_cell_angle_alpha   79.39358244
_cell_angle_beta   75.41254733
_cell_angle_gamma   71.66374690
_symmetry_Int_Tables_number   1
_chemical_formula_structural   VH6SO10
_chemical_formula_sum   'V2 H12 S2 O20'
_cell_volume   414.04676379
_cell_formula_units_Z   2
loop_
 _symmetry_equiv_pos_site_id
 _symmetry_equiv_pos_as_xyz
  1  'x, y, z'
loop_
 _atom_site_type_symbol
 _atom_site_label
 _atom_site_symmetry_multiplicity
 _atom_site_fract_x
 _atom_site_fract_y
 _atom_site_fract_z
 _atom_site_occupancy
  V  V0  1  0.71801100  0.13573000  0.81323000  1
  V  V1  1  0.28198900  0.86427000  0.18677000  1
  H  H2  1  0.55118500  0.54651500  0.72380700  1
  H  H3  1  0.44881500  0.45348500  0.27619300  1
  H  H4  1  0.91489500  0.39466500  0.94924800  1
  H  H5  1  0.08510500  0.60533500  0.05075200  1
  H  H6  1  0.88442600  0.25919400  0.48892100  1
  H  H7  1  0.11557400  0.74080600  0.51107900  1
  H  H8  1  0.03638400  0.14677900  0.80072500  1
  H  H9  1  0.96361600  0.85322100  0.19927500  1
  H  H10  1  0.78485900  0.11707700  0.44692100  1
  H  H11  1  0.21514100  0.88292300  0.55307900  1
  H  H12  1  0.38750900  0.44726900  0.81650200  1
  H  H13  1  0.61249100  0.55273100  0.18349800  1
  S  S14  1  0.43218700  0.91858200  0.76272700  1
  S  S15  1  0.56781300  0.08141800  0.23727300  1
  O  O16  1  0.57288600  0.78674100  0.65093500  1
  O  O17  1  0.42711400  0.21325900  0.34906500  1
  O  O18  1  0.42557400  0.82481300  0.95304500  1
  O  O19  1  0.57442600  0.17518700  0.04695500  1
  O  O20  1  0.23672200  0.96994800  0.72582000  1
  O  O21  1  0.76327800  0.03005200  0.27418000  1
  O  O22  1  0.90576200  0.23834200  0.81873300  1
  O  O23  1  0.09423800  0.76165800  0.18126700  1
  O  O24  1  0.98872400  0.54419900  0.56168900  1
  O  O25  1  0.01127600  0.45580100  0.43831100  1
  O  O26  1  0.48640700  0.09403000  0.75143600  1
  O  O27  1  0.51359300  0.90597000  0.24856400  1
  O  O28  1  0.09200600  0.52161100  0.96528000  1
  O  O29  1  0.90799400  0.47838900  0.03472000  1
  O  O30  1  0.82899700  0.92055500  0.84409800  1
  O  O31  1  0.17100300  0.07944500  0.15590200  1
  O  O32  1  0.81245800  0.16935100  0.54148000  1
  O  O33  1  0.18754200  0.83064900  0.45852000  1
  O  O34  1  0.52399400  0.42577100  0.76002200  1
  O  O35  1  0.47600600  0.57422900  0.23997800  1
