# generated using pymatgen
data_U7V5Ag3O35
_symmetry_space_group_name_H-M   'P 1'
_cell_length_a   7.33567100
_cell_length_b   7.36735100
_cell_length_c   15.05037804
_cell_angle_alpha   89.99604079
_cell_angle_beta   90.00000000
_cell_angle_gamma   90.00000000
_symmetry_Int_Tables_number   1
_chemical_formula_structural   U7V5Ag3O35
_chemical_formula_sum   'U7 V5 Ag3 O35'
_cell_volume   813.38959812
_cell_formula_units_Z   1
loop_
 _symmetry_equiv_pos_site_id
 _symmetry_equiv_pos_as_xyz
  1  'x, y, z'
loop_
 _atom_site_type_symbol
 _atom_site_label
 _atom_site_symmetry_multiplicity
 _atom_site_fract_x
 _atom_site_fract_y
 _atom_site_fract_z
 _atom_site_occupancy
  U  U0  1  0.50000000  0.00005900  0.27611700  1
  U  U1  1  0.00000000  0.49922700  0.72477800  1
  U  U2  1  0.00000000  0.00017100  0.85602700  1
  U  U3  1  0.00000000  0.00000900  0.14211000  1
  U  U4  1  0.50000000  0.49923300  0.99876500  1
  U  U5  1  0.50000000  0.00024900  0.56249000  1
  U  U6  1  0.00000000  0.49998500  0.43771600  1
  V  V7  1  0.50000000  0.99994400  0.05627400  1
  V  V8  1  0.00000000  0.49986900  0.94345500  1
  V  V9  1  0.00000000  0.00009500  0.63291400  1
  V  V10  1  0.00000000  0.99999200  0.36744000  1
  V  V11  1  0.50000000  0.50002900  0.50000900  1
  Ag  Ag12  1  0.23346300  0.49997800  0.20775100  1
  Ag  Ag13  1  0.50000000  0.76970200  0.79166400  1
  Ag  Ag14  1  0.76653700  0.49997800  0.20775100  1
  O  O15  1  0.32243100  0.99989800  0.13399400  1
  O  O16  1  0.00000000  0.67731800  0.86687900  1
  O  O17  1  0.67756900  0.99989800  0.13399400  1
  O  O18  1  0.00000000  0.32249300  0.86695300  1
  O  O19  1  0.75241700  0.99551300  0.85001200  1
  O  O20  1  0.00000000  0.25059000  0.15121700  1
  O  O21  1  0.24758300  0.99551300  0.85001200  1
  O  O22  1  0.00000000  0.74942500  0.15124800  1
  O  O23  1  0.50000000  0.99247500  0.68505500  1
  O  O24  1  0.00000000  0.50002100  0.31158300  1
  O  O25  1  0.00000000  0.81953800  0.70735300  1
  O  O26  1  0.81841000  0.00001000  0.29282400  1
  O  O27  1  0.00000000  0.18067600  0.70729100  1
  O  O28  1  0.18159000  0.00001000  0.29282400  1
  O  O29  1  0.50000000  0.75312600  0.27444600  1
  O  O30  1  0.75446500  0.50335300  0.72506200  1
  O  O31  1  0.50000000  0.24683400  0.27441300  1
  O  O32  1  0.24553500  0.50335300  0.72506200  1
  O  O33  1  0.70074800  0.50009100  0.43628300  1
  O  O34  1  0.50000000  0.30279700  0.56292900  1
  O  O35  1  0.29925200  0.50009100  0.43628300  1
  O  O36  1  0.50000000  0.69694200  0.56329200  1
  O  O37  1  0.80133300  0.99993600  0.56948800  1
  O  O38  1  0.00000000  0.19888600  0.42978100  1
  O  O39  1  0.19866700  0.99993600  0.56948800  1
  O  O40  1  0.00000000  0.80109600  0.42979100  1
  O  O41  1  0.50000000  0.49938600  0.12544400  1
  O  O42  1  0.50000000  0.50829500  0.87645500  1
  O  O43  1  0.50000000  0.80247900  0.99452500  1
  O  O44  1  0.80225400  0.50011000  0.00627900  1
  O  O45  1  0.50000000  0.19786200  0.99526700  1
  O  O46  1  0.19774600  0.50011000  0.00627900  1
  O  O47  1  0.00000000  0.00004600  0.00220600  1
  O  O48  1  0.50000000  0.00052700  0.43304100  1
  O  O49  1  0.00000000  0.49994800  0.56588500  1
