# generated using pymatgen
data_TiAl3Ge
_symmetry_space_group_name_H-M   'P 1'
_cell_length_a   4.00530500
_cell_length_b   4.00530500
_cell_length_c   10.59106200
_cell_angle_alpha   90.00000000
_cell_angle_beta   90.00000000
_cell_angle_gamma   90.00000000
_symmetry_Int_Tables_number   1
_chemical_formula_structural   TiAl3Ge
_chemical_formula_sum   'Ti2 Al6 Ge2'
_cell_volume   169.90677474
_cell_formula_units_Z   2
loop_
 _symmetry_equiv_pos_site_id
 _symmetry_equiv_pos_as_xyz
  1  'x, y, z'
loop_
 _atom_site_type_symbol
 _atom_site_label
 _atom_site_symmetry_multiplicity
 _atom_site_fract_x
 _atom_site_fract_y
 _atom_site_fract_z
 _atom_site_occupancy
  Ti  Ti0  1  0.50000000  0.00000000  0.19471000  1
  Ti  Ti1  1  0.00000000  0.50000000  0.19471000  1
  Al  Al2  1  0.50000000  0.50000000  0.60937200  1
  Al  Al3  1  0.00000000  0.00000000  0.38306400  1
  Al  Al4  1  0.50000000  0.50000000  0.00339300  1
  Al  Al5  1  0.00000000  0.00000000  0.00342000  1
  Al  Al6  1  0.00000000  0.50000000  0.80816000  1
  Al  Al7  1  0.50000000  0.00000000  0.80816000  1
  Ge  Ge8  1  0.50000000  0.50000000  0.36945900  1
  Ge  Ge9  1  0.00000000  0.00000000  0.62555400  1
