# generated using pymatgen
data_ThSc
_symmetry_space_group_name_H-M   'P 1'
_cell_length_a   5.82755412
_cell_length_b   5.82755412
_cell_length_c   5.82755438
_cell_angle_alpha   34.54912503
_cell_angle_beta   34.54912503
_cell_angle_gamma   34.54912916
_symmetry_Int_Tables_number   1
_chemical_formula_structural   ThSc
_chemical_formula_sum   'Th1 Sc1'
_cell_volume   56.78824472
_cell_formula_units_Z   1
loop_
 _symmetry_equiv_pos_site_id
 _symmetry_equiv_pos_as_xyz
  1  'x, y, z'
loop_
 _atom_site_type_symbol
 _atom_site_label
 _atom_site_symmetry_multiplicity
 _atom_site_fract_x
 _atom_site_fract_y
 _atom_site_fract_z
 _atom_site_occupancy
  Th  Th0  1  0.50000000  0.50000000  0.50000000  1
  Sc  Sc1  1  0.00000000  0.00000000  0.00000000  1
