# generated using pymatgen
data_Zn15Te5As2P8(Pb3O14)5
_symmetry_space_group_name_H-M   'P 1'
_cell_length_a   5.27891469
_cell_length_b   8.58063550
_cell_length_c   37.39790673
_cell_angle_alpha   96.58404109
_cell_angle_beta   89.99905073
_cell_angle_gamma   90.00275490
_symmetry_Int_Tables_number   1
_chemical_formula_structural   Zn15Te5As2P8(Pb3O14)5
_chemical_formula_sum   'Zn15 Te5 As2 P8 Pb15 O70'
_cell_volume   1682.81982522
_cell_formula_units_Z   1
loop_
 _symmetry_equiv_pos_site_id
 _symmetry_equiv_pos_as_xyz
  1  'x, y, z'
loop_
 _atom_site_type_symbol
 _atom_site_label
 _atom_site_symmetry_multiplicity
 _atom_site_fract_x
 _atom_site_fract_y
 _atom_site_fract_z
 _atom_site_occupancy
  Zn  Zn0  1  0.50027226  0.74952676  0.00012454  1
  Zn  Zn1  1  0.49998359  0.34943460  0.19999970  1
  Zn  Zn2  1  0.50002561  0.94939473  0.39998698  1
  Zn  Zn3  1  0.50326048  0.55378380  0.59857420  1
  Zn  Zn4  1  0.50365751  0.15387081  0.79869742  1
  Zn  Zn5  1  0.50002678  0.70026992  0.14988313  1
  Zn  Zn6  1  0.50009452  0.30022376  0.34986996  1
  Zn  Zn7  1  0.50002507  0.90021507  0.54977620  1
  Zn  Zn8  1  0.50361341  0.50335424  0.75154103  1
  Zn  Zn9  1  0.50358902  0.10342145  0.95165658  1
  Zn  Zn10  1  0.49961821  0.15042252  0.05022141  1
  Zn  Zn11  1  0.49997508  0.75038416  0.25012737  1
  Zn  Zn12  1  0.49993292  0.35039664  0.45009384  1
  Zn  Zn13  1  0.50391299  0.94275419  0.64965628  1
  Zn  Zn14  1  0.50363927  0.54277200  0.84977736  1
  Te  Te15  1  0.00006404  0.99989906  0.00019505  1
  Te  Te16  1  -0.00000464  0.60000644  0.20001505  1
  Te  Te17  1  0.00000998  0.19998381  0.39994092  1
  Te  Te18  1  0.00016304  0.80010033  0.59982794  1
  Te  Te19  1  0.00020527  0.39983728  0.79997933  1
  As  As20  1  0.46208865  0.33334508  0.66660670  1
  As  As21  1  0.46224402  0.93329350  0.86669290  1
  P  P22  1  0.54096681  0.06668766  0.13333883  1
  P  P23  1  0.54074488  0.66670017  0.33333558  1
  P  P24  1  0.54106153  0.26642419  0.53316979  1
  P  P25  1  0.54111455  0.86660303  0.73332419  1
  P  P26  1  0.54093957  0.46693211  0.93348523  1
  P  P27  1  0.45914000  0.53330806  0.06668938  1
  P  P28  1  0.45906785  0.13331803  0.26664584  1
  P  P29  1  0.45899271  0.73336770  0.46664510  1
  Pb  Pb30  1  0.99984789  0.35865673  0.11955199  1
  Pb  Pb31  1  0.00021580  0.95862511  0.31953217  1
  Pb  Pb32  1  0.99968158  0.55879883  0.51932747  1
  Pb  Pb33  1  0.00191108  0.15695702  0.71967850  1
  Pb  Pb34  1  0.00205627  0.75695091  0.91991629  1
  Pb  Pb35  1  0.99992934  0.00216513  0.20000000  1
  Pb  Pb36  1  0.00008705  0.60223316  0.40001487  1
  Pb  Pb37  1  0.00212529  0.20185245  0.59939202  1
  Pb  Pb38  1  0.00196262  0.80235748  0.79959273  1
  Pb  Pb39  1  0.99986239  0.40274290  0.00020284  1
  Pb  Pb40  1  0.00005010  0.83904938  0.08051211  1
  Pb  Pb41  1  0.00006808  0.43902126  0.28046447  1
  Pb  Pb42  1  0.00009894  0.03895814  0.48040509  1
  Pb  Pb43  1  0.00177083  0.64087318  0.68069837  1
  Pb  Pb44  1  0.00201736  0.24091813  0.88079579  1
  O  O45  1  0.24925544  0.06671177  0.13334761  1
  O  O46  1  0.24945465  0.66671023  0.33333603  1
  O  O47  1  0.24937348  0.26690764  0.53325747  1
  O  O48  1  0.24982061  0.86669930  0.73333238  1
  O  O49  1  0.24973583  0.46649102  0.93341411  1
  O  O50  1  0.75069546  0.53322486  0.06668311  1
  O  O51  1  0.75069214  0.13330661  0.26665279  1
  O  O52  1  0.75074789  0.73341760  0.46664368  1
  O  O53  1  0.78617723  0.33336277  0.66663555  1
  O  O54  1  0.78613383  0.93319376  0.86668981  1
  O  O55  1  0.78864777  0.85840466  0.02477523  1
  O  O56  1  0.78873219  0.45846875  0.22464370  1
  O  O57  1  0.78876828  0.05840693  0.42462356  1
  O  O58  1  0.78774160  0.65955232  0.62454877  1
  O  O59  1  0.78769595  0.25950044  0.82469738  1
  O  O60  1  0.78871471  0.56302307  0.15692052  1
  O  O61  1  0.78881918  0.16297239  0.35690065  1
  O  O62  1  0.78711303  0.76244110  0.55686784  1
  O  O63  1  0.78771115  0.36237502  0.75708855  1
  O  O64  1  0.78928848  0.96305485  0.95713934  1
  O  O65  1  0.78723896  0.17835689  0.01840638  1
  O  O66  1  0.78871039  0.77850966  0.21845656  1
  O  O67  1  0.78874569  0.37847982  0.41843946  1
  O  O68  1  0.78917421  0.97820367  0.61828138  1
  O  O69  1  0.78766533  0.57805350  0.81823820  1
  O  O70  1  0.21102836  0.00610775  0.04326646  1
  O  O71  1  0.21125371  0.60612809  0.24309705  1
  O  O72  1  0.21125878  0.20609123  0.44308030  1
  O  O73  1  0.21036491  0.80456743  0.64284239  1
  O  O74  1  0.21021368  0.40461437  0.84302466  1
  O  O75  1  0.21123269  0.43388159  0.17536736  1
  O  O76  1  0.21127265  0.03380958  0.37536583  1
  O  O77  1  0.21006332  0.63485742  0.57473359  1
  O  O78  1  0.21014774  0.23471026  0.77511516  1
  O  O79  1  0.21128477  0.83373553  0.97574010  1
  O  O80  1  0.21127650  0.76006761  0.18154839  1
  O  O81  1  0.21128012  0.36002123  0.38153466  1
  O  O82  1  0.21115574  0.95937301  0.58123760  1
  O  O83  1  0.21019556  0.56065150  0.78188168  1
  O  O84  1  0.21034060  0.16138114  0.98219919  1
  O  O85  1  0.65525364  0.08744605  0.09544961  1
  O  O86  1  0.65525717  0.68742125  0.29541270  1
  O  O87  1  0.65516594  0.28705569  0.49528810  1
  O  O88  1  0.65578121  0.88691827  0.69547416  1
  O  O89  1  0.65582762  0.48732328  0.89562961  1
  O  O90  1  0.65526032  0.20246374  0.16023996  1
  O  O91  1  0.65530612  0.80241521  0.36023104  1
  O  O92  1  0.65648417  0.40207585  0.55997795  1
  O  O93  1  0.65588488  0.00234918  0.76009684  1
  O  O94  1  0.65456133  0.60278048  0.96035488  1
  O  O95  1  0.65516574  0.91019544  0.14435876  1
  O  O96  1  0.65524855  0.51012579  0.34433910  1
  O  O97  1  0.65450779  0.10997611  0.54421924  1
  O  O98  1  0.65573102  0.71073568  0.74440601  1
  O  O99  1  0.65642399  0.31092509  0.94455271  1
  O  O100  1  0.34479111  0.64205459  0.03979609  1
  O  O101  1  0.34478192  0.24216503  0.23976205  1
  O  O102  1  0.34473219  0.84218446  0.43974102  1
  O  O103  1  0.32762261  0.45203840  0.63735866  1
  O  O104  1  0.32764318  0.05190193  0.83740966  1
  O  O105  1  0.34483386  0.59199802  0.10460571  1
  O  O106  1  0.34474938  0.19197504  0.30456901  1
  O  O107  1  0.34466835  0.79195037  0.50451549  1
  O  O108  1  0.32761845  0.39710177  0.70793036  1
  O  O109  1  0.32778775  0.99713424  0.90802792  1
  O  O110  1  0.34467355  0.36583572  0.05568583  1
  O  O111  1  0.34475429  0.96579027  0.25564143  1
  O  O112  1  0.34487427  0.56578519  0.45562893  1
  O  O113  1  0.32772823  0.15090094  0.65460800  1
  O  O114  1  0.32754910  0.75095969  0.85467211  1
