# generated using pymatgen
data_VCdNiP2O13
_symmetry_space_group_name_H-M   'P 1'
_cell_length_a   12.77264370
_cell_length_b   12.77264370
_cell_length_c   12.77264370
_cell_angle_alpha   147.39875561
_cell_angle_beta   105.42256547
_cell_angle_gamma   83.77826403
_symmetry_Int_Tables_number   1
_chemical_formula_structural   VCdNiP2O13
_chemical_formula_sum   'V4 Cd4 Ni4 P8 O52'
_cell_volume   1055.09142714
_cell_formula_units_Z   4
loop_
 _symmetry_equiv_pos_site_id
 _symmetry_equiv_pos_as_xyz
  1  'x, y, z'
loop_
 _atom_site_type_symbol
 _atom_site_label
 _atom_site_symmetry_multiplicity
 _atom_site_fract_x
 _atom_site_fract_y
 _atom_site_fract_z
 _atom_site_occupancy
  V  V0  1  0.24229400  0.77887200  0.03676900  1
  V  V1  1  0.75770600  0.79447600  0.53657800  1
  V  V2  1  0.25789700  0.29447600  0.53676900  1
  V  V3  1  0.74210300  0.27887200  0.03657800  1
  Cd  Cd4  1  0.00000000  0.27747500  0.27747500  1
  Cd  Cd5  1  0.50000000  0.72396800  0.22396800  1
  Cd  Cd6  1  0.50000000  0.22396800  0.72396800  1
  Cd  Cd7  1  0.00000000  0.77747500  0.77747500  1
  Ni  Ni8  1  0.87061900  0.99917400  0.37474100  1
  Ni  Ni9  1  0.12938100  0.50412300  0.12855500  1
  Ni  Ni10  1  0.62443300  0.49917400  0.62855500  1
  Ni  Ni11  1  0.37556700  0.00412300  0.87474100  1
  P  P12  1  0.02415200  0.39869500  0.61705400  1
  P  P13  1  0.97584800  0.59290200  0.37454300  1
  P  P14  1  0.28139400  0.40934300  0.88474800  1
  P  P15  1  0.71860600  0.60335400  0.12794900  1
  P  P16  1  0.47540500  0.10335400  0.38474800  1
  P  P17  1  0.52459500  0.90934300  0.62794900  1
  P  P18  1  0.21835900  0.09290200  0.11705400  1
  P  P19  1  0.78164100  0.89869500  0.87454300  1
  O  O20  1  0.99845100  0.98291100  0.46125900  1
  O  O21  1  0.00154900  0.46280800  0.98446000  1
  O  O22  1  0.52165200  0.48291100  0.48446000  1
  O  O23  1  0.47834800  0.96280800  0.96125900  1
  O  O24  1  0.10367700  0.59096000  0.84481000  1
  O  O25  1  0.89632300  0.74113300  0.48728300  1
  O  O26  1  0.24824900  0.26879100  0.66043400  1
  O  O27  1  0.75175100  0.41218400  0.02054200  1
  O  O28  1  0.39164200  0.91218400  0.16043400  1
  O  O29  1  0.60835800  0.76879100  0.52054200  1
  O  O30  1  0.25385000  0.24113300  0.34481000  1
  O  O31  1  0.74615000  0.09096000  0.98728300  1
  O  O32  1  0.04606300  0.60776800  0.50847000  1
  O  O33  1  0.95393700  0.46240700  0.56170500  1
  O  O34  1  0.59914000  0.53890500  0.99425100  1
  O  O35  1  0.40086000  0.39511200  0.93976600  1
  O  O36  1  0.45534600  0.89511200  0.49425100  1
  O  O37  1  0.54465400  0.03890500  0.43976600  1
  O  O38  1  0.90070200  0.96240700  0.00847000  1
  O  O39  1  0.09929800  0.10776800  0.06170500  1
  O  O40  1  0.95492300  0.28434800  0.58849000  1
  O  O41  1  0.04507700  0.63356700  0.32942400  1
  O  O42  1  0.19579500  0.35893900  0.90527400  1
  O  O43  1  0.80420500  0.70947900  0.16314400  1
  O  O44  1  0.54633400  0.20947900  0.40527400  1
  O  O45  1  0.45366600  0.85893900  0.66314400  1
  O  O46  1  0.30414300  0.13356700  0.08849000  1
  O  O47  1  0.69585700  0.78434800  0.82942400  1
  O  O48  1  0.80395900  0.11796500  0.55178600  1
  O  O49  1  0.19604100  0.74782600  0.31400500  1
  O  O50  1  0.04187900  0.26275400  0.93021700  1
  O  O51  1  0.95812100  0.88833800  0.22087500  1
  O  O52  1  0.66746300  0.38833800  0.43021700  1
  O  O53  1  0.33253700  0.76275400  0.72087500  1
  O  O54  1  0.43382100  0.24782600  0.05178600  1
  O  O55  1  0.56617900  0.61796500  0.81400500  1
  O  O56  1  0.75679100  0.00136800  0.26292900  1
  O  O57  1  0.24320900  0.50613800  0.24457700  1
  O  O58  1  0.73843900  0.50136800  0.74457700  1
  O  O59  1  0.26156100  0.00613800  0.76292900  1
  O  O60  1  0.09806200  0.27026300  0.46824100  1
  O  O61  1  0.90193800  0.37017900  0.17220100  1
  O  O62  1  0.29916300  0.63400700  0.04010800  1
  O  O63  1  0.70083700  0.74094500  0.33484500  1
  O  O64  1  0.40610000  0.24094500  0.54010800  1
  O  O65  1  0.59390000  0.13400700  0.83484500  1
  O  O66  1  0.19797800  0.87017900  0.96824100  1
  O  O67  1  0.80202200  0.77026300  0.67220100  1
  O  O68  1  0.21198400  0.95881000  0.25089600  1
  O  O69  1  0.78801600  0.03891200  0.74682600  1
  O  O70  1  0.29208700  0.53891200  0.75089600  1
  O  O71  1  0.70791300  0.45881000  0.24682600  1
