# generated using pymatgen
data_Ti20(Sb3Se)3
_symmetry_space_group_name_H-M   'P 1'
_cell_length_a   6.98265124
_cell_length_b   8.28716700
_cell_length_c   10.19435319
_cell_angle_alpha   90.00000000
_cell_angle_beta   89.90872612
_cell_angle_gamma   90.00000000
_symmetry_Int_Tables_number   1
_chemical_formula_structural   Ti20(Sb3Se)3
_chemical_formula_sum   'Ti20 Sb9 Se3'
_cell_volume   589.90974004
_cell_formula_units_Z   1
loop_
 _symmetry_equiv_pos_site_id
 _symmetry_equiv_pos_as_xyz
  1  'x, y, z'
loop_
 _atom_site_type_symbol
 _atom_site_label
 _atom_site_symmetry_multiplicity
 _atom_site_fract_x
 _atom_site_fract_y
 _atom_site_fract_z
 _atom_site_occupancy
  Ti  Ti0  1  0.83356000  0.75000000  0.22616500  1
  Ti  Ti1  1  0.65285100  0.75000000  0.71162700  1
  Ti  Ti2  1  0.14977000  0.25000000  0.78784500  1
  Ti  Ti3  1  0.34837500  0.25000000  0.29104400  1
  Ti  Ti4  1  0.32812100  0.75000000  0.27339400  1
  Ti  Ti5  1  0.18191300  0.75000000  0.76009100  1
  Ti  Ti6  1  0.66803000  0.25000000  0.72389200  1
  Ti  Ti7  1  0.83298100  0.25000000  0.22637900  1
  Ti  Ti8  1  0.69006800  0.94847700  0.44419700  1
  Ti  Ti9  1  0.80182500  0.54144600  0.94301400  1
  Ti  Ti10  1  0.30813000  0.44776400  0.55405400  1
  Ti  Ti11  1  0.19561300  0.06680800  0.05663800  1
  Ti  Ti12  1  0.30813000  0.05223600  0.55405400  1
  Ti  Ti13  1  0.19561300  0.43319200  0.05663800  1
  Ti  Ti14  1  0.69006800  0.55152300  0.44419700  1
  Ti  Ti15  1  0.80182500  0.95855400  0.94301400  1
  Ti  Ti16  1  0.03040800  0.75000000  0.49582800  1
  Ti  Ti17  1  0.48526600  0.75000000  0.99372300  1
  Ti  Ti18  1  0.96954300  0.25000000  0.50401600  1
  Ti  Ti19  1  0.53238300  0.25000000  0.00135800  1
  Sb  Sb20  1  0.56984000  0.50709700  0.17696900  1
  Sb  Sb21  1  0.92835600  0.99059400  0.67591400  1
  Sb  Sb22  1  0.42710500  0.01104700  0.82252900  1
  Sb  Sb23  1  0.07148300  0.48969100  0.32486600  1
  Sb  Sb24  1  0.42710500  0.48895300  0.82252900  1
  Sb  Sb25  1  0.07148300  0.01030900  0.32486600  1
  Sb  Sb26  1  0.56984000  0.99290300  0.17696900  1
  Sb  Sb27  1  0.92835600  0.50940600  0.67591400  1
  Sb  Sb28  1  0.08685100  0.75000000  0.02378100  1
  Se  Se29  1  0.41656800  0.75000000  0.52082300  1
  Se  Se30  1  0.91601900  0.25000000  0.98146200  1
  Se  Se31  1  0.58252200  0.25000000  0.48220700  1
