# generated using pymatgen
data_U7Se12
_symmetry_space_group_name_H-M   'P 1'
_cell_length_a   3.92262100
_cell_length_b   11.49725260
_cell_length_c   11.49725260
_cell_angle_alpha   120.00000346
_cell_angle_beta   90.00000000
_cell_angle_gamma   90.00000000
_symmetry_Int_Tables_number   1
_chemical_formula_structural   U7Se12
_chemical_formula_sum   'U7 Se12'
_cell_volume   449.05042516
_cell_formula_units_Z   1
loop_
 _symmetry_equiv_pos_site_id
 _symmetry_equiv_pos_as_xyz
  1  'x, y, z'
loop_
 _atom_site_type_symbol
 _atom_site_label
 _atom_site_symmetry_multiplicity
 _atom_site_fract_x
 _atom_site_fract_y
 _atom_site_fract_z
 _atom_site_occupancy
  U  U0  1  0.75000000  0.00000000  0.00000000  1
  U  U1  1  0.75000000  0.42863200  0.28581900  1
  U  U2  1  0.75000000  0.71418100  0.14281300  1
  U  U3  1  0.75000000  0.85718700  0.57136800  1
  U  U4  1  0.25000000  0.55858600  0.70759200  1
  U  U5  1  0.25000000  0.29240800  0.85099400  1
  U  U6  1  0.25000000  0.14900600  0.44141400  1
  Se  Se7  1  0.75000000  0.25168600  0.00070500  1
  Se  Se8  1  0.75000000  0.99929500  0.25098100  1
  Se  Se9  1  0.75000000  0.74901900  0.74831400  1
  Se  Se10  1  0.25000000  0.78848900  0.99878100  1
  Se  Se11  1  0.25000000  0.00121900  0.78970800  1
  Se  Se12  1  0.25000000  0.21029200  0.21151100  1
  Se  Se13  1  0.75000000  0.14495300  0.63119000  1
  Se  Se14  1  0.75000000  0.36881000  0.51376300  1
  Se  Se15  1  0.75000000  0.48623700  0.85504700  1
  Se  Se16  1  0.25000000  0.85569200  0.38101400  1
  Se  Se17  1  0.25000000  0.61898600  0.47467800  1
  Se  Se18  1  0.25000000  0.52532200  0.14430800  1
