# generated using pymatgen
data_ThSiRh
_symmetry_space_group_name_H-M   'P 1'
_cell_length_a   4.05975900
_cell_length_b   3.98857200
_cell_length_c   8.23639387
_cell_angle_alpha   75.98765413
_cell_angle_beta   75.73231077
_cell_angle_gamma   90.00000000
_symmetry_Int_Tables_number   1
_chemical_formula_structural   ThSiRh
_chemical_formula_sum   'Th2 Si2 Rh2'
_cell_volume   125.15622616
_cell_formula_units_Z   2
loop_
 _symmetry_equiv_pos_site_id
 _symmetry_equiv_pos_as_xyz
  1  'x, y, z'
loop_
 _atom_site_type_symbol
 _atom_site_label
 _atom_site_symmetry_multiplicity
 _atom_site_fract_x
 _atom_site_fract_y
 _atom_site_fract_z
 _atom_site_occupancy
  Th  Th0  1  0.74743200  0.24743200  0.50513500  1
  Th  Th1  1  0.00256800  0.00256800  0.99486500  1
  Si  Si2  1  0.33526200  0.83526200  0.32947600  1
  Si  Si3  1  0.41473800  0.41473800  0.17052400  1
  Rh  Rh4  1  0.18279100  0.68279100  0.63441800  1
  Rh  Rh5  1  0.56720900  0.56720900  0.86558200  1
