# generated using pymatgen
data_Ti(FeO2)3
_symmetry_space_group_name_H-M   'P 1'
_cell_length_a   5.51363013
_cell_length_b   5.51363013
_cell_length_c   5.51363002
_cell_angle_alpha   55.90697758
_cell_angle_beta   55.90697758
_cell_angle_gamma   55.90698264
_symmetry_Int_Tables_number   1
_chemical_formula_structural   Ti(FeO2)3
_chemical_formula_sum   'Ti1 Fe3 O6'
_cell_volume   107.27838420
_cell_formula_units_Z   1
loop_
 _symmetry_equiv_pos_site_id
 _symmetry_equiv_pos_as_xyz
  1  'x, y, z'
loop_
 _atom_site_type_symbol
 _atom_site_label
 _atom_site_symmetry_multiplicity
 _atom_site_fract_x
 _atom_site_fract_y
 _atom_site_fract_z
 _atom_site_occupancy
  Ti  Ti0  1  0.14577000  0.14577000  0.14577000  1
  Fe  Fe1  1  0.64341600  0.64341600  0.64341600  1
  Fe  Fe2  1  0.35236500  0.35236500  0.35236500  1
  Fe  Fe3  1  0.85232700  0.85232700  0.85232700  1
  O  O4  1  0.76097100  0.06889000  0.42986300  1
  O  O5  1  0.42986300  0.76097100  0.06889000  1
  O  O6  1  0.06889000  0.42986300  0.76097100  1
  O  O7  1  0.23105800  0.96432400  0.55101600  1
  O  O8  1  0.55101600  0.23105800  0.96432400  1
  O  O9  1  0.96432400  0.55101600  0.23105800  1
