# generated using pymatgen
data_ThUSb4
_symmetry_space_group_name_H-M   'P 1'
_cell_length_a   4.36526400
_cell_length_b   4.36526400
_cell_length_c   8.94090900
_cell_angle_alpha   90.00000000
_cell_angle_beta   90.00000000
_cell_angle_gamma   90.00000000
_symmetry_Int_Tables_number   1
_chemical_formula_structural   ThUSb4
_chemical_formula_sum   'Th1 U1 Sb4'
_cell_volume   170.37375780
_cell_formula_units_Z   1
loop_
 _symmetry_equiv_pos_site_id
 _symmetry_equiv_pos_as_xyz
  1  'x, y, z'
loop_
 _atom_site_type_symbol
 _atom_site_label
 _atom_site_symmetry_multiplicity
 _atom_site_fract_x
 _atom_site_fract_y
 _atom_site_fract_z
 _atom_site_occupancy
  Th  Th0  1  0.50000000  0.50000000  0.72334800  1
  U  U1  1  0.00000000  0.00000000  0.27948200  1
  Sb  Sb2  1  0.50000000  0.00000000  0.00923700  1
  Sb  Sb3  1  0.00000000  0.50000000  0.00923700  1
  Sb  Sb4  1  0.50000000  0.50000000  0.35162000  1
  Sb  Sb5  1  0.00000000  0.00000000  0.62707600  1
