# generated using pymatgen
data_V5FePbO11
_symmetry_space_group_name_H-M   'P 1'
_cell_length_a   5.99933846
_cell_length_b   5.99933895
_cell_length_c   13.32493700
_cell_angle_alpha   90.00000000
_cell_angle_beta   90.00000000
_cell_angle_gamma   121.23032753
_symmetry_Int_Tables_number   1
_chemical_formula_structural   V5FePbO11
_chemical_formula_sum   'V10 Fe2 Pb2 O22'
_cell_volume   410.09429296
_cell_formula_units_Z   2
loop_
 _symmetry_equiv_pos_site_id
 _symmetry_equiv_pos_as_xyz
  1  'x, y, z'
loop_
 _atom_site_type_symbol
 _atom_site_label
 _atom_site_symmetry_multiplicity
 _atom_site_fract_x
 _atom_site_fract_y
 _atom_site_fract_z
 _atom_site_occupancy
  V  V0  1  0.49864600  0.50135400  0.49861000  1
  V  V1  1  0.50966600  0.01246600  0.49900500  1
  V  V2  1  0.98753400  0.49033400  0.49900500  1
  V  V3  1  0.50135400  0.49864600  0.99861000  1
  V  V4  1  0.49033400  0.98753400  0.99900500  1
  V  V5  1  0.01246600  0.50966600  0.99900500  1
  V  V6  1  0.99961700  0.00038300  0.85094600  1
  V  V7  1  0.00038300  0.99961700  0.35094600  1
  V  V8  1  0.66845800  0.33154200  0.76024400  1
  V  V9  1  0.33154200  0.66845800  0.26024400  1
  Fe  Fe10  1  0.00490300  0.99509700  0.64204700  1
  Fe  Fe11  1  0.99509700  0.00490300  0.14204700  1
  Pb  Pb12  1  0.33797300  0.66202700  0.72253500  1
  Pb  Pb13  1  0.66202700  0.33797300  0.22253500  1
  O  O14  1  0.65934700  0.34065300  0.58691400  1
  O  O15  1  0.34065300  0.65934700  0.08691400  1
  O  O16  1  0.18788800  0.81211200  0.57672000  1
  O  O17  1  0.18171800  0.36050400  0.57918100  1
  O  O18  1  0.63949600  0.81828200  0.57918100  1
  O  O19  1  0.81211200  0.18788800  0.07672000  1
  O  O20  1  0.81828200  0.63949600  0.07918100  1
  O  O21  1  0.36050400  0.18171800  0.07918100  1
  O  O22  1  0.17043200  0.82956800  0.92211000  1
  O  O23  1  0.17784800  0.34327200  0.92618300  1
  O  O24  1  0.65672800  0.82215200  0.92618300  1
  O  O25  1  0.82956800  0.17043200  0.42211000  1
  O  O26  1  0.82215200  0.65672800  0.42618300  1
  O  O27  1  0.34327200  0.17784800  0.42618300  1
  O  O28  1  0.66363200  0.33636800  0.91359800  1
  O  O29  1  0.33636800  0.66363200  0.41359800  1
  O  O30  1  0.16297500  0.83702500  0.25489900  1
  O  O31  1  0.16245300  0.30915700  0.25391900  1
  O  O32  1  0.69084300  0.83754700  0.25391900  1
  O  O33  1  0.83702500  0.16297500  0.75489900  1
  O  O34  1  0.83754700  0.69084300  0.75391900  1
  O  O35  1  0.30915700  0.16245300  0.75391900  1
