# generated using pymatgen
data_Ti2S3
_symmetry_space_group_name_H-M   'P 1'
_cell_length_a   5.99011813
_cell_length_b   5.99011813
_cell_length_c   11.81158981
_cell_angle_alpha   75.36780376
_cell_angle_beta   75.36780376
_cell_angle_gamma   59.74229245
_symmetry_Int_Tables_number   1
_chemical_formula_structural   Ti2S3
_chemical_formula_sum   'Ti8 S12'
_cell_volume   350.20216453
_cell_formula_units_Z   4
loop_
 _symmetry_equiv_pos_site_id
 _symmetry_equiv_pos_as_xyz
  1  'x, y, z'
loop_
 _atom_site_type_symbol
 _atom_site_label
 _atom_site_symmetry_multiplicity
 _atom_site_fract_x
 _atom_site_fract_y
 _atom_site_fract_z
 _atom_site_occupancy
  Ti  Ti0  1  0.53929800  0.70666200  0.38023700  1
  Ti  Ti1  1  0.87302100  0.03732600  0.38249900  1
  Ti  Ti2  1  0.12697900  0.96267400  0.61750100  1
  Ti  Ti3  1  0.46070200  0.29333800  0.61976300  1
  Ti  Ti4  1  0.70666200  0.53929800  0.88023700  1
  Ti  Ti5  1  0.03732600  0.87302100  0.88249900  1
  Ti  Ti6  1  0.29333800  0.46070200  0.11976300  1
  Ti  Ti7  1  0.96267400  0.12697900  0.11750100  1
  S  S8  1  0.75378400  0.91668600  0.74837200  1
  S  S9  1  0.41432600  0.58567400  0.75000000  1
  S  S10  1  0.08331400  0.24621600  0.75162800  1
  S  S11  1  0.58567400  0.41432600  0.25000000  1
  S  S12  1  0.24621600  0.08331400  0.25162800  1
  S  S13  1  0.91668600  0.75378400  0.24837200  1
  S  S14  1  0.50000000  0.00000000  0.50000000  1
  S  S15  1  0.16159400  0.65857000  0.49972600  1
  S  S16  1  0.83840600  0.34143000  0.50027400  1
  S  S17  1  0.34143000  0.83840600  0.00027400  1
  S  S18  1  0.00000000  0.50000000  0.00000000  1
  S  S19  1  0.65857000  0.16159400  0.99972600  1
