# generated using pymatgen
data_Na3Zr2Si2PO12
_symmetry_space_group_name_H-M   'P 1'
_cell_length_a   9.14703100
_cell_length_b   9.18140557
_cell_length_c   9.30629093
_cell_angle_alpha   89.74856980
_cell_angle_beta   119.05100938
_cell_angle_gamma   119.82378111
_symmetry_Int_Tables_number   1
_chemical_formula_structural   Na3Zr2Si2PO12
_chemical_formula_sum   'Na6 Zr4 Si4 P2 O24'
_cell_volume   563.03353813
_cell_formula_units_Z   2
loop_
 _symmetry_equiv_pos_site_id
 _symmetry_equiv_pos_as_xyz
  1  'x, y, z'
loop_
 _atom_site_type_symbol
 _atom_site_label
 _atom_site_symmetry_multiplicity
 _atom_site_fract_x
 _atom_site_fract_y
 _atom_site_fract_z
 _atom_site_occupancy
  Na  Na0  1  0.49414800  0.89658600  0.74321400  1
  Na  Na1  1  0.84260600  0.59788700  0.68670600  1
  Na  Na2  1  0.15214000  0.21439600  0.89389000  1
  Na  Na3  1  0.04614000  0.48245300  0.47710400  1
  Na  Na4  1  0.86026100  0.81712600  0.06810000  1
  Na  Na5  1  0.47205500  0.09988900  0.22472800  1
  Zr  Zr6  1  0.69785100  0.85321300  0.55868200  1
  Zr  Zr7  1  0.29450500  0.65159100  0.94149600  1
  Zr  Zr8  1  0.70459000  0.35750400  0.05322100  1
  Zr  Zr9  1  0.29754700  0.15173500  0.44155700  1
  Si  Si10  1  0.21886700  0.97300300  0.75744500  1
  Si  Si11  1  0.49163800  0.54058600  0.74177400  1
  Si  Si12  1  0.78215200  0.25279100  0.73766800  1
  Si  Si13  1  0.21381600  0.75018800  0.26408300  1
  P  P14  1  0.50898800  0.46009100  0.25479100  1
  P  P15  1  0.77965200  0.03323400  0.23728500  1
  O  O16  1  0.60922100  0.88674500  0.05764400  1
  O  O17  1  0.25665700  0.73558900  0.11368900  1
  O  O18  1  0.00202700  0.93906400  0.69960600  1
  O  O19  1  0.40106200  0.50569200  0.09034700  1
  O  O20  1  0.20289400  0.78859100  0.78060800  1
  O  O21  1  0.27160500  0.01720700  0.61139000  1
  O  O22  1  0.66912000  0.72122500  0.73941400  1
  O  O23  1  0.34242800  0.58032900  0.75576900  1
  O  O24  1  0.99921600  0.43185600  0.79064700  1
  O  O25  1  0.40323100  0.78131000  0.45077700  1
  O  O26  1  0.20095500  0.92333100  0.26679600  1
  O  O27  1  0.62315800  0.61153200  0.41940300  1
  O  O28  1  0.36025100  0.37300800  0.57312800  1
  O  O29  1  0.79488300  0.08272400  0.71942000  1
  O  O30  1  0.60304100  0.24404500  0.55838900  1
  O  O31  1  0.00273200  0.57248500  0.22212000  1
  O  O32  1  0.66306500  0.43322300  0.25308900  1
  O  O33  1  0.34254000  0.28193400  0.24735400  1
  O  O34  1  0.72838600  0.97312200  0.37161500  1
  O  O35  1  0.79040800  0.20703400  0.23103600  1
  O  O36  1  0.62479000  0.50820900  0.91992500  1
  O  O37  1  0.97902200  0.05840600  0.28392000  1
  O  O38  1  0.74063500  0.25775200  0.88962700  1
  O  O39  1  0.39651900  0.13731300  0.94064100  1
