# generated using pymatgen
data_Ti5CuS10
_symmetry_space_group_name_H-M   'P 1'
_cell_length_a   5.89328200
_cell_length_b   6.81035673
_cell_length_c   8.33334770
_cell_angle_alpha   107.92552878
_cell_angle_beta   110.63875203
_cell_angle_gamma   89.94005710
_symmetry_Int_Tables_number   1
_chemical_formula_structural   Ti5CuS10
_chemical_formula_sum   'Ti5 Cu1 S10'
_cell_volume   295.62693287
_cell_formula_units_Z   1
loop_
 _symmetry_equiv_pos_site_id
 _symmetry_equiv_pos_as_xyz
  1  'x, y, z'
loop_
 _atom_site_type_symbol
 _atom_site_label
 _atom_site_symmetry_multiplicity
 _atom_site_fract_x
 _atom_site_fract_y
 _atom_site_fract_z
 _atom_site_occupancy
  Ti  Ti0  1  0.30552100  0.60118000  0.10080000  1
  Ti  Ti1  1  0.69447900  0.39882000  0.89920000  1
  Ti  Ti2  1  0.50000000  0.00000000  0.50000000  1
  Ti  Ti3  1  0.09787600  0.19768000  0.70496400  1
  Ti  Ti4  1  0.90212400  0.80232000  0.29503600  1
  Cu  Cu5  1  0.00000000  0.50000000  0.50000000  1
  S  S6  1  0.38305000  0.34606800  0.60101200  1
  S  S7  1  0.18732000  0.94556900  0.20267900  1
  S  S8  1  0.98401400  0.54786000  0.80369500  1
  S  S9  1  0.78370900  0.14714700  0.40112900  1
  S  S10  1  0.58481500  0.74621500  0.00166900  1
  S  S11  1  0.21629100  0.85285300  0.59887100  1
  S  S12  1  0.01598600  0.45214000  0.19630500  1
  S  S13  1  0.81268000  0.05443100  0.79732100  1
  S  S14  1  0.61695000  0.65393200  0.39898800  1
  S  S15  1  0.41518500  0.25378500  0.99833100  1
