# generated using pymatgen
data_TiH20C8(NF3)2
_symmetry_space_group_name_H-M   'P 1'
_cell_length_a   7.95422000
_cell_length_b   7.95919987
_cell_length_c   8.00189467
_cell_angle_alpha   118.92934178
_cell_angle_beta   119.41342101
_cell_angle_gamma   90.20485344
_symmetry_Int_Tables_number   1
_chemical_formula_structural   TiH20C8(NF3)2
_chemical_formula_sum   'Ti1 H20 C8 N2 F6'
_cell_volume   366.39942839
_cell_formula_units_Z   1
loop_
 _symmetry_equiv_pos_site_id
 _symmetry_equiv_pos_as_xyz
  1  'x, y, z'
loop_
 _atom_site_type_symbol
 _atom_site_label
 _atom_site_symmetry_multiplicity
 _atom_site_fract_x
 _atom_site_fract_y
 _atom_site_fract_z
 _atom_site_occupancy
  Ti  Ti0  1  0.99649300  0.99958200  0.99900100  1
  H  H1  1  0.00695400  0.20900300  0.48023800  1
  H  H2  1  0.47321500  0.01249500  0.26679400  1
  H  H3  1  0.79225100  0.52440800  0.79712900  1
  H  H4  1  0.99316700  0.79056900  0.51979800  1
  H  H5  1  0.52262400  0.99642000  0.72354300  1
  H  H6  1  0.21358200  0.47481100  0.21706800  1
  H  H7  1  0.03662600  0.23197200  0.73085800  1
  H  H8  1  0.68697400  0.97939500  0.46693500  1
  H  H9  1  0.77505500  0.30276700  0.80531100  1
  H  H10  1  0.97070700  0.77790300  0.27712800  1
  H  H11  1  0.30215900  0.03123800  0.53200400  1
  H  H12  1  0.22544900  0.69059200  0.19686400  1
  H  H13  1  0.06028500  0.45275900  0.72192200  1
  H  H14  1  0.67986100  0.95601900  0.22691900  1
  H  H15  1  0.55010100  0.32837400  0.60620100  1
  H  H16  1  0.94592700  0.55141000  0.27539600  1
  H  H17  1  0.32666600  0.04945800  0.77722700  1
  H  H18  1  0.45474900  0.67086200  0.39837800  1
  H  H19  1  0.73380000  0.24375400  0.24385800  1
  H  H20  1  0.49242900  0.71659200  0.73015600  1
  C  C21  1  0.98423800  0.28997900  0.62033900  1
  C  C22  1  0.63645500  0.03141900  0.34954200  1
  C  C23  1  0.71563700  0.36200100  0.69580300  1
  C  C24  1  0.02053100  0.71515100  0.38340600  1
  C  C25  1  0.35920300  0.97525500  0.64475100  1
  C  C26  1  0.28914200  0.63662500  0.31156100  1
  C  C27  1  0.65075200  0.28916500  0.32996900  1
  C  C28  1  0.32417000  0.66818100  0.63460100  1
  N  N29  1  0.76000700  0.25977500  0.51418000  1
  N  N30  1  0.24636900  0.75069500  0.49617900  1
  F  F31  1  0.15317700  0.10945800  0.93934300  1
  F  F32  1  0.78278300  0.85185300  0.67608900  1
  F  F33  1  0.88505800  0.21683200  0.05182100  1
  F  F34  1  0.82284500  0.88390700  0.04452500  1
  F  F35  1  0.20484300  0.14564100  0.31862700  1
  F  F36  1  0.10511700  0.78258000  0.95543400  1
