# generated using pymatgen
data_ThZn11
_symmetry_space_group_name_H-M   'P 1'
_cell_length_a   4.37624100
_cell_length_b   5.12147900
_cell_length_c   9.30317400
_cell_angle_alpha   90.00000000
_cell_angle_beta   90.00000000
_cell_angle_gamma   90.00000000
_symmetry_Int_Tables_number   1
_chemical_formula_structural   ThZn11
_chemical_formula_sum   'Th1 Zn11'
_cell_volume   208.51042365
_cell_formula_units_Z   1
loop_
 _symmetry_equiv_pos_site_id
 _symmetry_equiv_pos_as_xyz
  1  'x, y, z'
loop_
 _atom_site_type_symbol
 _atom_site_label
 _atom_site_symmetry_multiplicity
 _atom_site_fract_x
 _atom_site_fract_y
 _atom_site_fract_z
 _atom_site_occupancy
  Th  Th0  1  0.00000000  0.50000000  0.00000000  1
  Zn  Zn1  1  0.00000000  0.50000000  0.35284000  1
  Zn  Zn2  1  0.00000000  0.00000000  0.78735800  1
  Zn  Zn3  1  0.00000000  0.00000000  0.21264200  1
  Zn  Zn4  1  0.00000000  0.50000000  0.64716000  1
  Zn  Zn5  1  0.50000000  0.50000000  0.50000000  1
  Zn  Zn6  1  0.50000000  0.00000000  0.00000000  1
  Zn  Zn7  1  0.50000000  0.73923200  0.23643800  1
  Zn  Zn8  1  0.50000000  0.26076800  0.76356200  1
  Zn  Zn9  1  0.50000000  0.26076800  0.23643800  1
  Zn  Zn10  1  0.50000000  0.73923200  0.76356200  1
  Zn  Zn11  1  0.00000000  0.00000000  0.50000000  1
