# generated using pymatgen
data_Al4Co13Si2(SbO14)2
_symmetry_space_group_name_H-M   'P 1'
_cell_length_a   11.61202499
_cell_length_b   11.61202499
_cell_length_c   8.94328852
_cell_angle_alpha   87.42624402
_cell_angle_beta   87.42624402
_cell_angle_gamma   152.51888127
_symmetry_Int_Tables_number   1
_chemical_formula_structural   Al4Co13Si2(SbO14)2
_chemical_formula_sum   'Al4 Co13 Si2 Sb2 O28'
_cell_volume   546.43739666
_cell_formula_units_Z   1
loop_
 _symmetry_equiv_pos_site_id
 _symmetry_equiv_pos_as_xyz
  1  'x, y, z'
loop_
 _atom_site_type_symbol
 _atom_site_label
 _atom_site_symmetry_multiplicity
 _atom_site_fract_x
 _atom_site_fract_y
 _atom_site_fract_z
 _atom_site_occupancy
  Al  Al0  1  0.05729800  0.48644700  0.67230500  1
  Al  Al1  1  0.51355300  0.94270200  0.32769500  1
  Al  Al2  1  0.94270200  0.51355300  0.32769500  1
  Al  Al3  1  0.48644700  0.05729800  0.67230500  1
  Co  Co4  1  0.92903900  0.64136500  0.64814100  1
  Co  Co5  1  0.65175000  0.79192500  0.34550800  1
  Co  Co6  1  0.35863500  0.07096100  0.35185900  1
  Co  Co7  1  0.07096100  0.35863500  0.35185900  1
  Co  Co8  1  0.34825000  0.20807500  0.65449200  1
  Co  Co9  1  0.28707300  0.71292700  0.00000000  1
  Co  Co10  1  0.20807500  0.34825000  0.65449200  1
  Co  Co11  1  0.00000000  0.00000000  0.00000000  1
  Co  Co12  1  0.42908200  0.57091800  0.00000000  1
  Co  Co13  1  0.79192500  0.65175000  0.34550800  1
  Co  Co14  1  0.64136500  0.92903900  0.64814100  1
  Co  Co15  1  0.57091800  0.42908200  0.00000000  1
  Co  Co16  1  0.71292700  0.28707300  0.00000000  1
  Si  Si17  1  0.23378300  0.23378300  0.31406600  1
  Si  Si18  1  0.76621700  0.76621700  0.68593400  1
  Sb  Sb19  1  0.85873000  0.14127000  0.00000000  1
  Sb  Sb20  1  0.14127000  0.85873000  0.00000000  1
  O  O21  1  0.68727300  0.98529800  0.40103500  1
  O  O22  1  0.17974200  0.62488700  0.36343500  1
  O  O23  1  0.93226500  0.93226500  0.35675500  1
  O  O24  1  0.30869500  0.30869500  0.12535200  1
  O  O25  1  0.82025800  0.37511300  0.63656500  1
  O  O26  1  0.31272700  0.01470200  0.59896500  1
  O  O27  1  0.01465500  0.59508000  0.11888400  1
  O  O28  1  0.98534500  0.40492000  0.88111600  1
  O  O29  1  0.69130500  0.69130500  0.87464800  1
  O  O30  1  0.12492100  0.27604200  0.88425300  1
  O  O31  1  0.28900700  0.40880400  0.38335700  1
  O  O32  1  0.01470200  0.31272700  0.59896500  1
  O  O33  1  0.40492000  0.98534500  0.88111600  1
  O  O34  1  0.72395800  0.87507900  0.11574700  1
  O  O35  1  0.59119600  0.71099300  0.61664300  1
  O  O36  1  0.06773500  0.06773500  0.64324500  1
  O  O37  1  0.27604200  0.12492100  0.88425300  1
  O  O38  1  0.87507900  0.72395800  0.11574700  1
  O  O39  1  0.59508000  0.01465500  0.11888400  1
  O  O40  1  0.12990100  0.41850700  0.12083000  1
  O  O41  1  0.87009900  0.58149300  0.87917000  1
  O  O42  1  0.40880400  0.28900700  0.38335700  1
  O  O43  1  0.41850700  0.12990100  0.12083000  1
  O  O44  1  0.62488700  0.17974200  0.36343500  1
  O  O45  1  0.71099300  0.59119600  0.61664300  1
  O  O46  1  0.58149300  0.87009900  0.87917000  1
  O  O47  1  0.98529800  0.68727300  0.40103500  1
  O  O48  1  0.37511300  0.82025800  0.63656500  1
