# generated using pymatgen
data_ThUS2
_symmetry_space_group_name_H-M   'P 1'
_cell_length_a   7.07396962
_cell_length_b   7.07396962
_cell_length_c   7.07396993
_cell_angle_alpha   31.84460705
_cell_angle_beta   31.84460705
_cell_angle_gamma   31.84460074
_symmetry_Int_Tables_number   1
_chemical_formula_structural   ThUS2
_chemical_formula_sum   'Th1 U1 S2'
_cell_volume   87.53385058
_cell_formula_units_Z   1
loop_
 _symmetry_equiv_pos_site_id
 _symmetry_equiv_pos_as_xyz
  1  'x, y, z'
loop_
 _atom_site_type_symbol
 _atom_site_label
 _atom_site_symmetry_multiplicity
 _atom_site_fract_x
 _atom_site_fract_y
 _atom_site_fract_z
 _atom_site_occupancy
  Th  Th0  1  0.00000000  0.00000000  0.00000000  1
  U  U1  1  0.50000000  0.50000000  0.50000000  1
  S  S2  1  0.24567100  0.24567100  0.24567100  1
  S  S3  1  0.75432900  0.75432900  0.75432900  1
