# generated using pymatgen
data_Ti4FeBi3O14
_symmetry_space_group_name_H-M   'P 1'
_cell_length_a   7.22278179
_cell_length_b   7.28349895
_cell_length_c   10.25759820
_cell_angle_alpha   90.00003150
_cell_angle_beta   89.31933048
_cell_angle_gamma   89.99998892
_symmetry_Int_Tables_number   1
_chemical_formula_structural   Ti4FeBi3O14
_chemical_formula_sum   'Ti8 Fe2 Bi6 O28'
_cell_volume   539.58465725
_cell_formula_units_Z   2
loop_
 _symmetry_equiv_pos_site_id
 _symmetry_equiv_pos_as_xyz
  1  'x, y, z'
loop_
 _atom_site_type_symbol
 _atom_site_label
 _atom_site_symmetry_multiplicity
 _atom_site_fract_x
 _atom_site_fract_y
 _atom_site_fract_z
 _atom_site_occupancy
  Ti  Ti0  1  0.25000000  0.75000000  0.25000000  1
  Ti  Ti1  1  0.75000000  0.25000000  0.75000000  1
  Ti  Ti2  1  0.99999900  0.49999900  0.49999900  1
  Ti  Ti3  1  0.50000100  0.00000100  0.00000100  1
  Ti  Ti4  1  0.75000000  0.75000000  0.25000000  1
  Ti  Ti5  1  0.25000000  0.25000000  0.75000000  1
  Ti  Ti6  1  0.99999900  0.00000100  0.49999900  1
  Ti  Ti7  1  0.50000000  0.49999900  0.00000100  1
  Fe  Fe8  1  0.25000000  0.74999800  0.75000300  1
  Fe  Fe9  1  0.75000000  0.25000300  0.25000000  1
  Bi  Bi10  1  0.00000000  0.49999900  0.00000000  1
  Bi  Bi11  1  0.50000000  0.00000100  0.50000000  1
  Bi  Bi12  1  0.25000000  0.25000000  0.25000000  1
  Bi  Bi13  1  0.75000000  0.75000000  0.75000000  1
  Bi  Bi14  1  0.00000000  0.00000100  0.00000000  1
  Bi  Bi15  1  0.50000000  0.49999900  0.50000000  1
  O  O16  1  0.96599500  0.25000000  0.14199700  1
  O  O17  1  0.46599400  0.75000000  0.64199700  1
  O  O18  1  0.03400600  0.75000000  0.85800300  1
  O  O19  1  0.53400500  0.25000000  0.35800300  1
  O  O20  1  0.79607400  0.04737200  0.62564800  1
  O  O21  1  0.29607400  0.54737200  0.12564900  1
  O  O22  1  0.79607400  0.45262700  0.62564800  1
  O  O23  1  0.29607400  0.95262800  0.12564900  1
  O  O24  1  0.99870500  0.25000000  0.82827700  1
  O  O25  1  0.49870600  0.75000000  0.32827600  1
  O  O26  1  0.20392600  0.95262800  0.37435100  1
  O  O27  1  0.70392600  0.45262700  0.87435200  1
  O  O28  1  0.20392600  0.54737200  0.37435100  1
  O  O29  1  0.70392600  0.04737200  0.87435200  1
  O  O30  1  0.00129400  0.75000000  0.17172400  1
  O  O31  1  0.50129500  0.25000000  0.67172300  1
  O  O32  1  0.19902100  0.45080200  0.62588600  1
  O  O33  1  0.69902100  0.95080200  0.12588700  1
  O  O34  1  0.19902000  0.04919800  0.62588600  1
  O  O35  1  0.69902100  0.54919800  0.12588700  1
  O  O36  1  0.99822100  0.25000000  0.42509000  1
  O  O37  1  0.49822100  0.75000000  0.92509100  1
  O  O38  1  0.80097900  0.54919800  0.37411300  1
  O  O39  1  0.30098000  0.04919800  0.87411400  1
  O  O40  1  0.80097900  0.95080200  0.37411300  1
  O  O41  1  0.30097900  0.45080200  0.87411400  1
  O  O42  1  0.00177900  0.75000000  0.57490900  1
  O  O43  1  0.50177900  0.25000000  0.07491000  1
