# generated using pymatgen
data_U2Nb6O21
_symmetry_space_group_name_H-M   'P 1'
_cell_length_a   7.48829883
_cell_length_b   7.48829883
_cell_length_c   16.48901364
_cell_angle_alpha   77.85010409
_cell_angle_beta   77.85010409
_cell_angle_gamma   91.46697771
_symmetry_Int_Tables_number   1
_chemical_formula_structural   U2Nb6O21
_chemical_formula_sum   'U4 Nb12 O42'
_cell_volume   881.29031877
_cell_formula_units_Z   2
loop_
 _symmetry_equiv_pos_site_id
 _symmetry_equiv_pos_as_xyz
  1  'x, y, z'
loop_
 _atom_site_type_symbol
 _atom_site_label
 _atom_site_symmetry_multiplicity
 _atom_site_fract_x
 _atom_site_fract_y
 _atom_site_fract_z
 _atom_site_occupancy
  U  U0  1  0.16213200  0.16581000  0.66884000  1
  U  U1  1  0.83786800  0.83419000  0.33116000  1
  U  U2  1  0.16581000  0.16213200  0.16884000  1
  U  U3  1  0.83419000  0.83786800  0.83116000  1
  Nb  Nb4  1  0.66191700  0.68178800  0.66854600  1
  Nb  Nb5  1  0.33808300  0.31821200  0.33145400  1
  Nb  Nb6  1  0.00000000  0.00000000  0.00000000  1
  Nb  Nb7  1  0.31821200  0.33808300  0.83145400  1
  Nb  Nb8  1  0.00000000  0.00000000  0.50000000  1
  Nb  Nb9  1  0.68178800  0.66191700  0.16854600  1
  Nb  Nb10  1  0.82290700  0.33399600  0.83352300  1
  Nb  Nb11  1  0.50000000  0.00000000  0.50000000  1
  Nb  Nb12  1  0.17709300  0.66600400  0.16647700  1
  Nb  Nb13  1  0.66600400  0.17709300  0.66647700  1
  Nb  Nb14  1  0.33399600  0.82290700  0.33352300  1
  Nb  Nb15  1  0.00000000  0.50000000  0.00000000  1
  O  O16  1  0.71164600  0.42876100  0.64956500  1
  O  O17  1  0.33427500  0.10492800  0.27436100  1
  O  O18  1  0.99268700  0.77272500  0.94694500  1
  O  O19  1  0.82359300  0.60144100  0.76947000  1
  O  O20  1  0.47694200  0.21630000  0.41097200  1
  O  O21  1  0.14285100  0.90585500  0.08981900  1
  O  O22  1  0.44529700  0.55470300  0.75000000  1
  O  O23  1  0.10949300  0.22062600  0.41528900  1
  O  O24  1  0.77937400  0.89050700  0.08471100  1
  O  O25  1  0.57123900  0.28835400  0.85043500  1
  O  O26  1  0.22727500  0.00731300  0.55305500  1
  O  O27  1  0.89507200  0.66572500  0.22563900  1
  O  O28  1  0.39855900  0.17640700  0.73053000  1
  O  O29  1  0.09414500  0.85714900  0.41018100  1
  O  O30  1  0.78370000  0.52305800  0.08902800  1
  O  O31  1  0.84785400  0.15214600  0.75000000  1
  O  O32  1  0.45528800  0.84385400  0.42356800  1
  O  O33  1  0.15614600  0.54471200  0.07643200  1
  O  O34  1  0.66572500  0.89507200  0.72563900  1
  O  O35  1  0.28835400  0.57123900  0.35043500  1
  O  O36  1  0.00731300  0.22727500  0.05305500  1
  O  O37  1  0.85714900  0.09414500  0.91018100  1
  O  O38  1  0.52305800  0.78370000  0.58902800  1
  O  O39  1  0.17640700  0.39855900  0.23053000  1
  O  O40  1  0.22062600  0.10949300  0.91528900  1
  O  O41  1  0.89050700  0.77937400  0.58471100  1
  O  O42  1  0.55470300  0.44529700  0.25000000  1
  O  O43  1  0.42876100  0.71164600  0.14956500  1
  O  O44  1  0.10492800  0.33427500  0.77436100  1
  O  O45  1  0.77272500  0.99268700  0.44694500  1
  O  O46  1  0.21630000  0.47694200  0.91097200  1
  O  O47  1  0.90585500  0.14285100  0.58981900  1
  O  O48  1  0.60144100  0.82359300  0.26947000  1
  O  O49  1  0.84385400  0.45528800  0.92356800  1
  O  O50  1  0.54471200  0.15614600  0.57643200  1
  O  O51  1  0.15214600  0.84785400  0.25000000  1
  O  O52  1  0.38567500  0.21529100  0.09638600  1
  O  O53  1  0.08639800  0.91360200  0.75000000  1
  O  O54  1  0.78470900  0.61432500  0.40361400  1
  O  O55  1  0.61432500  0.78470900  0.90361400  1
  O  O56  1  0.21529100  0.38567500  0.59638600  1
  O  O57  1  0.91360200  0.08639800  0.25000000  1
