# generated using pymatgen
data_Ti7P12C6(NO24)2
_symmetry_space_group_name_H-M   'P 1'
_cell_length_a   10.69642355
_cell_length_b   10.69642355
_cell_length_c   10.69642400
_cell_angle_alpha   105.67025738
_cell_angle_beta   105.67025738
_cell_angle_gamma   105.67026106
_symmetry_Int_Tables_number   1
_chemical_formula_structural   Ti7P12C6(NO24)2
_chemical_formula_sum   'Ti7 P12 C6 N2 O48'
_cell_volume   1053.99312033
_cell_formula_units_Z   1
loop_
 _symmetry_equiv_pos_site_id
 _symmetry_equiv_pos_as_xyz
  1  'x, y, z'
loop_
 _atom_site_type_symbol
 _atom_site_label
 _atom_site_symmetry_multiplicity
 _atom_site_fract_x
 _atom_site_fract_y
 _atom_site_fract_z
 _atom_site_occupancy
  Ti  Ti0  1  0.50000000  0.50000000  0.50000000  1
  Ti  Ti1  1  0.26504500  0.37947300  0.83901900  1
  Ti  Ti2  1  0.83901900  0.26504500  0.37947300  1
  Ti  Ti3  1  0.37947300  0.83901900  0.26504500  1
  Ti  Ti4  1  0.73495500  0.62052700  0.16098100  1
  Ti  Ti5  1  0.16098100  0.73495500  0.62052700  1
  Ti  Ti6  1  0.62052700  0.16098100  0.73495500  1
  P  P7  1  0.41328100  0.52083300  0.17622300  1
  P  P8  1  0.17622300  0.41328100  0.52083300  1
  P  P9  1  0.52083300  0.17622300  0.41328100  1
  P  P10  1  0.58671900  0.47916700  0.82377700  1
  P  P11  1  0.82377700  0.58671900  0.47916700  1
  P  P12  1  0.47916700  0.82377700  0.58671900  1
  P  P13  1  0.92139900  0.32995800  0.73890400  1
  P  P14  1  0.73890400  0.92139900  0.32995800  1
  P  P15  1  0.32995800  0.73890400  0.92139900  1
  P  P16  1  0.07860100  0.67004200  0.26109600  1
  P  P17  1  0.26109600  0.07860100  0.67004200  1
  P  P18  1  0.67004200  0.26109600  0.07860100  1
  C  C19  1  0.99003600  0.02356300  0.88475400  1
  C  C20  1  0.88475400  0.99003600  0.02356300  1
  C  C21  1  0.02356300  0.88475400  0.99003600  1
  C  C22  1  0.00996400  0.97643700  0.11524600  1
  C  C23  1  0.11524600  0.00996400  0.97643700  1
  C  C24  1  0.97643700  0.11524600  0.00996400  1
  N  N25  1  0.89992500  0.89992500  0.89992500  1
  N  N26  1  0.10007500  0.10007500  0.10007500  1
  O  O27  1  0.92368500  0.47833300  0.80228500  1
  O  O28  1  0.80228500  0.92368500  0.47833300  1
  O  O29  1  0.47833300  0.80228500  0.92368500  1
  O  O30  1  0.07631500  0.52166700  0.19771500  1
  O  O31  1  0.19771500  0.07631500  0.52166700  1
  O  O32  1  0.52166700  0.19771500  0.07631500  1
  O  O33  1  0.23452300  0.18390600  0.78202500  1
  O  O34  1  0.78202500  0.23452300  0.18390600  1
  O  O35  1  0.18390600  0.78202500  0.23452300  1
  O  O36  1  0.76547700  0.81609400  0.21797500  1
  O  O37  1  0.21797500  0.76547700  0.81609400  1
  O  O38  1  0.81609400  0.21797500  0.76547700  1
  O  O39  1  0.21185600  0.35915800  0.64002300  1
  O  O40  1  0.64002300  0.21185600  0.35915800  1
  O  O41  1  0.35915800  0.64002300  0.21185600  1
  O  O42  1  0.78814400  0.64084200  0.35997700  1
  O  O43  1  0.35997700  0.78814400  0.64084200  1
  O  O44  1  0.64084200  0.35997700  0.78814400  1
  O  O45  1  0.30741300  0.40114600  0.03774400  1
  O  O46  1  0.03774400  0.30741300  0.40114600  1
  O  O47  1  0.40114600  0.03774400  0.30741300  1
  O  O48  1  0.69258700  0.59885400  0.96225600  1
  O  O49  1  0.96225600  0.69258700  0.59885400  1
  O  O50  1  0.59885400  0.96225600  0.69258700  1
  O  O51  1  0.44596100  0.47030800  0.29911600  1
  O  O52  1  0.29911600  0.44596100  0.47030800  1
  O  O53  1  0.47030800  0.29911600  0.44596100  1
  O  O54  1  0.55403900  0.52969200  0.70088400  1
  O  O55  1  0.70088400  0.55403900  0.52969200  1
  O  O56  1  0.52969200  0.70088400  0.55403900  1
  O  O57  1  0.45056700  0.42269400  0.85061700  1
  O  O58  1  0.85061700  0.45056700  0.42269400  1
  O  O59  1  0.42269400  0.85061700  0.45056700  1
  O  O60  1  0.54943300  0.57730600  0.14938300  1
  O  O61  1  0.14938300  0.54943300  0.57730600  1
  O  O62  1  0.57730600  0.14938300  0.54943300  1
  O  O63  1  0.28973000  0.58105600  0.88724900  1
  O  O64  1  0.88724900  0.28973000  0.58105600  1
  O  O65  1  0.58105600  0.88724900  0.28973000  1
  O  O66  1  0.71027000  0.41894400  0.11275100  1
  O  O67  1  0.11275100  0.71027000  0.41894400  1
  O  O68  1  0.41894400  0.11275100  0.71027000  1
  O  O69  1  0.06736300  0.33278100  0.81499400  1
  O  O70  1  0.81499400  0.06736300  0.33278100  1
  O  O71  1  0.33278100  0.81499400  0.06736300  1
  O  O72  1  0.93263700  0.66721900  0.18500600  1
  O  O73  1  0.18500600  0.93263700  0.66721900  1
  O  O74  1  0.66721900  0.18500600  0.93263700  1
