# generated using pymatgen
data_Y5Pt4
_symmetry_space_group_name_H-M   'P 1'
_cell_length_a   7.53693100
_cell_length_b   7.60729400
_cell_length_c   14.74598200
_cell_angle_alpha   90.00000000
_cell_angle_beta   90.00000000
_cell_angle_gamma   90.00000000
_symmetry_Int_Tables_number   1
_chemical_formula_structural   Y5Pt4
_chemical_formula_sum   'Y20 Pt16'
_cell_volume   845.47046249
_cell_formula_units_Z   4
loop_
 _symmetry_equiv_pos_site_id
 _symmetry_equiv_pos_as_xyz
  1  'x, y, z'
loop_
 _atom_site_type_symbol
 _atom_site_label
 _atom_site_symmetry_multiplicity
 _atom_site_fract_x
 _atom_site_fract_y
 _atom_site_fract_z
 _atom_site_occupancy
  Y  Y0  1  0.68138700  0.98822100  0.25000000  1
  Y  Y1  1  0.18138700  0.51177900  0.25000000  1
  Y  Y2  1  0.81861300  0.48822100  0.75000000  1
  Y  Y3  1  0.31861300  0.01177900  0.75000000  1
  Y  Y4  1  0.65630000  0.83326900  0.62234200  1
  Y  Y5  1  0.15630000  0.66673100  0.87765800  1
  Y  Y6  1  0.84370000  0.33326900  0.37765800  1
  Y  Y7  1  0.34370000  0.16673100  0.12234200  1
  Y  Y8  1  0.34370000  0.16673100  0.37765800  1
  Y  Y9  1  0.84370000  0.33326900  0.12234200  1
  Y  Y10  1  0.15630000  0.66673100  0.62234200  1
  Y  Y11  1  0.65630000  0.83326900  0.87765800  1
  Y  Y12  1  0.99783400  0.81925900  0.40692500  1
  Y  Y13  1  0.49783400  0.68074100  0.09307500  1
  Y  Y14  1  0.50216600  0.31925900  0.59307500  1
  Y  Y15  1  0.00216600  0.18074100  0.90692500  1
  Y  Y16  1  0.00216600  0.18074100  0.59307500  1
  Y  Y17  1  0.50216600  0.31925900  0.90692500  1
  Y  Y18  1  0.49783400  0.68074100  0.40692500  1
  Y  Y19  1  0.99783400  0.81925900  0.09307500  1
  Pt  Pt20  1  0.81506100  0.64116500  0.25000000  1
  Pt  Pt21  1  0.31506100  0.85883500  0.25000000  1
  Pt  Pt22  1  0.68493900  0.14116500  0.75000000  1
  Pt  Pt23  1  0.18493900  0.35883500  0.75000000  1
  Pt  Pt24  1  0.54726800  0.38767600  0.25000000  1
  Pt  Pt25  1  0.04726800  0.11232400  0.25000000  1
  Pt  Pt26  1  0.95273200  0.88767600  0.75000000  1
  Pt  Pt27  1  0.45273200  0.61232400  0.75000000  1
  Pt  Pt28  1  0.81703500  0.53210700  0.54188600  1
  Pt  Pt29  1  0.31703500  0.96789300  0.95811400  1
  Pt  Pt30  1  0.68296500  0.03210700  0.45811400  1
  Pt  Pt31  1  0.18296500  0.46789300  0.04188600  1
  Pt  Pt32  1  0.18296500  0.46789300  0.45811400  1
  Pt  Pt33  1  0.68296500  0.03210700  0.04188600  1
  Pt  Pt34  1  0.31703500  0.96789300  0.54188600  1
  Pt  Pt35  1  0.81703500  0.53210700  0.95811400  1
