# generated using pymatgen
data_Te4Pb5Se
_symmetry_space_group_name_H-M   'P 1'
_cell_length_a   16.80249385
_cell_length_b   16.80249385
_cell_length_c   16.80249385
_cell_angle_alpha   164.30891170
_cell_angle_beta   164.30891170
_cell_angle_gamma   22.26102186
_symmetry_Int_Tables_number   1
_chemical_formula_structural   Te4Pb5Se
_chemical_formula_sum   'Te4 Pb5 Se1'
_cell_volume   346.91188727
_cell_formula_units_Z   1
loop_
 _symmetry_equiv_pos_site_id
 _symmetry_equiv_pos_as_xyz
  1  'x, y, z'
loop_
 _atom_site_type_symbol
 _atom_site_label
 _atom_site_symmetry_multiplicity
 _atom_site_fract_x
 _atom_site_fract_y
 _atom_site_fract_z
 _atom_site_occupancy
  Te  Te0  1  0.90024400  0.90024400  0.00000000  1
  Te  Te1  1  0.30055700  0.30055700  0.00000000  1
  Te  Te2  1  0.69944300  0.69944300  0.00000000  1
  Te  Te3  1  0.09975600  0.09975600  0.00000000  1
  Pb  Pb4  1  0.20008500  0.20008500  0.00000000  1
  Pb  Pb5  1  0.40237100  0.40237100  0.00000000  1
  Pb  Pb6  1  0.79991500  0.79991500  0.00000000  1
  Pb  Pb7  1  0.59762900  0.59762900  0.00000000  1
  Pb  Pb8  1  0.00000000  0.00000000  0.00000000  1
  Se  Se9  1  0.50000000  0.50000000  0.00000000  1
