# generated using pymatgen
data_V2Bi4O11
_symmetry_space_group_name_H-M   'P 1'
_cell_length_a   5.81577916
_cell_length_b   8.08842245
_cell_length_c   17.04325436
_cell_angle_alpha   88.90910923
_cell_angle_beta   89.60703872
_cell_angle_gamma   109.51888502
_symmetry_Int_Tables_number   1
_chemical_formula_structural   V2Bi4O11
_chemical_formula_sum   'V6 Bi12 O33'
_cell_volume   755.43766562
_cell_formula_units_Z   3
loop_
 _symmetry_equiv_pos_site_id
 _symmetry_equiv_pos_as_xyz
  1  'x, y, z'
loop_
 _atom_site_type_symbol
 _atom_site_label
 _atom_site_symmetry_multiplicity
 _atom_site_fract_x
 _atom_site_fract_y
 _atom_site_fract_z
 _atom_site_occupancy
  V  V0  1  0.66775500  0.99817900  0.06447200  1
  V  V1  1  0.32910900  0.00004600  0.93301600  1
  V  V2  1  0.30823700  0.99231900  0.23425800  1
  V  V3  1  0.69890900  0.01486300  0.76354500  1
  V  V4  1  0.87705000  0.02564900  0.43121000  1
  V  V5  1  0.19700400  0.03083100  0.56408100  1
  Bi  Bi6  1  0.63918800  0.68643400  0.24698000  1
  Bi  Bi7  1  0.01914100  0.64660400  0.75618300  1
  Bi  Bi8  1  0.39607800  0.35256000  0.08827300  1
  Bi  Bi9  1  0.96016300  0.33102700  0.92455400  1
  Bi  Bi10  1  0.98079600  0.36173300  0.25253500  1
  Bi  Bi11  1  0.34971900  0.31969500  0.75537900  1
  Bi  Bi12  1  0.12172700  0.68347500  0.40899500  1
  Bi  Bi13  1  0.53544500  0.66306200  0.58797300  1
  Bi  Bi14  1  0.49162600  0.37599200  0.42368500  1
  Bi  Bi15  1  0.85356000  0.33791400  0.58871400  1
  Bi  Bi16  1  0.03288800  0.66506400  0.07981200  1
  Bi  Bi17  1  0.59828600  0.64709500  0.91677200  1
  O  O18  1  0.33915500  0.99143600  0.04439600  1
  O  O19  1  0.65712600  0.00715700  0.95240200  1
  O  O20  1  0.27988100  0.51844400  0.32999200  1
  O  O21  1  0.20964700  0.48502200  0.67184700  1
  O  O22  1  0.80064200  0.20914700  0.40960500  1
  O  O23  1  0.45477900  0.23355800  0.54923400  1
  O  O24  1  0.71617900  0.80066000  0.07085400  1
  O  O25  1  0.08505800  0.81029200  0.92395700  1
  O  O26  1  0.56605500  0.00028000  0.17411800  1
  O  O27  1  0.43872100  0.00731900  0.82182800  1
  O  O28  1  0.36436900  0.91692600  0.32323800  1
  O  O29  1  0.65162200  0.09077700  0.67339400  1
  O  O30  1  0.27513300  0.19821000  0.23747400  1
  O  O31  1  0.95433400  0.17716300  0.80059100  1
  O  O32  1  0.78418900  0.85160200  0.36951900  1
  O  O33  1  0.14059000  0.05499300  0.65935300  1
  O  O34  1  0.74701600  0.47866600  0.83739900  1
  O  O35  1  0.73378700  0.49400400  0.16541400  1
  O  O36  1  0.29804500  0.52831000  0.49329600  1
  O  O37  1  0.81796500  0.53793600  0.32452600  1
  O  O38  1  0.72639500  0.49366000  0.67137600  1
  O  O39  1  0.04346800  0.83443000  0.20066100  1
  O  O40  1  0.72439200  0.80541500  0.76350900  1
  O  O41  1  0.78634800  0.54891000  0.50503700  1
  O  O42  1  0.73025300  0.48173700  0.00174200  1
  O  O43  1  0.26603800  0.51532200  0.00042800  1
  O  O44  1  0.91915600  0.18453200  0.06978800  1
  O  O45  1  0.27421200  0.19531900  0.92552900  1
  O  O46  1  0.24171700  0.52156100  0.16361600  1
  O  O47  1  0.25807400  0.50825900  0.83663700  1
  O  O48  1  0.19248600  0.08822100  0.43616800  1
  O  O49  1  0.84731500  0.95908000  0.53428400  1
  O  O50  1  0.27817200  0.84711200  0.55535000  1
