# generated using pymatgen
data_Te15Mo2(Br6O)2
_symmetry_space_group_name_H-M   'P 1'
_cell_length_a   8.18249999
_cell_length_b   15.36593073
_cell_length_c   8.67467156
_cell_angle_alpha   85.17385399
_cell_angle_beta   103.72323276
_cell_angle_gamma   82.31041150
_symmetry_Int_Tables_number   1
_chemical_formula_structural   Te15Mo2(Br6O)2
_chemical_formula_sum   'Te15 Mo2 Br12 O2'
_cell_volume   1042.38413186
_cell_formula_units_Z   1
loop_
 _symmetry_equiv_pos_site_id
 _symmetry_equiv_pos_as_xyz
  1  'x, y, z'
loop_
 _atom_site_type_symbol
 _atom_site_label
 _atom_site_symmetry_multiplicity
 _atom_site_fract_x
 _atom_site_fract_y
 _atom_site_fract_z
 _atom_site_occupancy
  Te  Te0  1  0.69459400  0.84399800  0.62756700  1
  Te  Te1  1  0.19673400  0.84413800  0.62827700  1
  Te  Te2  1  0.30807600  0.14854000  0.38633900  1
  Te  Te3  1  0.80948900  0.14966200  0.38375300  1
  Te  Te4  1  0.94401300  0.95599100  0.73207600  1
  Te  Te5  1  0.44134600  0.96104900  0.72402700  1
  Te  Te6  1  0.05664700  0.03973100  0.26973900  1
  Te  Te7  1  0.55813300  0.03981700  0.27063100  1
  Te  Te8  1  0.79394000  0.70000300  0.87673300  1
  Te  Te9  1  0.29431000  0.70003900  0.87723900  1
  Te  Te10  1  0.20372700  0.30714900  0.12151100  1
  Te  Te11  1  0.70311800  0.30794700  0.11985200  1
  Te  Te12  1  0.07476300  0.75483600  0.05326900  1
  Te  Te13  1  0.42533600  0.23843900  0.94082800  1
  Te  Te14  1  0.92549900  0.23651300  0.94042000  1
  Mo  Mo15  1  0.54395800  0.50042000  0.50038000  1
  Mo  Mo16  1  0.04510600  0.50051000  0.49959600  1
  Br  Br17  1  0.94853300  0.66614100  0.46676200  1
  Br  Br18  1  0.45112900  0.66806800  0.47522700  1
  Br  Br19  1  0.04654700  0.33209900  0.52077300  1
  Br  Br20  1  0.54708400  0.33246800  0.52226800  1
  Br  Br21  1  0.07598000  0.49150600  0.79840400  1
  Br  Br22  1  0.57577600  0.49420900  0.80044800  1
  Br  Br23  1  0.92068900  0.50452600  0.19696600  1
  Br  Br24  1  0.42222300  0.50596000  0.19813600  1
  Br  Br25  1  0.17249000  0.10012600  0.80223800  1
  Br  Br26  1  0.67928100  0.10033500  0.80210400  1
  Br  Br27  1  0.81998400  0.91118800  0.19883800  1
  Br  Br28  1  0.32447400  0.91092100  0.20034100  1
  O  O29  1  0.25894100  0.49993600  0.49952200  1
  O  O30  1  0.75748000  0.49973600  0.49973800  1
