# generated using pymatgen
data_Ti13Pb3
_symmetry_space_group_name_H-M   'P 1'
_cell_length_a   4.79160800
_cell_length_b   5.98951300
_cell_length_c   10.31374600
_cell_angle_alpha   90.00000000
_cell_angle_beta   90.00000000
_cell_angle_gamma   90.00000000
_symmetry_Int_Tables_number   1
_chemical_formula_structural   Ti13Pb3
_chemical_formula_sum   'Ti13 Pb3'
_cell_volume   295.99830552
_cell_formula_units_Z   1
loop_
 _symmetry_equiv_pos_site_id
 _symmetry_equiv_pos_as_xyz
  1  'x, y, z'
loop_
 _atom_site_type_symbol
 _atom_site_label
 _atom_site_symmetry_multiplicity
 _atom_site_fract_x
 _atom_site_fract_y
 _atom_site_fract_z
 _atom_site_occupancy
  Ti  Ti0  1  0.50000000  0.50000000  0.33031600  1
  Ti  Ti1  1  0.50000000  0.00000000  0.84231900  1
  Ti  Ti2  1  0.50000000  0.74614200  0.08435200  1
  Ti  Ti3  1  0.50000000  0.25922900  0.58191900  1
  Ti  Ti4  1  0.50000000  0.25385800  0.08435200  1
  Ti  Ti5  1  0.50000000  0.74077100  0.58191900  1
  Ti  Ti6  1  0.00000000  0.00000000  0.16198400  1
  Ti  Ti7  1  0.00000000  0.50000000  0.65780900  1
  Ti  Ti8  1  0.00000000  0.73240300  0.40860100  1
  Ti  Ti9  1  0.00000000  0.24747500  0.92807900  1
  Ti  Ti10  1  0.00000000  0.26759700  0.40860100  1
  Ti  Ti11  1  0.00000000  0.75252500  0.92807900  1
  Ti  Ti12  1  0.00000000  0.50000000  0.16876500  1
  Pb  Pb13  1  0.00000000  0.00000000  0.66474600  1
  Pb  Pb14  1  0.50000000  0.00000000  0.33614000  1
  Pb  Pb15  1  0.50000000  0.50000000  0.83195000  1
