# generated using pymatgen
data_TbScSi
_symmetry_space_group_name_H-M   'P 1'
_cell_length_a   6.15455601
_cell_length_b   8.61384899
_cell_length_c   9.13283157
_cell_angle_alpha   57.98473781
_cell_angle_beta   90.00445404
_cell_angle_gamma   89.99861916
_symmetry_Int_Tables_number   1
_chemical_formula_structural   TbScSi
_chemical_formula_sum   'Tb6 Sc6 Si6'
_cell_volume   410.53255460
_cell_formula_units_Z   6
loop_
 _symmetry_equiv_pos_site_id
 _symmetry_equiv_pos_as_xyz
  1  'x, y, z'
loop_
 _atom_site_type_symbol
 _atom_site_label
 _atom_site_symmetry_multiplicity
 _atom_site_fract_x
 _atom_site_fract_y
 _atom_site_fract_z
 _atom_site_occupancy
  Tb  Tb0  1  0.75000200  0.27598900  0.70146700  1
  Tb  Tb1  1  0.75005200  0.72405600  0.97734500  1
  Tb  Tb2  1  0.74997600  0.99995100  0.30774000  1
  Tb  Tb3  1  0.24999000  0.74623700  0.25101300  1
  Tb  Tb4  1  0.24994400  0.25384400  0.99705900  1
  Tb  Tb5  1  0.24999100  0.99997800  0.75188200  1
  Sc  Sc6  1  0.49953500  0.30642600  0.35091400  1
  Sc  Sc7  1  0.49952600  0.69356800  0.65724200  1
  Sc  Sc8  1  0.00056900  0.69330800  0.65741500  1
  Sc  Sc9  1  0.00053600  0.30669000  0.35077800  1
  Sc  Sc10  1  0.75000200  0.64261400  0.35389500  1
  Sc  Sc11  1  0.74993100  0.35727300  0.99654500  1
  Si  Si12  1  0.55838300  0.00004600  0.02212900  1
  Si  Si13  1  0.94154700  0.00004000  0.02218100  1
  Si  Si14  1  0.75026100  0.99997600  0.61959900  1
  Si  Si15  1  0.24989400  0.40614300  0.58323700  1
  Si  Si16  1  0.24995000  0.59388700  0.98921100  1
  Si  Si17  1  0.24991200  0.99997300  0.41034900  1
