# generated using pymatgen
data_Tl5Re6S8Cl7
_symmetry_space_group_name_H-M   'P 1'
_cell_length_a   18.29983022
_cell_length_b   18.29983022
_cell_length_c   18.29983008
_cell_angle_alpha   30.38134180
_cell_angle_beta   30.38134180
_cell_angle_gamma   30.38134189
_symmetry_Int_Tables_number   1
_chemical_formula_structural   Tl5Re6S8Cl7
_chemical_formula_sum   'Tl10 Re12 S16 Cl14'
_cell_volume   1389.28607326
_cell_formula_units_Z   2
loop_
 _symmetry_equiv_pos_site_id
 _symmetry_equiv_pos_as_xyz
  1  'x, y, z'
loop_
 _atom_site_type_symbol
 _atom_site_label
 _atom_site_symmetry_multiplicity
 _atom_site_fract_x
 _atom_site_fract_y
 _atom_site_fract_z
 _atom_site_occupancy
  Tl  Tl0  1  0.74905300  0.44960000  0.05001400  1
  Tl  Tl1  1  0.44960000  0.05001400  0.74905300  1
  Tl  Tl2  1  0.05001400  0.74905300  0.44960000  1
  Tl  Tl3  1  0.55001400  0.94960000  0.24905300  1
  Tl  Tl4  1  0.94960000  0.24905300  0.55001400  1
  Tl  Tl5  1  0.24905300  0.55001400  0.94960000  1
  Tl  Tl6  1  0.84382800  0.84382800  0.84382800  1
  Tl  Tl7  1  0.34382800  0.34382800  0.34382800  1
  Tl  Tl8  1  0.15765800  0.15765800  0.15765800  1
  Tl  Tl9  1  0.65765800  0.65765800  0.65765800  1
  Re  Re10  1  0.34925700  0.66009200  0.55201100  1
  Re  Re11  1  0.66009200  0.55201100  0.34925700  1
  Re  Re12  1  0.55201100  0.34925700  0.66009200  1
  Re  Re13  1  0.05201100  0.16009200  0.84925700  1
  Re  Re14  1  0.16009200  0.84925700  0.05201100  1
  Re  Re15  1  0.84925700  0.05201100  0.16009200  1
  Re  Re16  1  0.65050100  0.33967600  0.44825300  1
  Re  Re17  1  0.33967600  0.44825300  0.65050100  1
  Re  Re18  1  0.44825300  0.65050100  0.33967600  1
  Re  Re19  1  0.94825300  0.83967600  0.15050100  1
  Re  Re20  1  0.83967600  0.15050100  0.94825300  1
  Re  Re21  1  0.15050100  0.94825300  0.83967600  1
  S  S22  1  0.55684600  0.55684600  0.55684600  1
  S  S23  1  0.05684600  0.05684600  0.05684600  1
  S  S24  1  0.44312800  0.44312800  0.44312800  1
  S  S25  1  0.94312800  0.94312800  0.94312800  1
  S  S26  1  0.26117200  0.45955000  0.83644600  1
  S  S27  1  0.45955000  0.83644600  0.26117200  1
  S  S28  1  0.83644600  0.26117200  0.45955000  1
  S  S29  1  0.33644600  0.95955000  0.76117200  1
  S  S30  1  0.95955000  0.76117200  0.33644600  1
  S  S31  1  0.76117200  0.33644600  0.95955000  1
  S  S32  1  0.73940700  0.53962200  0.16367200  1
  S  S33  1  0.53962200  0.16367200  0.73940700  1
  S  S34  1  0.16367200  0.73940700  0.53962200  1
  S  S35  1  0.66367200  0.03962200  0.23940700  1
  S  S36  1  0.03962200  0.23940700  0.66367200  1
  S  S37  1  0.23940700  0.66367200  0.03962200  1
  Cl  Cl38  1  0.14589100  0.86597300  0.63124500  1
  Cl  Cl39  1  0.86597300  0.63124500  0.14589100  1
  Cl  Cl40  1  0.63124500  0.14589100  0.86597300  1
  Cl  Cl41  1  0.13124500  0.36597300  0.64589100  1
  Cl  Cl42  1  0.36597300  0.64589100  0.13124500  1
  Cl  Cl43  1  0.64589100  0.13124500  0.36597300  1
  Cl  Cl44  1  0.85253700  0.12977300  0.37471300  1
  Cl  Cl45  1  0.12977300  0.37471300  0.85253700  1
  Cl  Cl46  1  0.37471300  0.85253700  0.12977300  1
  Cl  Cl47  1  0.87471300  0.62977300  0.35253700  1
  Cl  Cl48  1  0.62977300  0.35253700  0.87471300  1
  Cl  Cl49  1  0.35253700  0.87471300  0.62977300  1
  Cl  Cl50  1  0.23639600  0.23639600  0.23639600  1
  Cl  Cl51  1  0.73639600  0.73639600  0.73639600  1
