# generated using pymatgen
data_U11S20
_symmetry_space_group_name_H-M   'P 1'
_cell_length_a   10.17377900
_cell_length_b   10.17377900
_cell_length_c   6.35192700
_cell_angle_alpha   90.00000000
_cell_angle_beta   90.00000000
_cell_angle_gamma   90.00000000
_symmetry_Int_Tables_number   1
_chemical_formula_structural   U11S20
_chemical_formula_sum   'U11 S20'
_cell_volume   657.46115318
_cell_formula_units_Z   1
loop_
 _symmetry_equiv_pos_site_id
 _symmetry_equiv_pos_as_xyz
  1  'x, y, z'
loop_
 _atom_site_type_symbol
 _atom_site_label
 _atom_site_symmetry_multiplicity
 _atom_site_fract_x
 _atom_site_fract_y
 _atom_site_fract_z
 _atom_site_occupancy
  U  U0  1  0.84351600  0.65033600  0.25485200  1
  U  U1  1  0.83765000  0.35259600  0.75266300  1
  U  U2  1  0.16235000  0.64740400  0.75266300  1
  U  U3  1  0.15648400  0.34966400  0.25485200  1
  U  U4  1  0.64740400  0.83765000  0.75266300  1
  U  U5  1  0.65033600  0.15648400  0.25485200  1
  U  U6  1  0.34966400  0.84351600  0.25485200  1
  U  U7  1  0.35259600  0.16235000  0.75266300  1
  U  U8  1  0.50000000  0.50000000  0.13541800  1
  U  U9  1  0.00000000  0.00000000  0.35812700  1
  U  U10  1  0.00000000  0.00000000  0.85658400  1
  S  S11  1  0.29124100  0.58867800  0.37755800  1
  S  S12  1  0.29019100  0.41109800  0.88903200  1
  S  S13  1  0.70980900  0.58890200  0.88903200  1
  S  S14  1  0.70875900  0.41132200  0.37755800  1
  S  S15  1  0.58890200  0.29019100  0.88903200  1
  S  S16  1  0.58867800  0.70875900  0.37755800  1
  S  S17  1  0.41132200  0.29124100  0.37755800  1
  S  S18  1  0.41109800  0.70980900  0.88903200  1
  S  S19  1  0.20785200  0.90977400  0.61429000  1
  S  S20  1  0.20716600  0.08959700  0.11192000  1
  S  S21  1  0.79283400  0.91040300  0.11192000  1
  S  S22  1  0.79214800  0.09022600  0.61429000  1
  S  S23  1  0.91040300  0.20716600  0.11192000  1
  S  S24  1  0.90977400  0.79214800  0.61429000  1
  S  S25  1  0.09022600  0.20785200  0.61429000  1
  S  S26  1  0.08959700  0.79283400  0.11192000  1
  S  S27  1  0.00000000  0.50000000  0.50488400  1
  S  S28  1  0.00000000  0.50000000  0.00152200  1
  S  S29  1  0.50000000  0.00000000  0.00152200  1
  S  S30  1  0.50000000  0.00000000  0.50488400  1
