# generated using pymatgen
data_TbUTe3
_symmetry_space_group_name_H-M   'P 1'
_cell_length_a   4.27560800
_cell_length_b   11.91481100
_cell_length_c   12.11134600
_cell_angle_alpha   90.00000000
_cell_angle_beta   90.00000000
_cell_angle_gamma   90.00000000
_symmetry_Int_Tables_number   1
_chemical_formula_structural   TbUTe3
_chemical_formula_sum   'Tb4 U4 Te12'
_cell_volume   616.98904086
_cell_formula_units_Z   4
loop_
 _symmetry_equiv_pos_site_id
 _symmetry_equiv_pos_as_xyz
  1  'x, y, z'
loop_
 _atom_site_type_symbol
 _atom_site_label
 _atom_site_symmetry_multiplicity
 _atom_site_fract_x
 _atom_site_fract_y
 _atom_site_fract_z
 _atom_site_occupancy
  Tb  Tb0  1  0.25000000  0.18763900  0.48549400  1
  Tb  Tb1  1  0.25000000  0.31236100  0.98549400  1
  Tb  Tb2  1  0.75000000  0.81236100  0.51450600  1
  Tb  Tb3  1  0.75000000  0.68763900  0.01450600  1
  U  U4  1  0.75000000  0.49871500  0.69479100  1
  U  U5  1  0.75000000  0.00128500  0.19479100  1
  U  U6  1  0.25000000  0.50128500  0.30520900  1
  U  U7  1  0.25000000  0.99871500  0.80520900  1
  Te  Te8  1  0.25000000  0.62493500  0.54369500  1
  Te  Te9  1  0.25000000  0.87506500  0.04369500  1
  Te  Te10  1  0.75000000  0.37506500  0.45630500  1
  Te  Te11  1  0.75000000  0.12493500  0.95630500  1
  Te  Te12  1  0.25000000  0.29843700  0.72663000  1
  Te  Te13  1  0.25000000  0.20156300  0.22663000  1
  Te  Te14  1  0.75000000  0.70156300  0.27337000  1
  Te  Te15  1  0.75000000  0.79843700  0.77337000  1
  Te  Te16  1  0.75000000  0.05234200  0.61855200  1
  Te  Te17  1  0.75000000  0.44765800  0.11855200  1
  Te  Te18  1  0.25000000  0.94765800  0.38144800  1
  Te  Te19  1  0.25000000  0.55234200  0.88144800  1
