# generated using pymatgen
data_Th3U3P8
_symmetry_space_group_name_H-M   'P 1'
_cell_length_a   7.28533186
_cell_length_b   7.28533186
_cell_length_c   8.41288549
_cell_angle_alpha   54.98952218
_cell_angle_beta   54.98952218
_cell_angle_gamma   70.62624057
_symmetry_Int_Tables_number   1
_chemical_formula_structural   Th3U3P8
_chemical_formula_sum   'Th3 U3 P8'
_cell_volume   299.54237673
_cell_formula_units_Z   1
loop_
 _symmetry_equiv_pos_site_id
 _symmetry_equiv_pos_as_xyz
  1  'x, y, z'
loop_
 _atom_site_type_symbol
 _atom_site_label
 _atom_site_symmetry_multiplicity
 _atom_site_fract_x
 _atom_site_fract_y
 _atom_site_fract_z
 _atom_site_occupancy
  Th  Th0  1  0.12543900  0.62104300  0.37757100  1
  Th  Th1  1  0.37895700  0.87456100  0.62242900  1
  Th  Th2  1  0.62196400  0.37803600  0.50000000  1
  U  U3  1  0.87785500  0.12214500  0.00000000  1
  U  U4  1  0.74839000  0.75199200  0.87330000  1
  U  U5  1  0.24800800  0.25161000  0.12670000  1
  P  P6  1  0.65426500  0.49025500  0.76837100  1
  P  P7  1  0.99498100  0.15145000  0.59740300  1
  P  P8  1  0.84855000  0.00501900  0.40259700  1
  P  P9  1  0.50974500  0.34573500  0.23162900  1
  P  P10  1  0.99910900  0.65976500  0.08512000  1
  P  P11  1  0.14486500  0.49236300  0.76796600  1
  P  P12  1  0.34023500  0.00089100  0.91488000  1
  P  P13  1  0.50763700  0.85513500  0.23203400  1
