# generated using pymatgen
data_Te4Au(OF5)4
_symmetry_space_group_name_H-M   'P 1'
_cell_length_a   5.82330900
_cell_length_b   8.81549938
_cell_length_c   10.52503394
_cell_angle_alpha   113.79106135
_cell_angle_beta   92.75174712
_cell_angle_gamma   93.44664976
_symmetry_Int_Tables_number   1
_chemical_formula_structural   Te4Au(OF5)4
_chemical_formula_sum   'Te4 Au1 O4 F20'
_cell_volume   491.95162907
_cell_formula_units_Z   1
loop_
 _symmetry_equiv_pos_site_id
 _symmetry_equiv_pos_as_xyz
  1  'x, y, z'
loop_
 _atom_site_type_symbol
 _atom_site_label
 _atom_site_symmetry_multiplicity
 _atom_site_fract_x
 _atom_site_fract_y
 _atom_site_fract_z
 _atom_site_occupancy
  Te  Te0  1  0.74462900  0.36759700  0.25498400  1
  Te  Te1  1  0.74066900  0.11233200  0.74673300  1
  Te  Te2  1  0.25537100  0.63240300  0.74501600  1
  Te  Te3  1  0.25933100  0.88766800  0.25326700  1
  Au  Au4  1  0.50000000  0.00000000  0.00000000  1
  O  O5  1  0.74992900  0.13022200  0.14558800  1
  O  O6  1  0.71480500  0.97842200  0.85398300  1
  O  O7  1  0.25007100  0.86977800  0.85441200  1
  O  O8  1  0.28519500  0.02157800  0.14601700  1
  F  F9  1  0.58991100  0.32924700  0.39221300  1
  F  F10  1  0.89124100  0.94289700  0.61752400  1
  F  F11  1  0.41008900  0.67075300  0.60778700  1
  F  F12  1  0.10875900  0.05710300  0.38247600  1
  F  F13  1  0.91129400  0.41172100  0.12349000  1
  F  F14  1  0.58932500  0.28535700  0.87594400  1
  F  F15  1  0.08870600  0.58827900  0.87651000  1
  F  F16  1  0.41067500  0.71464300  0.12405600  1
  F  F17  1  0.46212500  0.37073100  0.16071900  1
  F  F18  1  0.02877500  0.20883000  0.84238300  1
  F  F19  1  0.53787500  0.62926900  0.83928100  1
  F  F20  1  0.97122500  0.79117000  0.15761700  1
  F  F21  1  0.02513300  0.36942000  0.34942800  1
  F  F22  1  0.45817600  0.01724800  0.64428600  1
  F  F23  1  0.97486700  0.63058000  0.65057200  1
  F  F24  1  0.54182400  0.98275200  0.35571400  1
  F  F25  1  0.73758500  0.59583600  0.35720400  1
  F  F26  1  0.77538500  0.24000300  0.64315100  1
  F  F27  1  0.26241500  0.40416400  0.64279600  1
  F  F28  1  0.22461500  0.75999700  0.35684900  1
