# generated using pymatgen
data_TbNdCo4
_symmetry_space_group_name_H-M   'P 1'
_cell_length_a   5.13787323
_cell_length_b   5.13787323
_cell_length_c   5.13787323
_cell_angle_alpha   60.00000000
_cell_angle_beta   60.00000000
_cell_angle_gamma   60.00000000
_symmetry_Int_Tables_number   1
_chemical_formula_structural   TbNdCo4
_chemical_formula_sum   'Tb1 Nd1 Co4'
_cell_volume   95.90365409
_cell_formula_units_Z   1
loop_
 _symmetry_equiv_pos_site_id
 _symmetry_equiv_pos_as_xyz
  1  'x, y, z'
loop_
 _atom_site_type_symbol
 _atom_site_label
 _atom_site_symmetry_multiplicity
 _atom_site_fract_x
 _atom_site_fract_y
 _atom_site_fract_z
 _atom_site_occupancy
  Tb  Tb0  1  0.25000000  0.25000000  0.25000000  1
  Nd  Nd1  1  0.50000000  0.50000000  0.50000000  1
  Co  Co2  1  0.87549200  0.87549200  0.37352500  1
  Co  Co3  1  0.87549200  0.37352500  0.87549200  1
  Co  Co4  1  0.87549200  0.87549200  0.87549200  1
  Co  Co5  1  0.37352500  0.87549200  0.87549200  1
