# generated using pymatgen
data_TeH4C2(NCl)6
_symmetry_space_group_name_H-M   'P 1'
_cell_length_a   7.40374673
_cell_length_b   7.15226236
_cell_length_c   8.33662586
_cell_angle_alpha   84.25089858
_cell_angle_beta   86.92314873
_cell_angle_gamma   61.80850186
_symmetry_Int_Tables_number   1
_chemical_formula_structural   TeH4C2(NCl)6
_chemical_formula_sum   'Te1 H4 C2 N6 Cl6'
_cell_volume   387.11852392
_cell_formula_units_Z   1
loop_
 _symmetry_equiv_pos_site_id
 _symmetry_equiv_pos_as_xyz
  1  'x, y, z'
loop_
 _atom_site_type_symbol
 _atom_site_label
 _atom_site_symmetry_multiplicity
 _atom_site_fract_x
 _atom_site_fract_y
 _atom_site_fract_z
 _atom_site_occupancy
  Te  Te0  1  0.00000000  0.00000000  0.00000000  1
  H  H1  1  0.40201500  0.21351800  0.85242100  1
  H  H2  1  0.59798500  0.78648200  0.14758000  1
  H  H3  1  0.31606100  0.48371000  0.89202700  1
  H  H4  1  0.68393900  0.51629000  0.10797300  1
  C  C5  1  0.30454300  0.42396000  0.66205700  1
  C  C6  1  0.69545700  0.57604000  0.33794300  1
  N  N7  1  0.34985400  0.37067800  0.80957400  1
  N  N8  1  0.65014600  0.62932200  0.19042600  1
  N  N9  1  0.23493200  0.57293300  0.53219900  1
  N  N10  1  0.76506800  0.42706700  0.46780100  1
  N  N11  1  0.29310600  0.37226800  0.50989200  1
  N  N12  1  0.70689400  0.62773200  0.49010800  1
  Cl  Cl13  1  0.84732400  0.38902600  0.88556300  1
  Cl  Cl14  1  0.15267600  0.61097400  0.11443700  1
  Cl  Cl15  1  0.67935300  0.09691100  0.17729300  1
  Cl  Cl16  1  0.32064700  0.90308900  0.82270700  1
  Cl  Cl17  1  0.82569600  0.92592100  0.77640000  1
  Cl  Cl18  1  0.17430400  0.07407900  0.22360000  1
