# generated using pymatgen
data_V3P4H8N2O17
_symmetry_space_group_name_H-M   'P 1'
_cell_length_a   7.40025000
_cell_length_b   11.69895300
_cell_length_c   17.73991900
_cell_angle_alpha   90.00000000
_cell_angle_beta   90.00000000
_cell_angle_gamma   90.00000000
_symmetry_Int_Tables_number   1
_chemical_formula_structural   V3P4H8N2O17
_chemical_formula_sum   'V12 P16 H32 N8 O68'
_cell_volume   1535.83662630
_cell_formula_units_Z   4
loop_
 _symmetry_equiv_pos_site_id
 _symmetry_equiv_pos_as_xyz
  1  'x, y, z'
loop_
 _atom_site_type_symbol
 _atom_site_label
 _atom_site_symmetry_multiplicity
 _atom_site_fract_x
 _atom_site_fract_y
 _atom_site_fract_z
 _atom_site_occupancy
  V  V0  1  0.74993400  0.16180100  0.89900300  1
  V  V1  1  0.74993400  0.33819900  0.39900300  1
  V  V2  1  0.24993400  0.83819900  0.10099700  1
  V  V3  1  0.24993400  0.66180100  0.60099700  1
  V  V4  1  0.74991800  0.83918900  0.80983300  1
  V  V5  1  0.74991800  0.66081100  0.30983300  1
  V  V6  1  0.24991800  0.16081100  0.19016700  1
  V  V7  1  0.24991800  0.33918900  0.69016700  1
  V  V8  1  0.97504700  0.50106300  0.99889800  1
  V  V9  1  0.47504700  0.49893700  0.00110200  1
  V  V10  1  0.47504700  0.00106300  0.50110200  1
  V  V11  1  0.97504700  0.99893700  0.49889800  1
  P  P12  1  0.45130300  0.88861700  0.67166200  1
  P  P13  1  0.04804000  0.61149400  0.17149300  1
  P  P14  1  0.95130300  0.11138300  0.32833800  1
  P  P15  1  0.54804000  0.38850600  0.82850700  1
  P  P16  1  0.54804000  0.11149400  0.32850700  1
  P  P17  1  0.95130300  0.38861700  0.82833800  1
  P  P18  1  0.04804000  0.88850600  0.67149300  1
  P  P19  1  0.45130300  0.61138300  0.17166200  1
  P  P20  1  0.95102200  0.78977300  0.97156400  1
  P  P21  1  0.54790200  0.71066500  0.47153900  1
  P  P22  1  0.45102200  0.21022700  0.02843600  1
  P  P23  1  0.04790200  0.28933500  0.52846100  1
  P  P24  1  0.04790200  0.21066500  0.02846100  1
  P  P25  1  0.45102200  0.28977300  0.52843600  1
  P  P26  1  0.54790200  0.78933500  0.97153900  1
  P  P27  1  0.95102200  0.71022700  0.47156400  1
  H  H28  1  0.13728000  0.64771600  0.86126600  1
  H  H29  1  0.36289600  0.85211100  0.36118200  1
  H  H30  1  0.63728000  0.35228400  0.13873400  1
  H  H31  1  0.86289600  0.14788900  0.63881800  1
  H  H32  1  0.86289600  0.35211100  0.13881800  1
  H  H33  1  0.63728000  0.14771600  0.63873400  1
  H  H34  1  0.36289600  0.64788900  0.86118200  1
  H  H35  1  0.13728000  0.85228400  0.36126600  1
  H  H36  1  0.24992900  0.00177400  0.80365600  1
  H  H37  1  0.24992900  0.49822600  0.30365600  1
  H  H38  1  0.74993000  0.99822600  0.19634400  1
  H  H39  1  0.74993000  0.50177400  0.69634400  1
  H  H40  1  0.25005900  0.56558200  0.79946000  1
  H  H41  1  0.25005900  0.93441800  0.29946000  1
  H  H42  1  0.75005900  0.43441800  0.20054000  1
  H  H43  1  0.75005900  0.06558200  0.70054000  1
  H  H44  1  0.25000700  0.11753300  0.85909100  1
  H  H45  1  0.25000700  0.38246700  0.35909100  1
  H  H46  1  0.75000700  0.88246700  0.14090900  1
  H  H47  1  0.75000700  0.61753300  0.64090900  1
  H  H48  1  0.13589400  0.99934100  0.88594300  1
  H  H49  1  0.36407100  0.50070100  0.38592800  1
  H  H50  1  0.63589400  0.00065900  0.11405700  1
  H  H51  1  0.86407100  0.49929900  0.61407200  1
  H  H52  1  0.86407100  0.00070100  0.11407200  1
  H  H53  1  0.63589400  0.49934100  0.61405700  1
  H  H54  1  0.36407100  0.99929900  0.88592800  1
  H  H55  1  0.13589400  0.50065900  0.38594300  1
  H  H56  1  0.24992900  0.70744000  0.78750300  1
  H  H57  1  0.24992900  0.79256000  0.28750300  1
  H  H58  1  0.74992900  0.29256000  0.21249700  1
  H  H59  1  0.74992900  0.20744000  0.71249700  1
  N  N60  1  0.25001700  0.64339000  0.82676400  1
  N  N61  1  0.25001700  0.85661000  0.32676400  1
  N  N62  1  0.75001700  0.35661000  0.17323600  1
  N  N63  1  0.75001700  0.14339000  0.67323600  1
  N  N64  1  0.24998600  0.02959400  0.85895900  1
  N  N65  1  0.24998600  0.47040600  0.35895900  1
  N  N66  1  0.74998600  0.97040600  0.14104100  1
  N  N67  1  0.74998600  0.52959400  0.64104100  1
  O  O68  1  0.55786500  0.83819000  0.89141100  1
  O  O69  1  0.94190000  0.66151100  0.39139800  1
  O  O70  1  0.05786500  0.16181000  0.10858900  1
  O  O71  1  0.44190000  0.33848900  0.60860200  1
  O  O72  1  0.44190000  0.16151100  0.10860200  1
  O  O73  1  0.05786500  0.33819000  0.60858900  1
  O  O74  1  0.94190000  0.83848900  0.89139800  1
  O  O75  1  0.55786500  0.66181000  0.39141100  1
  O  O76  1  0.56539900  0.26248800  0.85154100  1
  O  O77  1  0.93437000  0.23738100  0.35145800  1
  O  O78  1  0.06539900  0.73751200  0.14845900  1
  O  O79  1  0.43437000  0.76261900  0.64854200  1
  O  O80  1  0.43437000  0.73738100  0.14854200  1
  O  O81  1  0.06539900  0.76248800  0.64845900  1
  O  O82  1  0.93437000  0.26261900  0.85145800  1
  O  O83  1  0.56539900  0.23751200  0.35154100  1
  O  O84  1  0.02463600  0.46557000  0.89015300  1
  O  O85  1  0.47500500  0.03458500  0.39012300  1
  O  O86  1  0.52463600  0.53443000  0.10984700  1
  O  O87  1  0.97500500  0.96541500  0.60987700  1
  O  O88  1  0.97500500  0.53458500  0.10987700  1
  O  O89  1  0.52463600  0.96557000  0.60984700  1
  O  O90  1  0.47500500  0.46541500  0.89012300  1
  O  O91  1  0.02463600  0.03443000  0.39015300  1
  O  O92  1  0.74999400  0.70775200  0.77889400  1
  O  O93  1  0.74999400  0.79224800  0.27889400  1
  O  O94  1  0.24999400  0.29224800  0.22110600  1
  O  O95  1  0.24999400  0.20775200  0.72110600  1
  O  O96  1  0.74957500  0.79272100  0.00843800  1
  O  O97  1  0.74957500  0.70727900  0.50843800  1
  O  O98  1  0.24957500  0.20727900  0.99156200  1
  O  O99  1  0.24957500  0.29272100  0.49156200  1
  O  O100  1  0.74782900  0.50722900  0.98961900  1
  O  O101  1  0.74782900  0.99277100  0.48961900  1
  O  O102  1  0.24782900  0.49277100  0.01038100  1
  O  O103  1  0.24782900  0.00722900  0.51038100  1
  O  O104  1  0.02099500  0.66714800  0.97136200  1
  O  O105  1  0.47779600  0.83289100  0.47101800  1
  O  O106  1  0.52099500  0.33285200  0.02863800  1
  O  O107  1  0.97779600  0.16710900  0.52898200  1
  O  O108  1  0.97779600  0.33289100  0.02898200  1
  O  O109  1  0.52099500  0.16714800  0.52863800  1
  O  O110  1  0.47779600  0.66710900  0.97101800  1
  O  O111  1  0.02099500  0.83285200  0.47136200  1
  O  O112  1  0.55492500  0.90712900  0.74451100  1
  O  O113  1  0.94502700  0.59306700  0.24455400  1
  O  O114  1  0.05492500  0.09287100  0.25548900  1
  O  O115  1  0.44502700  0.40693300  0.75544600  1
  O  O116  1  0.44502700  0.09306700  0.25544600  1
  O  O117  1  0.05492500  0.40712900  0.75548900  1
  O  O118  1  0.94502700  0.90693300  0.74455400  1
  O  O119  1  0.55492500  0.59287100  0.24451100  1
  O  O120  1  0.56461800  0.13133100  0.97841800  1
  O  O121  1  0.93520600  0.36863100  0.47828200  1
  O  O122  1  0.06461800  0.86866900  0.02158200  1
  O  O123  1  0.43520600  0.63136900  0.52171800  1
  O  O124  1  0.43520600  0.86863100  0.02171800  1
  O  O125  1  0.06461800  0.63133100  0.52158200  1
  O  O126  1  0.93520600  0.13136900  0.97828200  1
  O  O127  1  0.56461800  0.36866900  0.47841800  1
  O  O128  1  0.74996800  0.04732800  0.84540900  1
  O  O129  1  0.74996800  0.45267200  0.34540900  1
  O  O130  1  0.24996800  0.95267200  0.15459100  1
  O  O131  1  0.24996800  0.54732800  0.65459100  1
  O  O132  1  0.24965600  0.93366600  0.69406800  1
  O  O133  1  0.24965600  0.56633400  0.19406800  1
  O  O134  1  0.74965600  0.06633400  0.30593200  1
  O  O135  1  0.74965600  0.43366600  0.80593200  1
