# generated using pymatgen
data_Tb9Ga5S21
_symmetry_space_group_name_H-M   'P 1'
_cell_length_a   11.48723714
_cell_length_b   11.48723714
_cell_length_c   11.48723729
_cell_angle_alpha   94.79301855
_cell_angle_beta   94.79301855
_cell_angle_gamma   94.79301755
_symmetry_Int_Tables_number   1
_chemical_formula_structural   Tb9Ga5S21
_chemical_formula_sum   'Tb18 Ga10 S42'
_cell_volume   1498.96461008
_cell_formula_units_Z   2
loop_
 _symmetry_equiv_pos_site_id
 _symmetry_equiv_pos_as_xyz
  1  'x, y, z'
loop_
 _atom_site_type_symbol
 _atom_site_label
 _atom_site_symmetry_multiplicity
 _atom_site_fract_x
 _atom_site_fract_y
 _atom_site_fract_z
 _atom_site_occupancy
  Tb  Tb0  1  0.25802100  0.11979200  0.88458400  1
  Tb  Tb1  1  0.91911100  0.77547100  0.54260300  1
  Tb  Tb2  1  0.59837600  0.45096900  0.22303800  1
  Tb  Tb3  1  0.45096900  0.22303800  0.59837600  1
  Tb  Tb4  1  0.11979200  0.88458400  0.25802100  1
  Tb  Tb5  1  0.77547100  0.54260300  0.91911000  1
  Tb  Tb6  1  0.54260300  0.91911100  0.77547100  1
  Tb  Tb7  1  0.22303800  0.59837600  0.45096900  1
  Tb  Tb8  1  0.88458400  0.25802100  0.11979200  1
  Tb  Tb9  1  0.41645100  0.55882300  0.78965500  1
  Tb  Tb10  1  0.07149600  0.21622900  0.44890500  1
  Tb  Tb11  1  0.75094900  0.89338800  0.12584900  1
  Tb  Tb12  1  0.21622900  0.44890500  0.07149600  1
  Tb  Tb13  1  0.89338800  0.12584900  0.75094900  1
  Tb  Tb14  1  0.55882300  0.78965500  0.41645100  1
  Tb  Tb15  1  0.12584900  0.75094900  0.89338800  1
  Tb  Tb16  1  0.78965500  0.41645100  0.55882300  1
  Tb  Tb17  1  0.44890500  0.07149600  0.21622900  1
  Ga  Ga18  1  0.94635100  0.60942600  0.27713500  1
  Ga  Ga19  1  0.60942600  0.27713600  0.94635100  1
  Ga  Ga20  1  0.27713500  0.94635100  0.60942600  1
  Ga  Ga21  1  0.44578300  0.77527000  0.11176300  1
  Ga  Ga22  1  0.11176300  0.44578300  0.77527000  1
  Ga  Ga23  1  0.77527000  0.11176300  0.44578300  1
  Ga  Ga24  1  0.14296200  0.14296200  0.14296200  1
  Ga  Ga25  1  0.84184600  0.84184600  0.84184600  1
  Ga  Ga26  1  0.34244200  0.34244200  0.34244200  1
  Ga  Ga27  1  0.64277000  0.64277000  0.64277000  1
  S  S28  1  0.98445900  0.55199300  0.46136300  1
  S  S29  1  0.64267000  0.21873200  0.12984100  1
  S  S30  1  0.30572300  0.89285000  0.79715200  1
  S  S31  1  0.89285000  0.79715200  0.30572300  1
  S  S32  1  0.55199300  0.46136300  0.98445900  1
  S  S33  1  0.21873200  0.12984100  0.64267000  1
  S  S34  1  0.12984100  0.64267000  0.21873200  1
  S  S35  1  0.79715200  0.30572300  0.89285000  1
  S  S36  1  0.46136300  0.98445900  0.55199300  1
  S  S37  1  0.52447100  0.93637200  0.03254900  1
  S  S38  1  0.18765700  0.61095900  0.70061100  1
  S  S39  1  0.84500500  0.27859800  0.36790400  1
  S  S40  1  0.61095900  0.70061100  0.18765700  1
  S  S41  1  0.27859800  0.36790400  0.84500500  1
  S  S42  1  0.93637200  0.03254900  0.52447100  1
  S  S43  1  0.36790400  0.84500500  0.27859800  1
  S  S44  1  0.03254900  0.52447100  0.93637200  1
  S  S45  1  0.70061100  0.18765700  0.61095900  1
  S  S46  1  0.82157500  0.48671400  0.15314500  1
  S  S47  1  0.48671400  0.15314500  0.82157500  1
  S  S48  1  0.15314500  0.82157500  0.48671400  1
  S  S49  1  0.65334500  0.98696600  0.32106900  1
  S  S50  1  0.32106900  0.65334500  0.98696600  1
  S  S51  1  0.98696600  0.32106900  0.65334500  1
  S  S52  1  0.69119700  0.59391100  0.44008400  1
  S  S53  1  0.33706900  0.24257900  0.10365900  1
  S  S54  1  0.00812700  0.90644500  0.76144600  1
  S  S55  1  0.90644500  0.76144600  0.00812700  1
  S  S56  1  0.59391100  0.44008400  0.69119700  1
  S  S57  1  0.24257900  0.10365900  0.33706900  1
  S  S58  1  0.10365900  0.33706900  0.24257900  1
  S  S59  1  0.76144600  0.00812700  0.90644500  1
  S  S60  1  0.44008400  0.69119700  0.59391100  1
  S  S61  1  0.61921400  0.71255300  0.85196200  1
  S  S62  1  0.27556300  0.37848100  0.52261400  1
  S  S63  1  0.95899900  0.05546600  0.21006800  1
  S  S64  1  0.37848100  0.52261400  0.27556300  1
  S  S65  1  0.05546600  0.21006800  0.95899900  1
  S  S66  1  0.71255300  0.85196200  0.61921400  1
  S  S67  1  0.21006800  0.95899900  0.05546600  1
  S  S68  1  0.85196200  0.61921400  0.71255300  1
  S  S69  1  0.52261400  0.27556300  0.37848100  1
