# generated using pymatgen
data_Tb4Fe29Si5
_symmetry_space_group_name_H-M   'P 1'
_cell_length_a   6.35179415
_cell_length_b   6.35179415
_cell_length_c   12.64869612
_cell_angle_alpha   82.91091532
_cell_angle_beta   82.91091532
_cell_angle_gamma   82.68951317
_symmetry_Int_Tables_number   1
_chemical_formula_structural   Tb4Fe29Si5
_chemical_formula_sum   'Tb4 Fe29 Si5'
_cell_volume   499.28119046
_cell_formula_units_Z   1
loop_
 _symmetry_equiv_pos_site_id
 _symmetry_equiv_pos_as_xyz
  1  'x, y, z'
loop_
 _atom_site_type_symbol
 _atom_site_label
 _atom_site_symmetry_multiplicity
 _atom_site_fract_x
 _atom_site_fract_y
 _atom_site_fract_z
 _atom_site_occupancy
  Tb  Tb0  1  0.65769300  0.65769300  0.32921700  1
  Tb  Tb1  1  0.65740200  0.65740200  0.82902100  1
  Tb  Tb2  1  0.34230700  0.34230700  0.17078300  1
  Tb  Tb3  1  0.34259800  0.34259800  0.67097900  1
  Fe  Fe4  1  0.29642100  0.70463600  0.00043100  1
  Fe  Fe5  1  0.29536400  0.70357900  0.49956900  1
  Fe  Fe6  1  0.70314800  0.99996100  0.14914300  1
  Fe  Fe7  1  0.70327400  0.99937600  0.64849200  1
  Fe  Fe8  1  0.00003900  0.29685200  0.35085700  1
  Fe  Fe9  1  0.00062400  0.29672600  0.85150800  1
  Fe  Fe10  1  0.29685200  0.00003900  0.35085700  1
  Fe  Fe11  1  0.29672600  0.00062400  0.85150800  1
  Fe  Fe12  1  0.99996100  0.70314800  0.14914300  1
  Fe  Fe13  1  0.99937600  0.70327400  0.64849200  1
  Fe  Fe14  1  0.70357900  0.29536400  0.49956900  1
  Fe  Fe15  1  0.70463600  0.29642100  0.00043100  1
  Fe  Fe16  1  0.34084000  0.34084000  0.42524200  1
  Fe  Fe17  1  0.34062200  0.34062200  0.92419000  1
  Fe  Fe18  1  0.34139000  0.84938100  0.17063300  1
  Fe  Fe19  1  0.34083600  0.84962100  0.67117100  1
  Fe  Fe20  1  0.84938100  0.34139000  0.17063300  1
  Fe  Fe21  1  0.84962100  0.34083600  0.67117100  1
  Fe  Fe22  1  0.65916000  0.65916000  0.07475800  1
  Fe  Fe23  1  0.65937800  0.65937800  0.57581000  1
  Fe  Fe24  1  0.65861000  0.15061900  0.32936700  1
  Fe  Fe25  1  0.65916400  0.15037900  0.82882900  1
  Fe  Fe26  1  0.15061900  0.65861000  0.32936700  1
  Fe  Fe27  1  0.15037900  0.65916400  0.82882900  1
  Fe  Fe28  1  0.90347000  0.90347000  0.45234600  1
  Fe  Fe29  1  0.90493600  0.90493600  0.95229500  1
  Fe  Fe30  1  0.09653000  0.09653000  0.04765400  1
  Fe  Fe31  1  0.09506400  0.09506400  0.54770500  1
  Fe  Fe32  1  0.00000000  0.00000000  0.25000000  1
  Si  Si33  1  0.00000000  0.00000000  0.75000000  1
  Si  Si34  1  0.00093100  0.50120500  0.99955600  1
  Si  Si35  1  0.99906900  0.49879500  0.50044400  1
  Si  Si36  1  0.49879500  0.99906900  0.50044400  1
  Si  Si37  1  0.50120500  0.00093100  0.99955600  1
