# generated using pymatgen
data_Ti12Mn5(PO4)18
_symmetry_space_group_name_H-M   'P 1'
_cell_length_a   8.66517300
_cell_length_b   12.24589419
_cell_length_c   14.98098626
_cell_angle_alpha   114.01270961
_cell_angle_beta   106.79965891
_cell_angle_gamma   89.98986577
_symmetry_Int_Tables_number   1
_chemical_formula_structural   Ti12Mn5(PO4)18
_chemical_formula_sum   'Ti12 Mn5 P18 O72'
_cell_volume   1377.52950000
_cell_formula_units_Z   1
loop_
 _symmetry_equiv_pos_site_id
 _symmetry_equiv_pos_as_xyz
  1  'x, y, z'
loop_
 _atom_site_type_symbol
 _atom_site_label
 _atom_site_symmetry_multiplicity
 _atom_site_fract_x
 _atom_site_fract_y
 _atom_site_fract_z
 _atom_site_occupancy
  Ti  Ti0  1  0.23539300  0.38242000  0.47160500  1
  Ti  Ti1  1  0.90277600  0.04974100  0.80545300  1
  Ti  Ti2  1  0.56868600  0.71413500  0.13687300  1
  Ti  Ti3  1  0.76460700  0.61758000  0.52839500  1
  Ti  Ti4  1  0.43131400  0.28586500  0.86312700  1
  Ti  Ti5  1  0.09722400  0.95025900  0.19454700  1
  Ti  Ti6  1  0.90956200  0.54527800  0.81942200  1
  Ti  Ti7  1  0.57036600  0.21483600  0.14085700  1
  Ti  Ti8  1  0.23690400  0.88132100  0.47387800  1
  Ti  Ti9  1  0.09043800  0.45472200  0.18057800  1
  Ti  Ti10  1  0.76309600  0.11867900  0.52612200  1
  Ti  Ti11  1  0.42963400  0.78516400  0.85914300  1
  Mn  Mn12  1  0.66604000  0.66596000  0.33282200  1
  Mn  Mn13  1  0.33396000  0.33404000  0.66717800  1
  Mn  Mn14  1  0.00000000  0.00000000  0.00000000  1
  Mn  Mn15  1  0.33258600  0.83294500  0.66668300  1
  Mn  Mn16  1  0.66741400  0.16705500  0.33331700  1
  P  P17  1  0.30593800  0.55443600  0.89943300  1
  P  P18  1  0.97372200  0.22295800  0.23367800  1
  P  P19  1  0.63952400  0.88745500  0.56774900  1
  P  P20  1  0.73151900  0.27778600  0.76130800  1
  P  P21  1  0.39990700  0.94454300  0.09618000  1
  P  P22  1  0.06645500  0.60991100  0.42704300  1
  P  P23  1  0.79175500  0.75300800  0.99881900  1
  P  P24  1  0.45594900  0.41894600  0.33172000  1
  P  P25  1  0.12644900  0.08545300  0.66658500  1
  P  P26  1  0.69406200  0.44556400  0.10056700  1
  P  P27  1  0.36047600  0.11254500  0.43225100  1
  P  P28  1  0.02627800  0.77704200  0.76632200  1
  P  P29  1  0.26848100  0.72221400  0.23869200  1
  P  P30  1  0.93354500  0.39008900  0.57295700  1
  P  P31  1  0.60009300  0.05545700  0.90382000  1
  P  P32  1  0.20824500  0.24699200  0.00118100  1
  P  P33  1  0.87355100  0.91454700  0.33341500  1
  P  P34  1  0.54405100  0.58105400  0.66828000  1
  O  O35  1  0.13603500  0.52052100  0.47263900  1
  O  O36  1  0.80272500  0.18842700  0.80555000  1
  O  O37  1  0.46915500  0.85426100  0.13961100  1
  O  O38  1  0.39529400  0.40238300  0.41365200  1
  O  O39  1  0.06339600  0.06920000  0.74690600  1
  O  O40  1  0.72894500  0.73541900  0.07899200  1
  O  O41  1  0.08499500  0.26907900  0.34689100  1
  O  O42  1  0.75115700  0.93489800  0.67985300  1
  O  O43  1  0.41625700  0.60171300  0.01221400  1
  O  O44  1  0.86396500  0.47947900  0.52736100  1
  O  O45  1  0.53084500  0.14573900  0.86038900  1
  O  O46  1  0.19727500  0.81157300  0.19445000  1
  O  O47  1  0.60470600  0.59761700  0.58634800  1
  O  O48  1  0.27105500  0.26458100  0.92100800  1
  O  O49  1  0.93660400  0.93080000  0.25309400  1
  O  O50  1  0.91500500  0.73092100  0.65310900  1
  O  O51  1  0.58374300  0.39828700  0.98778600  1
  O  O52  1  0.24884300  0.06510200  0.32014700  1
  O  O53  1  0.44385500  0.70484500  0.23397100  1
  O  O54  1  0.10889000  0.37098900  0.56690200  1
  O  O55  1  0.77568600  0.03726700  0.90000600  1
  O  O56  1  0.07459300  0.13594900  0.94953900  1
  O  O57  1  0.74102900  0.80352800  0.28320700  1
  O  O58  1  0.40839200  0.47058100  0.61664800  1
  O  O59  1  0.65697800  0.57144900  0.16736700  1
  O  O60  1  0.32490800  0.23849300  0.50044500  1
  O  O61  1  0.99139700  0.90398600  0.83360300  1
  O  O62  1  0.55614500  0.29515500  0.76602900  1
  O  O63  1  0.22431400  0.96273300  0.09999400  1
  O  O64  1  0.89111000  0.62901100  0.43309800  1
  O  O65  1  0.92540700  0.86405100  0.05046100  1
  O  O66  1  0.59160800  0.52941900  0.38335200  1
  O  O67  1  0.25897100  0.19647200  0.71679300  1
  O  O68  1  0.34302200  0.42855100  0.83263300  1
  O  O69  1  0.00860300  0.09601400  0.16639700  1
  O  O70  1  0.67509200  0.76150700  0.49955500  1
  O  O71  1  0.05647000  0.56215100  0.31398500  1
  O  O72  1  0.71851600  0.22751100  0.64627100  1
  O  O73  1  0.38866200  0.89785700  0.98205000  1
  O  O74  1  0.31769500  0.44157000  0.25377900  1
  O  O75  1  0.98805300  0.10779800  0.58712200  1
  O  O76  1  0.65240500  0.77892100  0.92185800  1
  O  O77  1  0.00311500  0.30795100  0.18704900  1
  O  O78  1  0.66740000  0.97150900  0.51889200  1
  O  O79  1  0.33931500  0.63919100  0.85210100  1
  O  O80  1  0.94353000  0.43784900  0.68601500  1
  O  O81  1  0.61133800  0.10214300  0.01795000  1
  O  O82  1  0.28148400  0.77248900  0.35372900  1
  O  O83  1  0.68230500  0.55843000  0.74622100  1
  O  O84  1  0.34759500  0.22107900  0.07814200  1
  O  O85  1  0.01194700  0.89220200  0.41287800  1
  O  O86  1  0.99688500  0.69204900  0.81295100  1
  O  O87  1  0.66068500  0.36080900  0.14789900  1
  O  O88  1  0.33260000  0.02849100  0.48110800  1
  O  O89  1  0.48576600  0.93405900  0.83424100  1
  O  O90  1  0.81985800  0.26787500  0.50165800  1
  O  O91  1  0.15806600  0.60119100  0.17523400  1
  O  O92  1  0.46729300  0.69774100  0.71642000  1
  O  O93  1  0.79925200  0.03128500  0.38307800  1
  O  O94  1  0.13745900  0.36093400  0.05490300  1
  O  O95  1  0.20336700  0.78944800  0.76233700  1
  O  O96  1  0.53745900  0.12318300  0.42882900  1
  O  O97  1  0.87081600  0.45476500  0.10193700  1
  O  O98  1  0.18014200  0.73212500  0.49834200  1
  O  O99  1  0.51423400  0.06594100  0.16575900  1
  O  O100  1  0.84193400  0.39880900  0.82476600  1
  O  O101  1  0.20074800  0.96871500  0.61692200  1
  O  O102  1  0.53270700  0.30225900  0.28358000  1
  O  O103  1  0.86254100  0.63906600  0.94509700  1
  O  O104  1  0.46254100  0.87681700  0.57117100  1
  O  O105  1  0.79663300  0.21055200  0.23766300  1
  O  O106  1  0.12918400  0.54523500  0.89806300  1
