# generated using pymatgen
data_Yb9Co13Sn38
_symmetry_space_group_name_H-M   'P 1'
_cell_length_a   9.55270727
_cell_length_b   9.57010224
_cell_length_c   28.73222534
_cell_angle_alpha   90.00000000
_cell_angle_beta   90.00000000
_cell_angle_gamma   90.00000000
_symmetry_Int_Tables_number   1
_chemical_formula_structural   Yb9Co13Sn38
_chemical_formula_sum   'Yb18 Co26 Sn76'
_cell_volume   2626.71110946
_cell_formula_units_Z   2
loop_
 _symmetry_equiv_pos_site_id
 _symmetry_equiv_pos_as_xyz
  1  'x, y, z'
loop_
 _atom_site_type_symbol
 _atom_site_label
 _atom_site_symmetry_multiplicity
 _atom_site_fract_x
 _atom_site_fract_y
 _atom_site_fract_z
 _atom_site_occupancy
  Yb  Yb0  1  -0.00000000  0.50000000  0.24938356  1
  Yb  Yb1  1  -0.00000000  0.50000000  0.58302401  1
  Yb  Yb2  1  -0.00000000  0.50000000  0.91617314  1
  Yb  Yb3  1  0.50000000  0.24948559  0.00034405  1
  Yb  Yb4  1  0.50000000  0.24952830  0.33333300  1
  Yb  Yb5  1  0.50000000  0.24948559  0.66632295  1
  Yb  Yb6  1  0.74845382  0.00000000  0.16658125  1
  Yb  Yb7  1  0.74845382  0.00000000  0.50008575  1
  Yb  Yb8  1  0.74734681  0.00000000  0.83333300  1
  Yb  Yb9  1  -0.00000000  0.50000000  0.08364199  1
  Yb  Yb10  1  -0.00000000  0.50000000  0.41728344  1
  Yb  Yb11  1  -0.00000000  0.50000000  0.75049386  1
  Yb  Yb12  1  0.50000000  0.75051441  0.00034405  1
  Yb  Yb13  1  0.50000000  0.75047170  0.33333300  1
  Yb  Yb14  1  0.50000000  0.75051441  0.66632295  1
  Yb  Yb15  1  0.25154618  0.00000000  0.16658125  1
  Yb  Yb16  1  0.25154618  0.00000000  0.50008575  1
  Yb  Yb17  1  0.25265319  0.00000000  0.83333300  1
  Co  Co18  1  0.75057550  0.25059232  0.25013169  1
  Co  Co19  1  0.75091766  0.24974645  0.58345237  1
  Co  Co20  1  0.75059618  0.25160144  0.91682262  1
  Co  Co21  1  0.24908234  0.75025355  0.08321363  1
  Co  Co22  1  0.24942450  0.74940768  0.41653531  1
  Co  Co23  1  0.24940382  0.74839856  0.74984438  1
  Co  Co24  1  0.75091766  0.75025355  0.08321363  1
  Co  Co25  1  0.75057550  0.74940768  0.41653531  1
  Co  Co26  1  0.75059618  0.74839856  0.74984438  1
  Co  Co27  1  0.24942450  0.25059232  0.25013169  1
  Co  Co28  1  0.24908234  0.24974645  0.58345237  1
  Co  Co29  1  0.24940382  0.25160144  0.91682262  1
  Co  Co30  1  0.24942450  0.74940768  0.25013169  1
  Co  Co31  1  0.24908234  0.75025355  0.58345237  1
  Co  Co32  1  0.24940382  0.74839856  0.91682262  1
  Co  Co33  1  0.75091766  0.24974645  0.08321363  1
  Co  Co34  1  0.75057550  0.25059232  0.41653531  1
  Co  Co35  1  0.75059618  0.25160144  0.74984438  1
  Co  Co36  1  0.24908234  0.24974645  0.08321363  1
  Co  Co37  1  0.24942450  0.25059232  0.41653531  1
  Co  Co38  1  0.24940382  0.25160144  0.74984438  1
  Co  Co39  1  0.75057550  0.74940768  0.25013169  1
  Co  Co40  1  0.75091766  0.75025355  0.58345237  1
  Co  Co41  1  0.75059618  0.74839856  0.91682262  1
  Co  Co42  1  0.50000000  0.50000000  0.16670067  1
  Co  Co43  1  0.50000000  0.50000000  0.49996633  1
  Sn  Sn44  1  0.78718948  0.34560168  0.16658851  1
  Sn  Sn45  1  0.78718948  0.34560168  0.50007849  1
  Sn  Sn46  1  0.80041672  0.34266659  0.83333300  1
  Sn  Sn47  1  0.65299557  0.50000000  0.26152724  1
  Sn  Sn48  1  0.65323477  0.50000000  0.59495837  1
  Sn  Sn49  1  0.65750210  0.50000000  0.93327048  1
  Sn  Sn50  1  0.50000000  0.21416353  0.21733626  1
  Sn  Sn51  1  0.50000000  0.21403569  0.55104506  1
  Sn  Sn52  1  0.50000000  0.19862613  0.88607016  1
  Sn  Sn53  1  0.21281052  0.65439832  0.16658851  1
  Sn  Sn54  1  0.21281052  0.65439832  0.50007849  1
  Sn  Sn55  1  0.19958328  0.65733341  0.83333300  1
  Sn  Sn56  1  0.34676523  0.50000000  0.07170863  1
  Sn  Sn57  1  0.34700443  0.50000000  0.40513976  1
  Sn  Sn58  1  0.34249790  0.50000000  0.73339552  1
  Sn  Sn59  1  0.50000000  0.78596431  0.11562094  1
  Sn  Sn60  1  0.50000000  0.78583647  0.44933074  1
  Sn  Sn61  1  0.50000000  0.80137387  0.78059684  1
  Sn  Sn62  1  0.78718948  0.65439832  0.16658851  1
  Sn  Sn63  1  0.78718948  0.65439832  0.50007849  1
  Sn  Sn64  1  0.80041672  0.65733341  0.83333300  1
  Sn  Sn65  1  0.65323477  0.50000000  0.07170863  1
  Sn  Sn66  1  0.65299557  0.50000000  0.40513976  1
  Sn  Sn67  1  0.65750210  0.50000000  0.73339552  1
  Sn  Sn68  1  0.21281052  0.34560168  0.16658851  1
  Sn  Sn69  1  0.21281052  0.34560168  0.50007849  1
  Sn  Sn70  1  0.19958328  0.34266659  0.83333300  1
  Sn  Sn71  1  0.34700443  0.50000000  0.26152724  1
  Sn  Sn72  1  0.34676523  0.50000000  0.59495837  1
  Sn  Sn73  1  0.34249790  0.50000000  0.93327048  1
  Sn  Sn74  1  0.50000000  0.78583647  0.21733626  1
  Sn  Sn75  1  0.50000000  0.78596431  0.55104506  1
  Sn  Sn76  1  0.50000000  0.80137387  0.88607016  1
  Sn  Sn77  1  0.50000000  0.21403569  0.11562094  1
  Sn  Sn78  1  0.50000000  0.21416353  0.44933074  1
  Sn  Sn79  1  0.50000000  0.19862613  0.78059684  1
  Sn  Sn80  1  0.30080932  0.00000000  0.28044108  1
  Sn  Sn81  1  0.30016547  0.00000000  0.61388882  1
  Sn  Sn82  1  0.29946699  0.00000000  0.94712285  1
  Sn  Sn83  1  0.15890117  0.30130355  0.00025871  1
  Sn  Sn84  1  0.15939990  0.30100466  0.33333300  1
  Sn  Sn85  1  0.15890117  0.30130355  0.66640829  1
  Sn  Sn86  1  -0.00000000  0.15816261  0.23317437  1
  Sn  Sn87  1  -0.00000000  0.15798295  0.56618384  1
  Sn  Sn88  1  -0.00000000  0.15831668  0.90003768  1
  Sn  Sn89  1  0.69983453  0.00000000  0.05277718  1
  Sn  Sn90  1  0.69919068  0.00000000  0.38622592  1
  Sn  Sn91  1  0.70053301  0.00000000  0.71954415  1
  Sn  Sn92  1  0.84109883  0.69869645  0.00025871  1
  Sn  Sn93  1  0.84060010  0.69899534  0.33333300  1
  Sn  Sn94  1  0.84109883  0.69869645  0.66640829  1
  Sn  Sn95  1  -0.00000000  0.84201705  0.10048316  1
  Sn  Sn96  1  -0.00000000  0.84183739  0.43349163  1
  Sn  Sn97  1  -0.00000000  0.84168332  0.76662932  1
  Sn  Sn98  1  0.30016547  0.00000000  0.05277718  1
  Sn  Sn99  1  0.30080932  0.00000000  0.38622592  1
  Sn  Sn100  1  0.29946699  0.00000000  0.71954415  1
  Sn  Sn101  1  0.15890117  0.69869645  0.00025871  1
  Sn  Sn102  1  0.15939990  0.69899534  0.33333300  1
  Sn  Sn103  1  0.15890117  0.69869645  0.66640829  1
  Sn  Sn104  1  0.69919068  0.00000000  0.28044108  1
  Sn  Sn105  1  0.69983453  0.00000000  0.61388882  1
  Sn  Sn106  1  0.70053301  0.00000000  0.94712285  1
  Sn  Sn107  1  0.84109883  0.30130355  0.00025871  1
  Sn  Sn108  1  0.84060010  0.30100466  0.33333300  1
  Sn  Sn109  1  0.84109883  0.30130355  0.66640829  1
  Sn  Sn110  1  -0.00000000  0.15798295  0.10048316  1
  Sn  Sn111  1  -0.00000000  0.15816261  0.43349163  1
  Sn  Sn112  1  -0.00000000  0.15831668  0.76662932  1
  Sn  Sn113  1  -0.00000000  0.84183739  0.23317437  1
  Sn  Sn114  1  -0.00000000  0.84201705  0.56618384  1
  Sn  Sn115  1  -0.00000000  0.84168332  0.90003768  1
  Sn  Sn116  1  0.50000000  0.50000000  0.83333300  1
  Sn  Sn117  1  -0.00000000  0.00000000  0.00041495  1
  Sn  Sn118  1  -0.00000000  0.00000000  0.33333300  1
  Sn  Sn119  1  -0.00000000  0.00000000  0.66625205  1
