# generated using pymatgen
data_Tb2MgS4
_symmetry_space_group_name_H-M   'P 1'
_cell_length_a   6.54671962
_cell_length_b   6.54671962
_cell_length_c   12.91856500
_cell_angle_alpha   90.00000000
_cell_angle_beta   90.00000000
_cell_angle_gamma   146.20197122
_symmetry_Int_Tables_number   1
_chemical_formula_structural   Tb2MgS4
_chemical_formula_sum   'Tb4 Mg2 S8'
_cell_volume   307.99599871
_cell_formula_units_Z   2
loop_
 _symmetry_equiv_pos_site_id
 _symmetry_equiv_pos_as_xyz
  1  'x, y, z'
loop_
 _atom_site_type_symbol
 _atom_site_label
 _atom_site_symmetry_multiplicity
 _atom_site_fract_x
 _atom_site_fract_y
 _atom_site_fract_z
 _atom_site_occupancy
  Tb  Tb0  1  0.38154600  0.61845400  0.78372300  1
  Tb  Tb1  1  0.61845400  0.38154600  0.28372300  1
  Tb  Tb2  1  0.13750900  0.86249100  0.58223600  1
  Tb  Tb3  1  0.86249100  0.13750900  0.08223600  1
  Mg  Mg4  1  0.12590500  0.87409500  0.94608300  1
  Mg  Mg5  1  0.87409500  0.12590500  0.44608300  1
  S  S6  1  0.78980600  0.21019400  0.63476100  1
  S  S7  1  0.21019400  0.78980600  0.13476100  1
  S  S8  1  0.48935400  0.51064600  0.99690900  1
  S  S9  1  0.51064600  0.48935400  0.49690900  1
  S  S10  1  0.76183700  0.23816300  0.89527000  1
  S  S11  1  0.23816300  0.76183700  0.39527000  1
  S  S12  1  0.03715500  0.96284500  0.76901800  1
  S  S13  1  0.96284500  0.03715500  0.26901800  1
