# generated using pymatgen
data_Te4H4Pb12C2Cl3O29
_symmetry_space_group_name_H-M   'P 1'
_cell_length_a   7.74692600
_cell_length_b   11.17728772
_cell_length_c   12.17314417
_cell_angle_alpha   117.21128435
_cell_angle_beta   99.57820930
_cell_angle_gamma   90.02051974
_symmetry_Int_Tables_number   1
_chemical_formula_structural   Te4H4Pb12C2Cl3O29
_chemical_formula_sum   'Te4 H4 Pb12 C2 Cl3 O29'
_cell_volume   920.82340925
_cell_formula_units_Z   1
loop_
 _symmetry_equiv_pos_site_id
 _symmetry_equiv_pos_as_xyz
  1  'x, y, z'
loop_
 _atom_site_type_symbol
 _atom_site_label
 _atom_site_symmetry_multiplicity
 _atom_site_fract_x
 _atom_site_fract_y
 _atom_site_fract_z
 _atom_site_occupancy
  Te  Te0  1  0.86233300  0.08696600  0.57614400  1
  Te  Te1  1  0.63716000  0.51016900  0.42312700  1
  Te  Te2  1  0.13897700  0.91426700  0.42285700  1
  Te  Te3  1  0.36238100  0.49035000  0.57710900  1
  H  H4  1  0.32110300  0.97125000  0.05854400  1
  H  H5  1  0.17169200  0.90673500  0.94280800  1
  H  H6  1  0.67233700  0.03175500  0.94326700  1
  H  H7  1  0.82980100  0.08729900  0.05733300  1
  Pb  Pb8  1  0.49390200  0.09476400  0.36787200  1
  Pb  Pb9  1  0.02400700  0.71576700  0.60940300  1
  Pb  Pb10  1  0.52144600  0.89488000  0.60956300  1
  Pb  Pb11  1  0.97782600  0.28434200  0.39054300  1
  Pb  Pb12  1  0.66134400  0.73411400  0.27639600  1
  Pb  Pb13  1  0.83851600  0.45566000  0.72151400  1
  Pb  Pb14  1  0.34014900  0.26329200  0.71794400  1
  Pb  Pb15  1  0.16092500  0.54356000  0.27726900  1
  Pb  Pb16  1  0.02108000  0.79808800  0.10744100  1
  Pb  Pb17  1  0.47851900  0.69038800  0.89351200  1
  Pb  Pb18  1  0.97776100  0.20274200  0.89257900  1
  Pb  Pb19  1  0.52164700  0.31087700  0.10623700  1
  C  C20  1  0.75027600  0.48518900  0.99976000  1
  C  C21  1  0.24888100  0.51580800  0.99967200  1
  Cl  Cl22  1  0.84320400  0.80639100  0.82759000  1
  Cl  Cl23  1  0.34318000  0.02104500  0.82708800  1
  Cl  Cl24  1  0.15941600  0.19306800  0.17197800  1
  O  O25  1  0.75056200  0.60105400  0.99956200  1
  O  O26  1  0.24851600  0.40045800  0.00070600  1
  O  O27  1  0.95661600  0.78118100  0.28690800  1
  O  O28  1  0.54239500  0.49253400  0.71325300  1
  O  O29  1  0.04276100  0.22008100  0.71235600  1
  O  O30  1  0.45686600  0.50832300  0.28727000  1
  O  O31  1  0.71373700  0.47629200  0.09673900  1
  O  O32  1  0.78651100  0.37918500  0.90322800  1
  O  O33  1  0.28877700  0.52508700  0.90392200  1
  O  O34  1  0.20915500  0.62165700  0.09541300  1
  O  O35  1  0.66656900  0.96032000  0.45333500  1
  O  O36  1  0.83444700  0.50543700  0.54428600  1
  O  O37  1  0.33337300  0.03748800  0.54565800  1
  O  O38  1  0.16576600  0.49599500  0.45595600  1
  O  O39  1  0.99243800  0.06844800  0.43994000  1
  O  O40  1  0.50713100  0.62730300  0.55863200  1
  O  O41  1  0.00599100  0.93164600  0.55748100  1
  O  O42  1  0.49286900  0.37350700  0.44189500  1
  O  O43  1  0.23515800  0.92016900  0.28946200  1
  O  O44  1  0.26717000  0.63148900  0.71001900  1
  O  O45  1  0.76456000  0.07905000  0.70822500  1
  O  O46  1  0.73312500  0.36973100  0.29062000  1
  O  O47  1  0.74601400  0.23184600  0.55980300  1
  O  O48  1  0.75502200  0.67010400  0.43740900  1
  O  O49  1  0.25349800  0.76718500  0.43702900  1
  O  O50  1  0.24053100  0.33295100  0.56373100  1
  O  O51  1  0.25266900  0.88511400  0.00103500  1
  O  O52  1  0.74601600  0.11431300  0.00517700  1
  O  O53  1  0.65389200  0.98329100  0.20340200  1
