# generated using pymatgen
data_Tb2Si3
_symmetry_space_group_name_H-M   'P 1'
_cell_length_a   7.43847619
_cell_length_b   7.43847619
_cell_length_c   7.43847619
_cell_angle_alpha   149.60766192
_cell_angle_beta   148.62304220
_cell_angle_gamma   44.24674453
_symmetry_Int_Tables_number   1
_chemical_formula_structural   Tb2Si3
_chemical_formula_sum   'Tb2 Si3'
_cell_volume   108.09966954
_cell_formula_units_Z   1
loop_
 _symmetry_equiv_pos_site_id
 _symmetry_equiv_pos_as_xyz
  1  'x, y, z'
loop_
 _atom_site_type_symbol
 _atom_site_label
 _atom_site_symmetry_multiplicity
 _atom_site_fract_x
 _atom_site_fract_y
 _atom_site_fract_z
 _atom_site_occupancy
  Tb  Tb0  1  0.12695500  0.62695500  0.50000000  1
  Tb  Tb1  1  0.37311900  0.37311900  0.00000000  1
  Si  Si2  1  0.70133500  0.20133500  0.50000000  1
  Si  Si3  1  0.80116500  0.80116500  0.00000000  1
  Si  Si4  1  0.53222600  0.03222600  0.50000000  1
