# generated using pymatgen
data_Tb2MnS4
_symmetry_space_group_name_H-M   'P 1'
_cell_length_a   6.47579859
_cell_length_b   6.47579859
_cell_length_c   12.90925000
_cell_angle_alpha   90.00000000
_cell_angle_beta   90.00000000
_cell_angle_gamma   145.78194719
_symmetry_Int_Tables_number   1
_chemical_formula_structural   Tb2MnS4
_chemical_formula_sum   'Tb4 Mn2 S8'
_cell_volume   304.43158029
_cell_formula_units_Z   2
loop_
 _symmetry_equiv_pos_site_id
 _symmetry_equiv_pos_as_xyz
  1  'x, y, z'
loop_
 _atom_site_type_symbol
 _atom_site_label
 _atom_site_symmetry_multiplicity
 _atom_site_fract_x
 _atom_site_fract_y
 _atom_site_fract_z
 _atom_site_occupancy
  Tb  Tb0  1  0.38090900  0.61909100  0.78421200  1
  Tb  Tb1  1  0.61909100  0.38090900  0.28421200  1
  Tb  Tb2  1  0.13722500  0.86277500  0.58179600  1
  Tb  Tb3  1  0.86277500  0.13722500  0.08179600  1
  Mn  Mn4  1  0.12617200  0.87382800  0.94544700  1
  Mn  Mn5  1  0.87382800  0.12617200  0.44544700  1
  S  S6  1  0.79129300  0.20870700  0.63441300  1
  S  S7  1  0.20870700  0.79129300  0.13441300  1
  S  S8  1  0.49092800  0.50907200  0.99629300  1
  S  S9  1  0.50907200  0.49092800  0.49629300  1
  S  S10  1  0.75953400  0.24046600  0.89523500  1
  S  S11  1  0.24046600  0.75953400  0.39523500  1
  S  S12  1  0.03885100  0.96114900  0.77060500  1
  S  S13  1  0.96114900  0.03885100  0.27060500  1
