# generated using pymatgen
data_Tb3NdFe34
_symmetry_space_group_name_H-M   'P 1'
_cell_length_a   6.43478493
_cell_length_b   6.43478493
_cell_length_c   12.86466899
_cell_angle_alpha   82.96877415
_cell_angle_beta   82.96877415
_cell_angle_gamma   82.97887563
_symmetry_Int_Tables_number   1
_chemical_formula_structural   Tb3NdFe34
_chemical_formula_sum   'Tb3 Nd1 Fe34'
_cell_volume   521.57900690
_cell_formula_units_Z   1
loop_
 _symmetry_equiv_pos_site_id
 _symmetry_equiv_pos_as_xyz
  1  'x, y, z'
loop_
 _atom_site_type_symbol
 _atom_site_label
 _atom_site_symmetry_multiplicity
 _atom_site_fract_x
 _atom_site_fract_y
 _atom_site_fract_z
 _atom_site_occupancy
  Tb  Tb0  1  0.65837500  0.65837500  0.82909500  1
  Tb  Tb1  1  0.34101800  0.34101800  0.17058800  1
  Tb  Tb2  1  0.34168800  0.34168800  0.67073800  1
  Nd  Nd3  1  0.65777000  0.65777000  0.32895400  1
  Fe  Fe4  1  0.90374900  0.90374900  0.45205000  1
  Fe  Fe5  1  0.90322200  0.90322200  0.95149700  1
  Fe  Fe6  1  0.09698600  0.09698600  0.04822700  1
  Fe  Fe7  1  0.09687000  0.09687000  0.54862900  1
  Fe  Fe8  1  0.00062200  0.00062200  0.24978300  1
  Fe  Fe9  1  0.00007400  0.00007400  0.74998700  1
  Fe  Fe10  1  0.00061600  0.49956900  0.50049600  1
  Fe  Fe11  1  0.00003300  0.49998800  0.99985900  1
  Fe  Fe12  1  0.49998800  0.00003300  0.99985900  1
  Fe  Fe13  1  0.49956900  0.00061600  0.50049600  1
  Fe  Fe14  1  0.84558200  0.34234600  0.17107800  1
  Fe  Fe15  1  0.84499800  0.34328300  0.67178900  1
  Fe  Fe16  1  0.34225700  0.34225700  0.42281900  1
  Fe  Fe17  1  0.34340300  0.34340300  0.92244800  1
  Fe  Fe18  1  0.34234600  0.84558200  0.17107800  1
  Fe  Fe19  1  0.34328300  0.84499800  0.67178900  1
  Fe  Fe20  1  0.15513700  0.65678800  0.32843600  1
  Fe  Fe21  1  0.15504300  0.65672200  0.82823700  1
  Fe  Fe22  1  0.65660300  0.65660300  0.07677900  1
  Fe  Fe23  1  0.65684800  0.65684800  0.57838000  1
  Fe  Fe24  1  0.65678800  0.15513700  0.32843600  1
  Fe  Fe25  1  0.65672200  0.15504300  0.82823700  1
  Fe  Fe26  1  0.29214500  0.70707100  0.50065500  1
  Fe  Fe27  1  0.29367900  0.70636300  0.99984100  1
  Fe  Fe28  1  0.70703900  0.00104500  0.14600700  1
  Fe  Fe29  1  0.70643600  0.99992900  0.64694300  1
  Fe  Fe30  1  0.00086400  0.29217000  0.35354100  1
  Fe  Fe31  1  0.00005200  0.29361600  0.85313100  1
  Fe  Fe32  1  0.29217000  0.00086400  0.35354100  1
  Fe  Fe33  1  0.29361600  0.00005200  0.85313100  1
  Fe  Fe34  1  0.00104500  0.70703900  0.14600700  1
  Fe  Fe35  1  0.99992900  0.70643600  0.64694300  1
  Fe  Fe36  1  0.70707100  0.29214500  0.50065500  1
  Fe  Fe37  1  0.70636300  0.29367900  0.99984100  1
