# generated using pymatgen
data_Tb4Ni3Ge8
_symmetry_space_group_name_H-M   'P 1'
_cell_length_a   4.10975900
_cell_length_b   4.11742100
_cell_length_c   16.64957400
_cell_angle_alpha   90.00000000
_cell_angle_beta   90.00000000
_cell_angle_gamma   90.00000000
_symmetry_Int_Tables_number   1
_chemical_formula_structural   Tb4Ni3Ge8
_chemical_formula_sum   'Tb4 Ni3 Ge8'
_cell_volume   281.73756479
_cell_formula_units_Z   1
loop_
 _symmetry_equiv_pos_site_id
 _symmetry_equiv_pos_as_xyz
  1  'x, y, z'
loop_
 _atom_site_type_symbol
 _atom_site_label
 _atom_site_symmetry_multiplicity
 _atom_site_fract_x
 _atom_site_fract_y
 _atom_site_fract_z
 _atom_site_occupancy
  Tb  Tb0  1  0.25000000  0.00000000  0.10476200  1
  Tb  Tb1  1  0.25000000  0.50000000  0.60690300  1
  Tb  Tb2  1  0.75000000  0.50000000  0.38924200  1
  Tb  Tb3  1  0.75000000  0.00000000  0.89237500  1
  Ni  Ni4  1  0.25000000  0.50000000  0.82094100  1
  Ni  Ni5  1  0.75000000  0.50000000  0.18297200  1
  Ni  Ni6  1  0.75000000  0.00000000  0.67946100  1
  Ge  Ge7  1  0.25000000  0.00000000  0.44932900  1
  Ge  Ge8  1  0.25000000  0.50000000  0.95817200  1
  Ge  Ge9  1  0.75000000  0.50000000  0.04421900  1
  Ge  Ge10  1  0.75000000  0.00000000  0.54094100  1
  Ge  Ge11  1  0.25000000  0.50000000  0.25541700  1
  Ge  Ge12  1  0.25000000  0.00000000  0.74852300  1
  Ge  Ge13  1  0.75000000  0.00000000  0.25546600  1
  Ge  Ge14  1  0.75000000  0.50000000  0.75087900  1
