# generated using pymatgen
data_TiFe2Bi2PbO9
_symmetry_space_group_name_H-M   'P 1'
_cell_length_a   5.64139802
_cell_length_b   5.64139802
_cell_length_c   14.04199800
_cell_angle_alpha   90.00000000
_cell_angle_beta   90.00000000
_cell_angle_gamma   120.00000019
_symmetry_Int_Tables_number   1
_chemical_formula_structural   TiFe2Bi2PbO9
_chemical_formula_sum   'Ti2 Fe4 Bi4 Pb2 O18'
_cell_volume   387.01965433
_cell_formula_units_Z   2
loop_
 _symmetry_equiv_pos_site_id
 _symmetry_equiv_pos_as_xyz
  1  'x, y, z'
loop_
 _atom_site_type_symbol
 _atom_site_label
 _atom_site_symmetry_multiplicity
 _atom_site_fract_x
 _atom_site_fract_y
 _atom_site_fract_z
 _atom_site_occupancy
  Ti  Ti0  1  0.33333300  0.66666700  0.20474300  1
  Ti  Ti1  1  0.00000000  0.00000000  0.02909900  1
  Fe  Fe2  1  0.00000000  0.00000000  0.52769400  1
  Fe  Fe3  1  0.66666700  0.33333300  0.86001800  1
  Fe  Fe4  1  0.66666700  0.33333300  0.36721800  1
  Fe  Fe5  1  0.33333300  0.66666700  0.69658300  1
  Bi  Bi6  1  0.33333300  0.66666700  0.47538100  1
  Bi  Bi7  1  0.00000000  0.00000000  0.80060700  1
  Bi  Bi8  1  0.66666700  0.33333300  0.63546300  1
  Bi  Bi9  1  0.33333300  0.66666700  0.96858300  1
  Pb  Pb10  1  0.66666700  0.33333300  0.13107200  1
  Pb  Pb11  1  0.00000000  0.00000000  0.30320900  1
  O  O12  1  0.91699000  0.68800800  0.92852800  1
  O  O13  1  0.53446200  0.00142400  0.26457800  1
  O  O14  1  0.25170600  0.34943400  0.59990400  1
  O  O15  1  0.77101800  0.08301000  0.92852800  1
  O  O16  1  0.46696100  0.46553800  0.26457800  1
  O  O17  1  0.09772800  0.74829400  0.59990400  1
  O  O18  1  0.31199200  0.22898200  0.92852800  1
  O  O19  1  0.99857600  0.53303900  0.26457800  1
  O  O20  1  0.65056600  0.90227200  0.59990400  1
  O  O21  1  0.58533000  0.56795300  0.76475000  1
  O  O22  1  0.20864900  0.86498900  0.09212100  1
  O  O23  1  0.91139700  0.23657800  0.43656200  1
  O  O24  1  0.98262400  0.41467000  0.76475000  1
  O  O25  1  0.65633900  0.79135100  0.09212100  1
  O  O26  1  0.32518200  0.08860300  0.43656200  1
  O  O27  1  0.43204700  0.01737600  0.76475000  1
  O  O28  1  0.13501100  0.34366100  0.09212100  1
  O  O29  1  0.76342200  0.67481800  0.43656200  1
