# generated using pymatgen
data_V3NiH48(SO10)4
_symmetry_space_group_name_H-M   'P 1'
_cell_length_a   6.29400971
_cell_length_b   6.29400971
_cell_length_c   25.27748769
_cell_angle_alpha   80.94381426
_cell_angle_beta   80.94381426
_cell_angle_gamma   69.73346832
_symmetry_Int_Tables_number   1
_chemical_formula_structural   V3NiH48(SO10)4
_chemical_formula_sum   'V3 Ni1 H48 S4 O40'
_cell_volume   921.91612149
_cell_formula_units_Z   1
loop_
 _symmetry_equiv_pos_site_id
 _symmetry_equiv_pos_as_xyz
  1  'x, y, z'
loop_
 _atom_site_type_symbol
 _atom_site_label
 _atom_site_symmetry_multiplicity
 _atom_site_fract_x
 _atom_site_fract_y
 _atom_site_fract_z
 _atom_site_occupancy
  V  V0  1  0.95849700  0.04150300  0.75000000  1
  V  V1  1  0.00053200  0.00012100  0.49983100  1
  V  V2  1  0.99987900  0.99946800  0.00016900  1
  Ni  Ni3  1  0.03862000  0.96138000  0.25000000  1
  H  H4  1  0.96209200  0.35954000  0.42211300  1
  H  H5  1  0.64046000  0.03790800  0.07788700  1
  H  H6  1  0.03826500  0.64105000  0.57746800  1
  H  H7  1  0.35895000  0.96173500  0.92253200  1
  H  H8  1  0.76345400  0.92172300  0.34145300  1
  H  H9  1  0.07827700  0.23654600  0.15854700  1
  H  H10  1  0.24337800  0.08542500  0.65541600  1
  H  H11  1  0.91457500  0.75662200  0.84458400  1
  H  H12  1  0.28539300  0.58290500  0.20059100  1
  H  H13  1  0.41709500  0.71460700  0.29940900  1
  H  H14  1  0.71252300  0.42958700  0.80075900  1
  H  H15  1  0.57041300  0.28747700  0.69924100  1
  H  H16  1  0.66300200  0.94172900  0.44636700  1
  H  H17  1  0.05827100  0.33699800  0.05363300  1
  H  H18  1  0.33900700  0.05700100  0.55306900  1
  H  H19  1  0.94299900  0.66099300  0.94693100  1
  H  H20  1  0.28749900  0.69294400  0.43128200  1
  H  H21  1  0.30705600  0.71250100  0.06871800  1
  H  H22  1  0.71420400  0.30596400  0.56854100  1
  H  H23  1  0.69403600  0.28579600  0.93145900  1
  H  H24  1  0.67366100  0.77889000  0.50217300  1
  H  H25  1  0.22111000  0.32633900  0.99782700  1
  H  H26  1  0.32738100  0.22035400  0.49737100  1
  H  H27  1  0.77964600  0.67262000  0.00262900  1
  H  H28  1  0.32901800  0.92872800  0.40961700  1
  H  H29  1  0.07127200  0.67098200  0.09038300  1
  H  H30  1  0.67311200  0.06964300  0.58992900  1
  H  H31  1  0.93035700  0.32688800  0.91007100  1
  H  H32  1  0.07683600  0.52634300  0.23792600  1
  H  H33  1  0.47365700  0.92316400  0.26207400  1
  H  H34  1  0.92005300  0.48788900  0.76335200  1
  H  H35  1  0.51211100  0.07994700  0.73664800  1
  H  H36  1  0.70649000  0.36314600  0.44213100  1
  H  H37  1  0.63685400  0.29351000  0.05786900  1
  H  H38  1  0.29426800  0.63633300  0.55757200  1
  H  H39  1  0.36366700  0.70573200  0.94242800  1
  H  H40  1  0.66300100  0.20186100  0.20036500  1
  H  H41  1  0.79813900  0.33699900  0.29963500  1
  H  H42  1  0.34491900  0.79876800  0.80098600  1
  H  H43  1  0.20123200  0.65508100  0.69901400  1
  H  H44  1  0.98444100  0.69660300  0.34216300  1
  H  H45  1  0.30339700  0.01555900  0.15783700  1
  H  H46  1  0.02257800  0.31089500  0.65468700  1
  H  H47  1  0.68910500  0.97742200  0.84531300  1
  H  H48  1  0.73989200  0.94551000  0.18955100  1
  H  H49  1  0.05449000  0.26010800  0.31044900  1
  H  H50  1  0.27526700  0.05391100  0.81239100  1
  H  H51  1  0.94608900  0.72473300  0.68760900  1
  S  S52  1  0.41323500  0.32462600  0.37662600  1
  S  S53  1  0.67537400  0.58676500  0.12337400  1
  S  S54  1  0.58825000  0.67533500  0.62257100  1
  S  S55  1  0.32466500  0.41175000  0.87742900  1
  O  O56  1  0.53192800  0.43435500  0.33068600  1
  O  O57  1  0.56564500  0.46807200  0.16931400  1
  O  O58  1  0.46848700  0.56866500  0.66875300  1
  O  O59  1  0.43133500  0.53151300  0.83124700  1
  O  O60  1  0.17041500  0.38028000  0.36728100  1
  O  O61  1  0.61972000  0.82958500  0.13271900  1
  O  O62  1  0.83140000  0.61860700  0.63196800  1
  O  O63  1  0.38139300  0.16860000  0.86803200  1
  O  O64  1  0.88972500  0.82109600  0.31865200  1
  O  O65  1  0.17890400  0.11027500  0.18134800  1
  O  O66  1  0.11659100  0.18568000  0.67817800  1
  O  O67  1  0.81432000  0.88340900  0.82182200  1
  O  O68  1  0.85901300  0.32812600  0.45388600  1
  O  O69  1  0.67187400  0.14098700  0.04611400  1
  O  O70  1  0.14181400  0.67230000  0.54579200  1
  O  O71  1  0.32770000  0.85818600  0.95420800  1
  O  O72  1  0.42263400  0.40633500  0.42863800  1
  O  O73  1  0.59366500  0.57736600  0.07136200  1
  O  O74  1  0.57848000  0.59165000  0.57091000  1
  O  O75  1  0.40835000  0.42152000  0.92909000  1
  O  O76  1  0.12825500  0.65058400  0.21815300  1
  O  O77  1  0.34941600  0.87174500  0.28184700  1
  O  O78  1  0.86832500  0.36293500  0.78255800  1
  O  O79  1  0.63706500  0.13167500  0.71744200  1
  O  O80  1  0.72204400  0.04218800  0.21819900  1
  O  O81  1  0.95781200  0.27795600  0.28180100  1
  O  O82  1  0.28646200  0.95935000  0.78370700  1
  O  O83  1  0.04065000  0.71353800  0.71629300  1
  O  O84  1  0.21569600  0.86107100  0.42955100  1
  O  O85  1  0.13892900  0.78430400  0.07044900  1
  O  O86  1  0.78644500  0.13797500  0.57026700  1
  O  O87  1  0.86202500  0.21355500  0.92973300  1
  O  O88  1  0.74699800  0.87756500  0.47804200  1
  O  O89  1  0.12243500  0.25300200  0.02195800  1
  O  O90  1  0.25222500  0.12436500  0.52192200  1
  O  O91  1  0.87563500  0.74777500  0.97807800  1
  O  O92  1  0.53034400  0.07075100  0.38205800  1
  O  O93  1  0.92924900  0.46965600  0.11794200  1
  O  O94  1  0.47385900  0.92930700  0.61652000  1
  O  O95  1  0.07069300  0.52614100  0.88348000  1
