# generated using pymatgen
data_Tb9Al5Se21
_symmetry_space_group_name_H-M   'P 1'
_cell_length_a   12.03001090
_cell_length_b   12.03001090
_cell_length_c   12.03001095
_cell_angle_alpha   94.50825395
_cell_angle_beta   94.50825395
_cell_angle_gamma   94.50825454
_symmetry_Int_Tables_number   1
_chemical_formula_structural   Tb9Al5Se21
_chemical_formula_sum   'Tb18 Al10 Se42'
_cell_volume   1723.93321816
_cell_formula_units_Z   2
loop_
 _symmetry_equiv_pos_site_id
 _symmetry_equiv_pos_as_xyz
  1  'x, y, z'
loop_
 _atom_site_type_symbol
 _atom_site_label
 _atom_site_symmetry_multiplicity
 _atom_site_fract_x
 _atom_site_fract_y
 _atom_site_fract_z
 _atom_site_occupancy
  Tb  Tb0  1  0.88602700  0.25952700  0.12123100  1
  Tb  Tb1  1  0.54415300  0.92402300  0.77550300  1
  Tb  Tb2  1  0.22961500  0.60125500  0.44939300  1
  Tb  Tb3  1  0.60125500  0.44939300  0.22961500  1
  Tb  Tb4  1  0.25952700  0.12123100  0.88602700  1
  Tb  Tb5  1  0.92402300  0.77550300  0.54415300  1
  Tb  Tb6  1  0.77550300  0.54415300  0.92402300  1
  Tb  Tb7  1  0.44939300  0.22961500  0.60125500  1
  Tb  Tb8  1  0.12123100  0.88602700  0.25952700  1
  Tb  Tb9  1  0.79074600  0.41756100  0.56293000  1
  Tb  Tb10  1  0.45094400  0.07056400  0.22010400  1
  Tb  Tb11  1  0.12584000  0.75419100  0.89760800  1
  Tb  Tb12  1  0.07056400  0.22010400  0.45094400  1
  Tb  Tb13  1  0.75419100  0.89760800  0.12584000  1
  Tb  Tb14  1  0.41756100  0.56293000  0.79074600  1
  Tb  Tb15  1  0.89760800  0.12584000  0.75419100  1
  Tb  Tb16  1  0.56293000  0.79074600  0.41756100  1
  Tb  Tb17  1  0.22010400  0.45094400  0.07056400  1
  Al  Al18  1  0.27980500  0.95088200  0.61247800  1
  Al  Al19  1  0.95088200  0.61247800  0.27980500  1
  Al  Al20  1  0.61247800  0.27980500  0.95088200  1
  Al  Al21  1  0.11650900  0.45049600  0.77628700  1
  Al  Al22  1  0.77628700  0.11650900  0.45049600  1
  Al  Al23  1  0.45049600  0.77628700  0.11650900  1
  Al  Al24  1  0.14434800  0.14434800  0.14434800  1
  Al  Al25  1  0.83023400  0.83023400  0.83023400  1
  Al  Al26  1  0.33066400  0.33066400  0.33066400  1
  Al  Al27  1  0.64400600  0.64400600  0.64400600  1
  Se  Se28  1  0.15630200  0.82488600  0.48900900  1
  Se  Se29  1  0.82488600  0.48900900  0.15630200  1
  Se  Se30  1  0.48900900  0.15630200  0.82488600  1
  Se  Se31  1  0.32417400  0.65651900  0.98967200  1
  Se  Se32  1  0.98967200  0.32417400  0.65651900  1
  Se  Se33  1  0.65651900  0.98967200  0.32417400  1
  Se  Se34  1  0.46303100  0.98950400  0.55215100  1
  Se  Se35  1  0.13329400  0.64514900  0.21775400  1
  Se  Se36  1  0.79938300  0.30727900  0.89499900  1
  Se  Se37  1  0.30727900  0.89499900  0.79938300  1
  Se  Se38  1  0.98950400  0.55215100  0.46303100  1
  Se  Se39  1  0.64514900  0.21775400  0.13329400  1
  Se  Se40  1  0.21775400  0.13329400  0.64514900  1
  Se  Se41  1  0.89499900  0.79938300  0.30727900  1
  Se  Se42  1  0.55215100  0.46303100  0.98950400  1
  Se  Se43  1  0.03429400  0.52574000  0.93760100  1
  Se  Se44  1  0.70151200  0.19037600  0.61634500  1
  Se  Se45  1  0.36946700  0.84423300  0.28273900  1
  Se  Se46  1  0.19037600  0.61634500  0.70151200  1
  Se  Se47  1  0.84423300  0.28273900  0.36946700  1
  Se  Se48  1  0.52574000  0.93760100  0.03429400  1
  Se  Se49  1  0.28273900  0.36946700  0.84423300  1
  Se  Se50  1  0.93760100  0.03429400  0.52574000  1
  Se  Se51  1  0.61634500  0.70151200  0.19037600  1
  Se  Se52  1  0.44248900  0.69172200  0.59258900  1
  Se  Se53  1  0.10601200  0.33815600  0.24279800  1
  Se  Se54  1  0.76096400  0.00560700  0.90308500  1
  Se  Se55  1  0.00560700  0.90308500  0.76096400  1
  Se  Se56  1  0.69172200  0.59258900  0.44248900  1
  Se  Se57  1  0.33815600  0.24279800  0.10601200  1
  Se  Se58  1  0.24279800  0.10601200  0.33815600  1
  Se  Se59  1  0.90308500  0.76096400  0.00560700  1
  Se  Se60  1  0.59258900  0.44248900  0.69172200  1
  Se  Se61  1  0.85204200  0.62089400  0.71496900  1
  Se  Se62  1  0.51794200  0.27248900  0.37915400  1
  Se  Se63  1  0.20950000  0.96042400  0.05687600  1
  Se  Se64  1  0.27248900  0.37915400  0.51794200  1
  Se  Se65  1  0.96042400  0.05687600  0.20950000  1
  Se  Se66  1  0.62089400  0.71496900  0.85204200  1
  Se  Se67  1  0.05687600  0.20950000  0.96042400  1
  Se  Se68  1  0.71496900  0.85204200  0.62089400  1
  Se  Se69  1  0.37915400  0.51794200  0.27248900  1
