# generated using pymatgen
data_TlP4(W5O17)4
_symmetry_space_group_name_H-M   'P 1'
_cell_length_a   5.41476100
_cell_length_b   6.73437361
_cell_length_c   36.77683255
_cell_angle_alpha   89.75577573
_cell_angle_beta   89.99041249
_cell_angle_gamma   89.85152743
_symmetry_Int_Tables_number   1
_chemical_formula_structural   TlP4(W5O17)4
_chemical_formula_sum   'Tl1 P4 W20 O68'
_cell_volume   1341.05136440
_cell_formula_units_Z   1
loop_
 _symmetry_equiv_pos_site_id
 _symmetry_equiv_pos_as_xyz
  1  'x, y, z'
loop_
 _atom_site_type_symbol
 _atom_site_label
 _atom_site_symmetry_multiplicity
 _atom_site_fract_x
 _atom_site_fract_y
 _atom_site_fract_z
 _atom_site_occupancy
  Tl  Tl0  1  0.02554800  0.74367400  0.75774200  1
  P  P1  1  0.51876500  0.96058600  0.75989900  1
  P  P2  1  0.47749500  0.05439000  0.26079800  1
  P  P3  1  0.99409400  0.43151700  0.69793400  1
  P  P4  1  0.00310300  0.55234900  0.19989300  1
  W  W5  1  0.99929200  0.08068500  0.62800400  1
  W  W6  1  0.00198300  0.90920700  0.13013900  1
  W  W7  1  0.49296300  0.07736800  0.50055400  1
  W  W8  1  0.50719200  0.92100100  0.00120600  1
  W  W9  1  0.50568600  0.74705300  0.66974300  1
  W  W10  1  0.49796000  0.24784400  0.17162800  1
  W  W11  1  0.49559400  0.40798500  0.58528800  1
  W  W12  1  0.50224100  0.58227200  0.08607300  1
  W  W13  1  0.51718600  0.60140700  0.83198500  1
  W  W14  1  0.48344300  0.41001100  0.33082400  1
  W  W15  1  0.00822200  0.58182300  0.96099200  1
  W  W16  1  0.99177300  0.41268700  0.45846000  1
  W  W17  1  0.51042600  0.26117000  0.91633500  1
  W  W18  1  0.48801600  0.74501400  0.41605900  1
  W  W19  1  0.99667000  0.74293000  0.54313400  1
  W  W20  1  0.00581400  0.24593500  0.04520800  1
  W  W21  1  0.00814800  0.91936200  0.87672400  1
  W  W22  1  0.98807100  0.07956000  0.37420700  1
  W  W23  1  0.01310300  0.26075100  0.79055400  1
  W  W24  1  0.98416100  0.74843100  0.28887300  1
  O  O25  1  0.21503300  0.93711100  0.52049800  1
  O  O26  1  0.78053300  0.06513700  0.02222100  1
  O  O27  1  0.49535500  0.25131900  0.54372900  1
  O  O28  1  0.50434000  0.75009500  0.04549400  1
  O  O29  1  0.73649400  0.06749900  0.89276700  1
  O  O30  1  0.26235800  0.93059700  0.39146500  1
  O  O31  1  0.28241500  0.93036200  0.65312400  1
  O  O32  1  0.72905000  0.06671400  0.15359800  1
  O  O33  1  0.74733500  0.42057300  0.80357500  1
  O  O34  1  0.24870800  0.59179100  0.30414100  1
  O  O35  1  0.00350100  0.91447000  0.58849800  1
  O  O36  1  0.99951200  0.08128700  0.09005000  1
  O  O37  1  0.77830600  0.89168700  0.65722200  1
  O  O38  1  0.23246800  0.09151200  0.15644100  1
  O  O39  1  0.23756700  0.10269600  0.89675300  1
  O  O40  1  0.76066900  0.89869200  0.39548500  1
  O  O41  1  0.29613500  0.77778300  0.85296700  1
  O  O42  1  0.71388400  0.23311600  0.35160800  1
  O  O43  1  0.21881800  0.28248300  0.60628400  1
  O  O44  1  0.77120700  0.73432200  0.10893200  1
  O  O45  1  0.72023100  0.90218000  0.52534200  1
  O  O46  1  0.27860800  0.09632800  0.02636200  1
  O  O47  1  0.50107500  0.88589400  0.72056300  1
  O  O48  1  0.49762700  0.11757400  0.22056700  1
  O  O49  1  0.02162600  0.36613000  0.73840800  1
  O  O50  1  0.98162500  0.61781100  0.24002300  1
  O  O51  1  0.00084000  0.24576200  0.67437900  1
  O  O52  1  0.99547800  0.74067000  0.17595900  1
  O  O53  1  0.51806500  0.41701200  0.87292800  1
  O  O54  1  0.48582900  0.58021100  0.37055800  1
  O  O55  1  0.74405600  0.54085000  0.69500600  1
  O  O56  1  0.25111200  0.44394400  0.19489300  1
  O  O57  1  0.73315400  0.73386900  0.97864200  1
  O  O58  1  0.26951400  0.26533200  0.47686700  1
  O  O59  1  0.01524400  0.75066300  0.91676800  1
  O  O60  1  0.98852600  0.24729300  0.41478100  1
  O  O61  1  0.69943100  0.91747000  0.26902100  1
  O  O62  1  0.29447500  0.09132300  0.76882800  1
  O  O63  1  0.50221800  0.59070600  0.62953900  1
  O  O64  1  0.49854800  0.40967400  0.13099900  1
  O  O65  1  0.52051700  0.77452100  0.78447200  1
  O  O66  1  0.48486200  0.24156900  0.28446400  1
  O  O67  1  0.99270500  0.58351000  0.50087200  1
  O  O68  1  0.00701500  0.41478500  0.00299100  1
  O  O69  1  0.77488000  0.56943400  0.56785500  1
  O  O70  1  0.22945400  0.42958200  0.06906900  1
  O  O71  1  0.71574300  0.23937700  0.61101300  1
  O  O72  1  0.27139200  0.76058000  0.11258900  1
  O  O73  1  0.24131700  0.44152300  0.80671300  1
  O  O74  1  0.75176500  0.56817300  0.30687400  1
  O  O75  1  0.21272900  0.57241700  0.69028800  1
  O  O76  1  0.78306200  0.41631700  0.19156800  1
  O  O77  1  0.75796800  0.07864800  0.76510100  1
  O  O78  1  0.23086200  0.94352600  0.26571000  1
  O  O79  1  0.50857600  0.08619300  0.95911500  1
  O  O80  1  0.49082300  0.91043600  0.45832900  1
  O  O81  1  0.76750600  0.23106400  0.48150100  1
  O  O82  1  0.23338200  0.76525700  0.98322900  1
  O  O83  1  0.81039000  0.74225700  0.84880100  1
  O  O84  1  0.21304300  0.26066700  0.34779800  1
  O  O85  1  0.01232300  0.09742400  0.83005200  1
  O  O86  1  0.98410700  0.90846500  0.32950700  1
  O  O87  1  0.78897200  0.40049100  0.93597100  1
  O  O88  1  0.21172700  0.59744400  0.43371900  1
  O  O89  1  0.27831600  0.60603500  0.56238900  1
  O  O90  1  0.73023200  0.40012500  0.06504900  1
  O  O91  1  0.28640500  0.43576600  0.93988400  1
  O  O92  1  0.71350700  0.56246100  0.43813800  1
