# generated using pymatgen
data_SrV2(AsO5)2
_symmetry_space_group_name_H-M   'P 1'
_cell_length_a   13.11386233
_cell_length_b   13.11386233
_cell_length_c   18.20145180
_cell_angle_alpha   46.27520369
_cell_angle_beta   46.27520369
_cell_angle_gamma   20.84728131
_symmetry_Int_Tables_number   1
_chemical_formula_structural   SrV2(AsO5)2
_chemical_formula_sum   'Sr4 V8 As8 O40'
_cell_volume   792.46280843
_cell_formula_units_Z   4
loop_
 _symmetry_equiv_pos_site_id
 _symmetry_equiv_pos_as_xyz
  1  'x, y, z'
loop_
 _atom_site_type_symbol
 _atom_site_label
 _atom_site_symmetry_multiplicity
 _atom_site_fract_x
 _atom_site_fract_y
 _atom_site_fract_z
 _atom_site_occupancy
  Sr  Sr0  1  0.12450400  0.87519800  0.25080200  1
  Sr  Sr1  1  0.87519800  0.12450400  0.75080200  1
  Sr  Sr2  1  0.44200300  0.06594300  0.25228100  1
  Sr  Sr3  1  0.06594300  0.44200300  0.75228100  1
  V  V4  1  0.54904100  0.10263700  0.47600900  1
  V  V5  1  0.89660100  0.45008600  0.02574600  1
  V  V6  1  0.42403400  0.47474000  0.62744700  1
  V  V7  1  0.52544200  0.57872700  0.87213900  1
  V  V8  1  0.45008600  0.89660100  0.52574600  1
  V  V9  1  0.10263700  0.54904100  0.97600900  1
  V  V10  1  0.57872700  0.52544200  0.37213900  1
  V  V11  1  0.47474000  0.42403400  0.12744700  1
  As  As12  1  0.41665000  0.96738300  0.13703500  1
  As  As13  1  0.02958500  0.58582200  0.36226400  1
  As  As14  1  0.89894900  0.94377800  0.01975400  1
  As  As15  1  0.04950300  0.10718200  0.47949000  1
  As  As16  1  0.58582200  0.02958500  0.86226400  1
  As  As17  1  0.96738300  0.41665000  0.63703500  1
  As  As18  1  0.10718200  0.04950300  0.97949000  1
  As  As19  1  0.94377800  0.89894900  0.51975400  1
  O  O20  1  0.46564800  0.83150200  0.26091400  1
  O  O21  1  0.18091800  0.51990300  0.24018800  1
  O  O22  1  0.90506900  0.77734000  0.05669000  1
  O  O23  1  0.22898700  0.08650400  0.44437400  1
  O  O24  1  0.51990300  0.18091800  0.74018800  1
  O  O25  1  0.83150200  0.46564800  0.76091500  1
  O  O26  1  0.08650400  0.22898700  0.94437400  1
  O  O27  1  0.77734000  0.90506900  0.55669000  1
  O  O28  1  0.72715700  0.36164700  0.29951200  1
  O  O29  1  0.64101800  0.27073100  0.20054900  1
  O  O30  1  0.33884300  0.47170100  0.88942400  1
  O  O31  1  0.52901200  0.65926800  0.61141500  1
  O  O32  1  0.27073100  0.64101800  0.70054900  1
  O  O33  1  0.36164700  0.72715700  0.79951200  1
  O  O34  1  0.65926800  0.52901200  0.11141500  1
  O  O35  1  0.47170100  0.33884300  0.38942400  1
  O  O36  1  0.18888700  0.08682100  0.12986600  1
  O  O37  1  0.91217900  0.81216900  0.36971000  1
  O  O38  1  0.78345300  0.18179800  0.90528800  1
  O  O39  1  0.81907200  0.21632800  0.59531800  1
  O  O40  1  0.81216900  0.91217900  0.86971000  1
  O  O41  1  0.08682100  0.18888700  0.62986600  1
  O  O42  1  0.21632800  0.81907200  0.09531800  1
  O  O43  1  0.18179800  0.78345300  0.40528800  1
  O  O44  1  0.29343400  0.23285800  0.10266800  1
  O  O45  1  0.75469900  0.72211200  0.39550000  1
  O  O46  1  0.66459200  0.11045700  0.12526400  1
  O  O47  1  0.89298400  0.33636200  0.37227200  1
  O  O48  1  0.72211200  0.75469900  0.89550000  1
  O  O49  1  0.23285800  0.29343400  0.60266800  1
  O  O50  1  0.33636200  0.89298400  0.87227200  1
  O  O51  1  0.11045700  0.66459200  0.62526400  1
  O  O52  1  0.69306300  0.75562800  0.56302200  1
  O  O53  1  0.24758300  0.30218100  0.93750700  1
  O  O54  1  0.68095800  0.24496500  0.51157400  1
  O  O55  1  0.75583800  0.31932600  0.98857900  1
  O  O56  1  0.30218100  0.24758300  0.43750700  1
  O  O57  1  0.75562800  0.69306300  0.06302200  1
  O  O58  1  0.31932600  0.75583800  0.48857900  1
  O  O59  1  0.24496500  0.68095800  0.01157400  1
