# generated using pymatgen
data_TaTl6VS8
_symmetry_space_group_name_H-M   'P 1'
_cell_length_a   7.75643900
_cell_length_b   7.75643900
_cell_length_c   7.75643900
_cell_angle_alpha   90.00000000
_cell_angle_beta   90.00000000
_cell_angle_gamma   90.00000000
_symmetry_Int_Tables_number   1
_chemical_formula_structural   TaTl6VS8
_chemical_formula_sum   'Ta1 Tl6 V1 S8'
_cell_volume   466.64556654
_cell_formula_units_Z   1
loop_
 _symmetry_equiv_pos_site_id
 _symmetry_equiv_pos_as_xyz
  1  'x, y, z'
loop_
 _atom_site_type_symbol
 _atom_site_label
 _atom_site_symmetry_multiplicity
 _atom_site_fract_x
 _atom_site_fract_y
 _atom_site_fract_z
 _atom_site_occupancy
  Ta  Ta0  1  0.00000000  0.00000000  0.00000000  1
  Tl  Tl1  1  0.00000000  0.00000000  0.50000000  1
  Tl  Tl2  1  0.50000000  0.50000000  0.00000000  1
  Tl  Tl3  1  0.50000000  0.00000000  0.50000000  1
  Tl  Tl4  1  0.00000000  0.50000000  0.00000000  1
  Tl  Tl5  1  0.00000000  0.50000000  0.50000000  1
  Tl  Tl6  1  0.50000000  0.00000000  0.00000000  1
  V  V7  1  0.50000000  0.50000000  0.50000000  1
  S  S8  1  0.33839500  0.33839500  0.66160500  1
  S  S9  1  0.82977000  0.82977000  0.17023000  1
  S  S10  1  0.33839500  0.66160500  0.33839500  1
  S  S11  1  0.82977000  0.17023000  0.82977000  1
  S  S12  1  0.17023000  0.82977000  0.82977000  1
  S  S13  1  0.66160500  0.33839500  0.33839500  1
  S  S14  1  0.66160500  0.66160500  0.66160500  1
  S  S15  1  0.17023000  0.17023000  0.17023000  1
