# generated using pymatgen
data_SrYGa3O7
_symmetry_space_group_name_H-M   'P 1'
_cell_length_a   8.01826145
_cell_length_b   8.01826145
_cell_length_c   5.29835200
_cell_angle_alpha   90.00000000
_cell_angle_beta   90.00000000
_cell_angle_gamma   91.64901029
_symmetry_Int_Tables_number   1
_chemical_formula_structural   SrYGa3O7
_chemical_formula_sum   'Sr2 Y2 Ga6 O14'
_cell_volume   340.50331141
_cell_formula_units_Z   2
loop_
 _symmetry_equiv_pos_site_id
 _symmetry_equiv_pos_as_xyz
  1  'x, y, z'
loop_
 _atom_site_type_symbol
 _atom_site_label
 _atom_site_symmetry_multiplicity
 _atom_site_fract_x
 _atom_site_fract_y
 _atom_site_fract_z
 _atom_site_occupancy
  Sr  Sr0  1  0.16254100  0.83745900  0.49153700  1
  Sr  Sr1  1  0.83745900  0.16254100  0.49153700  1
  Y  Y2  1  0.65961500  0.65961500  0.51789400  1
  Y  Y3  1  0.34038500  0.34038500  0.51789400  1
  Ga  Ga4  1  0.36085400  0.63914600  0.03529500  1
  Ga  Ga5  1  0.84984400  0.84984400  0.96735400  1
  Ga  Ga6  1  0.63914600  0.36085400  0.03529500  1
  Ga  Ga7  1  0.15015600  0.15015600  0.96735400  1
  Ga  Ga8  1  0.50000000  0.00000000  0.99175000  1
  Ga  Ga9  1  0.00000000  0.50000000  0.99175000  1
  O  O10  1  0.00000000  0.00000000  0.82434800  1
  O  O11  1  0.50000000  0.50000000  0.22146700  1
  O  O12  1  0.37637800  0.62362200  0.69187400  1
  O  O13  1  0.84055000  0.84055000  0.30809200  1
  O  O14  1  0.62362200  0.37637800  0.69187400  1
  O  O15  1  0.15945000  0.15945000  0.30809200  1
  O  O16  1  0.41840800  0.83541600  0.20438600  1
  O  O17  1  0.89828600  0.65515700  0.78226300  1
  O  O18  1  0.58159200  0.16458400  0.20438600  1
  O  O19  1  0.10171400  0.34484300  0.78226300  1
  O  O20  1  0.34484300  0.10171400  0.78226300  1
  O  O21  1  0.83541600  0.41840800  0.20438600  1
  O  O22  1  0.65515700  0.89828600  0.78226300  1
  O  O23  1  0.16458400  0.58159200  0.20438600  1
