# generated using pymatgen
data_SrPrMnO4
_symmetry_space_group_name_H-M   'P 1'
_cell_length_a   6.98422216
_cell_length_b   6.98422216
_cell_length_c   6.98422216
_cell_angle_alpha   147.85836731
_cell_angle_beta   147.85836731
_cell_angle_gamma   46.09448848
_symmetry_Int_Tables_number   1
_chemical_formula_structural   SrPrMnO4
_chemical_formula_sum   'Sr1 Pr1 Mn1 O4'
_cell_volume   96.09469440
_cell_formula_units_Z   1
loop_
 _symmetry_equiv_pos_site_id
 _symmetry_equiv_pos_as_xyz
  1  'x, y, z'
loop_
 _atom_site_type_symbol
 _atom_site_label
 _atom_site_symmetry_multiplicity
 _atom_site_fract_x
 _atom_site_fract_y
 _atom_site_fract_z
 _atom_site_occupancy
  Sr  Sr0  1  0.64486600  0.64486600  0.00000000  1
  Pr  Pr1  1  0.35836600  0.35836600  0.00000000  1
  Mn  Mn2  1  0.00336500  0.00336500  0.00000000  1
  O  O3  1  0.83252200  0.83252200  0.00000000  1
  O  O4  1  0.17585600  0.17585600  0.00000000  1
  O  O5  1  0.99251200  0.49251200  0.50000000  1
  O  O6  1  0.49251200  0.99251200  0.50000000  1
