# generated using pymatgen
data_Ta(Mo2S5)2
_symmetry_space_group_name_H-M   'P 1'
_cell_length_a   5.59849812
_cell_length_b   6.63770031
_cell_length_c   8.55479159
_cell_angle_alpha   100.56296053
_cell_angle_beta   70.90563448
_cell_angle_gamma   81.93895969
_symmetry_Int_Tables_number   1
_chemical_formula_structural   Ta(Mo2S5)2
_chemical_formula_sum   'Ta1 Mo4 S10'
_cell_volume   288.38508598
_cell_formula_units_Z   1
loop_
 _symmetry_equiv_pos_site_id
 _symmetry_equiv_pos_as_xyz
  1  'x, y, z'
loop_
 _atom_site_type_symbol
 _atom_site_label
 _atom_site_symmetry_multiplicity
 _atom_site_fract_x
 _atom_site_fract_y
 _atom_site_fract_z
 _atom_site_occupancy
  Ta  Ta0  1  0.86830500  0.49983500  0.09995100  1
  Mo  Mo1  1  0.26678500  0.49966900  0.30186700  1
  Mo  Mo2  1  0.66344000  0.49963500  0.50269100  1
  Mo  Mo3  1  0.06619200  0.49985500  0.69724400  1
  Mo  Mo4  1  0.46893300  0.49979300  0.89806500  1
  S  S5  1  0.86557700  0.25561500  0.84726300  1
  S  S6  1  0.06272000  0.25795000  0.45116200  1
  S  S7  1  0.46200500  0.25800800  0.65256500  1
  S  S8  1  0.66156000  0.25556200  0.25521700  1
  S  S9  1  0.27157900  0.25577700  0.05133000  1
  S  S10  1  0.14168200  0.74456900  0.14878800  1
  S  S11  1  0.53144500  0.74465100  0.35269900  1
  S  S12  1  0.93394100  0.74239300  0.54751900  1
  S  S13  1  0.33339100  0.74242900  0.74901200  1
  S  S14  1  0.73564500  0.74475800  0.94472600  1
