# generated using pymatgen
data_TaVSi4
_symmetry_space_group_name_H-M   'P 1'
_cell_length_a   13.00531200
_cell_length_b   4.68190200
_cell_length_c   4.70431930
_cell_angle_alpha   60.39724405
_cell_angle_beta   90.00000000
_cell_angle_gamma   90.00000000
_symmetry_Int_Tables_number   1
_chemical_formula_structural   TaVSi4
_chemical_formula_sum   'Ta3 V3 Si12'
_cell_volume   249.05488891
_cell_formula_units_Z   3
loop_
 _symmetry_equiv_pos_site_id
 _symmetry_equiv_pos_as_xyz
  1  'x, y, z'
loop_
 _atom_site_type_symbol
 _atom_site_label
 _atom_site_symmetry_multiplicity
 _atom_site_fract_x
 _atom_site_fract_y
 _atom_site_fract_z
 _atom_site_occupancy
  Ta  Ta0  1  0.08262900  0.50000000  0.50000000  1
  Ta  Ta1  1  0.58538000  0.50000000  0.50000000  1
  Ta  Ta2  1  0.24856800  0.00000000  0.50000000  1
  V  V3  1  0.74903000  0.00000000  0.50000000  1
  V  V4  1  0.41838700  0.50000000  0.00000000  1
  V  V5  1  0.91603300  0.50000000  0.00000000  1
  Si  Si6  1  0.07851100  0.83448000  0.84506400  1
  Si  Si7  1  0.58467900  0.83655500  0.83760500  1
  Si  Si8  1  0.25328500  0.32322400  0.84392800  1
  Si  Si9  1  0.75336900  0.32108100  0.84681300  1
  Si  Si10  1  0.41785800  0.84225600  0.31617500  1
  Si  Si11  1  0.91228500  0.84504200  0.32344800  1
  Si  Si12  1  0.07851100  0.16552000  0.15493600  1
  Si  Si13  1  0.58467900  0.16344500  0.16239500  1
  Si  Si14  1  0.25328500  0.67677600  0.15607200  1
  Si  Si15  1  0.75336900  0.67891900  0.15318700  1
  Si  Si16  1  0.41785800  0.15774400  0.68382500  1
  Si  Si17  1  0.91228500  0.15495800  0.67655200  1
