# generated using pymatgen
data_TaVCN
_symmetry_space_group_name_H-M   'P 1'
_cell_length_a   5.28244128
_cell_length_b   5.28244128
_cell_length_c   5.28244193
_cell_angle_alpha   33.78339333
_cell_angle_beta   33.78339333
_cell_angle_gamma   33.78339834
_symmetry_Int_Tables_number   1
_chemical_formula_structural   TaVCN
_chemical_formula_sum   'Ta1 V1 C1 N1'
_cell_volume   40.61104038
_cell_formula_units_Z   1
loop_
 _symmetry_equiv_pos_site_id
 _symmetry_equiv_pos_as_xyz
  1  'x, y, z'
loop_
 _atom_site_type_symbol
 _atom_site_label
 _atom_site_symmetry_multiplicity
 _atom_site_fract_x
 _atom_site_fract_y
 _atom_site_fract_z
 _atom_site_occupancy
  Ta  Ta0  1  0.74584300  0.74584300  0.74584300  1
  V  V1  1  0.25906200  0.25906200  0.25906200  1
  C  C2  1  0.99457200  0.99457200  0.99457200  1
  N  N3  1  0.50052300  0.50052300  0.50052300  1
