# generated using pymatgen
data_Tb12Ge5S28
_symmetry_space_group_name_H-M   'P 1'
_cell_length_a   9.91403000
_cell_length_b   11.44934846
_cell_length_c   11.45438553
_cell_angle_alpha   96.94415786
_cell_angle_beta   115.63960495
_cell_angle_gamma   115.65020527
_symmetry_Int_Tables_number   1
_chemical_formula_structural   Tb12Ge5S28
_chemical_formula_sum   'Tb12 Ge5 S28'
_cell_volume   977.70620758
_cell_formula_units_Z   1
loop_
 _symmetry_equiv_pos_site_id
 _symmetry_equiv_pos_as_xyz
  1  'x, y, z'
loop_
 _atom_site_type_symbol
 _atom_site_label
 _atom_site_symmetry_multiplicity
 _atom_site_fract_x
 _atom_site_fract_y
 _atom_site_fract_z
 _atom_site_occupancy
  Tb  Tb0  1  0.06235800  0.93274100  0.29728400  1
  Tb  Tb1  1  0.58701400  0.46249100  0.80881700  1
  Tb  Tb2  1  0.92064400  0.69769700  0.57332200  1
  Tb  Tb3  1  0.41378900  0.18053900  0.05096900  1
  Tb  Tb4  1  0.39925200  0.74586100  0.52547400  1
  Tb  Tb5  1  0.87056700  0.23381700  0.99665900  1
  Tb  Tb6  1  0.91615400  0.03684600  0.69280300  1
  Tb  Tb7  1  0.43026200  0.56627700  0.19903700  1
  Tb  Tb8  1  0.08240300  0.31604500  0.44881800  1
  Tb  Tb9  1  0.58227900  0.80419200  0.92634200  1
  Tb  Tb10  1  0.63130600  0.26628900  0.49747800  1
  Tb  Tb11  1  0.09981300  0.75416800  0.97754900  1
  Ge  Ge12  1  0.41074900  0.08037600  0.74608000  1
  Ge  Ge13  1  0.91602000  0.57957500  0.24770200  1
  Ge  Ge14  1  0.66500300  0.99773100  0.33232100  1
  Ge  Ge15  1  0.16639700  0.49998600  0.83235800  1
  Ge  Ge16  1  0.23694900  0.23712700  0.23744000  1
  S  S17  1  0.64551200  0.24182800  0.74884500  1
  S  S18  1  0.16186500  0.73338400  0.25778800  1
  S  S19  1  0.30416300  0.20898000  0.78210500  1
  S  S20  1  0.80188500  0.69780900  0.29309400  1
  S  S21  1  0.53096200  0.04387000  0.94463200  1
  S  S22  1  0.02704200  0.54552900  0.44731400  1
  S  S23  1  0.58619400  0.00586900  0.48732300  1
  S  S24  1  0.08832700  0.50513700  0.98934400  1
  S  S25  1  0.93982300  0.03885600  0.45466200  1
  S  S26  1  0.43839100  0.53723000  0.95725300  1
  S  S27  1  0.71371400  0.19749700  0.29650200  1
  S  S28  1  0.21540900  0.69768100  0.79664200  1
  S  S29  1  0.22392300  0.88957900  0.55727600  1
  S  S30  1  0.72317300  0.39031800  0.05619500  1
  S  S31  1  0.97630200  0.30282100  0.64857800  1
  S  S32  1  0.47447000  0.81425200  0.13565500  1
  S  S33  1  0.31747000  0.22875200  0.46573600  1
  S  S34  1  0.83203900  0.73684800  0.99976400  1
  S  S35  1  0.08245100  0.91462700  0.82070200  1
  S  S36  1  0.53975700  0.39266000  0.30268500  1
  S  S37  1  0.69078100  0.95099600  0.78294000  1
  S  S38  1  0.18390900  0.42260400  0.27377300  1
  S  S39  1  0.64856500  0.74423300  0.48340400  1
  S  S40  1  0.15927700  0.24485300  0.00216600  1
  S  S41  1  0.92367200  0.08071300  0.16605600  1
  S  S42  1  0.40109100  0.56590400  0.66142600  1
  S  S43  1  0.28729000  0.04426200  0.20192200  1
  S  S44  1  0.79207800  0.53165100  0.69626500  1
