# generated using pymatgen
data_TaNbW
_symmetry_space_group_name_H-M   'P 1'
_cell_length_a   7.29920059
_cell_length_b   7.10854314
_cell_length_c   2.84192201
_cell_angle_alpha   82.42015781
_cell_angle_beta   74.87742816
_cell_angle_gamma   22.70241403
_symmetry_Int_Tables_number   1
_chemical_formula_structural   TaNbW
_chemical_formula_sum   'Ta1 Nb1 W1'
_cell_volume   52.54674208
_cell_formula_units_Z   1
loop_
 _symmetry_equiv_pos_site_id
 _symmetry_equiv_pos_as_xyz
  1  'x, y, z'
loop_
 _atom_site_type_symbol
 _atom_site_label
 _atom_site_symmetry_multiplicity
 _atom_site_fract_x
 _atom_site_fract_y
 _atom_site_fract_z
 _atom_site_occupancy
  Ta  Ta0  1  0.67076900  0.67076900  0.32923100  1
  Nb  Nb1  1  0.99667100  0.99667100  0.00332900  1
  W  W2  1  0.33256200  0.33256200  0.66743800  1
