# generated using pymatgen
data_Ti6Fe(BiO3)9
_symmetry_space_group_name_H-M   'P 1'
_cell_length_a   6.09544600
_cell_length_b   5.70703900
_cell_length_c   19.80050300
_cell_angle_alpha   90.00000000
_cell_angle_beta   90.00000000
_cell_angle_gamma   90.00000000
_symmetry_Int_Tables_number   1
_chemical_formula_structural   Ti6Fe(BiO3)9
_chemical_formula_sum   'Ti6 Fe1 Bi9 O27'
_cell_volume   688.79906911
_cell_formula_units_Z   1
loop_
 _symmetry_equiv_pos_site_id
 _symmetry_equiv_pos_as_xyz
  1  'x, y, z'
loop_
 _atom_site_type_symbol
 _atom_site_label
 _atom_site_symmetry_multiplicity
 _atom_site_fract_x
 _atom_site_fract_y
 _atom_site_fract_z
 _atom_site_occupancy
  Ti  Ti0  1  0.50000000  0.00000000  0.82459100  1
  Ti  Ti1  1  0.00000000  0.50000000  0.95496100  1
  Ti  Ti2  1  0.00000000  0.00000000  0.97338900  1
  Ti  Ti3  1  0.50000000  0.00000000  0.55418800  1
  Ti  Ti4  1  0.00000000  0.00000000  0.21775600  1
  Ti  Ti5  1  0.50000000  0.50000000  0.22640200  1
  Fe  Fe6  1  0.00000000  0.50000000  0.57529400  1
  Bi  Bi7  1  0.00000000  0.00000000  0.74352100  1
  Bi  Bi8  1  0.50000000  0.50000000  0.76864500  1
  Bi  Bi9  1  0.00000000  0.00000000  0.52502700  1
  Bi  Bi10  1  0.50000000  0.50000000  0.49984800  1
  Bi  Bi11  1  0.50000000  0.00000000  0.15031700  1
  Bi  Bi12  1  0.00000000  0.50000000  0.14857100  1
  Bi  Bi13  1  0.50000000  0.00000000  0.35206500  1
  Bi  Bi14  1  0.00000000  0.50000000  0.36769300  1
  Bi  Bi15  1  0.50000000  0.50000000  0.99575900  1
  O  O16  1  0.71810200  0.74718100  0.55849600  1
  O  O17  1  0.28189800  0.25281900  0.55849600  1
  O  O18  1  0.28189800  0.74718100  0.55849600  1
  O  O19  1  0.71810200  0.25281900  0.55849600  1
  O  O20  1  0.71508100  0.78768100  0.79138600  1
  O  O21  1  0.28491900  0.21231900  0.79138600  1
  O  O22  1  0.28491900  0.78768100  0.79138600  1
  O  O23  1  0.71508100  0.21231900  0.79138600  1
  O  O24  1  0.00000000  0.00000000  0.88763200  1
  O  O25  1  0.50000000  0.50000000  0.88565100  1
  O  O26  1  0.00000000  0.00000000  0.31133900  1
  O  O27  1  0.50000000  0.50000000  0.32103800  1
  O  O28  1  0.00000000  0.00000000  0.63404300  1
  O  O29  1  0.50000000  0.50000000  0.66808800  1
  O  O30  1  0.00000000  0.00000000  0.12496500  1
  O  O31  1  0.50000000  0.50000000  0.12551300  1
  O  O32  1  0.80214600  0.73067900  0.98832000  1
  O  O33  1  0.19785400  0.26932100  0.98832000  1
  O  O34  1  0.19785400  0.73067900  0.98832000  1
  O  O35  1  0.80214600  0.26932100  0.98832000  1
  O  O36  1  0.74633900  0.75052800  0.21377700  1
  O  O37  1  0.25366100  0.24947200  0.21377700  1
  O  O38  1  0.25366100  0.75052800  0.21377700  1
  O  O39  1  0.74633900  0.24947200  0.21377700  1
  O  O40  1  0.50000000  0.00000000  0.46042700  1
  O  O41  1  0.00000000  0.50000000  0.47143600  1
  O  O42  1  0.00000000  0.00000000  0.38392300  1
