# generated using pymatgen
data_TaNb
_symmetry_space_group_name_H-M   'P 1'
_cell_length_a   2.87873582
_cell_length_b   2.87873582
_cell_length_c   4.69367400
_cell_angle_alpha   90.00000000
_cell_angle_beta   90.00000000
_cell_angle_gamma   109.56435495
_symmetry_Int_Tables_number   1
_chemical_formula_structural   TaNb
_chemical_formula_sum   'Ta1 Nb1'
_cell_volume   36.65135618
_cell_formula_units_Z   1
loop_
 _symmetry_equiv_pos_site_id
 _symmetry_equiv_pos_as_xyz
  1  'x, y, z'
loop_
 _atom_site_type_symbol
 _atom_site_label
 _atom_site_symmetry_multiplicity
 _atom_site_fract_x
 _atom_site_fract_y
 _atom_site_fract_z
 _atom_site_occupancy
  Ta  Ta0  1  0.50000000  0.50000000  0.50000000  1
  Nb  Nb1  1  0.00000000  0.00000000  0.00000000  1
