# generated using pymatgen
data_TaNbCu3O8
_symmetry_space_group_name_H-M   'P 1'
_cell_length_a   5.25265700
_cell_length_b   5.49784843
_cell_length_c   6.12654050
_cell_angle_alpha   73.46506434
_cell_angle_beta   82.46995565
_cell_angle_gamma   66.37067001
_symmetry_Int_Tables_number   1
_chemical_formula_structural   TaNbCu3O8
_chemical_formula_sum   'Ta1 Nb1 Cu3 O8'
_cell_volume   155.35836974
_cell_formula_units_Z   1
loop_
 _symmetry_equiv_pos_site_id
 _symmetry_equiv_pos_as_xyz
  1  'x, y, z'
loop_
 _atom_site_type_symbol
 _atom_site_label
 _atom_site_symmetry_multiplicity
 _atom_site_fract_x
 _atom_site_fract_y
 _atom_site_fract_z
 _atom_site_occupancy
  Ta  Ta0  1  0.77778900  0.46286300  0.35090000  1
  Nb  Nb1  1  0.21967000  0.53980400  0.65165400  1
  Cu  Cu2  1  0.99948000  0.00096600  0.00090900  1
  Cu  Cu3  1  0.53965800  0.92868500  0.75997400  1
  Cu  Cu4  1  0.46091800  0.07277200  0.23909900  1
  O  O5  1  0.76202300  0.79790400  0.10215900  1
  O  O6  1  0.24073100  0.20007800  0.89938100  1
  O  O7  1  0.73884300  0.25506300  0.17038800  1
  O  O8  1  0.26140300  0.74791400  0.83036400  1
  O  O9  1  0.82725100  0.68599500  0.59486900  1
  O  O10  1  0.16894700  0.31100200  0.40126300  1
  O  O11  1  0.63731200  0.26201300  0.63150700  1
  O  O12  1  0.36597500  0.73494200  0.36753200  1
