# generated using pymatgen
data_Ta3Co2Mo
_symmetry_space_group_name_H-M   'P 1'
_cell_length_a   6.07203067
_cell_length_b   4.97798776
_cell_length_c   4.92358744
_cell_angle_alpha   75.64589966
_cell_angle_beta   52.58253167
_cell_angle_gamma   51.77156866
_symmetry_Int_Tables_number   1
_chemical_formula_structural   Ta3Co2Mo
_chemical_formula_sum   'Ta3 Co2 Mo1'
_cell_volume   90.87401504
_cell_formula_units_Z   1
loop_
 _symmetry_equiv_pos_site_id
 _symmetry_equiv_pos_as_xyz
  1  'x, y, z'
loop_
 _atom_site_type_symbol
 _atom_site_label
 _atom_site_symmetry_multiplicity
 _atom_site_fract_x
 _atom_site_fract_y
 _atom_site_fract_z
 _atom_site_occupancy
  Ta  Ta0  1  0.84169400  0.15830600  0.84169400  1
  Ta  Ta1  1  0.66038100  0.66067000  0.33933000  1
  Ta  Ta2  1  0.33933000  0.33961900  0.66038100  1
  Co  Co3  1  0.75018500  0.74981500  0.75018500  1
  Co  Co4  1  0.25018500  0.24981500  0.25018500  1
  Mo  Mo5  1  0.15822500  0.84177500  0.15822500  1
