# generated using pymatgen
data_Ta2CrSi6
_symmetry_space_group_name_H-M   'P 1'
_cell_length_a   4.75313853
_cell_length_b   4.75313853
_cell_length_c   6.51089400
_cell_angle_alpha   90.00000000
_cell_angle_beta   90.00000000
_cell_angle_gamma   121.19686038
_symmetry_Int_Tables_number   1
_chemical_formula_structural   Ta2CrSi6
_chemical_formula_sum   'Ta2 Cr1 Si6'
_cell_volume   125.82504084
_cell_formula_units_Z   1
loop_
 _symmetry_equiv_pos_site_id
 _symmetry_equiv_pos_as_xyz
  1  'x, y, z'
loop_
 _atom_site_type_symbol
 _atom_site_label
 _atom_site_symmetry_multiplicity
 _atom_site_fract_x
 _atom_site_fract_y
 _atom_site_fract_z
 _atom_site_occupancy
  Ta  Ta0  1  0.50000000  0.00000000  0.66358600  1
  Ta  Ta1  1  0.00000000  0.50000000  0.33641400  1
  Cr  Cr2  1  0.50000000  0.50000000  0.00000000  1
  Si  Si3  1  0.15930300  0.84069700  0.00000000  1
  Si  Si4  1  0.16905600  0.32203700  0.67501500  1
  Si  Si5  1  0.67796300  0.83094400  0.32498500  1
  Si  Si6  1  0.84069800  0.15930200  0.00000000  1
  Si  Si7  1  0.83094400  0.67796300  0.67501500  1
  Si  Si8  1  0.32203700  0.16905600  0.32498500  1
