# generated using pymatgen
data_TaMoW
_symmetry_space_group_name_H-M   'P 1'
_cell_length_a   7.15434251
_cell_length_b   6.96062245
_cell_length_c   2.80913460
_cell_angle_alpha   82.42249472
_cell_angle_beta   74.67161514
_cell_angle_gamma   22.90589014
_symmetry_Int_Tables_number   1
_chemical_formula_structural   TaMoW
_chemical_formula_sum   'Ta1 Mo1 W1'
_cell_volume   50.13525669
_cell_formula_units_Z   1
loop_
 _symmetry_equiv_pos_site_id
 _symmetry_equiv_pos_as_xyz
  1  'x, y, z'
loop_
 _atom_site_type_symbol
 _atom_site_label
 _atom_site_symmetry_multiplicity
 _atom_site_fract_x
 _atom_site_fract_y
 _atom_site_fract_z
 _atom_site_occupancy
  Ta  Ta0  1  0.66620700  0.66620700  0.33379300  1
  Mo  Mo1  1  0.99766900  0.99766900  0.00233100  1
  W  W2  1  0.33612500  0.33612500  0.66387500  1
