# generated using pymatgen
data_SrZrCdH8(C4O11)2
_symmetry_space_group_name_H-M   'P 1'
_cell_length_a   9.15986958
_cell_length_b   9.15986958
_cell_length_c   9.17998380
_cell_angle_alpha   76.81835649
_cell_angle_beta   76.81835649
_cell_angle_gamma   122.71515978
_symmetry_Int_Tables_number   1
_chemical_formula_structural   SrZrCdH8(C4O11)2
_chemical_formula_sum   'Sr1 Zr1 Cd1 H8 C8 O22'
_cell_volume   570.01515825
_cell_formula_units_Z   1
loop_
 _symmetry_equiv_pos_site_id
 _symmetry_equiv_pos_as_xyz
  1  'x, y, z'
loop_
 _atom_site_type_symbol
 _atom_site_label
 _atom_site_symmetry_multiplicity
 _atom_site_fract_x
 _atom_site_fract_y
 _atom_site_fract_z
 _atom_site_occupancy
  Sr  Sr0  1  0.49878300  0.50121700  0.00000000  1
  Zr  Zr1  1  0.25028100  0.74971900  0.50000000  1
  Cd  Cd2  1  0.99982700  0.00017300  0.00000000  1
  H  H3  1  0.48599200  0.26842200  0.78050200  1
  H  H4  1  0.05166800  0.26953400  0.21788100  1
  H  H5  1  0.73046600  0.94833200  0.78211900  1
  H  H6  1  0.73157800  0.51400800  0.21949800  1
  H  H7  1  0.71225200  0.42547100  0.71325400  1
  H  H8  1  0.14066600  0.42732500  0.28605000  1
  H  H9  1  0.57267500  0.85933400  0.71395000  1
  H  H10  1  0.57452900  0.28774800  0.28674600  1
  C  C11  1  0.21407800  0.44467300  0.77012500  1
  C  C12  1  0.21527700  0.98413600  0.23023600  1
  C  C13  1  0.55532700  0.78592200  0.22987500  1
  C  C14  1  0.01586400  0.78472300  0.76976400  1
  C  C15  1  0.04970500  0.32474000  0.72342600  1
  C  C16  1  0.04958900  0.77346200  0.27521500  1
  C  C17  1  0.67526000  0.95029500  0.27657400  1
  C  C18  1  0.22653800  0.95041100  0.72478500  1
  O  O19  1  0.23755600  0.36266300  0.87999300  1
  O  O20  1  0.24112800  0.11749700  0.12232900  1
  O  O21  1  0.63733700  0.76244400  0.12000700  1
  O  O22  1  0.88250300  0.75887200  0.87767100  1
  O  O23  1  0.74902100  0.25097900  0.50000000  1
  O  O24  1  0.94030400  0.14433800  0.79575300  1
  O  O25  1  0.94287200  0.73654200  0.20146000  1
  O  O26  1  0.85566200  0.05969600  0.20424700  1
  O  O27  1  0.26345800  0.05712800  0.79854000  1
  O  O28  1  0.58817000  0.38442500  0.78552200  1
  O  O29  1  0.17258000  0.38127300  0.20820100  1
  O  O30  1  0.61872700  0.82742000  0.79179900  1
  O  O31  1  0.61557500  0.41183000  0.21447800  1
  O  O32  1  0.31488000  0.62748200  0.68840500  1
  O  O33  1  0.31665200  0.00295000  0.31177700  1
  O  O34  1  0.37251800  0.68512000  0.31159500  1
  O  O35  1  0.99705000  0.68334800  0.68822300  1
  O  O36  1  0.03968600  0.42574500  0.61164800  1
  O  O37  1  0.03833400  0.65191000  0.38783800  1
  O  O38  1  0.57425500  0.96031400  0.38835200  1
  O  O39  1  0.34809000  0.96166600  0.61216200  1
  O  O40  1  0.50028700  0.49971300  0.50000000  1
