# generated using pymatgen
data_SrPrInO4
_symmetry_space_group_name_H-M   'P 1'
_cell_length_a   5.95500200
_cell_length_b   6.02344000
_cell_length_c   12.46494500
_cell_angle_alpha   90.00000000
_cell_angle_beta   90.00000000
_cell_angle_gamma   90.00000000
_symmetry_Int_Tables_number   1
_chemical_formula_structural   SrPrInO4
_chemical_formula_sum   'Sr4 Pr4 In4 O16'
_cell_volume   447.11255685
_cell_formula_units_Z   4
loop_
 _symmetry_equiv_pos_site_id
 _symmetry_equiv_pos_as_xyz
  1  'x, y, z'
loop_
 _atom_site_type_symbol
 _atom_site_label
 _atom_site_symmetry_multiplicity
 _atom_site_fract_x
 _atom_site_fract_y
 _atom_site_fract_z
 _atom_site_occupancy
  Sr  Sr0  1  0.99239700  0.53591800  0.64749100  1
  Sr  Sr1  1  0.50760300  0.46408200  0.14749100  1
  Sr  Sr2  1  0.49239700  0.96408200  0.35250900  1
  Sr  Sr3  1  0.00760300  0.03591800  0.85250900  1
  Pr  Pr4  1  0.01446000  0.44330500  0.35209700  1
  Pr  Pr5  1  0.48554000  0.55669500  0.85209700  1
  Pr  Pr6  1  0.51446000  0.05669500  0.64790300  1
  Pr  Pr7  1  0.98554000  0.94330500  0.14790300  1
  In  In8  1  0.99628500  0.49293800  0.99917100  1
  In  In9  1  0.50371500  0.50706200  0.49917100  1
  In  In10  1  0.49628500  0.00706200  0.00082900  1
  In  In11  1  0.00371500  0.99293800  0.50082900  1
  O  O12  1  0.22290700  0.27983200  0.53020100  1
  O  O13  1  0.27709300  0.72016800  0.03020100  1
  O  O14  1  0.72290700  0.22016800  0.46979900  1
  O  O15  1  0.77709300  0.77983200  0.96979900  1
  O  O16  1  0.80472500  0.70215400  0.45929600  1
  O  O17  1  0.69527500  0.29784600  0.95929600  1
  O  O18  1  0.30472500  0.79784600  0.54070400  1
  O  O19  1  0.19527500  0.20215400  0.04070400  1
  O  O20  1  0.10977900  0.45657200  0.83124600  1
  O  O21  1  0.39022100  0.54342800  0.33124600  1
  O  O22  1  0.60977900  0.04342800  0.16875400  1
  O  O23  1  0.89022100  0.95657200  0.66875400  1
  O  O24  1  0.91903500  0.55031900  0.17822000  1
  O  O25  1  0.58096500  0.44968100  0.67822000  1
  O  O26  1  0.41903500  0.94968100  0.82178000  1
  O  O27  1  0.08096500  0.05031900  0.32178000  1
