# generated using pymatgen
data_SrNd3AlCuO8
_symmetry_space_group_name_H-M   'P 1'
_cell_length_a   6.93223596
_cell_length_b   6.93223596
_cell_length_c   5.32214100
_cell_angle_alpha   90.00000000
_cell_angle_beta   90.00000000
_cell_angle_gamma   134.77269068
_symmetry_Int_Tables_number   1
_chemical_formula_structural   SrNd3AlCuO8
_chemical_formula_sum   'Sr1 Nd3 Al1 Cu1 O8'
_cell_volume   181.56586783
_cell_formula_units_Z   1
loop_
 _symmetry_equiv_pos_site_id
 _symmetry_equiv_pos_as_xyz
  1  'x, y, z'
loop_
 _atom_site_type_symbol
 _atom_site_label
 _atom_site_symmetry_multiplicity
 _atom_site_fract_x
 _atom_site_fract_y
 _atom_site_fract_z
 _atom_site_occupancy
  Sr  Sr0  1  0.14460000  0.85540000  0.50000000  1
  Nd  Nd1  1  0.63755800  0.36244200  0.00000000  1
  Nd  Nd2  1  0.36139900  0.63860100  0.00000000  1
  Nd  Nd3  1  0.86145000  0.13855000  0.50000000  1
  Al  Al4  1  0.49752600  0.50247400  0.50000000  1
  Cu  Cu5  1  0.00438700  0.99561300  0.00000000  1
  O  O6  1  0.81514000  0.18486000  0.00000000  1
  O  O7  1  0.34053300  0.65946700  0.50000000  1
  O  O8  1  0.66925300  0.33074700  0.50000000  1
  O  O9  1  0.18447600  0.81552400  0.00000000  1
  O  O10  1  0.73781300  0.74597300  0.74548900  1
  O  O11  1  0.25402700  0.26218700  0.25451100  1
  O  O12  1  0.25402700  0.26218700  0.74548900  1
  O  O13  1  0.73781300  0.74597300  0.25451100  1
