# generated using pymatgen
data_SrLaTiFeO6
_symmetry_space_group_name_H-M   'P 1'
_cell_length_a   5.58476472
_cell_length_b   5.58477956
_cell_length_c   9.67304234
_cell_angle_alpha   73.22031492
_cell_angle_beta   73.22026461
_cell_angle_gamma   60.00305329
_symmetry_Int_Tables_number   1
_chemical_formula_structural   SrLaTiFeO6
_chemical_formula_sum   'Sr2 La2 Ti2 Fe2 O12'
_cell_volume   246.34150236
_cell_formula_units_Z   2
loop_
 _symmetry_equiv_pos_site_id
 _symmetry_equiv_pos_as_xyz
  1  'x, y, z'
loop_
 _atom_site_type_symbol
 _atom_site_label
 _atom_site_symmetry_multiplicity
 _atom_site_fract_x
 _atom_site_fract_y
 _atom_site_fract_z
 _atom_site_occupancy
  Sr  Sr0  1  0.87500500  0.87500300  0.37500400  1
  Sr  Sr1  1  0.37500100  0.37500400  0.87500900  1
  La  La2  1  0.62500500  0.62500100  0.12499400  1
  La  La3  1  0.12500400  0.12500100  0.62499700  1
  Ti  Ti4  1  0.24999600  0.24999700  0.24999900  1
  Ti  Ti5  1  0.74999800  0.74999900  0.74999700  1
  Fe  Fe6  1  0.50000200  0.50000200  0.50000200  1
  Fe  Fe7  1  0.00000100  0.00000000  0.00000100  1
  O  O8  1  0.12642000  0.12642000  0.12641100  1
  O  O9  1  0.62641700  0.62641800  0.62641500  1
  O  O10  1  0.37358100  0.37358200  0.37358600  1
  O  O11  1  0.87357800  0.87357900  0.87358900  1
  O  O12  1  0.37359000  0.87923000  0.37358600  1
  O  O13  1  0.87358800  0.37923400  0.87358900  1
  O  O14  1  0.12641200  0.62076400  0.12641100  1
  O  O15  1  0.62640700  0.12077000  0.62641300  1
  O  O16  1  0.87922900  0.37359100  0.37358500  1
  O  O17  1  0.37923300  0.87358800  0.87358900  1
  O  O18  1  0.62076300  0.12641200  0.12641000  1
  O  O19  1  0.12076900  0.62640800  0.62641300  1
