# generated using pymatgen
data_SrPrCoRuO6
_symmetry_space_group_name_H-M   'P 1'
_cell_length_a   5.66262900
_cell_length_b   5.61239600
_cell_length_c   9.70411899
_cell_angle_alpha   54.77886112
_cell_angle_beta   90.00000000
_cell_angle_gamma   90.00000000
_symmetry_Int_Tables_number   1
_chemical_formula_structural   SrPrCoRuO6
_chemical_formula_sum   'Sr2 Pr2 Co2 Ru2 O12'
_cell_volume   251.94661492
_cell_formula_units_Z   2
loop_
 _symmetry_equiv_pos_site_id
 _symmetry_equiv_pos_as_xyz
  1  'x, y, z'
loop_
 _atom_site_type_symbol
 _atom_site_label
 _atom_site_symmetry_multiplicity
 _atom_site_fract_x
 _atom_site_fract_y
 _atom_site_fract_z
 _atom_site_occupancy
  Sr  Sr0  1  0.21539200  0.24553700  0.24935400  1
  Sr  Sr1  1  0.78460800  0.24553700  0.74935400  1
  Pr  Pr2  1  0.29767300  0.75859300  0.75181900  1
  Pr  Pr3  1  0.70232700  0.75859300  0.25181900  1
  Co  Co4  1  0.75409500  0.50016600  0.00016700  1
  Co  Co5  1  0.24590500  0.50016600  0.50016700  1
  Ru  Ru6  1  0.75192800  0.00061700  0.49977000  1
  Ru  Ru7  1  0.24807200  0.00061700  0.99977000  1
  O  O8  1  0.76230600  0.32808400  0.25703600  1
  O  O9  1  0.23769400  0.32808400  0.75703600  1
  O  O10  1  0.72933600  0.69258700  0.74313900  1
  O  O11  1  0.27066400  0.69258700  0.24313900  1
  O  O12  1  0.03876200  0.15462100  0.54318800  1
  O  O13  1  0.96123800  0.15462100  0.04318800  1
  O  O14  1  0.47461900  0.82508900  0.46197700  1
  O  O15  1  0.52538100  0.82508900  0.96197700  1
  O  O16  1  0.95045600  0.75548000  0.45760700  1
  O  O17  1  0.04954400  0.75548000  0.95760700  1
  O  O18  1  0.53695200  0.23922500  0.53594200  1
  O  O19  1  0.46304800  0.23922500  0.03594200  1
