# generated using pymatgen
data_Ta3MnN4
_symmetry_space_group_name_H-M   'P 1'
_cell_length_a   3.01811006
_cell_length_b   3.01811006
_cell_length_c   10.80002600
_cell_angle_alpha   90.00000000
_cell_angle_beta   90.00000000
_cell_angle_gamma   120.00000130
_symmetry_Int_Tables_number   1
_chemical_formula_structural   Ta3MnN4
_chemical_formula_sum   'Ta3 Mn1 N4'
_cell_volume   85.19724919
_cell_formula_units_Z   1
loop_
 _symmetry_equiv_pos_site_id
 _symmetry_equiv_pos_as_xyz
  1  'x, y, z'
loop_
 _atom_site_type_symbol
 _atom_site_label
 _atom_site_symmetry_multiplicity
 _atom_site_fract_x
 _atom_site_fract_y
 _atom_site_fract_z
 _atom_site_occupancy
  Ta  Ta0  1  0.33333300  0.66666700  0.75588200  1
  Ta  Ta1  1  0.66666700  0.33333300  0.24411800  1
  Ta  Ta2  1  0.00000000  0.00000000  0.50000000  1
  Mn  Mn3  1  0.00000000  0.00000000  0.00000000  1
  N  N4  1  0.33333300  0.66666700  0.37117400  1
  N  N5  1  0.66666700  0.33333300  0.62882600  1
  N  N6  1  0.66666700  0.33333300  0.87519600  1
  N  N7  1  0.33333300  0.66666700  0.12480400  1
