# generated using pymatgen
data_SrLaNiO4
_symmetry_space_group_name_H-M   'P 1'
_cell_length_a   6.85393193
_cell_length_b   6.85393193
_cell_length_c   5.45848100
_cell_angle_alpha   90.00000000
_cell_angle_beta   90.00000000
_cell_angle_gamma   133.20190569
_symmetry_Int_Tables_number   1
_chemical_formula_structural   SrLaNiO4
_chemical_formula_sum   'Sr2 La2 Ni2 O8'
_cell_volume   186.91607365
_cell_formula_units_Z   2
loop_
 _symmetry_equiv_pos_site_id
 _symmetry_equiv_pos_as_xyz
  1  'x, y, z'
loop_
 _atom_site_type_symbol
 _atom_site_label
 _atom_site_symmetry_multiplicity
 _atom_site_fract_x
 _atom_site_fract_y
 _atom_site_fract_z
 _atom_site_occupancy
  Sr  Sr0  1  0.39283200  0.60716800  0.75000000  1
  Sr  Sr1  1  0.60716800  0.39283200  0.25000000  1
  La  La2  1  0.88686300  0.11313700  0.25000000  1
  La  La3  1  0.11313700  0.88686300  0.75000000  1
  Ni  Ni4  1  0.25074300  0.74925700  0.25000000  1
  Ni  Ni5  1  0.74925700  0.25074300  0.75000000  1
  O  O6  1  0.07635400  0.92364600  0.25000000  1
  O  O7  1  0.58825100  0.41174900  0.75000000  1
  O  O8  1  0.92364600  0.07635400  0.75000000  1
  O  O9  1  0.41174900  0.58825100  0.25000000  1
  O  O10  1  0.00000000  0.50000000  0.00000000  1
  O  O11  1  0.50000000  0.00000000  0.50000000  1
  O  O12  1  0.00000000  0.50000000  0.50000000  1
  O  O13  1  0.50000000  0.00000000  0.00000000  1
