# generated using pymatgen
data_Ta4C3
_symmetry_space_group_name_H-M   'P 1'
_cell_length_a   10.41286404
_cell_length_b   10.41286404
_cell_length_c   10.41286403
_cell_angle_alpha   17.31660285
_cell_angle_beta   17.31660285
_cell_angle_gamma   17.31660409
_symmetry_Int_Tables_number   1
_chemical_formula_structural   Ta4C3
_chemical_formula_sum   'Ta4 C3'
_cell_volume   87.28714724
_cell_formula_units_Z   1
loop_
 _symmetry_equiv_pos_site_id
 _symmetry_equiv_pos_as_xyz
  1  'x, y, z'
loop_
 _atom_site_type_symbol
 _atom_site_label
 _atom_site_symmetry_multiplicity
 _atom_site_fract_x
 _atom_site_fract_y
 _atom_site_fract_z
 _atom_site_occupancy
  Ta  Ta0  1  0.62658100  0.62658100  0.62658100  1
  Ta  Ta1  1  0.37531800  0.37531800  0.37531800  1
  Ta  Ta2  1  0.79040300  0.79040300  0.79040300  1
  Ta  Ta3  1  0.20568000  0.20568000  0.20568000  1
  C  C4  1  0.49749700  0.49749700  0.49749700  1
  C  C5  1  0.00406300  0.00406300  0.00406300  1
  C  C6  1  0.91545800  0.91545800  0.91545800  1
