# generated using pymatgen
data_SrSm3(NiO4)2
_symmetry_space_group_name_H-M   'P 1'
_cell_length_a   6.75691086
_cell_length_b   6.75691086
_cell_length_c   5.38037600
_cell_angle_alpha   90.00000000
_cell_angle_beta   90.00000000
_cell_angle_gamma   133.49680766
_symmetry_Int_Tables_number   1
_chemical_formula_structural   SrSm3(NiO4)2
_chemical_formula_sum   'Sr1 Sm3 Ni2 O8'
_cell_volume   178.19445039
_cell_formula_units_Z   1
loop_
 _symmetry_equiv_pos_site_id
 _symmetry_equiv_pos_as_xyz
  1  'x, y, z'
loop_
 _atom_site_type_symbol
 _atom_site_label
 _atom_site_symmetry_multiplicity
 _atom_site_fract_x
 _atom_site_fract_y
 _atom_site_fract_z
 _atom_site_occupancy
  Sr  Sr0  1  0.64436500  0.35563500  0.00000000  1
  Sm  Sm1  1  0.13681300  0.86318700  0.50000000  1
  Sm  Sm2  1  0.86123800  0.13876200  0.50000000  1
  Sm  Sm3  1  0.36352600  0.63647400  0.00000000  1
  Ni  Ni4  1  0.50347000  0.49653000  0.50000000  1
  Ni  Ni5  1  0.00371600  0.99628400  0.00000000  1
  O  O6  1  0.31862800  0.68137200  0.50000000  1
  O  O7  1  0.83624100  0.16375900  0.00000000  1
  O  O8  1  0.17772700  0.82227300  0.00000000  1
  O  O9  1  0.67689900  0.32310100  0.50000000  1
  O  O10  1  0.24419600  0.25550700  0.73926700  1
  O  O11  1  0.74449300  0.75580400  0.26073300  1
  O  O12  1  0.74449300  0.75580400  0.73926700  1
  O  O13  1  0.24419600  0.25550700  0.26073300  1
