# generated using pymatgen
data_TaAlFe4
_symmetry_space_group_name_H-M   'P 1'
_cell_length_a   4.77994269
_cell_length_b   4.77994269
_cell_length_c   7.69077800
_cell_angle_alpha   90.00000000
_cell_angle_beta   90.00000000
_cell_angle_gamma   120.00000958
_symmetry_Int_Tables_number   1
_chemical_formula_structural   TaAlFe4
_chemical_formula_sum   'Ta2 Al2 Fe8'
_cell_volume   152.17602815
_cell_formula_units_Z   2
loop_
 _symmetry_equiv_pos_site_id
 _symmetry_equiv_pos_as_xyz
  1  'x, y, z'
loop_
 _atom_site_type_symbol
 _atom_site_label
 _atom_site_symmetry_multiplicity
 _atom_site_fract_x
 _atom_site_fract_y
 _atom_site_fract_z
 _atom_site_occupancy
  Ta  Ta0  1  0.66666700  0.33333300  0.92342100  1
  Ta  Ta1  1  0.33333300  0.66666700  0.07657900  1
  Al  Al2  1  0.33333300  0.66666700  0.44429300  1
  Al  Al3  1  0.66666700  0.33333300  0.55570700  1
  Fe  Fe4  1  0.00000000  0.00000000  0.50000000  1
  Fe  Fe5  1  0.00000000  0.00000000  0.00000000  1
  Fe  Fe6  1  0.83053600  0.16946400  0.25160100  1
  Fe  Fe7  1  0.83053600  0.66107200  0.25160100  1
  Fe  Fe8  1  0.33892800  0.16946400  0.25160100  1
  Fe  Fe9  1  0.16946400  0.83053600  0.74839900  1
  Fe  Fe10  1  0.16946400  0.33892800  0.74839900  1
  Fe  Fe11  1  0.66107200  0.83053600  0.74839900  1
