# generated using pymatgen
data_Ta4MoSe10
_symmetry_space_group_name_H-M   'P 1'
_cell_length_a   9.91975898
_cell_length_b   9.91975898
_cell_length_c   10.51197030
_cell_angle_alpha   85.41256840
_cell_angle_beta   85.41256840
_cell_angle_gamma   19.97094449
_symmetry_Int_Tables_number   1
_chemical_formula_structural   Ta4MoSe10
_chemical_formula_sum   'Ta4 Mo1 Se10'
_cell_volume   352.12399174
_cell_formula_units_Z   1
loop_
 _symmetry_equiv_pos_site_id
 _symmetry_equiv_pos_as_xyz
  1  'x, y, z'
loop_
 _atom_site_type_symbol
 _atom_site_label
 _atom_site_symmetry_multiplicity
 _atom_site_fract_x
 _atom_site_fract_y
 _atom_site_fract_z
 _atom_site_occupancy
  Ta  Ta0  1  0.13314800  0.13314800  0.27181000  1
  Ta  Ta1  1  0.33562200  0.33562200  0.67769700  1
  Ta  Ta2  1  0.52574900  0.52574900  0.05767400  1
  Ta  Ta3  1  0.73038300  0.73038300  0.46697500  1
  Mo  Mo4  1  0.93216700  0.93216700  0.87097900  1
  Se  Se5  1  0.39595000  0.39595000  0.04801900  1
  Se  Se6  1  0.59786700  0.59786700  0.45211200  1
  Se  Se7  1  0.00053700  0.00053700  0.24532300  1
  Se  Se8  1  0.80107100  0.80107100  0.85587700  1
  Se  Se9  1  0.20233800  0.20233800  0.65186600  1
  Se  Se10  1  0.73179800  0.73179800  0.21881200  1
  Se  Se11  1  0.93302200  0.93302200  0.62542500  1
  Se  Se12  1  0.12770400  0.12770400  0.02298400  1
  Se  Se13  1  0.33086400  0.33086400  0.42767600  1
  Se  Se14  1  0.52913700  0.52913700  0.81517100  1
