# generated using pymatgen
data_Ta5Ga2Sn
_symmetry_space_group_name_H-M   'P 1'
_cell_length_a   5.17659400
_cell_length_b   7.88381625
_cell_length_c   7.81448666
_cell_angle_alpha   96.24271522
_cell_angle_beta   109.34270705
_cell_angle_gamma   70.83406641
_symmetry_Int_Tables_number   1
_chemical_formula_structural   Ta5Ga2Sn
_chemical_formula_sum   'Ta10 Ga4 Sn2'
_cell_volume   284.23850577
_cell_formula_units_Z   2
loop_
 _symmetry_equiv_pos_site_id
 _symmetry_equiv_pos_as_xyz
  1  'x, y, z'
loop_
 _atom_site_type_symbol
 _atom_site_label
 _atom_site_symmetry_multiplicity
 _atom_site_fract_x
 _atom_site_fract_y
 _atom_site_fract_z
 _atom_site_occupancy
  Ta  Ta0  1  0.43665600  0.84071200  0.71402500  1
  Ta  Ta1  1  0.56334400  0.15928800  0.28597500  1
  Ta  Ta2  1  0.92072100  0.29664300  0.13808500  1
  Ta  Ta3  1  0.07927900  0.70335700  0.86191500  1
  Ta  Ta4  1  0.71736400  0.70335700  0.13808500  1
  Ta  Ta5  1  0.28263600  0.29664300  0.86191500  1
  Ta  Ta6  1  0.77736800  0.15928800  0.71402500  1
  Ta  Ta7  1  0.22263200  0.84071200  0.28597500  1
  Ta  Ta8  1  0.25537700  0.50000000  0.50000000  1
  Ta  Ta9  1  0.74462300  0.50000000  0.50000000  1
  Ga  Ga10  1  0.25000000  0.00000000  0.00000000  1
  Ga  Ga11  1  0.75000000  0.00000000  0.00000000  1
  Ga  Ga12  1  0.33351300  0.50000000  0.16702600  1
  Ga  Ga13  1  0.66648700  0.50000000  0.83297400  1
  Sn  Sn14  1  0.82988900  0.84022200  0.50000000  1
  Sn  Sn15  1  0.17011100  0.15977800  0.50000000  1
