# generated using pymatgen
data_SrLaGaO4
_symmetry_space_group_name_H-M   'P 1'
_cell_length_a   6.87261225
_cell_length_b   6.87261225
_cell_length_c   6.87261225
_cell_angle_alpha   147.03467953
_cell_angle_beta   147.03467953
_cell_angle_gamma   47.31243625
_symmetry_Int_Tables_number   1
_chemical_formula_structural   SrLaGaO4
_chemical_formula_sum   'Sr1 La1 Ga1 O4'
_cell_volume   95.74193710
_cell_formula_units_Z   1
loop_
 _symmetry_equiv_pos_site_id
 _symmetry_equiv_pos_as_xyz
  1  'x, y, z'
loop_
 _atom_site_type_symbol
 _atom_site_label
 _atom_site_symmetry_multiplicity
 _atom_site_fract_x
 _atom_site_fract_y
 _atom_site_fract_z
 _atom_site_occupancy
  Sr  Sr0  1  0.64176400  0.64176400  0.00000000  1
  La  La1  1  0.35792000  0.35792000  0.00000000  1
  Ga  Ga2  1  0.00459000  0.00459000  0.00000000  1
  O  O3  1  0.99491300  0.49491300  0.50000000  1
  O  O4  1  0.49491300  0.99491300  0.50000000  1
  O  O5  1  0.83507600  0.83507600  0.00000000  1
  O  O6  1  0.17082400  0.17082400  0.00000000  1
