# generated using pymatgen
data_Ta2TiO6
_symmetry_space_group_name_H-M   'P 1'
_cell_length_a   5.69342677
_cell_length_b   5.69342677
_cell_length_c   7.42963796
_cell_angle_alpha   70.49137684
_cell_angle_beta   70.49137684
_cell_angle_gamma   74.11406141
_symmetry_Int_Tables_number   1
_chemical_formula_structural   Ta2TiO6
_chemical_formula_sum   'Ta4 Ti2 O12'
_cell_volume   210.37851561
_cell_formula_units_Z   2
loop_
 _symmetry_equiv_pos_site_id
 _symmetry_equiv_pos_as_xyz
  1  'x, y, z'
loop_
 _atom_site_type_symbol
 _atom_site_label
 _atom_site_symmetry_multiplicity
 _atom_site_fract_x
 _atom_site_fract_y
 _atom_site_fract_z
 _atom_site_occupancy
  Ta  Ta0  1  0.32107200  0.32107200  0.17851400  1
  Ta  Ta1  1  0.67892800  0.67892800  0.82148600  1
  Ta  Ta2  1  0.00000000  0.00000000  0.50000000  1
  Ta  Ta3  1  0.00000000  0.00000000  0.00000000  1
  Ti  Ti4  1  0.34668600  0.34668600  0.65254500  1
  Ti  Ti5  1  0.65331400  0.65331400  0.34745500  1
  O  O6  1  0.22890900  0.22890900  0.97044600  1
  O  O7  1  0.56752000  0.56752000  0.64121400  1
  O  O8  1  0.90524500  0.90524500  0.29723100  1
  O  O9  1  0.43248000  0.43248000  0.35878600  1
  O  O10  1  0.77109100  0.77109100  0.02955400  1
  O  O11  1  0.09475500  0.09475500  0.70276900  1
  O  O12  1  0.95969100  0.38140800  0.32853900  1
  O  O13  1  0.29984200  0.70015800  0.00000000  1
  O  O14  1  0.61859200  0.04030900  0.67146100  1
  O  O15  1  0.38140800  0.95969100  0.32853900  1
  O  O16  1  0.70015800  0.29984200  0.00000000  1
  O  O17  1  0.04030900  0.61859200  0.67146100  1
