# generated using pymatgen
data_SrPrScO4
_symmetry_space_group_name_H-M   'P 1'
_cell_length_a   6.85106858
_cell_length_b   6.85106858
_cell_length_c   5.88751200
_cell_angle_alpha   90.00000000
_cell_angle_beta   90.00000000
_cell_angle_gamma   130.68288834
_symmetry_Int_Tables_number   1
_chemical_formula_structural   SrPrScO4
_chemical_formula_sum   'Sr2 Pr2 Sc2 O8'
_cell_volume   209.55891029
_cell_formula_units_Z   2
loop_
 _symmetry_equiv_pos_site_id
 _symmetry_equiv_pos_as_xyz
  1  'x, y, z'
loop_
 _atom_site_type_symbol
 _atom_site_label
 _atom_site_symmetry_multiplicity
 _atom_site_fract_x
 _atom_site_fract_y
 _atom_site_fract_z
 _atom_site_occupancy
  Sr  Sr0  1  0.60425600  0.39574400  0.51341600  1
  Sr  Sr1  1  0.39574400  0.60425600  0.01341600  1
  Pr  Pr2  1  0.89109900  0.10890100  0.48377900  1
  Pr  Pr3  1  0.10890100  0.89109900  0.98377900  1
  Sc  Sc4  1  0.25410800  0.74589200  0.49557200  1
  Sc  Sc5  1  0.74589200  0.25410800  0.99557200  1
  O  O6  1  0.01692800  0.47262100  0.74132500  1
  O  O7  1  0.98307200  0.52737900  0.24132500  1
  O  O8  1  0.47262100  0.01692800  0.24132500  1
  O  O9  1  0.52737900  0.98307200  0.74132500  1
  O  O10  1  0.58337500  0.41662500  0.93656700  1
  O  O11  1  0.93003200  0.06996800  0.08801500  1
  O  O12  1  0.41662500  0.58337500  0.43656700  1
  O  O13  1  0.06996800  0.93003200  0.58801500  1
