# generated using pymatgen
data_SrLaMnO4F
_symmetry_space_group_name_H-M   'P 1'
_cell_length_a   5.38851500
_cell_length_b   5.38853339
_cell_length_c   14.00041600
_cell_angle_alpha   90.00041038
_cell_angle_beta   89.99993916
_cell_angle_gamma   90.00097742
_symmetry_Int_Tables_number   1
_chemical_formula_structural   SrLaMnO4F
_chemical_formula_sum   'Sr4 La4 Mn4 O16 F4'
_cell_volume   406.51878126
_cell_formula_units_Z   4
loop_
 _symmetry_equiv_pos_site_id
 _symmetry_equiv_pos_as_xyz
  1  'x, y, z'
loop_
 _atom_site_type_symbol
 _atom_site_label
 _atom_site_symmetry_multiplicity
 _atom_site_fract_x
 _atom_site_fract_y
 _atom_site_fract_z
 _atom_site_occupancy
  Sr  Sr0  1  0.75003400  0.99999200  0.90427800  1
  Sr  Sr1  1  0.24998300  0.49998500  0.90428100  1
  Sr  Sr2  1  0.24999100  0.00000100  0.09571900  1
  Sr  Sr3  1  0.74999700  0.49997900  0.09572100  1
  La  La4  1  0.74999500  0.99999400  0.62255300  1
  La  La5  1  0.25002200  0.50003200  0.62255500  1
  La  La6  1  0.24997900  0.00002700  0.37745500  1
  La  La7  1  0.74999900  0.49998400  0.37743900  1
  Mn  Mn8  1  0.74999900  0.50000500  0.77618700  1
  Mn  Mn9  1  0.24998300  0.50000700  0.22382100  1
  Mn  Mn10  1  0.24999700  0.00001500  0.77617500  1
  Mn  Mn11  1  0.74998900  0.99998200  0.22379200  1
  O  O12  1  0.25002700  0.00001000  0.91693600  1
  O  O13  1  0.74999300  0.50000100  0.91693600  1
  O  O14  1  0.74999300  0.99999600  0.08307500  1
  O  O15  1  0.24999700  0.49998800  0.08306800  1
  O  O16  1  0.24999900  0.99998200  0.64183600  1
  O  O17  1  0.75001400  0.49999100  0.64183400  1
  O  O18  1  0.75000000  0.00000100  0.35817300  1
  O  O19  1  0.25000500  0.50000700  0.35816700  1
  O  O20  1  0.50001500  0.75001800  0.76951100  1
  O  O21  1  0.99998700  0.24998600  0.76950400  1
  O  O22  1  0.49999000  0.25001100  0.76950300  1
  O  O23  1  0.00002400  0.74998000  0.76951300  1
  O  O24  1  0.50000100  0.24999600  0.23049700  1
  O  O25  1  0.00000900  0.75000800  0.23049500  1
  O  O26  1  0.50000800  0.75000200  0.23049800  1
  O  O27  1  0.99999400  0.25000200  0.23048700  1
  F  F28  1  0.50000800  0.74999000  0.50000200  1
  F  F29  1  0.99999300  0.25001300  0.49999700  1
  F  F30  1  0.50000300  0.25001200  0.49999700  1
  F  F31  1  0.99997300  0.75000000  0.49999900  1
