# generated using pymatgen
data_Ta2InBiO8
_symmetry_space_group_name_H-M   'P 1'
_cell_length_a   5.42895698
_cell_length_b   7.66851156
_cell_length_c   7.92009241
_cell_angle_alpha   78.67895164
_cell_angle_beta   89.08437890
_cell_angle_gamma   88.47438935
_symmetry_Int_Tables_number   1
_chemical_formula_structural   Ta2InBiO8
_chemical_formula_sum   'Ta4 In2 Bi2 O16'
_cell_volume   323.17970870
_cell_formula_units_Z   2
loop_
 _symmetry_equiv_pos_site_id
 _symmetry_equiv_pos_as_xyz
  1  'x, y, z'
loop_
 _atom_site_type_symbol
 _atom_site_label
 _atom_site_symmetry_multiplicity
 _atom_site_fract_x
 _atom_site_fract_y
 _atom_site_fract_z
 _atom_site_occupancy
  Ta  Ta0  1  0.75706000  0.80722800  0.32819100  1
  Ta  Ta1  1  0.24294000  0.19277200  0.67180900  1
  Ta  Ta2  1  0.23852700  0.68806400  0.65299600  1
  Ta  Ta3  1  0.76147300  0.31193600  0.34700400  1
  In  In4  1  0.23871700  0.61711300  0.11554300  1
  In  In5  1  0.76128300  0.38288700  0.88445700  1
  Bi  Bi6  1  0.72448000  0.87324400  0.85220500  1
  Bi  Bi7  1  0.27552000  0.12675600  0.14779500  1
  O  O8  1  0.06642000  0.19760600  0.45576900  1
  O  O9  1  0.93358000  0.80239400  0.54423100  1
  O  O10  1  0.47453100  0.38821500  0.18127400  1
  O  O11  1  0.52546900  0.61178500  0.81872600  1
  O  O12  1  0.67484200  0.06135600  0.29970600  1
  O  O13  1  0.32515800  0.93864400  0.70029400  1
  O  O14  1  0.55633900  0.28104100  0.54737600  1
  O  O15  1  0.44366100  0.71895900  0.45262400  1
  O  O16  1  0.54593400  0.80020100  0.11059000  1
  O  O17  1  0.45406600  0.19979900  0.88941000  1
  O  O18  1  0.97180200  0.33705200  0.11337500  1
  O  O19  1  0.02819800  0.66294800  0.88662500  1
  O  O20  1  0.03663900  0.84974800  0.16835900  1
  O  O21  1  0.96336100  0.15025200  0.83164100  1
  O  O22  1  0.86437800  0.54879100  0.33839200  1
  O  O23  1  0.13562200  0.45120900  0.66160800  1
