# generated using pymatgen
data_Ba4Cu3SeO12
_symmetry_space_group_name_H-M   'P 1'
_cell_length_a   6.99981314
_cell_length_b   6.99981314
_cell_length_c   6.99981314
_cell_angle_alpha   109.47122063
_cell_angle_beta   109.47122063
_cell_angle_gamma   109.47122063
_symmetry_Int_Tables_number   1
_chemical_formula_structural   Ba4Cu3SeO12
_chemical_formula_sum   'Ba4 Cu3 Se1 O12'
_cell_volume   264.02037835
_cell_formula_units_Z   1
loop_
 _symmetry_equiv_pos_site_id
 _symmetry_equiv_pos_as_xyz
  1  'x, y, z'
loop_
 _atom_site_type_symbol
 _atom_site_label
 _atom_site_symmetry_multiplicity
 _atom_site_fract_x
 _atom_site_fract_y
 _atom_site_fract_z
 _atom_site_occupancy
  Ba  Ba0  1  0.00000000  0.50000000  0.00000000  1
  Ba  Ba1  1  0.50000000  0.00000000  0.00000000  1
  Ba  Ba2  1  0.00000000  0.00000000  0.50000000  1
  Ba  Ba3  1  0.50000000  0.50000000  0.50000000  1
  Cu  Cu4  1  0.50000000  0.00000000  0.50000000  1
  Cu  Cu5  1  0.00000000  0.50000000  0.50000000  1
  Cu  Cu6  1  0.50000000  0.50000000  0.00000000  1
  Se  Se7  1  0.00000000  0.00000000  0.00000000  1
  O  O8  1  0.25000000  0.75000000  0.50000000  1
  O  O9  1  0.77020000  0.00000000  0.77020000  1
  O  O10  1  0.00000000  0.77020000  0.77020000  1
  O  O11  1  0.00000000  0.22980000  0.22980000  1
  O  O12  1  0.22980000  0.22980000  0.00000000  1
  O  O13  1  0.22980000  0.00000000  0.22980000  1
  O  O14  1  0.77020000  0.77020000  0.00000000  1
  O  O15  1  0.75000000  0.25000000  0.50000000  1
  O  O16  1  0.50000000  0.25000000  0.75000000  1
  O  O17  1  0.50000000  0.75000000  0.25000000  1
  O  O18  1  0.25000000  0.50000000  0.75000000  1
  O  O19  1  0.75000000  0.50000000  0.25000000  1
