# generated using pymatgen
data_SrLa2BeO5
_symmetry_space_group_name_H-M   'P 1'
_cell_length_a   6.73537500
_cell_length_b   7.40085000
_cell_length_c   9.79103900
_cell_angle_alpha   90.00000000
_cell_angle_beta   90.00000000
_cell_angle_gamma   90.00000000
_symmetry_Int_Tables_number   1
_chemical_formula_structural   SrLa2BeO5
_chemical_formula_sum   'Sr4 La8 Be4 O20'
_cell_volume   488.05881723
_cell_formula_units_Z   4
loop_
 _symmetry_equiv_pos_site_id
 _symmetry_equiv_pos_as_xyz
  1  'x, y, z'
loop_
 _atom_site_type_symbol
 _atom_site_label
 _atom_site_symmetry_multiplicity
 _atom_site_fract_x
 _atom_site_fract_y
 _atom_site_fract_z
 _atom_site_occupancy
  Sr  Sr0  1  0.58300900  0.98176600  0.67534400  1
  Sr  Sr1  1  0.41699100  0.48176600  0.32465600  1
  Sr  Sr2  1  0.08300900  0.48176600  0.82465600  1
  Sr  Sr3  1  0.91699100  0.98176600  0.17534400  1
  La  La4  1  0.09591900  0.74614100  0.52381900  1
  La  La5  1  0.40408100  0.74614100  0.02381900  1
  La  La6  1  0.90408100  0.24614100  0.47618100  1
  La  La7  1  0.59591900  0.24614100  0.97618100  1
  La  La8  1  0.92507300  0.52790400  0.17227100  1
  La  La9  1  0.07492700  0.02790400  0.82772900  1
  La  La10  1  0.42507300  0.02790400  0.32772900  1
  La  La11  1  0.57492700  0.52790400  0.67227100  1
  Be  Be12  1  0.69245900  0.74929800  0.40057000  1
  Be  Be13  1  0.80754100  0.74929800  0.90057000  1
  Be  Be14  1  0.30754100  0.24929800  0.59943000  1
  Be  Be15  1  0.19245900  0.24929800  0.09943000  1
  O  O16  1  0.01602800  0.74913800  0.99029000  1
  O  O17  1  0.48397200  0.74913800  0.49029000  1
  O  O18  1  0.98397200  0.24913800  0.00971000  1
  O  O19  1  0.51602800  0.24913800  0.50971000  1
  O  O20  1  0.31108100  0.05974800  0.06750600  1
  O  O21  1  0.19620500  0.44014600  0.56687300  1
  O  O22  1  0.68891900  0.55974800  0.93249400  1
  O  O23  1  0.80379500  0.94014600  0.43312700  1
  O  O24  1  0.69620500  0.94014600  0.93312700  1
  O  O25  1  0.81108100  0.55974800  0.43249400  1
  O  O26  1  0.30379500  0.44014600  0.06687300  1
  O  O27  1  0.18891900  0.05974800  0.56750600  1
  O  O28  1  0.16280000  0.74572300  0.27797900  1
  O  O29  1  0.33720000  0.74572300  0.77797900  1
  O  O30  1  0.83720000  0.24572300  0.72202100  1
  O  O31  1  0.66280000  0.24572300  0.22202100  1
  O  O32  1  0.63540800  0.75013700  0.23058300  1
  O  O33  1  0.86459200  0.75013700  0.73058300  1
  O  O34  1  0.36459200  0.25013700  0.76941700  1
  O  O35  1  0.13540800  0.25013700  0.26941700  1
