# generated using pymatgen
data_SrLa3Mn2Cr2O12
_symmetry_space_group_name_H-M   'P 1'
_cell_length_a   5.46755873
_cell_length_b   7.98574869
_cell_length_c   5.54126463
_cell_angle_alpha   90.00051804
_cell_angle_beta   89.99987304
_cell_angle_gamma   90.96148663
_symmetry_Int_Tables_number   1
_chemical_formula_structural   SrLa3Mn2Cr2O12
_chemical_formula_sum   'Sr1 La3 Mn2 Cr2 O12'
_cell_volume   241.91167835
_cell_formula_units_Z   1
loop_
 _symmetry_equiv_pos_site_id
 _symmetry_equiv_pos_as_xyz
  1  'x, y, z'
loop_
 _atom_site_type_symbol
 _atom_site_label
 _atom_site_symmetry_multiplicity
 _atom_site_fract_x
 _atom_site_fract_y
 _atom_site_fract_z
 _atom_site_occupancy
  Sr  Sr0  1  0.99999900  0.75000000  0.49485100  1
  La  La1  1  0.49999300  0.25000800  0.00405900  1
  La  La2  1  0.49998900  0.75000100  0.99823500  1
  La  La3  1  0.99999700  0.25000600  0.50161800  1
  Mn  Mn4  1  0.00025000  0.50100200  0.00006600  1
  Mn  Mn5  1  0.99975300  0.99899000  0.00006900  1
  Cr  Cr6  1  0.50017600  0.99905300  0.49984100  1
  Cr  Cr7  1  0.49982800  0.50094000  0.49983800  1
  O  O8  1  0.99998500  0.75006600  0.94997200  1
  O  O9  1  0.50000500  0.24999000  0.44218900  1
  O  O10  1  0.00001000  0.24994000  0.06235800  1
  O  O11  1  0.49999700  0.75000300  0.56484300  1
  O  O12  1  0.27740000  0.46706900  0.78474600  1
  O  O13  1  0.72261400  0.03293200  0.78475300  1
  O  O14  1  0.78013400  0.97697500  0.27159100  1
  O  O15  1  0.21986800  0.52301900  0.27160400  1
  O  O16  1  0.78153900  0.46222200  0.72631100  1
  O  O17  1  0.21846500  0.03777600  0.72632400  1
  O  O18  1  0.28386200  0.97495000  0.20836500  1
  O  O19  1  0.71613400  0.52505500  0.20836900  1
