# generated using pymatgen
data_SrCa3Si4
_symmetry_space_group_name_H-M   'P 1'
_cell_length_a   3.95093200
_cell_length_b   4.61252200
_cell_length_c   10.86624000
_cell_angle_alpha   90.00000000
_cell_angle_beta   90.00000000
_cell_angle_gamma   90.00000000
_symmetry_Int_Tables_number   1
_chemical_formula_structural   SrCa3Si4
_chemical_formula_sum   'Sr1 Ca3 Si4'
_cell_volume   198.02375823
_cell_formula_units_Z   1
loop_
 _symmetry_equiv_pos_site_id
 _symmetry_equiv_pos_as_xyz
  1  'x, y, z'
loop_
 _atom_site_type_symbol
 _atom_site_label
 _atom_site_symmetry_multiplicity
 _atom_site_fract_x
 _atom_site_fract_y
 _atom_site_fract_z
 _atom_site_occupancy
  Sr  Sr0  1  0.00000000  0.50000000  0.14086500  1
  Ca  Ca1  1  0.00000000  0.00000000  0.63850500  1
  Ca  Ca2  1  0.50000000  0.00000000  0.36679400  1
  Ca  Ca3  1  0.50000000  0.50000000  0.85969500  1
  Si  Si4  1  0.00000000  0.50000000  0.43632400  1
  Si  Si5  1  0.00000000  0.00000000  0.92691600  1
  Si  Si6  1  0.50000000  0.00000000  0.06045900  1
  Si  Si7  1  0.50000000  0.50000000  0.57044200  1
