# generated using pymatgen
data_SrEuCoO4
_symmetry_space_group_name_H-M   'P 1'
_cell_length_a   6.73387023
_cell_length_b   6.73387023
_cell_length_c   6.73387023
_cell_angle_alpha   147.12009091
_cell_angle_beta   147.12009091
_cell_angle_gamma   47.18600087
_symmetry_Int_Tables_number   1
_chemical_formula_structural   SrEuCoO4
_chemical_formula_sum   'Sr1 Eu1 Co1 O4'
_cell_volume   89.64982835
_cell_formula_units_Z   1
loop_
 _symmetry_equiv_pos_site_id
 _symmetry_equiv_pos_as_xyz
  1  'x, y, z'
loop_
 _atom_site_type_symbol
 _atom_site_label
 _atom_site_symmetry_multiplicity
 _atom_site_fract_x
 _atom_site_fract_y
 _atom_site_fract_z
 _atom_site_occupancy
  Sr  Sr0  1  0.64380700  0.64380700  0.00000000  1
  Eu  Eu1  1  0.35852400  0.35852400  0.00000000  1
  Co  Co2  1  0.00267200  0.00267200  0.00000000  1
  O  O3  1  0.84072300  0.84072300  0.00000000  1
  O  O4  1  0.16740800  0.16740800  0.00000000  1
  O  O5  1  0.49343300  0.99343300  0.50000000  1
  O  O6  1  0.99343300  0.49343300  0.50000000  1
