# generated using pymatgen
data_SrEuSi4
_symmetry_space_group_name_H-M   'P 1'
_cell_length_a   7.61500506
_cell_length_b   7.61500506
_cell_length_c   7.61500506
_cell_angle_alpha   146.63416646
_cell_angle_beta   146.63416646
_cell_angle_gamma   47.90576557
_symmetry_Int_Tables_number   1
_chemical_formula_structural   SrEuSi4
_chemical_formula_sum   'Sr1 Eu1 Si4'
_cell_volume   133.03015416
_cell_formula_units_Z   1
loop_
 _symmetry_equiv_pos_site_id
 _symmetry_equiv_pos_as_xyz
  1  'x, y, z'
loop_
 _atom_site_type_symbol
 _atom_site_label
 _atom_site_symmetry_multiplicity
 _atom_site_fract_x
 _atom_site_fract_y
 _atom_site_fract_z
 _atom_site_occupancy
  Sr  Sr0  1  0.00000000  0.00000000  0.00000000  1
  Eu  Eu1  1  0.25000000  0.75000000  0.50000000  1
  Si  Si2  1  0.66708300  0.16708300  0.50000000  1
  Si  Si3  1  0.58514600  0.58514600  0.00000000  1
  Si  Si4  1  0.83291700  0.33291700  0.50000000  1
  Si  Si5  1  0.41485400  0.41485400  0.00000000  1
