# generated using pymatgen
data_SrLaCuO4
_symmetry_space_group_name_H-M   'P 1'
_cell_length_a   6.85344872
_cell_length_b   6.85344872
_cell_length_c   6.85344872
_cell_angle_alpha   147.20173762
_cell_angle_beta   147.20173762
_cell_angle_gamma   47.06516933
_symmetry_Int_Tables_number   1
_chemical_formula_structural   SrLaCuO4
_chemical_formula_sum   'Sr1 La1 Cu1 O4'
_cell_volume   94.09842473
_cell_formula_units_Z   1
loop_
 _symmetry_equiv_pos_site_id
 _symmetry_equiv_pos_as_xyz
  1  'x, y, z'
loop_
 _atom_site_type_symbol
 _atom_site_label
 _atom_site_symmetry_multiplicity
 _atom_site_fract_x
 _atom_site_fract_y
 _atom_site_fract_z
 _atom_site_occupancy
  Sr  Sr0  1  0.63961800  0.63961800  0.00000000  1
  La  La1  1  0.36023300  0.36023300  0.00000000  1
  Cu  Cu2  1  0.00191500  0.00191500  0.00000000  1
  O  O3  1  0.99444300  0.49444300  0.50000000  1
  O  O4  1  0.49444300  0.99444300  0.50000000  1
  O  O5  1  0.83549700  0.83549700  0.00000000  1
  O  O6  1  0.17385100  0.17385100  0.00000000  1
