# generated using pymatgen
data_Sr4GaSn3
_symmetry_space_group_name_H-M   'P 1'
_cell_length_a   4.59920300
_cell_length_b   4.98662700
_cell_length_c   12.11825700
_cell_angle_alpha   90.00000000
_cell_angle_beta   90.00000000
_cell_angle_gamma   90.00000000
_symmetry_Int_Tables_number   1
_chemical_formula_structural   Sr4GaSn3
_chemical_formula_sum   'Sr4 Ga1 Sn3'
_cell_volume   277.92628463
_cell_formula_units_Z   1
loop_
 _symmetry_equiv_pos_site_id
 _symmetry_equiv_pos_as_xyz
  1  'x, y, z'
loop_
 _atom_site_type_symbol
 _atom_site_label
 _atom_site_symmetry_multiplicity
 _atom_site_fract_x
 _atom_site_fract_y
 _atom_site_fract_z
 _atom_site_occupancy
  Sr  Sr0  1  0.25000000  0.00000000  0.36057600  1
  Sr  Sr1  1  0.25000000  0.50000000  0.86481900  1
  Sr  Sr2  1  0.75000000  0.50000000  0.13506900  1
  Sr  Sr3  1  0.75000000  0.00000000  0.63774500  1
  Ga  Ga4  1  0.25000000  0.00000000  0.07382500  1
  Sn  Sn5  1  0.25000000  0.50000000  0.57742900  1
  Sn  Sn6  1  0.75000000  0.50000000  0.42208900  1
  Sn  Sn7  1  0.75000000  0.00000000  0.92844800  1
