# generated using pymatgen
data_SrCaZn2
_symmetry_space_group_name_H-M   'P 1'
_cell_length_a   4.46050100
_cell_length_b   6.27311900
_cell_length_c   8.43513300
_cell_angle_alpha   90.00000000
_cell_angle_beta   90.00000000
_cell_angle_gamma   90.00000000
_symmetry_Int_Tables_number   1
_chemical_formula_structural   SrCaZn2
_chemical_formula_sum   'Sr2 Ca2 Zn4'
_cell_volume   236.02559539
_cell_formula_units_Z   2
loop_
 _symmetry_equiv_pos_site_id
 _symmetry_equiv_pos_as_xyz
  1  'x, y, z'
loop_
 _atom_site_type_symbol
 _atom_site_label
 _atom_site_symmetry_multiplicity
 _atom_site_fract_x
 _atom_site_fract_y
 _atom_site_fract_z
 _atom_site_occupancy
  Sr  Sr0  1  0.50000000  0.36528300  0.32372200  1
  Sr  Sr1  1  0.50000000  0.63471700  0.82372200  1
  Ca  Ca2  1  0.00000000  0.12982200  0.68055700  1
  Ca  Ca3  1  0.00000000  0.87017800  0.18055700  1
  Zn  Zn4  1  0.00000000  0.65493300  0.52589600  1
  Zn  Zn5  1  0.00000000  0.34506700  0.02589600  1
  Zn  Zn6  1  0.50000000  0.86489500  0.46982500  1
  Zn  Zn7  1  0.50000000  0.13510500  0.96982500  1
