# generated using pymatgen
data_SrLaMn2O5
_symmetry_space_group_name_H-M   'P 1'
_cell_length_a   5.49510554
_cell_length_b   5.63764536
_cell_length_c   9.14175493
_cell_angle_alpha   72.16371999
_cell_angle_beta   72.58032295
_cell_angle_gamma   90.24962936
_symmetry_Int_Tables_number   1
_chemical_formula_structural   SrLaMn2O5
_chemical_formula_sum   'Sr2 La2 Mn4 O10'
_cell_volume   255.78776589
_cell_formula_units_Z   2
loop_
 _symmetry_equiv_pos_site_id
 _symmetry_equiv_pos_as_xyz
  1  'x, y, z'
loop_
 _atom_site_type_symbol
 _atom_site_label
 _atom_site_symmetry_multiplicity
 _atom_site_fract_x
 _atom_site_fract_y
 _atom_site_fract_z
 _atom_site_occupancy
  Sr  Sr0  1  0.88640300  0.37599100  0.22460700  1
  Sr  Sr1  1  0.61070600  0.10062300  0.77535400  1
  La  La2  1  0.10255500  0.63288600  0.77613600  1
  La  La3  1  0.37878900  0.90923000  0.22362900  1
  Mn  Mn4  1  0.72275200  0.69601600  0.49987400  1
  Mn  Mn5  1  0.20777900  0.30134600  0.50018500  1
  Mn  Mn6  1  0.50228400  0.50247600  0.00012900  1
  Mn  Mn7  1  0.00226800  0.00238400  0.00044800  1
  O  O8  1  0.33183600  0.66232400  0.49983400  1
  O  O9  1  0.83473900  0.35492600  0.49985200  1
  O  O10  1  0.37803600  0.29532500  0.26969200  1
  O  O11  1  0.14886200  0.06485100  0.72991600  1
  O  O12  1  0.67521200  0.67756400  0.73024100  1
  O  O13  1  0.90528000  0.90932700  0.27031500  1
  O  O14  1  0.76115600  0.25783400  0.98369500  1
  O  O15  1  0.24563100  0.74306400  0.01591500  1
  O  O16  1  0.73644100  0.74419700  0.02480000  1
  O  O17  1  0.26126900  0.26963500  0.97537800  1
