# generated using pymatgen
data_SrCdGa
_symmetry_space_group_name_H-M   'P 1'
_cell_length_a   6.26742535
_cell_length_b   6.26742535
_cell_length_c   7.96054557
_cell_angle_alpha   50.77538963
_cell_angle_beta   50.77538963
_cell_angle_gamma   46.00577652
_symmetry_Int_Tables_number   1
_chemical_formula_structural   SrCdGa
_chemical_formula_sum   'Sr2 Cd2 Ga2'
_cell_volume   163.46851715
_cell_formula_units_Z   2
loop_
 _symmetry_equiv_pos_site_id
 _symmetry_equiv_pos_as_xyz
  1  'x, y, z'
loop_
 _atom_site_type_symbol
 _atom_site_label
 _atom_site_symmetry_multiplicity
 _atom_site_fract_x
 _atom_site_fract_y
 _atom_site_fract_z
 _atom_site_occupancy
  Sr  Sr0  1  0.54340900  0.54340900  0.70851400  1
  Sr  Sr1  1  0.45659100  0.45659100  0.29148600  1
  Cd  Cd2  1  0.82625400  0.82625400  0.11309100  1
  Cd  Cd3  1  0.17374600  0.17374600  0.88690900  1
  Ga  Ga4  1  0.15197400  0.15197400  0.29967600  1
  Ga  Ga5  1  0.84802600  0.84802600  0.70032400  1
