# generated using pymatgen
data_SrLa3Mn2Cr2O12
_symmetry_space_group_name_H-M   'P 1'
_cell_length_a   5.54123344
_cell_length_b   5.54160821
_cell_length_c   9.62257052
_cell_angle_alpha   74.78493108
_cell_angle_beta   91.53574926
_cell_angle_gamma   60.14701467
_symmetry_Int_Tables_number   1
_chemical_formula_structural   SrLa3Mn2Cr2O12
_chemical_formula_sum   'Sr1 La3 Mn2 Cr2 O12'
_cell_volume   242.87634380
_cell_formula_units_Z   1
loop_
 _symmetry_equiv_pos_site_id
 _symmetry_equiv_pos_as_xyz
  1  'x, y, z'
loop_
 _atom_site_type_symbol
 _atom_site_label
 _atom_site_symmetry_multiplicity
 _atom_site_fract_x
 _atom_site_fract_y
 _atom_site_fract_z
 _atom_site_occupancy
  Sr  Sr0  1  0.87072200  0.25429600  0.62501200  1
  La  La1  1  0.37765700  0.24733800  0.12499700  1
  La  La2  1  0.12703800  0.74718900  0.37802800  1
  La  La3  1  0.62473200  0.75101900  0.87197200  1
  Mn  Mn4  1  0.25066600  0.49964100  0.74981800  1
  Mn  Mn5  1  0.50053900  0.99916600  0.50017300  1
  Cr  Cr6  1  0.74768300  0.50299700  0.25004600  1
  Cr  Cr7  1  0.99697600  0.00229400  0.99997200  1
  O  O8  1  0.80726000  0.81768800  0.12500200  1
  O  O9  1  0.32801400  0.79721700  0.62490000  1
  O  O10  1  0.16457200  0.25224800  0.34358400  1
  O  O11  1  0.64318400  0.25702900  0.84513000  1
  O  O12  1  0.64794800  0.70191500  0.40488100  1
  O  O13  1  0.15410800  0.67907800  0.90642200  1
  O  O14  1  0.33701700  0.74901300  0.16041400  1
  O  O15  1  0.84807800  0.74920500  0.65671200  1
  O  O16  1  0.84053700  0.32335200  0.08961600  1
  O  O17  1  0.34412500  0.30863400  0.59325100  1
  O  O18  1  0.69298600  0.18496900  0.36885000  1
  O  O19  1  0.19615900  0.17571100  0.88121800  1
