# generated using pymatgen
data_Y4AlSiNO8
_symmetry_space_group_name_H-M   'P 1'
_cell_length_a   10.49764700
_cell_length_b   7.66713500
_cell_length_c   10.99332744
_cell_angle_alpha   70.38549301
_cell_angle_beta   90.00000000
_cell_angle_gamma   90.00000000
_symmetry_Int_Tables_number   1
_chemical_formula_structural   Y4AlSiNO8
_chemical_formula_sum   'Y16 Al4 Si4 N4 O32'
_cell_volume   833.47476915
_cell_formula_units_Z   4
loop_
 _symmetry_equiv_pos_site_id
 _symmetry_equiv_pos_as_xyz
  1  'x, y, z'
loop_
 _atom_site_type_symbol
 _atom_site_label
 _atom_site_symmetry_multiplicity
 _atom_site_fract_x
 _atom_site_fract_y
 _atom_site_fract_z
 _atom_site_occupancy
  Y  Y0  1  0.62000600  0.17364700  0.93048600  1
  Y  Y1  1  0.12000600  0.82635300  0.56951400  1
  Y  Y2  1  0.37999400  0.82635300  0.06951400  1
  Y  Y3  1  0.87999400  0.17364700  0.43048600  1
  Y  Y4  1  0.62691000  0.65610500  0.91954700  1
  Y  Y5  1  0.12691000  0.34389500  0.58045300  1
  Y  Y6  1  0.37309000  0.34389500  0.08045300  1
  Y  Y7  1  0.87309000  0.65610500  0.41954700  1
  Y  Y8  1  0.90929100  0.47020100  0.80838600  1
  Y  Y9  1  0.40929100  0.52979900  0.69161400  1
  Y  Y10  1  0.09070900  0.52979900  0.19161400  1
  Y  Y11  1  0.59070900  0.47020100  0.30838600  1
  Y  Y12  1  0.89933200  0.97988300  0.78002700  1
  Y  Y13  1  0.39933200  0.02011700  0.71997300  1
  Y  Y14  1  0.10066800  0.02011700  0.21997300  1
  Y  Y15  1  0.60066800  0.97988300  0.28002700  1
  Al  Al16  1  0.68581800  0.26467300  0.63085500  1
  Al  Al17  1  0.18581800  0.73532700  0.86914500  1
  Al  Al18  1  0.31418200  0.73532700  0.36914500  1
  Al  Al19  1  0.81418200  0.26467300  0.13085500  1
  Si  Si20  1  0.68341000  0.84661200  0.61496900  1
  Si  Si21  1  0.18341000  0.15338800  0.88503100  1
  Si  Si22  1  0.31659000  0.15338800  0.38503100  1
  Si  Si23  1  0.81659000  0.84661200  0.11496900  1
  N  N24  1  0.74392000  0.05098000  0.61242300  1
  N  N25  1  0.24392000  0.94902000  0.88757700  1
  N  N26  1  0.25608000  0.94902000  0.38757700  1
  N  N27  1  0.75608000  0.05098000  0.11242300  1
  O  O28  1  0.52594300  0.28354000  0.67555700  1
  O  O29  1  0.02594300  0.71646000  0.82444300  1
  O  O30  1  0.47405700  0.71646000  0.32444300  1
  O  O31  1  0.97405700  0.28354000  0.17555700  1
  O  O32  1  0.53218500  0.80436900  0.66353400  1
  O  O33  1  0.03218500  0.19563100  0.83646600  1
  O  O34  1  0.46781500  0.19563100  0.33646600  1
  O  O35  1  0.96781500  0.80436900  0.16353400  1
  O  O36  1  0.77623400  0.25605400  0.77154300  1
  O  O37  1  0.27623400  0.74394600  0.72845700  1
  O  O38  1  0.22376600  0.74394600  0.22845700  1
  O  O39  1  0.72376600  0.25605400  0.27154300  1
  O  O40  1  0.76200500  0.69293700  0.73583800  1
  O  O41  1  0.26200500  0.30706300  0.76416200  1
  O  O42  1  0.23799500  0.30706300  0.26416200  1
  O  O43  1  0.73799500  0.69293700  0.23583800  1
  O  O44  1  0.73086900  0.42397000  0.47990500  1
  O  O45  1  0.23086900  0.57603000  0.02009500  1
  O  O46  1  0.26913100  0.57603000  0.52009500  1
  O  O47  1  0.76913100  0.42397000  0.97990500  1
  O  O48  1  0.70624600  0.82356200  0.47256200  1
  O  O49  1  0.20624600  0.17643800  0.02743800  1
  O  O50  1  0.29375400  0.17643800  0.52743800  1
  O  O51  1  0.79375400  0.82356200  0.97256200  1
  O  O52  1  0.99516500  0.56803100  0.60615500  1
  O  O53  1  0.49516500  0.43196900  0.89384500  1
  O  O54  1  0.00483500  0.43196900  0.39384500  1
  O  O55  1  0.50483500  0.56803100  0.10615500  1
  O  O56  1  0.02312200  0.07398100  0.60194800  1
  O  O57  1  0.52312200  0.92601900  0.89805200  1
  O  O58  1  0.97687800  0.92601900  0.39805200  1
  O  O59  1  0.47687800  0.07398100  0.10194800  1
