# generated using pymatgen
data_Sr3CaAl8
_symmetry_space_group_name_H-M   'P 1'
_cell_length_a   9.96800348
_cell_length_b   9.96800348
_cell_length_c   9.96800361
_cell_angle_alpha   34.16061461
_cell_angle_beta   34.16061461
_cell_angle_gamma   34.16061172
_symmetry_Int_Tables_number   1
_chemical_formula_structural   Sr3CaAl8
_chemical_formula_sum   'Sr3 Ca1 Al8'
_cell_volume   278.43519803
_cell_formula_units_Z   1
loop_
 _symmetry_equiv_pos_site_id
 _symmetry_equiv_pos_as_xyz
  1  'x, y, z'
loop_
 _atom_site_type_symbol
 _atom_site_label
 _atom_site_symmetry_multiplicity
 _atom_site_fract_x
 _atom_site_fract_y
 _atom_site_fract_z
 _atom_site_occupancy
  Sr  Sr0  1  0.56205200  0.56205200  0.56205200  1
  Sr  Sr1  1  0.43727400  0.43727400  0.43727400  1
  Sr  Sr2  1  0.93847500  0.93847500  0.93847500  1
  Ca  Ca3  1  0.06251600  0.06251600  0.06251600  1
  Al  Al4  1  0.75011700  0.75011700  0.75011700  1
  Al  Al5  1  0.24977500  0.24977500  0.24977500  1
  Al  Al6  1  0.00127000  0.50059100  0.50059100  1
  Al  Al7  1  0.49786700  0.99973500  0.99973500  1
  Al  Al8  1  0.50059100  0.00127000  0.50059100  1
  Al  Al9  1  0.99973500  0.49786700  0.99973500  1
  Al  Al10  1  0.50059100  0.50059100  0.00127000  1
  Al  Al11  1  0.99973500  0.99973500  0.49786700  1
