# generated using pymatgen
data_SrEuTe2
_symmetry_space_group_name_H-M   'P 1'
_cell_length_a   8.17255097
_cell_length_b   8.17255097
_cell_length_c   8.17255044
_cell_angle_alpha   33.56595190
_cell_angle_beta   33.56595190
_cell_angle_gamma   33.56594672
_symmetry_Int_Tables_number   1
_chemical_formula_structural   SrEuTe2
_chemical_formula_sum   'Sr1 Eu1 Te2'
_cell_volume   148.63107192
_cell_formula_units_Z   1
loop_
 _symmetry_equiv_pos_site_id
 _symmetry_equiv_pos_as_xyz
  1  'x, y, z'
loop_
 _atom_site_type_symbol
 _atom_site_label
 _atom_site_symmetry_multiplicity
 _atom_site_fract_x
 _atom_site_fract_y
 _atom_site_fract_z
 _atom_site_occupancy
  Sr  Sr0  1  0.50000000  0.50000000  0.50000000  1
  Eu  Eu1  1  0.00000000  0.00000000  0.00000000  1
  Te  Te2  1  0.25077600  0.25077600  0.25077600  1
  Te  Te3  1  0.74922400  0.74922400  0.74922400  1
