# generated using pymatgen
data_Sr3Zr2Nb2O12
_symmetry_space_group_name_H-M   'P 1'
_cell_length_a   9.99009321
_cell_length_b   9.99009321
_cell_length_c   9.99009290
_cell_angle_alpha   34.00630162
_cell_angle_beta   34.00630162
_cell_angle_gamma   34.00630223
_symmetry_Int_Tables_number   1
_chemical_formula_structural   Sr3Zr2Nb2O12
_chemical_formula_sum   'Sr3 Zr2 Nb2 O12'
_cell_volume   277.99634368
_cell_formula_units_Z   1
loop_
 _symmetry_equiv_pos_site_id
 _symmetry_equiv_pos_as_xyz
  1  'x, y, z'
loop_
 _atom_site_type_symbol
 _atom_site_label
 _atom_site_symmetry_multiplicity
 _atom_site_fract_x
 _atom_site_fract_y
 _atom_site_fract_z
 _atom_site_occupancy
  Sr  Sr0  1  0.75134500  0.75134500  0.75134500  1
  Sr  Sr1  1  0.00000000  0.00000000  0.00000000  1
  Sr  Sr2  1  0.24865500  0.24865500  0.24865500  1
  Zr  Zr3  1  0.37768400  0.37768400  0.37768400  1
  Zr  Zr4  1  0.62231600  0.62231600  0.62231600  1
  Nb  Nb5  1  0.87308300  0.87308300  0.87308300  1
  Nb  Nb6  1  0.12691700  0.12691700  0.12691700  1
  O  O7  1  0.76011500  0.76011500  0.23020600  1
  O  O8  1  0.50000000  0.50000000  0.00000000  1
  O  O9  1  0.23988500  0.23988500  0.76979400  1
  O  O10  1  0.00000000  0.00000000  0.50000000  1
  O  O11  1  0.76979400  0.23988500  0.23988500  1
  O  O12  1  0.50000000  0.00000000  0.00000000  1
  O  O13  1  0.23020600  0.76011500  0.76011500  1
  O  O14  1  0.00000000  0.50000000  0.50000000  1
  O  O15  1  0.23988500  0.76979400  0.23988500  1
  O  O16  1  0.00000000  0.50000000  0.00000000  1
  O  O17  1  0.76011500  0.23020600  0.76011500  1
  O  O18  1  0.50000000  0.00000000  0.50000000  1
