# generated using pymatgen
data_KCu2GeS4
_symmetry_space_group_name_H-M   'P 1'
_cell_length_a   6.17930339
_cell_length_b   6.17930339
_cell_length_c   6.17930339
_cell_angle_alpha   119.16719091
_cell_angle_beta   119.16719091
_cell_angle_gamma   91.44862363
_symmetry_Int_Tables_number   1
_chemical_formula_structural   KCu2GeS4
_chemical_formula_sum   'K1 Cu2 Ge1 S4'
_cell_volume   168.88306211
_cell_formula_units_Z   1
loop_
 _symmetry_equiv_pos_site_id
 _symmetry_equiv_pos_as_xyz
  1  'x, y, z'
loop_
 _atom_site_type_symbol
 _atom_site_label
 _atom_site_symmetry_multiplicity
 _atom_site_fract_x
 _atom_site_fract_y
 _atom_site_fract_z
 _atom_site_occupancy
  K  K0  1  0.50000000  0.50000000  0.00000000  1
  Cu  Cu1  1  0.75000000  0.25000000  0.50000000  1
  Cu  Cu2  1  0.25000000  0.75000000  0.50000000  1
  Ge  Ge3  1  0.00000000  0.00000000  0.00000000  1
  S  S4  1  0.35975000  0.95849100  0.00000000  1
  S  S5  1  0.95849100  0.35975000  0.00000000  1
  S  S6  1  0.64025000  0.64025000  0.59874100  1
  S  S7  1  0.04150900  0.04150900  0.40125900  1
