# generated using pymatgen
data_Sr4LaMn5O13
_symmetry_space_group_name_H-M   'P 1'
_cell_length_a   3.89392000
_cell_length_b   8.79578200
_cell_length_c   8.84320814
_cell_angle_alpha   89.39368363
_cell_angle_beta   90.00000000
_cell_angle_gamma   90.00000000
_symmetry_Int_Tables_number   1
_chemical_formula_structural   Sr4LaMn5O13
_chemical_formula_sum   'Sr4 La1 Mn5 O13'
_cell_volume   302.86355202
_cell_formula_units_Z   1
loop_
 _symmetry_equiv_pos_site_id
 _symmetry_equiv_pos_as_xyz
  1  'x, y, z'
loop_
 _atom_site_type_symbol
 _atom_site_label
 _atom_site_symmetry_multiplicity
 _atom_site_fract_x
 _atom_site_fract_y
 _atom_site_fract_z
 _atom_site_occupancy
  Sr  Sr0  1  0.50000000  0.88769800  0.28459200  1
  Sr  Sr1  1  0.50000000  0.11679300  0.71724600  1
  Sr  Sr2  1  0.50000000  0.28033500  0.11750300  1
  Sr  Sr3  1  0.50000000  0.49617200  0.49715400  1
  La  La4  1  0.50000000  0.72203900  0.88303800  1
  Mn  Mn5  1  0.00000000  0.00262800  0.00094100  1
  Mn  Mn6  1  0.00000000  0.80330000  0.59201600  1
  Mn  Mn7  1  0.00000000  0.19630900  0.40551400  1
  Mn  Mn8  1  0.00000000  0.59590700  0.19370500  1
  Mn  Mn9  1  0.00000000  0.40312100  0.80681300  1
  O  O10  1  0.00000000  0.77627700  0.06010400  1
  O  O11  1  0.00000000  0.21782300  0.92772800  1
  O  O12  1  0.00000000  0.07115700  0.22546200  1
  O  O13  1  0.00000000  0.91961000  0.77816600  1
  O  O14  1  0.50000000  0.58481600  0.15264900  1
  O  O15  1  0.50000000  0.42826200  0.83995400  1
  O  O16  1  0.50000000  0.82839300  0.58539600  1
  O  O17  1  0.50000000  0.16728700  0.42303700  1
  O  O18  1  0.00000000  0.60798200  0.72559100  1
  O  O19  1  0.00000000  0.39949300  0.28680200  1
  O  O20  1  0.00000000  0.70791800  0.39718400  1
  O  O21  1  0.00000000  0.29448000  0.60204900  1
  O  O22  1  0.50000000  0.99219900  0.99735800  1
