# generated using pymatgen
data_Sr4Cu3NiO8
_symmetry_space_group_name_H-M   'P 1'
_cell_length_a   8.37028340
_cell_length_b   8.37028340
_cell_length_c   7.87623200
_cell_angle_alpha   90.00000000
_cell_angle_beta   90.00000000
_cell_angle_gamma   154.87354073
_symmetry_Int_Tables_number   1
_chemical_formula_structural   Sr4Cu3NiO8
_chemical_formula_sum   'Sr4 Cu3 Ni1 O8'
_cell_volume   234.31321677
_cell_formula_units_Z   1
loop_
 _symmetry_equiv_pos_site_id
 _symmetry_equiv_pos_as_xyz
  1  'x, y, z'
loop_
 _atom_site_type_symbol
 _atom_site_label
 _atom_site_symmetry_multiplicity
 _atom_site_fract_x
 _atom_site_fract_y
 _atom_site_fract_z
 _atom_site_occupancy
  Sr  Sr0  1  0.33246400  0.66753600  0.50000000  1
  Sr  Sr1  1  0.33267100  0.66732900  0.00000000  1
  Sr  Sr2  1  0.66838500  0.33161500  0.74838900  1
  Sr  Sr3  1  0.66838500  0.33161500  0.25161100  1
  Cu  Cu4  1  0.06260000  0.93740000  0.00000000  1
  Cu  Cu5  1  0.93799500  0.06200500  0.74916300  1
  Cu  Cu6  1  0.93799500  0.06200500  0.25083700  1
  Ni  Ni7  1  0.06157200  0.93842800  0.50000000  1
  O  O8  1  0.94441800  0.05558200  0.50000000  1
  O  O9  1  0.94448900  0.05551000  0.00000000  1
  O  O10  1  0.05463700  0.94536300  0.74781300  1
  O  O11  1  0.05463700  0.94536300  0.25218700  1
  O  O12  1  0.17893700  0.82106300  0.50000000  1
  O  O13  1  0.17990700  0.82009300  0.00000000  1
  O  O14  1  0.82045300  0.17954700  0.75018000  1
  O  O15  1  0.82045300  0.17954700  0.24982000  1
