# generated using pymatgen
data_Sr3Nd4O9
_symmetry_space_group_name_H-M   'P 1'
_cell_length_a   6.88516595
_cell_length_b   6.88516595
_cell_length_c   13.26985300
_cell_angle_alpha   68.38414496
_cell_angle_beta   68.38414496
_cell_angle_gamma   63.34428672
_symmetry_Int_Tables_number   1
_chemical_formula_structural   Sr3Nd4O9
_chemical_formula_sum   'Sr6 Nd8 O18'
_cell_volume   506.81049953
_cell_formula_units_Z   2
loop_
 _symmetry_equiv_pos_site_id
 _symmetry_equiv_pos_as_xyz
  1  'x, y, z'
loop_
 _atom_site_type_symbol
 _atom_site_label
 _atom_site_symmetry_multiplicity
 _atom_site_fract_x
 _atom_site_fract_y
 _atom_site_fract_z
 _atom_site_occupancy
  Sr  Sr0  1  0.63313800  0.35655000  0.38139000  1
  Sr  Sr1  1  0.35655000  0.63313800  0.88139000  1
  Sr  Sr2  1  0.03827500  0.15433900  0.72671000  1
  Sr  Sr3  1  0.15433900  0.03827500  0.22671000  1
  Sr  Sr4  1  0.16018500  0.83439200  0.50043500  1
  Sr  Sr5  1  0.83439200  0.16018500  0.00043500  1
  Nd  Nd6  1  0.58863500  0.85379200  0.58559100  1
  Nd  Nd7  1  0.85379200  0.58863500  0.08559100  1
  Nd  Nd8  1  0.91164100  0.66939600  0.79130400  1
  Nd  Nd9  1  0.66939600  0.91164100  0.29130400  1
  Nd  Nd10  1  0.03876200  0.43789800  0.44936900  1
  Nd  Nd11  1  0.43789800  0.03876200  0.94936900  1
  Nd  Nd12  1  0.32912100  0.50641000  0.16837800  1
  Nd  Nd13  1  0.50641000  0.32912100  0.66837800  1
  O  O14  1  0.94184500  0.83746900  0.90661800  1
  O  O15  1  0.83746900  0.94184500  0.40661800  1
  O  O16  1  0.13535500  0.29767600  0.84848100  1
  O  O17  1  0.29767600  0.13535500  0.34848100  1
  O  O18  1  0.16281400  0.88382400  0.07913300  1
  O  O19  1  0.88382400  0.16281400  0.57913300  1
  O  O20  1  0.36249600  0.23800900  0.55780900  1
  O  O21  1  0.23800900  0.36249600  0.05780900  1
  O  O22  1  0.62103100  0.29161800  0.82425800  1
  O  O23  1  0.29161800  0.62103100  0.32425800  1
  O  O24  1  0.54207200  0.92802000  0.76581100  1
  O  O25  1  0.92802000  0.54207200  0.26581100  1
  O  O26  1  0.63011600  0.60002900  0.97999900  1
  O  O27  1  0.60002900  0.63011600  0.47999900  1
  O  O28  1  0.92764000  0.59192300  0.62321900  1
  O  O29  1  0.59192300  0.92764000  0.12321900  1
  O  O30  1  0.27246200  0.72366800  0.68849600  1
  O  O31  1  0.72366800  0.27246200  0.18849600  1
