# generated using pymatgen
data_SrAl12O19
_symmetry_space_group_name_H-M   'P 1'
_cell_length_a   5.61897827
_cell_length_b   5.61897827
_cell_length_c   22.17953600
_cell_angle_alpha   90.00000000
_cell_angle_beta   90.00000000
_cell_angle_gamma   120.00000315
_symmetry_Int_Tables_number   1
_chemical_formula_structural   SrAl12O19
_chemical_formula_sum   'Sr2 Al24 O38'
_cell_volume   606.45388013
_cell_formula_units_Z   2
loop_
 _symmetry_equiv_pos_site_id
 _symmetry_equiv_pos_as_xyz
  1  'x, y, z'
loop_
 _atom_site_type_symbol
 _atom_site_label
 _atom_site_symmetry_multiplicity
 _atom_site_fract_x
 _atom_site_fract_y
 _atom_site_fract_z
 _atom_site_occupancy
  Sr  Sr0  1  0.33333300  0.66666700  0.74894600  1
  Sr  Sr1  1  0.66666700  0.33333300  0.24894600  1
  Al  Al2  1  0.66666700  0.33333300  0.52854600  1
  Al  Al3  1  0.33333300  0.66666700  0.47207700  1
  Al  Al4  1  0.33333300  0.66666700  0.02854600  1
  Al  Al5  1  0.66666700  0.33333300  0.97207700  1
  Al  Al6  1  0.66666700  0.33333300  0.69029100  1
  Al  Al7  1  0.33333300  0.66666700  0.30939900  1
  Al  Al8  1  0.33333300  0.66666700  0.19029100  1
  Al  Al9  1  0.66666700  0.33333300  0.80939900  1
  Al  Al10  1  0.00000000  0.00000000  0.50039700  1
  Al  Al11  1  0.00000000  0.00000000  0.00039700  1
  Al  Al12  1  0.83082000  0.66163900  0.39185600  1
  Al  Al13  1  0.83082000  0.16918000  0.39185600  1
  Al  Al14  1  0.33836100  0.16918000  0.39185600  1
  Al  Al15  1  0.16764900  0.33529800  0.60907400  1
  Al  Al16  1  0.16764900  0.83235100  0.60907400  1
  Al  Al17  1  0.66470200  0.83235100  0.60907400  1
  Al  Al18  1  0.16918000  0.33836100  0.89185600  1
  Al  Al19  1  0.16918000  0.83082000  0.89185600  1
  Al  Al20  1  0.66163900  0.83082000  0.89185600  1
  Al  Al21  1  0.83235100  0.66470200  0.10907400  1
  Al  Al22  1  0.83235100  0.16764900  0.10907400  1
  Al  Al23  1  0.33529800  0.16764900  0.10907400  1
  Al  Al24  1  0.00000000  0.00000000  0.75858500  1
  Al  Al25  1  0.00000000  0.00000000  0.25858500  1
  O  O26  1  0.33333300  0.66666700  0.55429700  1
  O  O27  1  0.66666700  0.33333300  0.44572900  1
  O  O28  1  0.66666700  0.33333300  0.05429700  1
  O  O29  1  0.33333300  0.66666700  0.94572900  1
  O  O30  1  0.81882700  0.63765400  0.75075600  1
  O  O31  1  0.81882700  0.18117300  0.75075600  1
  O  O32  1  0.36234600  0.18117300  0.75075600  1
  O  O33  1  0.18117300  0.36234600  0.25075600  1
  O  O34  1  0.18117300  0.81882700  0.25075600  1
  O  O35  1  0.63765400  0.81882700  0.25075600  1
  O  O36  1  0.49783400  0.99566900  0.64828300  1
  O  O37  1  0.49783400  0.50216600  0.64828300  1
  O  O38  1  0.00433100  0.50216600  0.64828300  1
  O  O39  1  0.50258700  0.00517400  0.35201300  1
  O  O40  1  0.50258700  0.49741300  0.35201300  1
  O  O41  1  0.99482600  0.49741300  0.35201300  1
  O  O42  1  0.50216600  0.00433100  0.14828300  1
  O  O43  1  0.50216600  0.49783400  0.14828300  1
  O  O44  1  0.99566900  0.49783400  0.14828300  1
  O  O45  1  0.49741300  0.99482600  0.85201300  1
  O  O46  1  0.49741300  0.50258700  0.85201300  1
  O  O47  1  0.00517400  0.50258700  0.85201300  1
  O  O48  1  0.84472400  0.68944800  0.55143500  1
  O  O49  1  0.84472400  0.15527600  0.55143500  1
  O  O50  1  0.31055200  0.15527600  0.55143500  1
  O  O51  1  0.15454900  0.30909800  0.44776700  1
  O  O52  1  0.15454900  0.84545100  0.44776700  1
  O  O53  1  0.69090200  0.84545100  0.44776700  1
  O  O54  1  0.15527600  0.31055200  0.05143500  1
  O  O55  1  0.15527600  0.84472400  0.05143500  1
  O  O56  1  0.68944800  0.84472400  0.05143500  1
  O  O57  1  0.84545100  0.69090200  0.94776700  1
  O  O58  1  0.84545100  0.15454900  0.94776700  1
  O  O59  1  0.30909800  0.15454900  0.94776700  1
  O  O60  1  0.00000000  0.00000000  0.64765000  1
  O  O61  1  0.00000000  0.00000000  0.35013100  1
  O  O62  1  0.00000000  0.00000000  0.14765000  1
  O  O63  1  0.00000000  0.00000000  0.85013100  1
