# generated using pymatgen
data_Sr4MgTiFe2(AsO3)2
_symmetry_space_group_name_H-M   'P 1'
_cell_length_a   4.01536300
_cell_length_b   4.01536300
_cell_length_c   16.83734300
_cell_angle_alpha   90.00000000
_cell_angle_beta   90.00000000
_cell_angle_gamma   90.00000000
_symmetry_Int_Tables_number   1
_chemical_formula_structural   Sr4MgTiFe2(AsO3)2
_chemical_formula_sum   'Sr4 Mg1 Ti1 Fe2 As2 O6'
_cell_volume   271.47083878
_cell_formula_units_Z   1
loop_
 _symmetry_equiv_pos_site_id
 _symmetry_equiv_pos_as_xyz
  1  'x, y, z'
loop_
 _atom_site_type_symbol
 _atom_site_label
 _atom_site_symmetry_multiplicity
 _atom_site_fract_x
 _atom_site_fract_y
 _atom_site_fract_z
 _atom_site_occupancy
  Sr  Sr0  1  0.00000000  0.00000000  0.79111400  1
  Sr  Sr1  1  0.50000000  0.50000000  0.19486400  1
  Sr  Sr2  1  0.00000000  0.00000000  0.59948000  1
  Sr  Sr3  1  0.50000000  0.50000000  0.42632700  1
  Mg  Mg4  1  0.50000000  0.50000000  0.68346100  1
  Ti  Ti5  1  0.00000000  0.00000000  0.31136700  1
  Fe  Fe6  1  0.00000000  0.50000000  0.00418400  1
  Fe  Fe7  1  0.50000000  0.00000000  0.00418400  1
  As  As8  1  0.50000000  0.50000000  0.90858100  1
  As  As9  1  0.00000000  0.00000000  0.10511500  1
  O  O10  1  0.00000000  0.50000000  0.70352100  1
  O  O11  1  0.50000000  0.00000000  0.70352100  1
  O  O12  1  0.50000000  0.00000000  0.29338300  1
  O  O13  1  0.00000000  0.50000000  0.29338300  1
  O  O14  1  0.50000000  0.50000000  0.55950300  1
  O  O15  1  0.00000000  0.00000000  0.41801200  1
