# generated using pymatgen
data_Sr3PrMn4O12
_symmetry_space_group_name_H-M   'P 1'
_cell_length_a   6.72794871
_cell_length_b   6.72794871
_cell_length_c   6.72794871
_cell_angle_alpha   109.47122063
_cell_angle_beta   109.47122063
_cell_angle_gamma   109.47122063
_symmetry_Int_Tables_number   1
_chemical_formula_structural   Sr3PrMn4O12
_chemical_formula_sum   'Sr3 Pr1 Mn4 O12'
_cell_volume   234.43698401
_cell_formula_units_Z   1
loop_
 _symmetry_equiv_pos_site_id
 _symmetry_equiv_pos_as_xyz
  1  'x, y, z'
loop_
 _atom_site_type_symbol
 _atom_site_label
 _atom_site_symmetry_multiplicity
 _atom_site_fract_x
 _atom_site_fract_y
 _atom_site_fract_z
 _atom_site_occupancy
  Sr  Sr0  1  0.50000000  0.50000000  0.00000000  1
  Sr  Sr1  1  0.00000000  0.50000000  0.50000000  1
  Sr  Sr2  1  0.50000000  0.00000000  0.50000000  1
  Pr  Pr3  1  0.00000000  0.00000000  0.00000000  1
  Mn  Mn4  1  0.00000000  0.00000000  0.50000000  1
  Mn  Mn5  1  0.50000000  0.50000000  0.50000000  1
  Mn  Mn6  1  0.50000000  0.00000000  0.00000000  1
  Mn  Mn7  1  0.00000000  0.50000000  0.00000000  1
  O  O8  1  0.49036100  0.24518100  0.24518100  1
  O  O9  1  0.00000000  0.75481900  0.24518100  1
  O  O10  1  0.00000000  0.24518100  0.75481900  1
  O  O11  1  0.50963900  0.75481900  0.75481900  1
  O  O12  1  0.75481900  0.50963900  0.75481900  1
  O  O13  1  0.24518100  0.00000000  0.75481900  1
  O  O14  1  0.24518100  0.49036100  0.24518100  1
  O  O15  1  0.75481900  0.00000000  0.24518100  1
  O  O16  1  0.75481900  0.75481900  0.50963900  1
  O  O17  1  0.24518100  0.24518100  0.49036100  1
  O  O18  1  0.24518100  0.75481900  0.00000000  1
  O  O19  1  0.75481900  0.24518100  0.00000000  1
