data_image0
_chemical_formula_structural       Cr3P3Ti3
_chemical_formula_sum              "Cr3 P3 Ti3"
_cell_length_a       6.3981
_cell_length_b       6.3981
_cell_length_c       3.23939
_cell_angle_alpha    90
_cell_angle_beta     90
_cell_angle_gamma    119.999

_space_group_name_H-M_alt    "P 1"
_space_group_IT_number       1

loop_
  _space_group_symop_operation_xyz
  'x, y, z'

loop_
  _atom_site_type_symbol
  _atom_site_label
  _atom_site_symmetry_multiplicity
  _atom_site_fract_x
  _atom_site_fract_y
  _atom_site_fract_z
  _atom_site_occupancy
  Cr  Cr1       1.0  0.25400  0.00001  0.00000  1.0000
  Cr  Cr2       1.0  0.00001  0.25400  0.00000  1.0000
  Cr  Cr3       1.0  0.74600  0.74600  0.00000  1.0000
  P   P1        1.0  0.66700  0.33300  0.00000  1.0000
  P   P2        1.0  0.33300  0.66700  0.00000  1.0000
  P   P3        1.0  0.00001  0.00001  0.50000  1.0000
  Ti  Ti1       1.0  0.59400  0.00003  0.50000  1.0000
  Ti  Ti2       1.0  0.40600  0.40600  0.50000  1.0000
  Ti  Ti3       1.0  0.00003  0.59400  0.50000  1.0000
