# generated using pymatgen
data_Sr3CaHf4O12
_symmetry_space_group_name_H-M   'P 1'
_cell_length_a   8.20083300
_cell_length_b   5.74993000
_cell_length_c   5.81383874
_cell_angle_alpha   89.95568175
_cell_angle_beta   90.00000000
_cell_angle_gamma   90.00000000
_symmetry_Int_Tables_number   1
_chemical_formula_structural   Sr3CaHf4O12
_chemical_formula_sum   'Sr3 Ca1 Hf4 O12'
_cell_volume   274.14692389
_cell_formula_units_Z   1
loop_
 _symmetry_equiv_pos_site_id
 _symmetry_equiv_pos_as_xyz
  1  'x, y, z'
loop_
 _atom_site_type_symbol
 _atom_site_label
 _atom_site_symmetry_multiplicity
 _atom_site_fract_x
 _atom_site_fract_y
 _atom_site_fract_z
 _atom_site_occupancy
  Sr  Sr0  1  0.50000000  0.00375100  0.02961600  1
  Sr  Sr1  1  0.00000000  0.50694600  0.47307800  1
  Sr  Sr2  1  0.00000000  0.99287700  0.96652000  1
  Ca  Ca3  1  0.50000000  0.50195600  0.53882600  1
  Hf  Hf4  1  0.25251200  0.99990100  0.49914800  1
  Hf  Hf5  1  0.74802600  0.50024500  0.00113700  1
  Hf  Hf6  1  0.74748800  0.99990100  0.49914800  1
  Hf  Hf7  1  0.25197400  0.50024500  0.00113700  1
  O  O8  1  0.50000000  0.56501600  0.96358400  1
  O  O9  1  0.50000000  0.91368300  0.48479900  1
  O  O10  1  0.00000000  0.43286800  0.02223600  1
  O  O11  1  0.00000000  0.06384500  0.50900900  1
  O  O12  1  0.28232700  0.20911700  0.79056000  1
  O  O13  1  0.70313900  0.29725300  0.29725000  1
  O  O14  1  0.78200400  0.79263800  0.20743700  1
  O  O15  1  0.21620600  0.71037400  0.71063400  1
  O  O16  1  0.21799600  0.79263800  0.20743700  1
  O  O17  1  0.78379400  0.71037400  0.71063400  1
  O  O18  1  0.71767300  0.20911700  0.79056000  1
  O  O19  1  0.29686100  0.29725300  0.29725000  1
