# generated using pymatgen
data_Sr3CaV4O12
_symmetry_space_group_name_H-M   'P 1'
_cell_length_a   3.90625900
_cell_length_b   5.49875200
_cell_length_c   10.99415900
_cell_angle_alpha   90.00000000
_cell_angle_beta   90.00000000
_cell_angle_gamma   90.00000000
_symmetry_Int_Tables_number   1
_chemical_formula_structural   Sr3CaV4O12
_chemical_formula_sum   'Sr3 Ca1 V4 O12'
_cell_volume   236.14958233
_cell_formula_units_Z   1
loop_
 _symmetry_equiv_pos_site_id
 _symmetry_equiv_pos_as_xyz
  1  'x, y, z'
loop_
 _atom_site_type_symbol
 _atom_site_label
 _atom_site_symmetry_multiplicity
 _atom_site_fract_x
 _atom_site_fract_y
 _atom_site_fract_z
 _atom_site_occupancy
  Sr  Sr0  1  0.50000000  0.00000000  0.24921100  1
  Sr  Sr1  1  0.50000000  0.50000000  0.50000000  1
  Sr  Sr2  1  0.50000000  0.00000000  0.75078900  1
  Ca  Ca3  1  0.50000000  0.50000000  0.00000000  1
  V  V4  1  0.00000000  0.00000000  0.50000000  1
  V  V5  1  0.00000000  0.50000000  0.75215000  1
  V  V6  1  0.00000000  0.00000000  0.00000000  1
  V  V7  1  0.00000000  0.50000000  0.24785000  1
  O  O8  1  0.00000000  0.24928800  0.62511400  1
  O  O9  1  0.00000000  0.74696600  0.87584300  1
  O  O10  1  0.00000000  0.25303400  0.12415700  1
  O  O11  1  0.00000000  0.75071200  0.37488600  1
  O  O12  1  0.00000000  0.24928800  0.37488600  1
  O  O13  1  0.00000000  0.75071200  0.62511400  1
  O  O14  1  0.00000000  0.25303400  0.87584300  1
  O  O15  1  0.00000000  0.74696600  0.12415700  1
  O  O16  1  0.50000000  0.00000000  0.50000000  1
  O  O17  1  0.50000000  0.50000000  0.75194800  1
  O  O18  1  0.50000000  0.00000000  0.00000000  1
  O  O19  1  0.50000000  0.50000000  0.24805200  1
