# generated using pymatgen
data_Sr6MgMo3O14
_symmetry_space_group_name_H-M   'P 1'
_cell_length_a   10.84216331
_cell_length_b   10.84216331
_cell_length_c   5.67492400
_cell_angle_alpha   90.00000000
_cell_angle_beta   90.00000000
_cell_angle_gamma   149.38009756
_symmetry_Int_Tables_number   1
_chemical_formula_structural   Sr6MgMo3O14
_chemical_formula_sum   'Sr6 Mg1 Mo3 O14'
_cell_volume   339.78174514
_cell_formula_units_Z   1
loop_
 _symmetry_equiv_pos_site_id
 _symmetry_equiv_pos_as_xyz
  1  'x, y, z'
loop_
 _atom_site_type_symbol
 _atom_site_label
 _atom_site_symmetry_multiplicity
 _atom_site_fract_x
 _atom_site_fract_y
 _atom_site_fract_z
 _atom_site_occupancy
  Sr  Sr0  1  0.49831400  0.50168600  0.00000000  1
  Sr  Sr1  1  0.99794900  0.00205100  0.50000000  1
  Sr  Sr2  1  0.68566100  0.31433900  0.00000000  1
  Sr  Sr3  1  0.18912500  0.81087500  0.50000000  1
  Sr  Sr4  1  0.81433600  0.18566400  0.50000000  1
  Sr  Sr5  1  0.31529100  0.68470900  0.00000000  1
  Mg  Mg6  1  0.40092500  0.59907500  0.50000000  1
  Mo  Mo7  1  0.90151200  0.09848800  0.00000000  1
  Mo  Mo8  1  0.09988400  0.90011600  0.00000000  1
  Mo  Mo9  1  0.59687600  0.40312400  0.50000000  1
  O  O10  1  0.66390400  0.85869600  0.76068100  1
  O  O11  1  0.14130400  0.33609600  0.23931900  1
  O  O12  1  0.14130400  0.33609600  0.76068100  1
  O  O13  1  0.66390400  0.85869600  0.23931900  1
  O  O14  1  0.84221100  0.64812200  0.75299600  1
  O  O15  1  0.35187800  0.15778900  0.24700400  1
  O  O16  1  0.35187800  0.15778900  0.75299600  1
  O  O17  1  0.84221100  0.64812200  0.24700400  1
  O  O18  1  0.80652800  0.19347200  0.00000000  1
  O  O19  1  0.30226800  0.69773200  0.50000000  1
  O  O20  1  0.69962100  0.30037900  0.50000000  1
  O  O21  1  0.19704200  0.80295800  0.00000000  1
  O  O22  1  0.49811400  0.50188600  0.50000000  1
  O  O23  1  0.99796200  0.00203800  0.00000000  1
