# generated using pymatgen
data_Sr5Ti4FeO15
_symmetry_space_group_name_H-M   'P 1'
_cell_length_a   8.80349436
_cell_length_b   8.80292857
_cell_length_c   8.87382934
_cell_angle_alpha   89.33999085
_cell_angle_beta   113.92679808
_cell_angle_gamma   101.85111966
_symmetry_Int_Tables_number   1
_chemical_formula_structural   Sr5Ti4FeO15
_chemical_formula_sum   'Sr10 Ti8 Fe2 O30'
_cell_volume   613.21190747
_cell_formula_units_Z   2
loop_
 _symmetry_equiv_pos_site_id
 _symmetry_equiv_pos_as_xyz
  1  'x, y, z'
loop_
 _atom_site_type_symbol
 _atom_site_label
 _atom_site_symmetry_multiplicity
 _atom_site_fract_x
 _atom_site_fract_y
 _atom_site_fract_z
 _atom_site_occupancy
  Sr  Sr0  1  0.99995500  0.40003100  0.79999600  1
  Sr  Sr1  1  0.50003300  0.89998900  0.80002500  1
  Sr  Sr2  1  0.00083200  0.20073000  0.40326000  1
  Sr  Sr3  1  0.50083200  0.70071300  0.40327800  1
  Sr  Sr4  1  0.49916600  0.09925800  0.19672600  1
  Sr  Sr5  1  0.99915800  0.59928500  0.19668500  1
  Sr  Sr6  1  0.50021900  0.30257800  0.60547700  1
  Sr  Sr7  1  0.00019400  0.80252400  0.60548500  1
  Sr  Sr8  1  0.49981900  0.49747600  0.99452800  1
  Sr  Sr9  1  0.99978900  0.99741100  0.99453600  1
  Ti  Ti10  1  0.75343500  0.24909900  0.00471300  1
  Ti  Ti11  1  0.25349400  0.74911500  0.00476900  1
  Ti  Ti12  1  0.74656400  0.05090400  0.59527300  1
  Ti  Ti13  1  0.24649900  0.55088200  0.59522800  1
  Ti  Ti14  1  0.75238900  0.84664300  0.19788300  1
  Ti  Ti15  1  0.25233100  0.34661900  0.19783300  1
  Ti  Ti16  1  0.74760800  0.45335600  0.40210800  1
  Ti  Ti17  1  0.24767700  0.95337200  0.40217000  1
  Fe  Fe18  1  0.74998300  0.65001400  0.79998100  1
  Fe  Fe19  1  0.24998800  0.15000200  0.79998000  1
  O  O20  1  0.75000500  0.15000000  0.80001000  1
  O  O21  1  0.25000600  0.64999800  0.80000900  1
  O  O22  1  0.25000700  0.14999100  0.30000600  1
  O  O23  1  0.75000600  0.64999900  0.30000000  1
  O  O24  1  0.50003600  0.39998900  0.29998000  1
  O  O25  1  0.99997600  0.90000000  0.30002600  1
  O  O26  1  0.75285000  0.94940400  0.40424300  1
  O  O27  1  0.25289400  0.44941400  0.40425000  1
  O  O28  1  0.74715900  0.35059100  0.19576200  1
  O  O29  1  0.24712000  0.85057400  0.19575700  1
  O  O30  1  0.75169400  0.54523100  0.59398800  1
  O  O31  1  0.25169900  0.04522900  0.59395300  1
  O  O32  1  0.24830700  0.25477300  0.00606300  1
  O  O33  1  0.74829900  0.75477400  0.00600500  1
  O  O34  1  0.75196400  0.24688000  0.49868100  1
  O  O35  1  0.25198300  0.74689600  0.49872900  1
  O  O36  1  0.74804300  0.05312400  0.10133100  1
  O  O37  1  0.24802500  0.55310600  0.10127600  1
  O  O38  1  0.50253000  0.99752300  0.49863900  1
  O  O39  1  0.00251200  0.49749700  0.49861800  1
  O  O40  1  0.49749200  0.80250200  0.10139100  1
  O  O41  1  0.99746900  0.30247400  0.10136600  1
  O  O42  1  0.25133900  0.34618300  0.70283500  1
  O  O43  1  0.75131500  0.84620000  0.70279500  1
  O  O44  1  0.74866900  0.45381100  0.89719200  1
  O  O45  1  0.24865800  0.95382300  0.89717100  1
  O  O46  1  0.00554600  0.10022800  0.70291700  1
  O  O47  1  0.50556400  0.60022900  0.70293100  1
  O  O48  1  0.99441800  0.69977900  0.89705500  1
  O  O49  1  0.49445300  0.19977600  0.89708900  1
