# generated using pymatgen
data_Sr3LaZnRuO8
_symmetry_space_group_name_H-M   'P 1'
_cell_length_a   6.91550772
_cell_length_b   6.91550772
_cell_length_c   5.63253200
_cell_angle_alpha   90.00000000
_cell_angle_beta   90.00000000
_cell_angle_gamma   131.99598045
_symmetry_Int_Tables_number   1
_chemical_formula_structural   Sr3LaZnRuO8
_chemical_formula_sum   'Sr3 La1 Zn1 Ru1 O8'
_cell_volume   200.19475668
_cell_formula_units_Z   1
loop_
 _symmetry_equiv_pos_site_id
 _symmetry_equiv_pos_as_xyz
  1  'x, y, z'
loop_
 _atom_site_type_symbol
 _atom_site_label
 _atom_site_symmetry_multiplicity
 _atom_site_fract_x
 _atom_site_fract_y
 _atom_site_fract_z
 _atom_site_occupancy
  Sr  Sr0  1  0.85640500  0.14359500  0.50000000  1
  Sr  Sr1  1  0.35864500  0.64135500  0.00000000  1
  Sr  Sr2  1  0.64275300  0.35724700  0.00000000  1
  La  La3  1  0.14288400  0.85711600  0.50000000  1
  Zn  Zn4  1  0.49995000  0.50005000  0.50000000  1
  Ru  Ru5  1  0.99837000  0.00163000  0.00000000  1
  O  O6  1  0.24427600  0.23967800  0.24640600  1
  O  O7  1  0.76032200  0.75572400  0.75359400  1
  O  O8  1  0.24427600  0.23967800  0.75359400  1
  O  O9  1  0.76032200  0.75572400  0.24640600  1
  O  O10  1  0.16238700  0.83761300  0.00000000  1
  O  O11  1  0.66807900  0.33192100  0.50000000  1
  O  O12  1  0.32117700  0.67882300  0.50000000  1
  O  O13  1  0.84015300  0.15984700  0.00000000  1
