# generated using pymatgen
data_Sr3Pr3Mn2Cu2O13
_symmetry_space_group_name_H-M   'P 1'
_cell_length_a   10.54727067
_cell_length_b   10.54727067
_cell_length_c   5.46648200
_cell_angle_alpha   90.00000000
_cell_angle_beta   90.00000000
_cell_angle_gamma   149.99529303
_symmetry_Int_Tables_number   1
_chemical_formula_structural   Sr3Pr3Mn2Cu2O13
_chemical_formula_sum   'Sr3 Pr3 Mn2 Cu2 O13'
_cell_volume   304.10243676
_cell_formula_units_Z   1
loop_
 _symmetry_equiv_pos_site_id
 _symmetry_equiv_pos_as_xyz
  1  'x, y, z'
loop_
 _atom_site_type_symbol
 _atom_site_label
 _atom_site_symmetry_multiplicity
 _atom_site_fract_x
 _atom_site_fract_y
 _atom_site_fract_z
 _atom_site_occupancy
  Sr  Sr0  1  0.68286400  0.31713600  0.00000000  1
  Sr  Sr1  1  0.00149100  0.99850900  0.50000000  1
  Sr  Sr2  1  0.50288300  0.49711700  0.00000000  1
  Pr  Pr3  1  0.17829600  0.82170400  0.50000000  1
  Pr  Pr4  1  0.31958400  0.68041600  0.00000000  1
  Pr  Pr5  1  0.82056800  0.17943200  0.50000000  1
  Mn  Mn6  1  0.90559900  0.09440100  0.00000000  1
  Mn  Mn7  1  0.09460600  0.90539400  0.00000000  1
  Cu  Cu8  1  0.40321100  0.59678900  0.50000000  1
  Cu  Cu9  1  0.59890700  0.40109300  0.50000000  1
  O  O10  1  0.80578500  0.19421500  0.00000000  1
  O  O11  1  0.29156200  0.70843800  0.50000000  1
  O  O12  1  0.70956100  0.29043900  0.50000000  1
  O  O13  1  0.20176400  0.79823600  0.00000000  1
  O  O14  1  0.15517200  0.35066600  0.24910700  1
  O  O15  1  0.64933400  0.84482800  0.75089300  1
  O  O16  1  0.64933400  0.84482800  0.24910700  1
  O  O17  1  0.15517200  0.35066600  0.75089300  1
  O  O18  1  0.34225500  0.15417300  0.25615600  1
  O  O19  1  0.84582700  0.65774500  0.74384400  1
  O  O20  1  0.84582700  0.65774500  0.25615600  1
  O  O21  1  0.34225500  0.15417300  0.74384400  1
  O  O22  1  0.99814100  0.00185900  0.00000000  1
