# generated using pymatgen
data_Sr4Co3ReO12
_symmetry_space_group_name_H-M   'P 1'
_cell_length_a   5.58456400
_cell_length_b   5.58456400
_cell_length_c   7.88316000
_cell_angle_alpha   90.00000000
_cell_angle_beta   90.00000000
_cell_angle_gamma   90.00000000
_symmetry_Int_Tables_number   1
_chemical_formula_structural   Sr4Co3ReO12
_chemical_formula_sum   'Sr4 Co3 Re1 O12'
_cell_volume   245.85490999
_cell_formula_units_Z   1
loop_
 _symmetry_equiv_pos_site_id
 _symmetry_equiv_pos_as_xyz
  1  'x, y, z'
loop_
 _atom_site_type_symbol
 _atom_site_label
 _atom_site_symmetry_multiplicity
 _atom_site_fract_x
 _atom_site_fract_y
 _atom_site_fract_z
 _atom_site_occupancy
  Sr  Sr0  1  0.50000000  0.00000000  0.72426000  1
  Sr  Sr1  1  0.00000000  0.50000000  0.27574000  1
  Sr  Sr2  1  0.50000000  0.00000000  0.27574000  1
  Sr  Sr3  1  0.00000000  0.50000000  0.72426000  1
  Co  Co4  1  0.00000000  0.00000000  0.00000000  1
  Co  Co5  1  0.50000000  0.50000000  0.50000000  1
  Co  Co6  1  0.00000000  0.00000000  0.50000000  1
  Re  Re7  1  0.50000000  0.50000000  0.00000000  1
  O  O8  1  0.00000000  0.00000000  0.76412600  1
  O  O9  1  0.50000000  0.50000000  0.23967300  1
  O  O10  1  0.75423500  0.75423500  0.50000000  1
  O  O11  1  0.26077100  0.26077100  0.00000000  1
  O  O12  1  0.75423500  0.24576500  0.50000000  1
  O  O13  1  0.26077100  0.73922900  0.00000000  1
  O  O14  1  0.00000000  0.00000000  0.23587400  1
  O  O15  1  0.50000000  0.50000000  0.76032700  1
  O  O16  1  0.24576500  0.24576500  0.50000000  1
  O  O17  1  0.73922900  0.73922900  0.00000000  1
  O  O18  1  0.24576500  0.75423500  0.50000000  1
  O  O19  1  0.73922900  0.26077100  0.00000000  1
