# generated using pymatgen
data_Sr5Fe4MoO15
_symmetry_space_group_name_H-M   'P 1'
_cell_length_a   5.59156530
_cell_length_b   6.85409453
_cell_length_c   8.85595721
_cell_angle_alpha   104.89346458
_cell_angle_beta   71.56536654
_cell_angle_gamma   89.92689525
_symmetry_Int_Tables_number   1
_chemical_formula_structural   Sr5Fe4MoO15
_chemical_formula_sum   'Sr5 Fe4 Mo1 O15'
_cell_volume   309.90791741
_cell_formula_units_Z   1
loop_
 _symmetry_equiv_pos_site_id
 _symmetry_equiv_pos_as_xyz
  1  'x, y, z'
loop_
 _atom_site_type_symbol
 _atom_site_label
 _atom_site_symmetry_multiplicity
 _atom_site_fract_x
 _atom_site_fract_y
 _atom_site_fract_z
 _atom_site_occupancy
  Sr  Sr0  1  0.60000000  0.59996900  0.79999500  1
  Sr  Sr1  1  0.20621500  0.20333900  0.58691900  1
  Sr  Sr2  1  0.99375700  0.99669000  0.01308100  1
  Sr  Sr3  1  0.39507000  0.40902800  0.20968700  1
  Sr  Sr4  1  0.80489600  0.79097700  0.39031100  1
  Fe  Fe5  1  0.99940100  0.50798500  0.00155900  1
  Fe  Fe6  1  0.20060500  0.69201300  0.59842700  1
  Fe  Fe7  1  0.39726000  0.89902600  0.20541300  1
  Fe  Fe8  1  0.80271900  0.30098100  0.39459600  1
  Mo  Mo9  1  0.60001200  0.09996800  0.79999300  1
  O  O10  1  0.10003000  0.59998300  0.79999200  1
  O  O11  1  0.10003900  0.10002000  0.30002000  1
  O  O12  1  0.60003400  0.09999000  0.30001800  1
  O  O13  1  0.69800900  0.19375400  0.60254400  1
  O  O14  1  0.50203500  0.00617500  0.99742600  1
  O  O15  1  0.90242000  0.40018900  0.19353400  1
  O  O16  1  0.29753500  0.79984500  0.40647300  1
  O  O17  1  0.50285300  0.49691100  0.49970700  1
  O  O18  1  0.69716400  0.70314500  0.10031400  1
  O  O19  1  0.99621500  0.49617300  0.49982700  1
  O  O20  1  0.20375000  0.70386200  0.10016200  1
  O  O21  1  0.89299400  0.90331900  0.70478100  1
  O  O22  1  0.30702300  0.29665500  0.89519200  1
  O  O23  1  0.40257700  0.90360500  0.70559300  1
  O  O24  1  0.79738600  0.29639600  0.89443800  1
