# generated using pymatgen
data_SrCaDy4Be2O10
_symmetry_space_group_name_H-M   'P 1'
_cell_length_a   7.03700200
_cell_length_b   6.39954800
_cell_length_c   9.35823428
_cell_angle_alpha   89.69883289
_cell_angle_beta   90.00000000
_cell_angle_gamma   90.00000000
_symmetry_Int_Tables_number   1
_chemical_formula_structural   SrCaDy4Be2O10
_chemical_formula_sum   'Sr2 Ca2 Dy8 Be4 O20'
_cell_volume   421.42945749
_cell_formula_units_Z   2
loop_
 _symmetry_equiv_pos_site_id
 _symmetry_equiv_pos_as_xyz
  1  'x, y, z'
loop_
 _atom_site_type_symbol
 _atom_site_label
 _atom_site_symmetry_multiplicity
 _atom_site_fract_x
 _atom_site_fract_y
 _atom_site_fract_z
 _atom_site_occupancy
  Sr  Sr0  1  0.51978600  0.91752200  0.82473100  1
  Sr  Sr1  1  0.01978600  0.08247800  0.17526900  1
  Ca  Ca2  1  0.01637100  0.41623800  0.67679600  1
  Ca  Ca3  1  0.51637100  0.58376200  0.32320400  1
  Dy  Dy4  1  0.25478600  0.90299100  0.51962800  1
  Dy  Dy5  1  0.25162700  0.59469000  0.02225800  1
  Dy  Dy6  1  0.75478600  0.09700900  0.48037200  1
  Dy  Dy7  1  0.75162700  0.40531000  0.97774200  1
  Dy  Dy8  1  0.47769700  0.07191700  0.17864600  1
  Dy  Dy9  1  0.97769700  0.92808300  0.82135400  1
  Dy  Dy10  1  0.96662500  0.56667400  0.32872400  1
  Dy  Dy11  1  0.46662500  0.43332600  0.67127600  1
  Be  Be12  1  0.25391400  0.30959400  0.39971000  1
  Be  Be13  1  0.24930000  0.19651400  0.89619600  1
  Be  Be14  1  0.75391400  0.69040600  0.60029000  1
  Be  Be15  1  0.74930000  0.80348600  0.10380400  1
  O  O16  1  0.94480500  0.67649500  0.07793600  1
  O  O17  1  0.55319300  0.80022100  0.56854800  1
  O  O18  1  0.44480500  0.32350500  0.92206400  1
  O  O19  1  0.05319300  0.19977900  0.43145200  1
  O  O20  1  0.05268500  0.31006600  0.93033100  1
  O  O21  1  0.44684700  0.18029700  0.43114200  1
  O  O22  1  0.55268500  0.68993400  0.06966900  1
  O  O23  1  0.94684700  0.81970300  0.56885800  1
  O  O24  1  0.24933800  0.97695200  0.98890200  1
  O  O25  1  0.25209000  0.52366300  0.49303800  1
  O  O26  1  0.74933800  0.02304800  0.01109800  1
  O  O27  1  0.75209000  0.47633700  0.50696200  1
  O  O28  1  0.25884500  0.37035300  0.22307700  1
  O  O29  1  0.24400400  0.13928900  0.71865600  1
  O  O30  1  0.75884500  0.62964700  0.77692300  1
  O  O31  1  0.74400400  0.86071100  0.28134400  1
  O  O32  1  0.26410500  0.83845200  0.28160200  1
  O  O33  1  0.24398000  0.66042600  0.77735600  1
  O  O34  1  0.76410500  0.16154800  0.71839800  1
  O  O35  1  0.74398000  0.33957400  0.22264400  1
