# generated using pymatgen
data_Sr2TiP2O9
_symmetry_space_group_name_H-M   'P 1'
_cell_length_a   6.85401883
_cell_length_b   7.13025295
_cell_length_c   8.82819442
_cell_angle_alpha   76.39629153
_cell_angle_beta   77.71562474
_cell_angle_gamma   115.74707309
_symmetry_Int_Tables_number   1
_chemical_formula_structural   Sr2TiP2O9
_chemical_formula_sum   'Sr4 Ti2 P4 O18'
_cell_volume   352.41947406
_cell_formula_units_Z   2
loop_
 _symmetry_equiv_pos_site_id
 _symmetry_equiv_pos_as_xyz
  1  'x, y, z'
loop_
 _atom_site_type_symbol
 _atom_site_label
 _atom_site_symmetry_multiplicity
 _atom_site_fract_x
 _atom_site_fract_y
 _atom_site_fract_z
 _atom_site_occupancy
  Sr  Sr0  1  0.20701500  0.95636900  0.08624400  1
  Sr  Sr1  1  0.79325900  0.04261400  0.91375600  1
  Sr  Sr2  1  0.62658900  0.37656700  0.24794700  1
  Sr  Sr3  1  0.37453600  0.62451400  0.75205300  1
  Ti  Ti4  1  0.00237800  0.98404900  0.49382400  1
  Ti  Ti5  1  0.99620200  0.47787300  0.50617600  1
  P  P6  1  0.82716200  0.57672900  0.84557800  1
  P  P7  1  0.17274000  0.42230700  0.15442200  1
  P  P8  1  0.58681700  0.83670800  0.32583800  1
  P  P9  1  0.41265500  0.16254600  0.67416200  1
  O  O10  1  0.04282800  0.79579400  0.41321000  1
  O  O11  1  0.95603900  0.20900500  0.58679000  1
  O  O12  1  0.02007000  0.48272700  0.27257800  1
  O  O13  1  0.20876900  0.24470900  0.27124000  1
  O  O14  1  0.98000900  0.51594900  0.72876000  1
  O  O15  1  0.79264800  0.75530500  0.72742200  1
  O  O16  1  0.40185400  0.64044900  0.04751200  1
  O  O17  1  0.05035700  0.31207600  0.04726800  1
  O  O18  1  0.59762500  0.35934400  0.95273200  1
  O  O19  1  0.94936600  0.68796100  0.95248800  1
  O  O20  1  0.34794700  0.62151500  0.44596000  1
  O  O21  1  0.70777900  0.93194700  0.44566000  1
  O  O22  1  0.65343900  0.37760700  0.55434000  1
  O  O23  1  0.29390700  0.06747500  0.55404000  1
  O  O24  1  0.74347500  0.78181400  0.21402700  1
  O  O25  1  0.54193400  0.00372000  0.21456500  1
  O  O26  1  0.25650000  0.21828500  0.78543500  1
  O  O27  1  0.45750200  0.99584100  0.78597300  1
