# generated using pymatgen
data_SrCaMnRuO6
_symmetry_space_group_name_H-M   'P 1'
_cell_length_a   5.69236800
_cell_length_b   5.64323900
_cell_length_c   7.64812684
_cell_angle_alpha   89.38691565
_cell_angle_beta   90.00000000
_cell_angle_gamma   90.00000000
_symmetry_Int_Tables_number   1
_chemical_formula_structural   SrCaMnRuO6
_chemical_formula_sum   'Sr2 Ca2 Mn2 Ru2 O12'
_cell_volume   245.66972005
_cell_formula_units_Z   2
loop_
 _symmetry_equiv_pos_site_id
 _symmetry_equiv_pos_as_xyz
  1  'x, y, z'
loop_
 _atom_site_type_symbol
 _atom_site_label
 _atom_site_symmetry_multiplicity
 _atom_site_fract_x
 _atom_site_fract_y
 _atom_site_fract_z
 _atom_site_occupancy
  Sr  Sr0  1  0.96658600  0.25409300  0.50013600  1
  Sr  Sr1  1  0.46658600  0.74590700  0.49986400  1
  Ca  Ca2  1  0.04484400  0.24496300  0.99936300  1
  Ca  Ca3  1  0.54484400  0.75503700  0.00063700  1
  Mn  Mn4  1  0.00157400  0.74840800  0.75357000  1
  Mn  Mn5  1  0.50157400  0.25159200  0.24643000  1
  Ru  Ru6  1  0.00095800  0.74883900  0.24443000  1
  Ru  Ru7  1  0.50095800  0.25116100  0.75557000  1
  O  O8  1  0.47107800  0.33792900  0.00532800  1
  O  O9  1  0.97107800  0.66207100  0.99467200  1
  O  O10  1  0.51189100  0.18191000  0.49726500  1
  O  O11  1  0.01189100  0.81809000  0.50273500  1
  O  O12  1  0.78044800  0.04739600  0.79656500  1
  O  O13  1  0.28044800  0.95260400  0.20343500  1
  O  O14  1  0.20502200  0.47277500  0.27929400  1
  O  O15  1  0.70502200  0.52722500  0.72070600  1
  O  O16  1  0.21943900  0.45223300  0.71972500  1
  O  O17  1  0.71943900  0.54776700  0.28027500  1
  O  O18  1  0.79816200  0.03099900  0.20402600  1
  O  O19  1  0.29816200  0.96900100  0.79597400  1
