# generated using pymatgen
data_Sr3LaMn4O12
_symmetry_space_group_name_H-M   'P 1'
_cell_length_a   5.51505328
_cell_length_b   5.47914154
_cell_length_c   7.81878405
_cell_angle_alpha   90.58526004
_cell_angle_beta   90.00085081
_cell_angle_gamma   89.94291591
_symmetry_Int_Tables_number   1
_chemical_formula_structural   Sr3LaMn4O12
_chemical_formula_sum   'Sr3 La1 Mn4 O12'
_cell_volume   236.25367751
_cell_formula_units_Z   1
loop_
 _symmetry_equiv_pos_site_id
 _symmetry_equiv_pos_as_xyz
  1  'x, y, z'
loop_
 _atom_site_type_symbol
 _atom_site_label
 _atom_site_symmetry_multiplicity
 _atom_site_fract_x
 _atom_site_fract_y
 _atom_site_fract_z
 _atom_site_occupancy
  Sr  Sr0  1  0.99987600  0.50007000  0.24996400  1
  Sr  Sr1  1  0.50096700  0.00000300  0.74996400  1
  Sr  Sr2  1  0.99703300  0.50000600  0.75004300  1
  La  La3  1  0.50286500  0.99988400  0.25006000  1
  Mn  Mn4  1  0.00026100  0.00041500  0.50164900  1
  Mn  Mn5  1  0.50011500  0.49974800  0.99836600  1
  Mn  Mn6  1  0.00024100  0.99958900  0.99830100  1
  Mn  Mn7  1  0.50017700  0.50033800  0.50155800  1
  O  O8  1  0.72569800  0.22566300  0.51257100  1
  O  O9  1  0.23495700  0.73512900  0.02504500  1
  O  O10  1  0.23499600  0.26482800  0.47510500  1
  O  O11  1  0.72580300  0.77424000  0.98757300  1
  O  O12  1  0.03730000  0.99996400  0.75000700  1
  O  O13  1  0.53511000  0.49992700  0.24999300  1
  O  O14  1  0.76895900  0.73098300  0.51590900  1
  O  O15  1  0.27458900  0.22540400  0.02605400  1
  O  O16  1  0.95643500  0.00005200  0.24999500  1
  O  O17  1  0.46096900  0.50002800  0.74999700  1
  O  O18  1  0.27461600  0.77465200  0.47390100  1
  O  O19  1  0.76903600  0.26907600  0.98394600  1
