# generated using pymatgen
data_Sr2VAs2O9
_symmetry_space_group_name_H-M   'P 1'
_cell_length_a   9.10983086
_cell_length_b   9.10983086
_cell_length_c   7.01112922
_cell_angle_alpha   77.75906716
_cell_angle_beta   77.75906716
_cell_angle_gamma   130.55023880
_symmetry_Int_Tables_number   1
_chemical_formula_structural   Sr2VAs2O9
_chemical_formula_sum   'Sr4 V2 As4 O18'
_cell_volume   381.09555751
_cell_formula_units_Z   2
loop_
 _symmetry_equiv_pos_site_id
 _symmetry_equiv_pos_as_xyz
  1  'x, y, z'
loop_
 _atom_site_type_symbol
 _atom_site_label
 _atom_site_symmetry_multiplicity
 _atom_site_fract_x
 _atom_site_fract_y
 _atom_site_fract_z
 _atom_site_occupancy
  Sr  Sr0  1  0.04318300  0.95457600  0.25125400  1
  Sr  Sr1  1  0.95457600  0.04318300  0.75125400  1
  Sr  Sr2  1  0.62497800  0.37704700  0.25002100  1
  Sr  Sr3  1  0.37704700  0.62497800  0.75002100  1
  V  V4  1  0.46922200  0.97783400  0.02501500  1
  V  V5  1  0.97783400  0.46922200  0.52501500  1
  As  As6  1  0.42178000  0.57653400  0.25082400  1
  As  As7  1  0.57653400  0.42178000  0.75082400  1
  As  As8  1  0.83738600  0.16148000  0.24999200  1
  As  As9  1  0.16148000  0.83738600  0.74999200  1
  O  O10  1  0.22748700  0.50452100  0.48492100  1
  O  O11  1  0.49442400  0.77343500  0.01872500  1
  O  O12  1  0.77343500  0.49442400  0.51872500  1
  O  O13  1  0.50452100  0.22748700  0.98492100  1
  O  O14  1  0.21161100  0.78583800  0.24572900  1
  O  O15  1  0.78583800  0.21161100  0.74572900  1
  O  O16  1  0.65245100  0.69195100  0.27121800  1
  O  O17  1  0.30738300  0.34686800  0.22864100  1
  O  O18  1  0.34686800  0.30738300  0.72864100  1
  O  O19  1  0.69195100  0.65245100  0.77121800  1
  O  O20  1  0.39383000  0.93800600  0.77312600  1
  O  O21  1  0.06321300  0.60442100  0.73162600  1
  O  O22  1  0.60442100  0.06321300  0.23162600  1
  O  O23  1  0.93800600  0.39383000  0.27312600  1
  O  O24  1  0.98568400  0.78413000  0.97792400  1
  O  O25  1  0.21606200  0.01324500  0.52109500  1
  O  O26  1  0.01324500  0.21606200  0.02109500  1
  O  O27  1  0.78413000  0.98568400  0.47792400  1
