# generated using pymatgen
data_Sr3NbCoO7
_symmetry_space_group_name_H-M   'P 1'
_cell_length_a   10.79749481
_cell_length_b   10.79749481
_cell_length_c   10.79749481
_cell_angle_alpha   158.71431682
_cell_angle_beta   158.71431682
_cell_angle_gamma   30.28087257
_symmetry_Int_Tables_number   1
_chemical_formula_structural   Sr3NbCoO7
_chemical_formula_sum   'Sr3 Nb1 Co1 O7'
_cell_volume   165.78886395
_cell_formula_units_Z   1
loop_
 _symmetry_equiv_pos_site_id
 _symmetry_equiv_pos_as_xyz
  1  'x, y, z'
loop_
 _atom_site_type_symbol
 _atom_site_label
 _atom_site_symmetry_multiplicity
 _atom_site_fract_x
 _atom_site_fract_y
 _atom_site_fract_z
 _atom_site_occupancy
  Sr  Sr0  1  0.69289500  0.69289500  0.00000000  1
  Sr  Sr1  1  0.32123400  0.32123400  0.00000000  1
  Sr  Sr2  1  0.48293400  0.48293400  0.00000000  1
  Nb  Nb3  1  0.09489500  0.09489500  0.00000000  1
  Co  Co4  1  0.89998800  0.89998800  0.00000000  1
  O  O5  1  0.90471700  0.40471700  0.50000000  1
  O  O6  1  0.40471700  0.90471700  0.50000000  1
  O  O7  1  0.09876200  0.59876200  0.50000000  1
  O  O8  1  0.59876200  0.09876200  0.50000000  1
  O  O9  1  0.00237000  0.00237000  0.00000000  1
  O  O10  1  0.80454000  0.80454000  0.00000000  1
  O  O11  1  0.19418600  0.19418600  0.00000000  1
