# generated using pymatgen
data_SrCaNbCrO6
_symmetry_space_group_name_H-M   'P 1'
_cell_length_a   5.58032246
_cell_length_b   7.91435121
_cell_length_c   5.62914300
_cell_angle_alpha   89.99996521
_cell_angle_beta   89.99958091
_cell_angle_gamma   90.03626805
_symmetry_Int_Tables_number   1
_chemical_formula_structural   SrCaNbCrO6
_chemical_formula_sum   'Sr2 Ca2 Nb2 Cr2 O12'
_cell_volume   248.60897792
_cell_formula_units_Z   2
loop_
 _symmetry_equiv_pos_site_id
 _symmetry_equiv_pos_as_xyz
  1  'x, y, z'
loop_
 _atom_site_type_symbol
 _atom_site_label
 _atom_site_symmetry_multiplicity
 _atom_site_fract_x
 _atom_site_fract_y
 _atom_site_fract_z
 _atom_site_occupancy
  Sr  Sr0  1  0.50414100  0.24968600  0.97576100  1
  Sr  Sr1  1  0.00413000  0.74969300  0.52427600  1
  Ca  Ca2  1  0.49294700  0.75180200  0.03890500  1
  Ca  Ca3  1  0.99292400  0.25181700  0.46111300  1
  Nb  Nb4  1  0.49996600  0.49975600  0.50104400  1
  Nb  Nb5  1  0.99995100  0.99973200  0.99887000  1
  Cr  Cr6  1  0.99999500  0.50028000  0.99844100  1
  Cr  Cr7  1  0.49999200  0.00022100  0.50147100  1
  O  O8  1  0.79043300  0.46085900  0.70834100  1
  O  O9  1  0.29043300  0.96086300  0.79167700  1
  O  O10  1  0.22045300  0.52985100  0.27952600  1
  O  O11  1  0.72046700  0.02986000  0.22049300  1
  O  O12  1  0.72086100  0.46770500  0.22146200  1
  O  O13  1  0.22085700  0.96770600  0.27855400  1
  O  O14  1  0.29295300  0.54012900  0.78952700  1
  O  O15  1  0.79295400  0.04013500  0.71049500  1
  O  O16  1  0.55680700  0.74949000  0.48046500  1
  O  O17  1  0.05681800  0.24948000  0.01956400  1
  O  O18  1  0.42145600  0.25046600  0.51210000  1
  O  O19  1  0.92145900  0.75047200  0.98791600  1
