# generated using pymatgen
data_Sr3CaNi2(WO6)2
_symmetry_space_group_name_H-M   'P 1'
_cell_length_a   5.62333229
_cell_length_b   5.65114032
_cell_length_c   7.95770034
_cell_angle_alpha   90.09616770
_cell_angle_beta   90.03984793
_cell_angle_gamma   90.10293692
_symmetry_Int_Tables_number   1
_chemical_formula_structural   Sr3CaNi2(WO6)2
_chemical_formula_sum   'Sr3 Ca1 Ni2 W2 O12'
_cell_volume   252.88088400
_cell_formula_units_Z   1
loop_
 _symmetry_equiv_pos_site_id
 _symmetry_equiv_pos_as_xyz
  1  'x, y, z'
loop_
 _atom_site_type_symbol
 _atom_site_label
 _atom_site_symmetry_multiplicity
 _atom_site_fract_x
 _atom_site_fract_y
 _atom_site_fract_z
 _atom_site_occupancy
  Sr  Sr0  1  0.49375400  0.97134300  0.74912800  1
  Sr  Sr1  1  0.00421100  0.47585100  0.75003000  1
  Sr  Sr2  1  0.50412700  0.02544000  0.25081000  1
  Ca  Ca3  1  0.99387100  0.53861600  0.24842800  1
  Ni  Ni4  1  0.99996400  0.00134500  0.00126000  1
  Ni  Ni5  1  0.49974500  0.49897900  0.49796800  1
  W  W6  1  0.49862700  0.49953000  0.00299300  1
  W  W7  1  0.00146500  0.99989300  0.49746400  1
  O  O8  1  0.05874300  0.96991500  0.25756600  1
  O  O9  1  0.55874800  0.50212100  0.76085400  1
  O  O10  1  0.93976300  0.01760900  0.73928200  1
  O  O11  1  0.42118700  0.49492400  0.24191700  1
  O  O12  1  0.21016800  0.72802900  0.53311400  1
  O  O13  1  0.71201700  0.76989200  0.03275900  1
  O  O14  1  0.80016900  0.27744600  0.45667600  1
  O  O15  1  0.29309900  0.22526700  0.97063700  1
  O  O16  1  0.27553600  0.20762700  0.52615700  1
  O  O17  1  0.77549400  0.29607200  0.04333700  1
  O  O18  1  0.72908300  0.78766300  0.47151400  1
  O  O19  1  0.23022800  0.71243600  0.96810800  1
