# generated using pymatgen
data_Sr2YCu3(PbO4)2
_symmetry_space_group_name_H-M   'P 1'
_cell_length_a   3.83424800
_cell_length_b   3.86303600
_cell_length_c   15.97075804
_cell_angle_alpha   88.66870089
_cell_angle_beta   90.00000000
_cell_angle_gamma   90.00000000
_symmetry_Int_Tables_number   1
_chemical_formula_structural   Sr2YCu3(PbO4)2
_chemical_formula_sum   'Sr2 Y1 Cu3 Pb2 O8'
_cell_volume   236.49242731
_cell_formula_units_Z   1
loop_
 _symmetry_equiv_pos_site_id
 _symmetry_equiv_pos_as_xyz
  1  'x, y, z'
loop_
 _atom_site_type_symbol
 _atom_site_label
 _atom_site_symmetry_multiplicity
 _atom_site_fract_x
 _atom_site_fract_y
 _atom_site_fract_z
 _atom_site_occupancy
  Sr  Sr0  1  0.00000000  0.99048900  0.22129500  1
  Sr  Sr1  1  0.00000000  0.00951100  0.77870500  1
  Y  Y2  1  0.00000000  0.00000000  0.00000000  1
  Cu  Cu3  1  0.50000000  0.49841000  0.10440600  1
  Cu  Cu4  1  0.50000000  0.50159000  0.89559400  1
  Cu  Cu5  1  0.00000000  0.00000000  0.50000000  1
  Pb  Pb6  1  0.50000000  0.49597200  0.38894000  1
  Pb  Pb7  1  0.50000000  0.50402800  0.61106000  1
  O  O8  1  0.50000000  0.48837900  0.25149200  1
  O  O9  1  0.50000000  0.51162100  0.74850800  1
  O  O10  1  0.00000000  0.49734800  0.09167000  1
  O  O11  1  0.50000000  0.00018200  0.90771200  1
  O  O12  1  0.00000000  0.50265200  0.90833000  1
  O  O13  1  0.50000000  0.99981800  0.09228800  1
  O  O14  1  0.00000000  0.89956000  0.38562300  1
  O  O15  1  0.00000000  0.10044000  0.61437700  1
