# generated using pymatgen
data_Sr4PrMn5O15
_symmetry_space_group_name_H-M   'P 1'
_cell_length_a   8.69326015
_cell_length_b   8.69326015
_cell_length_c   6.72347073
_cell_angle_alpha   74.98140079
_cell_angle_beta   74.98140079
_cell_angle_gamma   36.83389513
_symmetry_Int_Tables_number   1
_chemical_formula_structural   Sr4PrMn5O15
_chemical_formula_sum   'Sr4 Pr1 Mn5 O15'
_cell_volume   293.02988011
_cell_formula_units_Z   1
loop_
 _symmetry_equiv_pos_site_id
 _symmetry_equiv_pos_as_xyz
  1  'x, y, z'
loop_
 _atom_site_type_symbol
 _atom_site_label
 _atom_site_symmetry_multiplicity
 _atom_site_fract_x
 _atom_site_fract_y
 _atom_site_fract_z
 _atom_site_occupancy
  Sr  Sr0  1  0.10067200  0.10067200  0.09917300  1
  Sr  Sr1  1  0.70038400  0.70038400  0.70034900  1
  Sr  Sr2  1  0.29961600  0.29961600  0.29965100  1
  Sr  Sr3  1  0.89932800  0.89932800  0.90082700  1
  Pr  Pr4  1  0.50000000  0.50000000  0.50000000  1
  Mn  Mn5  1  0.50000000  0.50000000  0.00000000  1
  Mn  Mn6  1  0.29934400  0.29934400  0.80146100  1
  Mn  Mn7  1  0.89918100  0.89918100  0.39993700  1
  Mn  Mn8  1  0.10081900  0.10081900  0.60006300  1
  Mn  Mn9  1  0.70065600  0.70065600  0.19853900  1
  O  O10  1  0.30409300  0.79275900  0.79276200  1
  O  O11  1  0.11028900  0.59870700  0.59743500  1
  O  O12  1  0.69590700  0.20724100  0.20723800  1
  O  O13  1  0.88971100  0.40129300  0.40256500  1
  O  O14  1  0.50000000  0.00000000  0.00000000  1
  O  O15  1  0.40255800  0.40255800  0.89074200  1
  O  O16  1  0.20020100  0.20020100  0.69800900  1
  O  O17  1  0.79979900  0.79979900  0.30199100  1
  O  O18  1  0.00000000  0.00000000  0.50000000  1
  O  O19  1  0.59744200  0.59744200  0.10925800  1
  O  O20  1  0.20724100  0.69590700  0.20723800  1
  O  O21  1  0.00000000  0.50000000  0.00000000  1
  O  O22  1  0.59870700  0.11028900  0.59743500  1
  O  O23  1  0.79275900  0.30409300  0.79276200  1
  O  O24  1  0.40129300  0.88971100  0.40256500  1
