# generated using pymatgen
data_SrCaYRuO6
_symmetry_space_group_name_H-M   'P 1'
_cell_length_a   5.70462025
_cell_length_b   5.87041000
_cell_length_c   8.16378109
_cell_angle_alpha   90.00000000
_cell_angle_beta   90.28474230
_cell_angle_gamma   90.00000000
_symmetry_Int_Tables_number   1
_chemical_formula_structural   SrCaYRuO6
_chemical_formula_sum   'Sr2 Ca2 Y2 Ru2 O12'
_cell_volume   273.38907832
_cell_formula_units_Z   2
loop_
 _symmetry_equiv_pos_site_id
 _symmetry_equiv_pos_as_xyz
  1  'x, y, z'
loop_
 _atom_site_type_symbol
 _atom_site_label
 _atom_site_symmetry_multiplicity
 _atom_site_fract_x
 _atom_site_fract_y
 _atom_site_fract_z
 _atom_site_occupancy
  Sr  Sr0  1  0.49048400  0.54215200  0.24993100  1
  Sr  Sr1  1  0.99048400  0.95784800  0.74993100  1
  Ca  Ca2  1  0.51293200  0.44662400  0.75383000  1
  Ca  Ca3  1  0.01293200  0.05337600  0.25383000  1
  Y  Y4  1  0.99994700  0.50245200  0.50141900  1
  Y  Y5  1  0.49994700  0.99754800  0.00141900  1
  Ru  Ru6  1  0.99977100  0.49976300  0.99956600  1
  Ru  Ru7  1  0.49977100  0.00023700  0.49956600  1
  O  O8  1  0.30619900  0.27227800  0.44941600  1
  O  O9  1  0.80619900  0.22772200  0.94941600  1
  O  O10  1  0.67617900  0.71389600  0.55381800  1
  O  O11  1  0.17617900  0.78610400  0.05381800  1
  O  O12  1  0.21407300  0.81629200  0.45021100  1
  O  O13  1  0.71407300  0.68370800  0.95021100  1
  O  O14  1  0.77649300  0.19484500  0.54154400  1
  O  O15  1  0.27649300  0.30515500  0.04154400  1
  O  O16  1  0.60451300  0.97181500  0.26704100  1
  O  O17  1  0.10451300  0.52818500  0.76704100  1
  O  O18  1  0.41940800  0.03914500  0.73322400  1
  O  O19  1  0.91940800  0.46085500  0.23322400  1
