# generated using pymatgen
data_Sr3Ca2P3O12F
_symmetry_space_group_name_H-M   'P 1'
_cell_length_a   7.16272800
_cell_length_b   9.72650949
_cell_length_c   9.73040868
_cell_angle_alpha   119.91255891
_cell_angle_beta   90.06445947
_cell_angle_gamma   90.01821399
_symmetry_Int_Tables_number   1
_chemical_formula_structural   Sr3Ca2P3O12F
_chemical_formula_sum   'Sr6 Ca4 P6 O24 F2'
_cell_volume   587.59579368
_cell_formula_units_Z   2
loop_
 _symmetry_equiv_pos_site_id
 _symmetry_equiv_pos_as_xyz
  1  'x, y, z'
loop_
 _atom_site_type_symbol
 _atom_site_label
 _atom_site_symmetry_multiplicity
 _atom_site_fract_x
 _atom_site_fract_y
 _atom_site_fract_z
 _atom_site_occupancy
  Sr  Sr0  1  0.24260300  0.00716100  0.24292200  1
  Sr  Sr1  1  0.74244700  0.25527600  0.24360500  1
  Sr  Sr2  1  0.74377800  0.75632900  0.01043500  1
  Sr  Sr3  1  0.74356500  0.98730000  0.75056700  1
  Sr  Sr4  1  0.99564600  0.33351100  0.66814500  1
  Sr  Sr5  1  0.49375800  0.66745200  0.33231700  1
  Ca  Ca6  1  0.49271200  0.33234700  0.66664100  1
  Ca  Ca7  1  0.99345800  0.66778100  0.33290700  1
  Ca  Ca8  1  0.24320000  0.75330600  0.74568800  1
  Ca  Ca9  1  0.24273500  0.25017000  0.00158700  1
  P  P10  1  0.74583900  0.60170600  0.63055700  1
  P  P11  1  0.74612900  0.36894500  0.97139000  1
  P  P12  1  0.74441900  0.03264800  0.40368700  1
  P  P13  1  0.24422600  0.40144000  0.37035000  1
  P  P14  1  0.24555000  0.62635000  0.02874000  1
  P  P15  1  0.24464300  0.96706000  0.59912000  1
  O  O16  1  0.57423000  0.67438900  0.74133100  1
  O  O17  1  0.57408500  0.25828300  0.93343900  1
  O  O18  1  0.57262500  0.07471300  0.33538000  1
  O  O19  1  0.07244400  0.33922200  0.25840900  1
  O  O20  1  0.07172900  0.73543600  0.07949900  1
  O  O21  1  0.07245900  0.91534700  0.65928900  1
  O  O22  1  0.75555900  0.66027100  0.50864400  1
  O  O23  1  0.75609700  0.49057200  0.15183900  1
  O  O24  1  0.75527400  0.85083300  0.33912500  1
  O  O25  1  0.25442000  0.32976200  0.48109300  1
  O  O26  1  0.25633700  0.51981600  0.84586200  1
  O  O27  1  0.25458500  0.15022800  0.67411800  1
  O  O28  1  0.92579700  0.65064500  0.73489900  1
  O  O29  1  0.92564000  0.26513300  0.91620300  1
  O  O30  1  0.92129000  0.09192900  0.35674000  1
  O  O31  1  0.41782800  0.35398300  0.26014100  1
  O  O32  1  0.42090400  0.73475100  0.09385600  1
  O  O33  1  0.41999400  0.90210000  0.64237600  1
  O  O34  1  0.72845800  0.41731800  0.54373100  1
  O  O35  1  0.72857200  0.45671800  0.87436500  1
  O  O36  1  0.72880700  0.12482400  0.58788500  1
  O  O37  1  0.23278300  0.58600200  0.46775700  1
  O  O38  1  0.23402400  0.52639300  0.11345800  1
  O  O39  1  0.23064600  0.88132500  0.41483200  1
  F  F40  1  0.24878800  0.00040600  0.98208800  1
  F  F41  1  0.75591700  0.00081800  0.00498200  1
