# generated using pymatgen
data_Sr3TiNb4O15
_symmetry_space_group_name_H-M   'P 1'
_cell_length_a   12.61685500
_cell_length_b   4.00969500
_cell_length_c   12.64955209
_cell_angle_alpha   89.80389617
_cell_angle_beta   90.00000000
_cell_angle_gamma   90.00000000
_symmetry_Int_Tables_number   1
_chemical_formula_structural   Sr3TiNb4O15
_chemical_formula_sum   'Sr6 Ti2 Nb8 O30'
_cell_volume   639.93380833
_cell_formula_units_Z   2
loop_
 _symmetry_equiv_pos_site_id
 _symmetry_equiv_pos_as_xyz
  1  'x, y, z'
loop_
 _atom_site_type_symbol
 _atom_site_label
 _atom_site_symmetry_multiplicity
 _atom_site_fract_x
 _atom_site_fract_y
 _atom_site_fract_z
 _atom_site_occupancy
  Sr  Sr0  1  0.75633400  0.23248800  0.49958700  1
  Sr  Sr1  1  0.24366600  0.23248800  0.99958700  1
  Sr  Sr2  1  0.89655400  0.23947200  0.80079200  1
  Sr  Sr3  1  0.63346200  0.24815500  0.21788000  1
  Sr  Sr4  1  0.10344600  0.23947200  0.30079200  1
  Sr  Sr5  1  0.36653800  0.24815500  0.71788000  1
  Ti  Ti6  1  0.83824800  0.77275900  0.29527400  1
  Ti  Ti7  1  0.16175200  0.77275900  0.79527400  1
  Nb  Nb8  1  0.66749100  0.71900800  0.71442400  1
  Nb  Nb9  1  0.33250900  0.71900800  0.21442400  1
  Nb  Nb10  1  0.54275600  0.75107000  0.42650600  1
  Nb  Nb11  1  0.96513000  0.71904700  0.57708700  1
  Nb  Nb12  1  0.45724400  0.75107000  0.92650600  1
  Nb  Nb13  1  0.03487000  0.71904700  0.07708700  1
  Nb  Nb14  1  0.74972700  0.77059100  0.00610700  1
  Nb  Nb15  1  0.25027300  0.77059100  0.50610700  1
  O  O16  1  0.82428600  0.22029600  0.29777100  1
  O  O17  1  0.67719300  0.23138700  0.69894800  1
  O  O18  1  0.17571400  0.22029600  0.79777100  1
  O  O19  1  0.32280700  0.23138700  0.19894800  1
  O  O20  1  0.88085300  0.72924700  0.43965700  1
  O  O21  1  0.62438000  0.72821400  0.55611900  1
  O  O22  1  0.11914700  0.72924700  0.93965700  1
  O  O23  1  0.37562000  0.72821400  0.05611900  1
  O  O24  1  0.09061300  0.73846400  0.48584400  1
  O  O25  1  0.40767600  0.72247200  0.50144100  1
  O  O26  1  0.90938700  0.73846400  0.98584400  1
  O  O27  1  0.59232400  0.72247200  0.00144100  1
  O  O28  1  0.55063800  0.23023900  0.41065700  1
  O  O29  1  0.95486200  0.23663200  0.58694500  1
  O  O30  1  0.44936200  0.23023900  0.91065700  1
  O  O31  1  0.04513800  0.23663200  0.08694500  1
  O  O32  1  0.68219400  0.72791300  0.34841400  1
  O  O33  1  0.82009900  0.74119400  0.64210400  1
  O  O34  1  0.31780600  0.72791300  0.84841400  1
  O  O35  1  0.17990100  0.74119400  0.14210400  1
  O  O36  1  0.75378000  0.72980800  0.15647200  1
  O  O37  1  0.75602400  0.72078800  0.83947800  1
  O  O38  1  0.24622000  0.72980800  0.65647200  1
  O  O39  1  0.24397600  0.72078800  0.33947800  1
  O  O40  1  0.02345600  0.73628100  0.72819400  1
  O  O41  1  0.47404200  0.73000800  0.27092100  1
  O  O42  1  0.97654400  0.73628100  0.22819400  1
  O  O43  1  0.52595800  0.73000800  0.77092100  1
  O  O44  1  0.74984600  0.23546500  0.99937800  1
  O  O45  1  0.25015400  0.23546500  0.49937800  1
