# generated using pymatgen
data_Sr2NdCu3(PbO4)2
_symmetry_space_group_name_H-M   'P 1'
_cell_length_a   3.87296000
_cell_length_b   3.89429386
_cell_length_c   16.04894285
_cell_angle_alpha   89.25999306
_cell_angle_beta   89.72046989
_cell_angle_gamma   89.61512623
_symmetry_Int_Tables_number   1
_chemical_formula_structural   Sr2NdCu3(PbO4)2
_chemical_formula_sum   'Sr2 Nd1 Cu3 Pb2 O8'
_cell_volume   242.02885849
_cell_formula_units_Z   1
loop_
 _symmetry_equiv_pos_site_id
 _symmetry_equiv_pos_as_xyz
  1  'x, y, z'
loop_
 _atom_site_type_symbol
 _atom_site_label
 _atom_site_symmetry_multiplicity
 _atom_site_fract_x
 _atom_site_fract_y
 _atom_site_fract_z
 _atom_site_occupancy
  Sr  Sr0  1  0.00079800  0.00519100  0.77678900  1
  Sr  Sr1  1  0.99920200  0.99480900  0.22321100  1
  Nd  Nd2  1  0.00000000  0.00000000  0.00000000  1
  Cu  Cu3  1  0.50031200  0.50079700  0.89030800  1
  Cu  Cu4  1  0.49968800  0.49920300  0.10969200  1
  Cu  Cu5  1  0.00000000  0.00000000  0.50000000  1
  Pb  Pb6  1  0.50203600  0.49380400  0.61085500  1
  Pb  Pb7  1  0.49796400  0.50619600  0.38914500  1
  O  O8  1  0.50405200  0.50244100  0.74706900  1
  O  O9  1  0.49594800  0.49755900  0.25293100  1
  O  O10  1  0.00006700  0.50099500  0.90284300  1
  O  O11  1  0.50048000  0.99975800  0.90257100  1
  O  O12  1  0.99993300  0.49900500  0.09715700  1
  O  O13  1  0.49952000  0.00024200  0.09742900  1
  O  O14  1  0.03137600  0.09133100  0.61369400  1
  O  O15  1  0.96862400  0.90866900  0.38630600  1
