# generated using pymatgen
data_Sr8Pr4Cu9(HgO8)3
_symmetry_space_group_name_H-M   'P 1'
_cell_length_a   8.74632541
_cell_length_b   8.74632541
_cell_length_c   12.93455664
_cell_angle_alpha   74.32351523
_cell_angle_beta   74.32351523
_cell_angle_gamma   53.14522508
_symmetry_Int_Tables_number   1
_chemical_formula_structural   Sr8Pr4Cu9(HgO8)3
_chemical_formula_sum   'Sr8 Pr4 Cu9 Hg3 O24'
_cell_volume   754.73556867
_cell_formula_units_Z   1
loop_
 _symmetry_equiv_pos_site_id
 _symmetry_equiv_pos_as_xyz
  1  'x, y, z'
loop_
 _atom_site_type_symbol
 _atom_site_label
 _atom_site_symmetry_multiplicity
 _atom_site_fract_x
 _atom_site_fract_y
 _atom_site_fract_z
 _atom_site_occupancy
  Sr  Sr0  1  0.57909600  0.06650600  0.22187600  1
  Sr  Sr1  1  0.06650600  0.57909600  0.22187600  1
  Sr  Sr2  1  0.82255300  0.30992800  0.22189100  1
  Sr  Sr3  1  0.30992800  0.82255300  0.22189100  1
  Sr  Sr4  1  0.42090400  0.93349400  0.77812400  1
  Sr  Sr5  1  0.93349400  0.42090400  0.77812400  1
  Sr  Sr6  1  0.69007200  0.17744700  0.77810900  1
  Sr  Sr7  1  0.17744700  0.69007200  0.77810900  1
  Pr  Pr8  1  0.50000000  0.00000000  0.50000000  1
  Pr  Pr9  1  0.00000000  0.50000000  0.50000000  1
  Pr  Pr10  1  0.74901400  0.25098600  0.50000000  1
  Pr  Pr11  1  0.25098600  0.74901400  0.50000000  1
  Cu  Cu12  1  0.40880000  0.40880000  0.36507800  1
  Cu  Cu13  1  0.90815300  0.90815300  0.36734800  1
  Cu  Cu14  1  0.65843600  0.65843600  0.36372300  1
  Cu  Cu15  1  0.15975000  0.15975000  0.36356200  1
  Cu  Cu16  1  0.34156400  0.34156400  0.63627700  1
  Cu  Cu17  1  0.84025000  0.84025000  0.63643800  1
  Cu  Cu18  1  0.59120000  0.59120000  0.63492200  1
  Cu  Cu19  1  0.09184700  0.09184700  0.63265200  1
  Cu  Cu20  1  0.00000000  0.00000000  0.00000000  1
  Hg  Hg21  1  0.24893200  0.24893200  0.99987100  1
  Hg  Hg22  1  0.50000000  0.50000000  0.00000000  1
  Hg  Hg23  1  0.75106800  0.75106800  0.00012900  1
  O  O24  1  0.28269300  0.28269300  0.37092900  1
  O  O25  1  0.78275600  0.78275600  0.36920700  1
  O  O26  1  0.53175000  0.53175000  0.37089000  1
  O  O27  1  0.03270600  0.03270600  0.36919200  1
  O  O28  1  0.65856300  0.15669400  0.36950400  1
  O  O29  1  0.15669400  0.65856300  0.36950400  1
  O  O30  1  0.90686800  0.40782000  0.37056900  1
  O  O31  1  0.40782000  0.90686800  0.37056900  1
  O  O32  1  0.21724400  0.21724400  0.63079300  1
  O  O33  1  0.71730700  0.71730700  0.62907100  1
  O  O34  1  0.46825000  0.46825000  0.62911000  1
  O  O35  1  0.96729400  0.96729400  0.63080800  1
  O  O36  1  0.59218000  0.09313200  0.62943100  1
  O  O37  1  0.09313200  0.59218000  0.62943100  1
  O  O38  1  0.84330600  0.34143700  0.63049600  1
  O  O39  1  0.34143700  0.84330600  0.63049600  1
  O  O40  1  0.45879500  0.45879500  0.16476000  1
  O  O41  1  0.96256600  0.96256600  0.14948700  1
  O  O42  1  0.70848000  0.70848000  0.16446800  1
  O  O43  1  0.20923800  0.20923800  0.16437700  1
  O  O44  1  0.29152000  0.29152000  0.83553200  1
  O  O45  1  0.79076200  0.79076200  0.83562300  1
  O  O46  1  0.54120500  0.54120500  0.83524000  1
  O  O47  1  0.03743400  0.03743400  0.85051300  1
