# generated using pymatgen
data_Sr8V6O19
_symmetry_space_group_name_H-M   'P 1'
_cell_length_a   14.34646307
_cell_length_b   14.34646307
_cell_length_c   5.56731600
_cell_angle_alpha   90.00000000
_cell_angle_beta   90.00000000
_cell_angle_gamma   157.54217667
_symmetry_Int_Tables_number   1
_chemical_formula_structural   Sr8V6O19
_chemical_formula_sum   'Sr8 V6 O19'
_cell_volume   437.72626799
_cell_formula_units_Z   1
loop_
 _symmetry_equiv_pos_site_id
 _symmetry_equiv_pos_as_xyz
  1  'x, y, z'
loop_
 _atom_site_type_symbol
 _atom_site_label
 _atom_site_symmetry_multiplicity
 _atom_site_fract_x
 _atom_site_fract_y
 _atom_site_fract_z
 _atom_site_occupancy
  Sr  Sr0  1  0.56896300  0.43103700  0.00000000  1
  Sr  Sr1  1  0.06900800  0.93099200  0.50000000  1
  Sr  Sr2  1  0.93300700  0.06699300  0.50000000  1
  Sr  Sr3  1  0.43297500  0.56702500  0.00000000  1
  Sr  Sr4  1  0.70127400  0.29872600  0.00000000  1
  Sr  Sr5  1  0.20074700  0.79925300  0.50000000  1
  Sr  Sr6  1  0.79756500  0.20243500  0.50000000  1
  Sr  Sr7  1  0.29684900  0.70315100  0.00000000  1
  V  V8  1  0.86168500  0.13831500  0.00000000  1
  V  V9  1  0.35611400  0.64388600  0.50000000  1
  V  V10  1  0.64034600  0.35965400  0.50000000  1
  V  V11  1  0.14038300  0.85961700  0.00000000  1
  V  V12  1  0.50549900  0.49450100  0.50000000  1
  V  V13  1  0.99887700  0.00112300  0.00000000  1
  O  O14  1  0.79126300  0.20873700  0.00000000  1
  O  O15  1  0.28646700  0.71353300  0.50000000  1
  O  O16  1  0.70798400  0.29201600  0.50000000  1
  O  O17  1  0.20996500  0.79003500  0.00000000  1
  O  O18  1  0.61382900  0.88377900  0.75090300  1
  O  O19  1  0.11622100  0.38617100  0.24909700  1
  O  O20  1  0.11622100  0.38617100  0.75090300  1
  O  O21  1  0.61382900  0.88377900  0.24909700  1
  O  O22  1  0.89162200  0.61482500  0.75436100  1
  O  O23  1  0.38517500  0.10837800  0.24563900  1
  O  O24  1  0.38517500  0.10837800  0.75436100  1
  O  O25  1  0.89162200  0.61482500  0.24563900  1
  O  O26  1  0.74161700  0.74864700  0.74527100  1
  O  O27  1  0.25135300  0.25838300  0.25472900  1
  O  O28  1  0.74161700  0.74864700  0.25472900  1
  O  O29  1  0.25135300  0.25838300  0.74527100  1
  O  O30  1  0.93228000  0.06772000  0.00000000  1
  O  O31  1  0.06579400  0.93420600  0.00000000  1
  O  O32  1  0.57332300  0.42667700  0.50000000  1
