# generated using pymatgen
data_Sr2La2TlNi2O9
_symmetry_space_group_name_H-M   'P 1'
_cell_length_a   3.85507827
_cell_length_b   3.85508024
_cell_length_c   30.03851601
_cell_angle_alpha   89.99820777
_cell_angle_beta   89.99821536
_cell_angle_gamma   89.48289030
_symmetry_Int_Tables_number   1
_chemical_formula_structural   Sr2La2TlNi2O9
_chemical_formula_sum   'Sr4 La4 Tl2 Ni4 O18'
_cell_volume   446.40331015
_cell_formula_units_Z   2
loop_
 _symmetry_equiv_pos_site_id
 _symmetry_equiv_pos_as_xyz
  1  'x, y, z'
loop_
 _atom_site_type_symbol
 _atom_site_label
 _atom_site_symmetry_multiplicity
 _atom_site_fract_x
 _atom_site_fract_y
 _atom_site_fract_z
 _atom_site_occupancy
  Sr  Sr0  1  0.99563500  0.99563400  0.41665400  1
  Sr  Sr1  1  0.49570100  0.49569900  0.91651300  1
  Sr  Sr2  1  0.49565200  0.49565400  0.08340300  1
  Sr  Sr3  1  0.99568000  0.99568500  0.58345100  1
  La  La4  1  0.99917600  0.99917700  0.29790400  1
  La  La5  1  0.49919900  0.49920100  0.79780900  1
  La  La6  1  0.49914200  0.49914300  0.20210000  1
  La  La7  1  0.99924100  0.99924800  0.70214700  1
  Tl  Tl8  1  0.46213100  0.46212700  0.50004500  1
  Tl  Tl9  1  0.96213600  0.96213600  0.99996200  1
  Ni  Ni10  1  0.99909100  0.99900200  0.85475000  1
  Ni  Ni11  1  0.49923500  0.49924600  0.64523600  1
  Ni  Ni12  1  0.49884400  0.49886600  0.35509300  1
  Ni  Ni13  1  0.99911300  0.99910100  0.14486300  1
  O  O14  1  0.03547000  0.03547100  0.50001900  1
  O  O15  1  0.53542900  0.53543500  0.99997200  1
  O  O16  1  0.49956700  0.49956800  0.28121300  1
  O  O17  1  0.99953900  0.99954800  0.78110800  1
  O  O18  1  0.99954900  0.99955900  0.21890900  1
  O  O19  1  0.49958400  0.49958400  0.71879100  1
  O  O20  1  0.50891700  0.50892000  0.42992700  1
  O  O21  1  0.00886400  0.00886800  0.92987100  1
  O  O22  1  0.00889600  0.00889800  0.07006400  1
  O  O23  1  0.50889800  0.50890200  0.57013600  1
  O  O24  1  0.49830400  0.99906200  0.35288200  1
  O  O25  1  0.99827500  0.49913400  0.85267000  1
  O  O26  1  0.99904200  0.49830400  0.35288200  1
  O  O27  1  0.49916300  0.99828000  0.85266900  1
  O  O28  1  0.99826000  0.49915600  0.14718100  1
  O  O29  1  0.49835600  0.99935800  0.64729900  1
  O  O30  1  0.49916800  0.99826500  0.14718000  1
  O  O31  1  0.99934100  0.49836500  0.64729600  1
