# generated using pymatgen
data_Sr2Pr2PtO6
_symmetry_space_group_name_H-M   'P 1'
_cell_length_a   6.93986898
_cell_length_b   6.93986898
_cell_length_c   6.93986946
_cell_angle_alpha   51.61477426
_cell_angle_beta   51.61477426
_cell_angle_gamma   51.61476794
_symmetry_Int_Tables_number   1
_chemical_formula_structural   Sr2Pr2PtO6
_chemical_formula_sum   'Sr2 Pr2 Pt1 O6'
_cell_volume   189.69791235
_cell_formula_units_Z   1
loop_
 _symmetry_equiv_pos_site_id
 _symmetry_equiv_pos_as_xyz
  1  'x, y, z'
loop_
 _atom_site_type_symbol
 _atom_site_label
 _atom_site_symmetry_multiplicity
 _atom_site_fract_x
 _atom_site_fract_y
 _atom_site_fract_z
 _atom_site_occupancy
  Sr  Sr0  1  0.16461900  0.16461900  0.16461900  1
  Sr  Sr1  1  0.83538100  0.83538100  0.83538100  1
  Pr  Pr2  1  0.64148000  0.64148000  0.64148000  1
  Pr  Pr3  1  0.35852000  0.35852000  0.35852000  1
  Pt  Pt4  1  0.00000000  0.00000000  0.00000000  1
  O  O5  1  0.76393800  0.42131600  0.03460000  1
  O  O6  1  0.42131600  0.03460000  0.76393800  1
  O  O7  1  0.03460000  0.76393800  0.42131600  1
  O  O8  1  0.23606200  0.57868400  0.96540000  1
  O  O9  1  0.57868400  0.96540000  0.23606200  1
  O  O10  1  0.96540000  0.23606200  0.57868400  1
