# generated using pymatgen
data_SrCa2Al6(SiO5)6
_symmetry_space_group_name_H-M   'P 1'
_cell_length_a   5.90450800
_cell_length_b   13.71931858
_cell_length_c   14.14559346
_cell_angle_alpha   69.36493523
_cell_angle_beta   78.05431620
_cell_angle_gamma   77.90959223
_symmetry_Int_Tables_number   1
_chemical_formula_structural   SrCa2Al6(SiO5)6
_chemical_formula_sum   'Sr2 Ca4 Al12 Si12 O60'
_cell_volume   1037.41118902
_cell_formula_units_Z   2
loop_
 _symmetry_equiv_pos_site_id
 _symmetry_equiv_pos_as_xyz
  1  'x, y, z'
loop_
 _atom_site_type_symbol
 _atom_site_label
 _atom_site_symmetry_multiplicity
 _atom_site_fract_x
 _atom_site_fract_y
 _atom_site_fract_z
 _atom_site_occupancy
  Sr  Sr0  1  0.13255800  0.46838400  0.25003400  1
  Sr  Sr1  1  0.46548700  0.80157500  0.25002500  1
  Ca  Ca2  1  0.53393000  0.19306400  0.74998700  1
  Ca  Ca3  1  0.86712300  0.52676700  0.74981100  1
  Ca  Ca4  1  0.20063100  0.85971100  0.75004900  1
  Ca  Ca5  1  0.79753100  0.14041100  0.25005300  1
  Al  Al6  1  0.99958500  0.99986500  0.50046700  1
  Al  Al7  1  0.66671200  0.66645000  0.50170900  1
  Al  Al8  1  0.33326700  0.33242000  0.50182700  1
  Al  Al9  1  0.50116800  0.50027300  0.99818500  1
  Al  Al10  1  0.16657400  0.16680600  0.99949900  1
  Al  Al11  1  0.83449400  0.83426700  0.99831700  1
  Al  Al12  1  0.50001100  0.99974800  0.50066600  1
  Al  Al13  1  0.83203400  0.33224400  0.50219900  1
  Al  Al14  1  0.16472100  0.66640500  0.50200800  1
  Al  Al15  1  0.66718400  0.16681400  0.99929400  1
  Al  Al16  1  0.00015000  0.50034200  0.99782000  1
  Al  Al17  1  0.33267400  0.83445500  0.99799500  1
  Si  Si18  1  0.21976100  0.19467800  0.37025000  1
  Si  Si19  1  0.88450200  0.86382600  0.37078300  1
  Si  Si20  1  0.55155300  0.52875200  0.37176700  1
  Si  Si21  1  0.36789800  0.39034200  0.86933200  1
  Si  Si22  1  0.03473900  0.05751700  0.86854600  1
  Si  Si23  1  0.70137800  0.72381700  0.86877400  1
  Si  Si24  1  0.44722700  0.46939100  0.63158600  1
  Si  Si25  1  0.11416500  0.13656500  0.63072900  1
  Si  Si26  1  0.78051300  0.80354100  0.63101700  1
  Si  Si27  1  0.29996800  0.27483700  0.12973900  1
  Si  Si28  1  0.96512600  0.94441500  0.12919000  1
  Si  Si29  1  0.63279600  0.60986100  0.12826400  1
  O  O30  1  0.09241600  0.05317900  0.74952600  1
  O  O31  1  0.75867200  0.72014800  0.74987000  1
  O  O32  1  0.42549500  0.38591100  0.75057300  1
  O  O33  1  0.57964400  0.60578800  0.25001800  1
  O  O34  1  0.24508900  0.27497500  0.25000000  1
  O  O35  1  0.90956600  0.94474300  0.24998800  1
  O  O36  1  0.47478000  0.61643700  0.43253000  1
  O  O37  1  0.14250200  0.28078000  0.43322500  1
  O  O38  1  0.80772400  0.94933200  0.43371400  1
  O  O39  1  0.06947600  0.92979100  0.93107100  1
  O  O40  1  0.73620500  0.59617700  0.93131600  1
  O  O41  1  0.40150800  0.26317300  0.93407800  1
  O  O42  1  0.19083300  0.05255200  0.56597600  1
  O  O43  1  0.85691600  0.71715700  0.56879600  1
  O  O44  1  0.52369900  0.38362500  0.56883500  1
  O  O45  1  0.59647000  0.73806500  0.06748900  1
  O  O46  1  0.26464300  0.40288600  0.06674100  1
  O  O47  1  0.93016400  0.07181000  0.06626300  1
  O  O48  1  0.68626000  0.78996800  0.38877100  1
  O  O49  1  0.35145400  0.45576700  0.38970600  1
  O  O50  1  0.01837400  0.12250000  0.38516700  1
  O  O51  1  0.89070800  0.78685500  0.88433400  1
  O  O52  1  0.55786500  0.45358900  0.88404000  1
  O  O53  1  0.22397500  0.12053900  0.88432200  1
  O  O54  1  0.98042500  0.87687400  0.61546500  1
  O  O55  1  0.64680100  0.54295500  0.61582300  1
  O  O56  1  0.31394900  0.20962400  0.61592000  1
  O  O57  1  0.77878600  0.88245800  0.11124100  1
  O  O58  1  0.44469700  0.54883500  0.11035700  1
  O  O59  1  0.10850500  0.21257100  0.11485000  1
  O  O60  1  0.30241900  0.95319600  0.44048400  1
  O  O61  1  0.96872800  0.62016300  0.44067500  1
  O  O62  1  0.63562700  0.28616600  0.44072600  1
  O  O63  1  0.23827000  0.58648500  0.93895600  1
  O  O64  1  0.90434900  0.25396400  0.93929100  1
  O  O65  1  0.57145900  0.92040600  0.93873400  1
  O  O66  1  0.36379700  0.71289400  0.56134700  1
  O  O67  1  0.03080800  0.37919000  0.56100200  1
  O  O68  1  0.69713300  0.04694000  0.56058000  1
  O  O69  1  0.42931500  0.08018400  0.05951100  1
  O  O70  1  0.09574400  0.74730400  0.05936100  1
  O  O71  1  0.76264700  0.41329200  0.05934700  1
  O  O72  1  0.24686200  0.67691900  0.74965500  1
  O  O73  1  0.91346800  0.34345100  0.75007100  1
  O  O74  1  0.58014000  0.01013800  0.74991900  1
  O  O75  1  0.41916800  0.99863300  0.25015100  1
  O  O76  1  0.08832200  0.66549800  0.25016400  1
  O  O77  1  0.75597100  0.32339000  0.25011600  1
  O  O78  1  0.23185900  0.88652400  0.10758300  1
  O  O79  1  0.89995400  0.55225800  0.10701400  1
  O  O80  1  0.56859200  0.21574100  0.11190900  1
  O  O81  1  0.52454800  0.87562800  0.61332000  1
  O  O82  1  0.19153500  0.54168000  0.61362300  1
  O  O83  1  0.85767200  0.20831200  0.61377700  1
  O  O84  1  0.43364200  0.78409300  0.88655500  1
  O  O85  1  0.10010000  0.45084100  0.88621300  1
  O  O86  1  0.76696300  0.11786300  0.88647300  1
  O  O87  1  0.13690600  0.79158100  0.39241500  1
  O  O88  1  0.80447900  0.45694200  0.39301700  1
  O  O89  1  0.47646600  0.12371300  0.38808500  1
