# generated using pymatgen
data_Sr2Sm2TlNi2O9
_symmetry_space_group_name_H-M   'P 1'
_cell_length_a   15.13115950
_cell_length_b   15.12827189
_cell_length_c   3.80617583
_cell_angle_alpha   82.81704731
_cell_angle_beta   82.73080099
_cell_angle_gamma   14.45215170
_symmetry_Int_Tables_number   1
_chemical_formula_structural   Sr2Sm2TlNi2O9
_chemical_formula_sum   'Sr2 Sm2 Tl1 Ni2 O9'
_cell_volume   215.68412080
_cell_formula_units_Z   1
loop_
 _symmetry_equiv_pos_site_id
 _symmetry_equiv_pos_as_xyz
  1  'x, y, z'
loop_
 _atom_site_type_symbol
 _atom_site_label
 _atom_site_symmetry_multiplicity
 _atom_site_fract_x
 _atom_site_fract_y
 _atom_site_fract_z
 _atom_site_occupancy
  Sr  Sr0  1  0.41022800  0.42029300  0.57970700  1
  Sr  Sr1  1  0.57970700  0.58977200  0.41022800  1
  Sm  Sm2  1  0.29666900  0.29813100  0.70186900  1
  Sm  Sm3  1  0.70186900  0.70333100  0.29666900  1
  Tl  Tl4  1  0.96193000  0.03807000  0.96193000  1
  Ni  Ni5  1  0.85066600  0.85347100  0.14652900  1
  Ni  Ni6  1  0.14652900  0.14933400  0.85066600  1
  O  O7  1  0.84837700  0.85090700  0.64898700  1
  O  O8  1  0.34827100  0.35101300  0.14909300  1
  O  O9  1  0.14909300  0.15162300  0.34827100  1
  O  O10  1  0.64898700  0.65172900  0.84837700  1
  O  O11  1  0.92959900  0.92806500  0.07193500  1
  O  O12  1  0.07193500  0.07040100  0.92959900  1
  O  O13  1  0.77949600  0.78032900  0.21967100  1
  O  O14  1  0.21967100  0.22050400  0.77949600  1
  O  O15  1  0.52197300  0.47802700  0.52197300  1
