# generated using pymatgen
data_SrCa3Al8(SiO5)8
_symmetry_space_group_name_H-M   'P 1'
_cell_length_a   13.08623000
_cell_length_b   5.91076200
_cell_length_c   8.92507598
_cell_angle_alpha   89.84423365
_cell_angle_beta   90.00000000
_cell_angle_gamma   90.00000000
_symmetry_Int_Tables_number   1
_chemical_formula_structural   SrCa3Al8(SiO5)8
_chemical_formula_sum   'Sr1 Ca3 Al8 Si8 O40'
_cell_volume   690.34842577
_cell_formula_units_Z   1
loop_
 _symmetry_equiv_pos_site_id
 _symmetry_equiv_pos_as_xyz
  1  'x, y, z'
loop_
 _atom_site_type_symbol
 _atom_site_label
 _atom_site_symmetry_multiplicity
 _atom_site_fract_x
 _atom_site_fract_y
 _atom_site_fract_z
 _atom_site_occupancy
  Sr  Sr0  1  0.50000000  0.99439600  0.67180900  1
  Ca  Ca1  1  0.00000000  0.50388800  0.83605900  1
  Ca  Ca2  1  0.00000000  0.00395100  0.33702800  1
  Ca  Ca3  1  0.50000000  0.49496600  0.16295000  1
  Al  Al4  1  0.75167200  0.25094200  0.75001300  1
  Al  Al5  1  0.75049900  0.74988800  0.24995200  1
  Al  Al6  1  0.24950100  0.74988800  0.24995200  1
  Al  Al7  1  0.24832800  0.25094200  0.75001300  1
  Al  Al8  1  0.75062300  0.25016100  0.25001600  1
  Al  Al9  1  0.75182000  0.74893600  0.75006600  1
  Al  Al10  1  0.24937700  0.25016100  0.25001600  1
  Al  Al11  1  0.24818000  0.74893600  0.75006600  1
  Si  Si12  1  0.62050000  0.50094300  0.51931800  1
  Si  Si13  1  0.61990600  0.00126100  0.02307100  1
  Si  Si14  1  0.11858300  0.49881200  0.47907800  1
  Si  Si15  1  0.11865400  0.99876000  0.97928200  1
  Si  Si16  1  0.88141700  0.49881200  0.47907800  1
  Si  Si17  1  0.88134600  0.99876000  0.97928200  1
  Si  Si18  1  0.37950000  0.50094300  0.51931800  1
  Si  Si19  1  0.38009400  0.00126100  0.02307100  1
  O  O20  1  0.69148100  0.49948900  0.85143500  1
  O  O21  1  0.69130300  0.99969700  0.35111800  1
  O  O22  1  0.19041800  0.50044700  0.14818900  1
  O  O23  1  0.19040100  0.00044600  0.64934300  1
  O  O24  1  0.80958200  0.50044700  0.14818900  1
  O  O25  1  0.80959900  0.00044600  0.64934300  1
  O  O26  1  0.30851900  0.49948900  0.85143500  1
  O  O27  1  0.30869700  0.99969700  0.35111800  1
  O  O28  1  0.36332300  0.23127100  0.12250300  1
  O  O29  1  0.35929900  0.72702100  0.61927800  1
  O  O30  1  0.86508300  0.77025200  0.87865400  1
  O  O31  1  0.86458500  0.27021300  0.37799700  1
  O  O32  1  0.13491700  0.77025200  0.87865400  1
  O  O33  1  0.13541500  0.27021300  0.37799700  1
  O  O34  1  0.63667700  0.23127100  0.12250300  1
  O  O35  1  0.64070100  0.72702100  0.61927800  1
  O  O36  1  0.68420200  0.49936100  0.36014100  1
  O  O37  1  0.68340500  0.99931600  0.86310300  1
  O  O38  1  0.18180700  0.50035000  0.63872000  1
  O  O39  1  0.18446600  0.00039900  0.13701900  1
  O  O40  1  0.81819300  0.50035000  0.63872000  1
  O  O41  1  0.81553400  0.00039900  0.13701900  1
  O  O42  1  0.31579800  0.49936100  0.36014100  1
  O  O43  1  0.31659500  0.99931600  0.86310300  1
  O  O44  1  0.00000000  0.47387600  0.11261000  1
  O  O45  1  0.00000000  0.97390100  0.61255000  1
  O  O46  1  0.50000000  0.52803700  0.88726800  1
  O  O47  1  0.50000000  0.02833100  0.37357900  1
  O  O48  1  0.63508500  0.77151300  0.12462300  1
  O  O49  1  0.63889800  0.27509400  0.62161400  1
  O  O50  1  0.13382200  0.22704300  0.87668900  1
  O  O51  1  0.13433000  0.72724600  0.37608900  1
  O  O52  1  0.86617800  0.22704300  0.87668900  1
  O  O53  1  0.86567000  0.72724600  0.37608900  1
  O  O54  1  0.36491500  0.77151300  0.12462300  1
  O  O55  1  0.36110200  0.27509400  0.62161400  1
  O  O56  1  0.00000000  0.49633000  0.54547500  1
  O  O57  1  0.00000000  0.99640900  0.04695100  1
  O  O58  1  0.50000000  0.50388200  0.45702800  1
  O  O59  1  0.50000000  0.00431400  0.96207200  1
