# generated using pymatgen
data_Sr2LaMn2O7
_symmetry_space_group_name_H-M   'P 1'
_cell_length_a   3.92901400
_cell_length_b   3.92901500
_cell_length_c   10.43780179
_cell_angle_alpha   79.15088943
_cell_angle_beta   79.15149180
_cell_angle_gamma   89.99623765
_symmetry_Int_Tables_number   1
_chemical_formula_structural   Sr2LaMn2O7
_chemical_formula_sum   'Sr2 La1 Mn2 O7'
_cell_volume   155.31729882
_cell_formula_units_Z   1
loop_
 _symmetry_equiv_pos_site_id
 _symmetry_equiv_pos_as_xyz
  1  'x, y, z'
loop_
 _atom_site_type_symbol
 _atom_site_label
 _atom_site_symmetry_multiplicity
 _atom_site_fract_x
 _atom_site_fract_y
 _atom_site_fract_z
 _atom_site_occupancy
  Sr  Sr0  1  0.31667700  0.31667800  0.36664300  1
  Sr  Sr1  1  0.68332900  0.68332200  0.63335600  1
  La  La2  1  0.49999700  0.49999000  0.99999900  1
  Mn  Mn3  1  0.90191000  0.90191400  0.19618600  1
  Mn  Mn4  1  0.09809100  0.09809300  0.80380900  1
  O  O5  1  0.00000100  0.99999900  0.99999800  1
  O  O6  1  0.19373600  0.19374400  0.61248600  1
  O  O7  1  0.80626300  0.80625800  0.38751600  1
  O  O8  1  0.59165200  0.09165000  0.81664400  1
  O  O9  1  0.09165200  0.59165300  0.81664600  1
  O  O10  1  0.40834400  0.90835200  0.18336000  1
  O  O11  1  0.90834900  0.40834700  0.18335700  1
