# generated using pymatgen
data_Sr3LaV3O12
_symmetry_space_group_name_H-M   'P 1'
_cell_length_a   11.03303322
_cell_length_b   11.03303322
_cell_length_c   9.36424923
_cell_angle_alpha   84.53260304
_cell_angle_beta   84.53260304
_cell_angle_gamma   29.81301931
_symmetry_Int_Tables_number   1
_chemical_formula_structural   Sr3LaV3O12
_chemical_formula_sum   'Sr6 La2 V6 O24'
_cell_volume   563.95883256
_cell_formula_units_Z   2
loop_
 _symmetry_equiv_pos_site_id
 _symmetry_equiv_pos_as_xyz
  1  'x, y, z'
loop_
 _atom_site_type_symbol
 _atom_site_label
 _atom_site_symmetry_multiplicity
 _atom_site_fract_x
 _atom_site_fract_y
 _atom_site_fract_z
 _atom_site_occupancy
  Sr  Sr0  1  0.00393000  0.00393000  0.00743600  1
  Sr  Sr1  1  0.33184800  0.33184800  0.66209500  1
  Sr  Sr2  1  0.66529300  0.66529300  0.32554000  1
  Sr  Sr3  1  0.79955800  0.79955800  0.00477400  1
  Sr  Sr4  1  0.13415400  0.13415400  0.66838000  1
  Sr  Sr5  1  0.19897500  0.19897500  0.00167700  1
  La  La6  1  0.52170200  0.52170200  0.63561800  1
  La  La7  1  0.87912900  0.87912900  0.33650000  1
  V  V8  1  0.93538700  0.93538700  0.66663700  1
  V  V9  1  0.27020700  0.27020700  0.32553000  1
  V  V10  1  0.60265900  0.60265900  0.98815500  1
  V  V11  1  0.06222000  0.06222000  0.34887100  1
  V  V12  1  0.39701400  0.39701400  0.00861500  1
  V  V13  1  0.73135000  0.73135000  0.66922100  1
  O  O14  1  0.54710000  0.54710000  0.13032300  1
  O  O15  1  0.87767000  0.87767000  0.80510100  1
  O  O16  1  0.21360400  0.21360400  0.46898900  1
  O  O17  1  0.45452000  0.45452000  0.85966000  1
  O  O18  1  0.79197500  0.79197500  0.52649500  1
  O  O19  1  0.11875700  0.11875700  0.20571700  1
  O  O20  1  0.31730600  0.83125300  0.45873400  1
  O  O21  1  0.66021500  0.14133800  0.10838100  1
  O  O22  1  0.98727700  0.48989300  0.77522100  1
  O  O23  1  0.83125300  0.31730600  0.45873400  1
  O  O24  1  0.14133800  0.66021500  0.10838100  1
  O  O25  1  0.48989300  0.98727700  0.77522100  1
  O  O26  1  0.98852900  0.98852900  0.28436100  1
  O  O27  1  0.32318500  0.32318500  0.94463700  1
  O  O28  1  0.65625300  0.65625300  0.61115100  1
  O  O29  1  0.67926700  0.17901900  0.55969200  1
  O  O30  1  0.01072100  0.51168200  0.22048800  1
  O  O31  1  0.34033900  0.84848500  0.88489800  1
  O  O32  1  0.17901900  0.67926700  0.55969200  1
  O  O33  1  0.51168200  0.01072100  0.22048800  1
  O  O34  1  0.84848500  0.34033900  0.88489800  1
  O  O35  1  0.01045700  0.01045700  0.72339400  1
  O  O36  1  0.34413200  0.34413200  0.38847300  1
  O  O37  1  0.67810400  0.67810400  0.05150300  1
