# generated using pymatgen
data_Sr2MnGaO5F
_symmetry_space_group_name_H-M   'P 1'
_cell_length_a   3.88232100
_cell_length_b   4.02042200
_cell_length_c   7.79322300
_cell_angle_alpha   90.00000000
_cell_angle_beta   90.00000000
_cell_angle_gamma   90.00000000
_symmetry_Int_Tables_number   1
_chemical_formula_structural   Sr2MnGaO5F
_chemical_formula_sum   'Sr2 Mn1 Ga1 O5 F1'
_cell_volume   121.64105705
_cell_formula_units_Z   1
loop_
 _symmetry_equiv_pos_site_id
 _symmetry_equiv_pos_as_xyz
  1  'x, y, z'
loop_
 _atom_site_type_symbol
 _atom_site_label
 _atom_site_symmetry_multiplicity
 _atom_site_fract_x
 _atom_site_fract_y
 _atom_site_fract_z
 _atom_site_occupancy
  Sr  Sr0  1  0.50000000  0.50000000  0.76375400  1
  Sr  Sr1  1  0.50000000  0.50000000  0.23624600  1
  Mn  Mn2  1  0.00000000  0.00000000  0.00000000  1
  Ga  Ga3  1  0.00000000  0.00000000  0.50000000  1
  O  O4  1  0.50000000  0.00000000  0.00000000  1
  O  O5  1  0.00000000  0.50000000  0.00000000  1
  O  O6  1  0.00000000  0.00000000  0.75121600  1
  O  O7  1  0.00000000  0.00000000  0.24878400  1
  O  O8  1  0.50000000  0.00000000  0.50000000  1
  F  F9  1  0.00000000  0.50000000  0.50000000  1
