# generated using pymatgen
data_Sr5FeMo4O15
_symmetry_space_group_name_H-M   'P 1'
_cell_length_a   9.07108942
_cell_length_b   9.07108942
_cell_length_c   7.00508134
_cell_angle_alpha   75.04660006
_cell_angle_beta   75.04660006
_cell_angle_gamma   37.03683569
_symmetry_Int_Tables_number   1
_chemical_formula_structural   Sr5FeMo4O15
_chemical_formula_sum   'Sr5 Fe1 Mo4 O15'
_cell_volume   334.08645763
_cell_formula_units_Z   1
loop_
 _symmetry_equiv_pos_site_id
 _symmetry_equiv_pos_as_xyz
  1  'x, y, z'
loop_
 _atom_site_type_symbol
 _atom_site_label
 _atom_site_symmetry_multiplicity
 _atom_site_fract_x
 _atom_site_fract_y
 _atom_site_fract_z
 _atom_site_occupancy
  Sr  Sr0  1  0.80820300  0.80820300  0.28515100  1
  Sr  Sr1  1  0.59418800  0.59418800  0.09154100  1
  Sr  Sr2  1  0.19179700  0.19179700  0.71484900  1
  Sr  Sr3  1  0.40581200  0.40581200  0.90845900  1
  Sr  Sr4  1  0.00000000  0.00000000  0.50000000  1
  Fe  Fe5  1  0.00000000  0.00000000  0.00000000  1
  Mo  Mo6  1  0.59955200  0.59955200  0.59956600  1
  Mo  Mo7  1  0.19856600  0.19856600  0.20182200  1
  Mo  Mo8  1  0.80143400  0.80143400  0.79817800  1
  Mo  Mo9  1  0.40044800  0.40044800  0.40043400  1
  O  O10  1  0.19877800  0.70186300  0.20327500  1
  O  O11  1  0.00000000  0.50000000  0.00000000  1
  O  O12  1  0.60471300  0.09758500  0.60105300  1
  O  O13  1  0.80122200  0.29813700  0.79672500  1
  O  O14  1  0.39528700  0.90241500  0.39894700  1
  O  O15  1  0.30327700  0.30327700  0.30362600  1
  O  O16  1  0.09815300  0.09815300  0.09592800  1
  O  O17  1  0.69672300  0.69672300  0.69637400  1
  O  O18  1  0.90184700  0.90184700  0.90407200  1
  O  O19  1  0.50000000  0.50000000  0.50000000  1
  O  O20  1  0.09758500  0.60471300  0.60105300  1
  O  O21  1  0.90241500  0.39528700  0.39894700  1
  O  O22  1  0.50000000  0.00000000  0.00000000  1
  O  O23  1  0.70186300  0.19877800  0.20327500  1
  O  O24  1  0.29813700  0.80122200  0.79672500  1
