# generated using pymatgen
data_Sr4LaCrFe4O15
_symmetry_space_group_name_H-M   'P 1'
_cell_length_a   8.72318661
_cell_length_b   8.72318661
_cell_length_c   6.77902499
_cell_angle_alpha   75.23519393
_cell_angle_beta   75.23519393
_cell_angle_gamma   36.95796468
_symmetry_Int_Tables_number   1
_chemical_formula_structural   Sr4LaCrFe4O15
_chemical_formula_sum   'Sr4 La1 Cr1 Fe4 O15'
_cell_volume   298.73347899
_cell_formula_units_Z   1
loop_
 _symmetry_equiv_pos_site_id
 _symmetry_equiv_pos_as_xyz
  1  'x, y, z'
loop_
 _atom_site_type_symbol
 _atom_site_label
 _atom_site_symmetry_multiplicity
 _atom_site_fract_x
 _atom_site_fract_y
 _atom_site_fract_z
 _atom_site_occupancy
  Sr  Sr0  1  0.59963900  0.59963900  0.10116200  1
  Sr  Sr1  1  0.99996000  0.99996000  0.50066200  1
  Sr  Sr2  1  0.40015200  0.40015200  0.89910000  1
  Sr  Sr3  1  0.19987100  0.19987100  0.69907800  1
  La  La4  1  0.79904100  0.79904100  0.29941200  1
  Cr  Cr5  1  0.19892700  0.19892700  0.19920400  1
  Fe  Fe6  1  0.59945700  0.59945700  0.60048100  1
  Fe  Fe7  1  0.00042800  0.00042800  0.99902600  1
  Fe  Fe8  1  0.40038100  0.40038100  0.39959400  1
  Fe  Fe9  1  0.79945400  0.79945400  0.80082200  1
  O  O10  1  0.29804500  0.29804500  0.29849400  1
  O  O11  1  0.50026500  0.50026500  0.49868700  1
  O  O12  1  0.89805300  0.89805300  0.90548900  1
  O  O13  1  0.70259300  0.70259300  0.69300400  1
  O  O14  1  0.10170300  0.10170300  0.10487900  1
  O  O15  1  0.09583600  0.60284600  0.59233800  1
  O  O16  1  0.29967900  0.80012200  0.80146400  1
  O  O17  1  0.70136000  0.19214600  0.20194700  1
  O  O18  1  0.50259300  0.99964100  0.00684600  1
  O  O19  1  0.90078900  0.40702100  0.39785700  1
  O  O20  1  0.60284600  0.09583600  0.59233800  1
  O  O21  1  0.80012200  0.29967900  0.80146400  1
  O  O22  1  0.19214600  0.70136000  0.20194700  1
  O  O23  1  0.99964100  0.50259300  0.00684600  1
  O  O24  1  0.40702100  0.90078900  0.39785700  1
