# generated using pymatgen
data_Sr4Nb2O9
_symmetry_space_group_name_H-M   'P 1'
_cell_length_a   10.73035562
_cell_length_b   10.73035562
_cell_length_c   10.73035562
_cell_angle_alpha   147.49578230
_cell_angle_beta   134.45919026
_cell_angle_gamma   57.06051392
_symmetry_Int_Tables_number   1
_chemical_formula_structural   Sr4Nb2O9
_chemical_formula_sum   'Sr8 Nb4 O18'
_cell_volume   470.30430768
_cell_formula_units_Z   2
loop_
 _symmetry_equiv_pos_site_id
 _symmetry_equiv_pos_as_xyz
  1  'x, y, z'
loop_
 _atom_site_type_symbol
 _atom_site_label
 _atom_site_symmetry_multiplicity
 _atom_site_fract_x
 _atom_site_fract_y
 _atom_site_fract_z
 _atom_site_occupancy
  Sr  Sr0  1  0.24486300  0.50000000  0.74486300  1
  Sr  Sr1  1  0.87182900  0.13960500  0.73222400  1
  Sr  Sr2  1  0.59261900  0.86039500  0.73222400  1
  Sr  Sr3  1  0.75513700  0.50000000  0.25513700  1
  Sr  Sr4  1  0.40738100  0.13960500  0.26777600  1
  Sr  Sr5  1  0.12817100  0.86039500  0.26777600  1
  Sr  Sr6  1  0.17124100  0.67124100  0.50000000  1
  Sr  Sr7  1  0.82875900  0.32875900  0.50000000  1
  Nb  Nb8  1  0.00000000  0.00000000  0.00000000  1
  Nb  Nb9  1  0.66460400  0.66460400  0.00000000  1
  Nb  Nb10  1  0.33539600  0.33539600  0.00000000  1
  Nb  Nb11  1  0.50000000  0.00000000  0.50000000  1
  O  O12  1  0.25204200  0.00000000  0.25204200  1
  O  O13  1  0.85892700  0.63513100  0.22379600  1
  O  O14  1  0.58866500  0.36486900  0.22379600  1
  O  O15  1  0.57554900  0.30472100  0.72917100  1
  O  O16  1  0.27323200  0.02529400  0.75206200  1
  O  O17  1  0.92349100  0.69945100  0.77596100  1
  O  O18  1  0.42445100  0.15362200  0.72917100  1
  O  O19  1  0.07650900  0.85247000  0.77596100  1
  O  O20  1  0.72676800  0.47883000  0.75206200  1
  O  O21  1  0.74795800  0.00000000  0.74795800  1
  O  O22  1  0.41133500  0.63513100  0.77620400  1
  O  O23  1  0.14107300  0.36486900  0.77620400  1
  O  O24  1  0.42445100  0.69527900  0.27082900  1
  O  O25  1  0.07650900  0.30054900  0.22403900  1
  O  O26  1  0.72676800  0.97470600  0.24793800  1
  O  O27  1  0.57554900  0.84637800  0.27082900  1
  O  O28  1  0.27323200  0.52117000  0.24793800  1
  O  O29  1  0.92349100  0.14753000  0.22403900  1
