# generated using pymatgen
data_Sr4CeMn5O15
_symmetry_space_group_name_H-M   'P 1'
_cell_length_a   8.72063576
_cell_length_b   8.72063576
_cell_length_c   6.71430811
_cell_angle_alpha   75.10047743
_cell_angle_beta   75.10047743
_cell_angle_gamma   36.81981357
_symmetry_Int_Tables_number   1
_chemical_formula_structural   Sr4CeMn5O15
_chemical_formula_sum   'Sr4 Ce1 Mn5 O15'
_cell_volume   294.56388577
_cell_formula_units_Z   1
loop_
 _symmetry_equiv_pos_site_id
 _symmetry_equiv_pos_as_xyz
  1  'x, y, z'
loop_
 _atom_site_type_symbol
 _atom_site_label
 _atom_site_symmetry_multiplicity
 _atom_site_fract_x
 _atom_site_fract_y
 _atom_site_fract_z
 _atom_site_occupancy
  Sr  Sr0  1  0.39924200  0.39924200  0.39769900  1
  Sr  Sr1  1  0.80139200  0.80139200  0.79983200  1
  Sr  Sr2  1  0.19860800  0.19860800  0.20016800  1
  Sr  Sr3  1  0.60075800  0.60075800  0.60230100  1
  Ce  Ce4  1  0.00000000  0.00000000  0.00000000  1
  Mn  Mn5  1  0.00000000  0.00000000  0.50000000  1
  Mn  Mn6  1  0.20045400  0.20045400  0.69850000  1
  Mn  Mn7  1  0.60008000  0.60008000  0.10016400  1
  Mn  Mn8  1  0.39992000  0.39992000  0.89983600  1
  Mn  Mn9  1  0.79954600  0.79954600  0.30150000  1
  O  O10  1  0.71165900  0.19422700  0.71143000  1
  O  O11  1  0.89942600  0.37957400  0.90451800  1
  O  O12  1  0.28834100  0.80577300  0.28857000  1
  O  O13  1  0.10057400  0.62042600  0.09548200  1
  O  O14  1  0.50000000  0.00000000  0.50000000  1
  O  O15  1  0.50000000  0.50000000  0.00000000  1
  O  O16  1  0.70209000  0.70209000  0.18758700  1
  O  O17  1  0.09605800  0.09605800  0.61137600  1
  O  O18  1  0.90394200  0.90394200  0.38862400  1
  O  O19  1  0.29791000  0.29791000  0.81241300  1
  O  O20  1  0.00000000  0.50000000  0.50000000  1
  O  O21  1  0.19422700  0.71165900  0.71143000  1
  O  O22  1  0.62042600  0.10057400  0.09548200  1
  O  O23  1  0.37957400  0.89942600  0.90451800  1
  O  O24  1  0.80577300  0.28834100  0.28857000  1
