# generated using pymatgen
data_Sr3La(CuO2)4
_symmetry_space_group_name_H-M   'P 1'
_cell_length_a   3.66665200
_cell_length_b   11.05781500
_cell_length_c   11.14437200
_cell_angle_alpha   90.00000000
_cell_angle_beta   90.00000000
_cell_angle_gamma   90.00000000
_symmetry_Int_Tables_number   1
_chemical_formula_structural   Sr3La(CuO2)4
_chemical_formula_sum   'Sr6 La2 Cu8 O16'
_cell_volume   451.85034010
_cell_formula_units_Z   2
loop_
 _symmetry_equiv_pos_site_id
 _symmetry_equiv_pos_as_xyz
  1  'x, y, z'
loop_
 _atom_site_type_symbol
 _atom_site_label
 _atom_site_symmetry_multiplicity
 _atom_site_fract_x
 _atom_site_fract_y
 _atom_site_fract_z
 _atom_site_occupancy
  Sr  Sr0  1  0.50000000  0.21827900  0.25932000  1
  Sr  Sr1  1  0.50000000  0.78172100  0.75932000  1
  Sr  Sr2  1  0.50000000  0.48847200  0.46772100  1
  Sr  Sr3  1  0.50000000  0.00628700  0.53085000  1
  Sr  Sr4  1  0.50000000  0.99371300  0.03085000  1
  Sr  Sr5  1  0.50000000  0.51152800  0.96772100  1
  La  La6  1  0.50000000  0.28200000  0.73887700  1
  La  La7  1  0.50000000  0.71800000  0.23887700  1
  Cu  Cu8  1  0.00000000  0.03465700  0.78699500  1
  Cu  Cu9  1  0.00000000  0.46187400  0.21642600  1
  Cu  Cu10  1  0.00000000  0.96534300  0.28699500  1
  Cu  Cu11  1  0.00000000  0.53812600  0.71642600  1
  Cu  Cu12  1  0.00000000  0.24777300  0.49848100  1
  Cu  Cu13  1  0.00000000  0.75222700  0.99848100  1
  Cu  Cu14  1  0.00000000  0.75271500  0.49810900  1
  Cu  Cu15  1  0.00000000  0.24728500  0.99810900  1
  O  O16  1  0.00000000  0.86517400  0.61630900  1
  O  O17  1  0.00000000  0.64263300  0.37476500  1
  O  O18  1  0.00000000  0.13482600  0.11630900  1
  O  O19  1  0.00000000  0.35736700  0.87476500  1
  O  O20  1  0.50000000  0.06425100  0.80111300  1
  O  O21  1  0.50000000  0.45568800  0.19853300  1
  O  O22  1  0.50000000  0.93574900  0.30111300  1
  O  O23  1  0.50000000  0.54431200  0.69853300  1
  O  O24  1  0.00000000  0.38504700  0.60714300  1
  O  O25  1  0.00000000  0.10759800  0.39830100  1
  O  O26  1  0.00000000  0.61495300  0.10714300  1
  O  O27  1  0.00000000  0.89240200  0.89830100  1
  O  O28  1  0.00000000  0.35507400  0.36179000  1
  O  O29  1  0.00000000  0.15325100  0.64526700  1
  O  O30  1  0.00000000  0.84674900  0.14526700  1
  O  O31  1  0.00000000  0.64492600  0.86179000  1
