# generated using pymatgen
data_Sr4NdMn5O15
_symmetry_space_group_name_H-M   'P 1'
_cell_length_a   8.68793003
_cell_length_b   8.68793003
_cell_length_c   6.71408750
_cell_angle_alpha   74.94544015
_cell_angle_beta   74.94544015
_cell_angle_gamma   36.80043443
_symmetry_Int_Tables_number   1
_chemical_formula_structural   Sr4NdMn5O15
_chemical_formula_sum   'Sr4 Nd1 Mn5 O15'
_cell_volume   291.98145185
_cell_formula_units_Z   1
loop_
 _symmetry_equiv_pos_site_id
 _symmetry_equiv_pos_as_xyz
  1  'x, y, z'
loop_
 _atom_site_type_symbol
 _atom_site_label
 _atom_site_symmetry_multiplicity
 _atom_site_fract_x
 _atom_site_fract_y
 _atom_site_fract_z
 _atom_site_occupancy
  Sr  Sr0  1  0.89945400  0.89945400  0.89962500  1
  Sr  Sr1  1  0.30022400  0.30022400  0.29946100  1
  Sr  Sr2  1  0.69977600  0.69977600  0.70053900  1
  Sr  Sr3  1  0.10054600  0.10054600  0.10037500  1
  Nd  Nd4  1  0.50000000  0.50000000  0.50000000  1
  Mn  Mn5  1  0.50000000  0.50000000  0.00000000  1
  Mn  Mn6  1  0.70037600  0.70037600  0.19906100  1
  Mn  Mn7  1  0.10060500  0.10060500  0.59973600  1
  Mn  Mn8  1  0.89939500  0.89939500  0.40026400  1
  Mn  Mn9  1  0.29962400  0.29962400  0.80093900  1
  O  O10  1  0.20744900  0.69540000  0.20737400  1
  O  O11  1  0.40073100  0.88793500  0.40188300  1
  O  O12  1  0.79255100  0.30460000  0.79262600  1
  O  O13  1  0.59926900  0.11206500  0.59811700  1
  O  O14  1  0.00000000  0.50000000  0.00000000  1
  O  O15  1  0.20104400  0.20104400  0.69549400  1
  O  O16  1  0.40257400  0.40257400  0.89178400  1
  O  O17  1  0.79895600  0.79895600  0.30450600  1
  O  O18  1  0.59742600  0.59742600  0.10821600  1
  O  O19  1  0.00000000  0.00000000  0.50000000  1
  O  O20  1  0.30460000  0.79255100  0.79262600  1
  O  O21  1  0.50000000  0.00000000  0.00000000  1
  O  O22  1  0.88793500  0.40073100  0.40188300  1
  O  O23  1  0.69540000  0.20744900  0.20737400  1
  O  O24  1  0.11206500  0.59926900  0.59811700  1
