# generated using pymatgen
data_Sr4Zn51
_symmetry_space_group_name_H-M   'P 1'
_cell_length_a   14.96096755
_cell_length_b   14.96096755
_cell_length_c   14.96096756
_cell_angle_alpha   33.90467868
_cell_angle_beta   33.90467868
_cell_angle_gamma   33.90468026
_symmetry_Int_Tables_number   1
_chemical_formula_structural   Sr4Zn51
_chemical_formula_sum   'Sr4 Zn51'
_cell_volume   928.64201829
_cell_formula_units_Z   1
loop_
 _symmetry_equiv_pos_site_id
 _symmetry_equiv_pos_as_xyz
  1  'x, y, z'
loop_
 _atom_site_type_symbol
 _atom_site_label
 _atom_site_symmetry_multiplicity
 _atom_site_fract_x
 _atom_site_fract_y
 _atom_site_fract_z
 _atom_site_occupancy
  Sr  Sr0  1  0.87500200  0.87500200  0.87500200  1
  Sr  Sr1  1  0.37559600  0.37559600  0.37559600  1
  Sr  Sr2  1  0.12499800  0.12499800  0.12499800  1
  Sr  Sr3  1  0.62440400  0.62440400  0.62440400  1
  Zn  Zn4  1  0.71813900  0.47976600  0.08193400  1
  Zn  Zn5  1  0.21901800  0.97904100  0.58071700  1
  Zn  Zn6  1  0.40089100  0.15882600  0.03919800  1
  Zn  Zn7  1  0.90059900  0.65975000  0.53975800  1
  Zn  Zn8  1  0.28186100  0.52023400  0.91806600  1
  Zn  Zn9  1  0.78098200  0.02095900  0.41928300  1
  Zn  Zn10  1  0.59910900  0.84117400  0.96080200  1
  Zn  Zn11  1  0.09940100  0.34025000  0.46024200  1
  Zn  Zn12  1  0.82218900  0.23742700  0.46902200  1
  Zn  Zn13  1  0.33186900  0.72977500  0.96762300  1
  Zn  Zn14  1  0.29519500  0.41379700  0.64503200  1
  Zn  Zn15  1  0.78962800  0.90760800  0.15134700  1
  Zn  Zn16  1  0.70480500  0.58620300  0.35496800  1
  Zn  Zn17  1  0.21037200  0.09239200  0.84865300  1
  Zn  Zn18  1  0.17781100  0.76257300  0.53097800  1
  Zn  Zn19  1  0.66813100  0.27022500  0.03237700  1
  Zn  Zn20  1  0.15882600  0.03919800  0.40089100  1
  Zn  Zn21  1  0.65975000  0.53975800  0.90059900  1
  Zn  Zn22  1  0.47976600  0.08193400  0.71813900  1
  Zn  Zn23  1  0.97904100  0.58071700  0.21901800  1
  Zn  Zn24  1  0.84117400  0.96080200  0.59910900  1
  Zn  Zn25  1  0.34025000  0.46024200  0.09940100  1
  Zn  Zn26  1  0.52023400  0.91806600  0.28186100  1
  Zn  Zn27  1  0.02095900  0.41928300  0.78098200  1
  Zn  Zn28  1  0.41379700  0.64503200  0.29519500  1
  Zn  Zn29  1  0.90760800  0.15134700  0.78962800  1
  Zn  Zn30  1  0.23742700  0.46902200  0.82218900  1
  Zn  Zn31  1  0.72977500  0.96762300  0.33186900  1
  Zn  Zn32  1  0.76257300  0.53097800  0.17781100  1
  Zn  Zn33  1  0.27022500  0.03237700  0.66813100  1
  Zn  Zn34  1  0.58620300  0.35496800  0.70480500  1
  Zn  Zn35  1  0.09239200  0.84865300  0.21037200  1
  Zn  Zn36  1  0.91806600  0.28186100  0.52023400  1
  Zn  Zn37  1  0.41928300  0.78098200  0.02095900  1
  Zn  Zn38  1  0.96080200  0.59910900  0.84117400  1
  Zn  Zn39  1  0.46024200  0.09940100  0.34025000  1
  Zn  Zn40  1  0.08193400  0.71813900  0.47976600  1
  Zn  Zn41  1  0.58071700  0.21901800  0.97904100  1
  Zn  Zn42  1  0.03919800  0.40089100  0.15882600  1
  Zn  Zn43  1  0.53975800  0.90059900  0.65975000  1
  Zn  Zn44  1  0.35496800  0.70480500  0.58620300  1
  Zn  Zn45  1  0.84865300  0.21037200  0.09239200  1
  Zn  Zn46  1  0.53097800  0.17781100  0.76257300  1
  Zn  Zn47  1  0.03237700  0.66813100  0.27022500  1
  Zn  Zn48  1  0.46902200  0.82218900  0.23742700  1
  Zn  Zn49  1  0.96762300  0.33186900  0.72977500  1
  Zn  Zn50  1  0.64503200  0.29519500  0.41379700  1
  Zn  Zn51  1  0.15134700  0.78962800  0.90760800  1
  Zn  Zn52  1  0.00000000  0.00000000  0.00000000  1
  Zn  Zn53  1  0.75007100  0.75007100  0.75007100  1
  Zn  Zn54  1  0.24992900  0.24992900  0.24992900  1
