# generated using pymatgen
data_Sr4Y2(Fe2O5)3
_symmetry_space_group_name_H-M   'P 1'
_cell_length_a   12.33769235
_cell_length_b   12.30982403
_cell_length_c   5.52112132
_cell_angle_alpha   77.33774990
_cell_angle_beta   76.77403526
_cell_angle_gamma   25.88821484
_symmetry_Int_Tables_number   1
_chemical_formula_structural   Sr4Y2(Fe2O5)3
_chemical_formula_sum   'Sr4 Y2 Fe6 O15'
_cell_volume   356.22418327
_cell_formula_units_Z   1
loop_
 _symmetry_equiv_pos_site_id
 _symmetry_equiv_pos_as_xyz
  1  'x, y, z'
loop_
 _atom_site_type_symbol
 _atom_site_label
 _atom_site_symmetry_multiplicity
 _atom_site_fract_x
 _atom_site_fract_y
 _atom_site_fract_z
 _atom_site_occupancy
  Sr  Sr0  1  0.68351000  0.15496100  0.84503900  1
  Sr  Sr1  1  0.15496100  0.68351000  0.31649000  1
  Sr  Sr2  1  0.31649000  0.84503900  0.15496100  1
  Sr  Sr3  1  0.84503900  0.31649000  0.68351000  1
  Y  Y4  1  0.50000000  0.00000000  0.00000000  1
  Y  Y5  1  0.00000000  0.50000000  0.50000000  1
  Fe  Fe6  1  0.25278800  0.74721200  0.74721200  1
  Fe  Fe7  1  0.74721200  0.25278800  0.25278800  1
  Fe  Fe8  1  0.57509000  0.08608900  0.42491000  1
  Fe  Fe9  1  0.08608900  0.57509000  0.91391100  1
  Fe  Fe10  1  0.42491000  0.91391100  0.57509000  1
  Fe  Fe11  1  0.91391100  0.42491000  0.08608900  1
  O  O12  1  0.81184700  0.81184700  0.68815300  1
  O  O13  1  0.31184700  0.31184700  0.18815300  1
  O  O14  1  0.30335100  0.30335100  0.69664900  1
  O  O15  1  0.81694700  0.81694700  0.18305300  1
  O  O16  1  0.68815300  0.68815300  0.81184700  1
  O  O17  1  0.18815300  0.18815300  0.31184700  1
  O  O18  1  0.18305300  0.18305300  0.81694700  1
  O  O19  1  0.69664900  0.69664900  0.30335100  1
  O  O20  1  0.63462700  0.19008200  0.36537300  1
  O  O21  1  0.19008200  0.63462700  0.80991800  1
  O  O22  1  0.36537300  0.80991800  0.63462700  1
  O  O23  1  0.80991800  0.36537300  0.19008200  1
  O  O24  1  0.00000000  0.00000000  0.00000000  1
  O  O25  1  0.00000000  0.00000000  0.50000000  1
  O  O26  1  0.50000000  0.50000000  0.00000000  1
