# generated using pymatgen
data_Sr5CaCu4(BiO2)4
_symmetry_space_group_name_H-M   'P 1'
_cell_length_a   5.66389200
_cell_length_b   5.68662200
_cell_length_c   14.65068388
_cell_angle_alpha   79.26545921
_cell_angle_beta   90.00000000
_cell_angle_gamma   90.00000000
_symmetry_Int_Tables_number   1
_chemical_formula_structural   Sr5CaCu4(BiO2)4
_chemical_formula_sum   'Sr5 Ca1 Cu4 Bi4 O8'
_cell_volume   463.61778259
_cell_formula_units_Z   1
loop_
 _symmetry_equiv_pos_site_id
 _symmetry_equiv_pos_as_xyz
  1  'x, y, z'
loop_
 _atom_site_type_symbol
 _atom_site_label
 _atom_site_symmetry_multiplicity
 _atom_site_fract_x
 _atom_site_fract_y
 _atom_site_fract_z
 _atom_site_occupancy
  Sr  Sr0  1  0.50000000  0.39322400  0.72242700  1
  Sr  Sr1  1  0.50000000  0.60677600  0.27757300  1
  Sr  Sr2  1  0.00000000  0.11000700  0.27827800  1
  Sr  Sr3  1  0.00000000  0.88999300  0.72172200  1
  Sr  Sr4  1  0.00000000  0.00000000  0.50000000  1
  Ca  Ca5  1  0.50000000  0.50000000  0.50000000  1
  Cu  Cu6  1  0.00000000  0.44377000  0.61505500  1
  Cu  Cu7  1  0.00000000  0.55623000  0.38494500  1
  Cu  Cu8  1  0.50000000  0.05468200  0.38495900  1
  Cu  Cu9  1  0.50000000  0.94531800  0.61504100  1
  Bi  Bi10  1  0.00000000  0.20458300  0.91107400  1
  Bi  Bi11  1  0.00000000  0.79541700  0.08892600  1
  Bi  Bi12  1  0.50000000  0.11481400  0.08836600  1
  Bi  Bi13  1  0.50000000  0.88518600  0.91163400  1
  O  O14  1  0.74748600  0.19373500  0.62107000  1
  O  O15  1  0.74748600  0.80626500  0.37893000  1
  O  O16  1  0.25251400  0.80626500  0.37893000  1
  O  O17  1  0.25251400  0.19373500  0.62107000  1
  O  O18  1  0.25418200  0.69061300  0.61577500  1
  O  O19  1  0.25418200  0.30938700  0.38422500  1
  O  O20  1  0.74581800  0.30938700  0.38422500  1
  O  O21  1  0.74581800  0.69061300  0.61577500  1
