# generated using pymatgen
data_Sr4CeY3Fe2(Cu2O9)2
_symmetry_space_group_name_H-M   'P 1'
_cell_length_a   3.79458300
_cell_length_b   3.93131600
_cell_length_c   28.36305800
_cell_angle_alpha   90.00000000
_cell_angle_beta   90.00000000
_cell_angle_gamma   90.00000000
_symmetry_Int_Tables_number   1
_chemical_formula_structural   Sr4CeY3Fe2(Cu2O9)2
_chemical_formula_sum   'Sr4 Ce1 Y3 Fe2 Cu4 O18'
_cell_volume   423.11172821
_cell_formula_units_Z   1
loop_
 _symmetry_equiv_pos_site_id
 _symmetry_equiv_pos_as_xyz
  1  'x, y, z'
loop_
 _atom_site_type_symbol
 _atom_site_label
 _atom_site_symmetry_multiplicity
 _atom_site_fract_x
 _atom_site_fract_y
 _atom_site_fract_z
 _atom_site_occupancy
  Sr  Sr0  1  0.00000000  0.00000000  0.57898900  1
  Sr  Sr1  1  0.50000000  0.50000000  0.07136200  1
  Sr  Sr2  1  0.50000000  0.50000000  0.92761300  1
  Sr  Sr3  1  0.00000000  0.00000000  0.43252200  1
  Ce  Ce4  1  0.50000000  0.50000000  0.20426000  1
  Y  Y5  1  0.50000000  0.50000000  0.78980200  1
  Y  Y6  1  0.00000000  0.00000000  0.29371300  1
  Y  Y7  1  0.00000000  0.00000000  0.70774500  1
  Fe  Fe8  1  0.00000000  0.00000000  0.86395800  1
  Fe  Fe9  1  0.50000000  0.50000000  0.36448600  1
  Cu  Cu10  1  0.00000000  0.00000000  0.99957700  1
  Cu  Cu11  1  0.50000000  0.50000000  0.50051100  1
  Cu  Cu12  1  0.50000000  0.50000000  0.64020700  1
  Cu  Cu13  1  0.00000000  0.00000000  0.14059500  1
  O  O14  1  0.50000000  0.50000000  0.56522200  1
  O  O15  1  0.00000000  0.00000000  0.06532500  1
  O  O16  1  0.00000000  0.00000000  0.93186600  1
  O  O17  1  0.50000000  0.50000000  0.43105800  1
  O  O18  1  0.00000000  0.50000000  0.64765000  1
  O  O19  1  0.50000000  0.00000000  0.15098600  1
  O  O20  1  0.50000000  0.00000000  0.64733800  1
  O  O21  1  0.00000000  0.50000000  0.15057700  1
  O  O22  1  0.50000000  0.00000000  0.85217800  1
  O  O23  1  0.00000000  0.50000000  0.34810100  1
  O  O24  1  0.00000000  0.50000000  0.85249500  1
  O  O25  1  0.50000000  0.00000000  0.34952600  1
  O  O26  1  0.00000000  0.50000000  0.74830700  1
  O  O27  1  0.50000000  0.00000000  0.24850900  1
  O  O28  1  0.50000000  0.00000000  0.75121700  1
  O  O29  1  0.00000000  0.50000000  0.24996300  1
  O  O30  1  0.00000000  0.50000000  0.99847100  1
  O  O31  1  0.50000000  0.00000000  0.49587200  1
