# generated using pymatgen
data_SnTePbSe
_symmetry_space_group_name_H-M   'P 1'
_cell_length_a   7.75039167
_cell_length_b   7.75039167
_cell_length_c   7.75039130
_cell_angle_alpha   33.55090930
_cell_angle_beta   33.55090930
_cell_angle_gamma   33.55091101
_symmetry_Int_Tables_number   1
_chemical_formula_structural   SnTePbSe
_chemical_formula_sum   'Sn1 Te1 Pb1 Se1'
_cell_volume   126.66399845
_cell_formula_units_Z   1
loop_
 _symmetry_equiv_pos_site_id
 _symmetry_equiv_pos_as_xyz
  1  'x, y, z'
loop_
 _atom_site_type_symbol
 _atom_site_label
 _atom_site_symmetry_multiplicity
 _atom_site_fract_x
 _atom_site_fract_y
 _atom_site_fract_z
 _atom_site_occupancy
  Sn  Sn0  1  0.49527400  0.49527400  0.49527400  1
  Te  Te1  1  0.24749400  0.24749400  0.24749400  1
  Pb  Pb2  1  0.00525600  0.00525600  0.00525600  1
  Se  Se3  1  0.75197600  0.75197600  0.75197600  1
