# generated using pymatgen
data_Sr15Pd5O24
_symmetry_space_group_name_H-M   'P 1'
_cell_length_a   9.78863710
_cell_length_b   9.78863710
_cell_length_c   9.78863768
_cell_angle_alpha   60.21951871
_cell_angle_beta   60.21951871
_cell_angle_gamma   60.21951837
_symmetry_Int_Tables_number   1
_chemical_formula_structural   Sr15Pd5O24
_chemical_formula_sum   'Sr15 Pd5 O24'
_cell_volume   666.50721180
_cell_formula_units_Z   1
loop_
 _symmetry_equiv_pos_site_id
 _symmetry_equiv_pos_as_xyz
  1  'x, y, z'
loop_
 _atom_site_type_symbol
 _atom_site_label
 _atom_site_symmetry_multiplicity
 _atom_site_fract_x
 _atom_site_fract_y
 _atom_site_fract_z
 _atom_site_occupancy
  Sr  Sr0  1  0.13354700  0.50000000  0.86645300  1
  Sr  Sr1  1  0.64098400  0.00000000  0.35901600  1
  Sr  Sr2  1  0.86645300  0.13354700  0.50000000  1
  Sr  Sr3  1  0.35901600  0.64098400  0.00000000  1
  Sr  Sr4  1  0.50000000  0.86645300  0.13354700  1
  Sr  Sr5  1  0.00000000  0.35901600  0.64098400  1
  Sr  Sr6  1  0.37775100  0.11455400  0.75081900  1
  Sr  Sr7  1  0.88544600  0.62224900  0.24918100  1
  Sr  Sr8  1  0.75081900  0.37775100  0.11455400  1
  Sr  Sr9  1  0.24918100  0.88544600  0.62224900  1
  Sr  Sr10  1  0.11455400  0.75081900  0.37775100  1
  Sr  Sr11  1  0.62224900  0.24918100  0.88544600  1
  Sr  Sr12  1  0.50000000  0.50000000  0.50000000  1
  Sr  Sr13  1  0.24988900  0.24988900  0.24988900  1
  Sr  Sr14  1  0.75011100  0.75011100  0.75011100  1
  Pd  Pd15  1  0.12466400  0.12466400  0.12466400  1
  Pd  Pd16  1  0.62498600  0.62498600  0.62498600  1
  Pd  Pd17  1  0.87533600  0.87533600  0.87533600  1
  Pd  Pd18  1  0.37501400  0.37501400  0.37501400  1
  Pd  Pd19  1  0.00000000  0.00000000  0.00000000  1
  O  O20  1  0.92123400  0.04519200  0.25041600  1
  O  O21  1  0.41359000  0.54894800  0.76178700  1
  O  O22  1  0.25041600  0.92123400  0.04519200  1
  O  O23  1  0.76178700  0.41359000  0.54894800  1
  O  O24  1  0.04519200  0.25041600  0.92123400  1
  O  O25  1  0.54894800  0.76178700  0.41359000  1
  O  O26  1  0.66639200  0.01099500  0.79804900  1
  O  O27  1  0.16654300  0.50918200  0.29824200  1
  O  O28  1  0.79804900  0.66639200  0.01099500  1
  O  O29  1  0.29824200  0.16654300  0.50918200  1
  O  O30  1  0.01099500  0.79804900  0.66639200  1
  O  O31  1  0.50918200  0.29824200  0.16654300  1
  O  O32  1  0.33360800  0.20195100  0.98900500  1
  O  O33  1  0.83345700  0.70175800  0.49081800  1
  O  O34  1  0.98900500  0.33360800  0.20195100  1
  O  O35  1  0.49081800  0.83345700  0.70175800  1
  O  O36  1  0.20195100  0.98900500  0.33360800  1
  O  O37  1  0.70175800  0.49081800  0.83345700  1
  O  O38  1  0.58641000  0.23821300  0.45105200  1
  O  O39  1  0.07876600  0.74958400  0.95480800  1
  O  O40  1  0.45105200  0.58641000  0.23821300  1
  O  O41  1  0.95480800  0.07876600  0.74958400  1
  O  O42  1  0.23821300  0.45105200  0.58641000  1
  O  O43  1  0.74958400  0.95480800  0.07876600  1
