# generated using pymatgen
data_Sr2La2MgTi3O12
_symmetry_space_group_name_H-M   'P 1'
_cell_length_a   5.59171500
_cell_length_b   5.61077592
_cell_length_c   7.88313602
_cell_angle_alpha   89.96256035
_cell_angle_beta   89.95586055
_cell_angle_gamma   89.94151736
_symmetry_Int_Tables_number   1
_chemical_formula_structural   Sr2La2MgTi3O12
_chemical_formula_sum   'Sr2 La2 Mg1 Ti3 O12'
_cell_volume   247.32415002
_cell_formula_units_Z   1
loop_
 _symmetry_equiv_pos_site_id
 _symmetry_equiv_pos_as_xyz
  1  'x, y, z'
loop_
 _atom_site_type_symbol
 _atom_site_label
 _atom_site_symmetry_multiplicity
 _atom_site_fract_x
 _atom_site_fract_y
 _atom_site_fract_z
 _atom_site_occupancy
  Sr  Sr0  1  0.49203500  0.50069000  0.24501700  1
  Sr  Sr1  1  0.00744700  0.00395200  0.75490200  1
  La  La2  1  0.98145300  0.98656100  0.23651500  1
  La  La3  1  0.51123900  0.49625200  0.76255400  1
  Mg  Mg4  1  0.49789000  0.99983200  0.99906100  1
  Ti  Ti5  1  0.99826100  0.49903900  0.50110600  1
  Ti  Ti6  1  0.49539400  0.00020100  0.49790900  1
  Ti  Ti7  1  0.00139500  0.49858500  0.00020300  1
  O  O8  1  0.22572800  0.75970300  0.03594600  1
  O  O9  1  0.74926000  0.74468100  0.46440600  1
  O  O10  1  0.75667000  0.25059100  0.53714700  1
  O  O11  1  0.26093300  0.27643400  0.96490800  1
  O  O12  1  0.76274500  0.25421300  0.96796700  1
  O  O13  1  0.26717600  0.26906300  0.53725900  1
  O  O14  1  0.23129500  0.76638500  0.46225700  1
  O  O15  1  0.75108300  0.73769400  0.03237100  1
  O  O16  1  0.00189900  0.42447100  0.25460500  1
  O  O17  1  0.51116800  0.05400200  0.26116300  1
  O  O18  1  0.99675400  0.55701800  0.74596500  1
  O  O19  1  0.50017300  0.92063400  0.73873900  1
