# generated using pymatgen
data_Sr12Zn2Co6O25
_symmetry_space_group_name_H-M   'P 1'
_cell_length_a   7.85382936
_cell_length_b   7.85382936
_cell_length_c   10.40878477
_cell_angle_alpha   79.09610465
_cell_angle_beta   79.09610465
_cell_angle_gamma   90.00160946
_symmetry_Int_Tables_number   1
_chemical_formula_structural   Sr12Zn2Co6O25
_chemical_formula_sum   'Sr12 Zn2 Co6 O25'
_cell_volume   618.64044263
_cell_formula_units_Z   1
loop_
 _symmetry_equiv_pos_site_id
 _symmetry_equiv_pos_as_xyz
  1  'x, y, z'
loop_
 _atom_site_type_symbol
 _atom_site_label
 _atom_site_symmetry_multiplicity
 _atom_site_fract_x
 _atom_site_fract_y
 _atom_site_fract_z
 _atom_site_occupancy
  Sr  Sr0  1  0.65684600  0.65684600  0.35783300  1
  Sr  Sr1  1  0.65708100  0.16514200  0.35487700  1
  Sr  Sr2  1  0.16514200  0.65708100  0.35487700  1
  Sr  Sr3  1  0.16488500  0.16488500  0.35708200  1
  Sr  Sr4  1  0.34291900  0.83485800  0.64512300  1
  Sr  Sr5  1  0.34315400  0.34315400  0.64216700  1
  Sr  Sr6  1  0.83511500  0.83511500  0.64291800  1
  Sr  Sr7  1  0.83485800  0.34291900  0.64512300  1
  Sr  Sr8  1  0.75682300  0.75682300  0.00064600  1
  Sr  Sr9  1  0.75701000  0.24299000  0.00000000  1
  Sr  Sr10  1  0.24299000  0.75701000  0.00000000  1
  Sr  Sr11  1  0.24317700  0.24317700  0.99935400  1
  Zn  Zn12  1  0.55046000  0.55046000  0.79734000  1
  Zn  Zn13  1  0.44954000  0.44954000  0.20266000  1
  Co  Co14  1  0.05214100  0.55281800  0.79026400  1
  Co  Co15  1  0.04812300  0.04812300  0.80709600  1
  Co  Co16  1  0.55281800  0.05214100  0.79026400  1
  Co  Co17  1  0.95187700  0.95187700  0.19290400  1
  Co  Co18  1  0.44718200  0.94785900  0.20973600  1
  Co  Co19  1  0.94785900  0.44718200  0.20973600  1
  O  O20  1  0.60336400  0.60336400  0.60089900  1
  O  O21  1  0.60133100  0.09629200  0.60512100  1
  O  O22  1  0.09629200  0.60133100  0.60512100  1
  O  O23  1  0.09186500  0.09186500  0.62427300  1
  O  O24  1  0.39866900  0.90370800  0.39487900  1
  O  O25  1  0.39663600  0.39663600  0.39910100  1
  O  O26  1  0.90813500  0.90813500  0.37572700  1
  O  O27  1  0.90370800  0.39866900  0.39487900  1
  O  O28  1  0.27930000  0.54230100  0.83324600  1
  O  O29  1  0.30906700  0.04476600  0.81767000  1
  O  O30  1  0.80378800  0.54219500  0.83355400  1
  O  O31  1  0.78200600  0.04468800  0.81833300  1
  O  O32  1  0.54219500  0.80378800  0.83355400  1
  O  O33  1  0.54230100  0.27930000  0.83324600  1
  O  O34  1  0.04468800  0.78200600  0.81833300  1
  O  O35  1  0.04476600  0.30906700  0.81767000  1
  O  O36  1  0.69093300  0.95523400  0.18233000  1
  O  O37  1  0.72070000  0.45769900  0.16675400  1
  O  O38  1  0.21799400  0.95531200  0.18166700  1
  O  O39  1  0.19621200  0.45780500  0.16644600  1
  O  O40  1  0.45769900  0.72070000  0.16675400  1
  O  O41  1  0.45780500  0.19621200  0.16644600  1
  O  O42  1  0.95523400  0.69093300  0.18233000  1
  O  O43  1  0.95531200  0.21799400  0.18166700  1
  O  O44  1  0.00000000  0.00000000  0.00000000  1
