# generated using pymatgen
data_Sr2CaPr3(CuO3)4
_symmetry_space_group_name_H-M   'P 1'
_cell_length_a   10.21132854
_cell_length_b   10.21132854
_cell_length_c   5.41069700
_cell_angle_alpha   90.00000000
_cell_angle_beta   90.00000000
_cell_angle_gamma   149.22084382
_symmetry_Int_Tables_number   1
_chemical_formula_structural   Sr2CaPr3(CuO3)4
_chemical_formula_sum   'Sr2 Ca1 Pr3 Cu4 O12'
_cell_volume   288.70804488
_cell_formula_units_Z   1
loop_
 _symmetry_equiv_pos_site_id
 _symmetry_equiv_pos_as_xyz
  1  'x, y, z'
loop_
 _atom_site_type_symbol
 _atom_site_label
 _atom_site_symmetry_multiplicity
 _atom_site_fract_x
 _atom_site_fract_y
 _atom_site_fract_z
 _atom_site_occupancy
  Sr  Sr0  1  0.32140900  0.67859100  0.50000000  1
  Sr  Sr1  1  0.00105800  0.99894200  0.00000000  1
  Ca  Ca2  1  0.49735000  0.50265000  0.50000000  1
  Pr  Pr3  1  0.82352700  0.17647300  0.00000000  1
  Pr  Pr4  1  0.17818400  0.82181600  0.00000000  1
  Pr  Pr5  1  0.67684700  0.32315300  0.50000000  1
  Cu  Cu6  1  0.91131400  0.08868600  0.50000000  1
  Cu  Cu7  1  0.41167500  0.58832500  0.00000000  1
  Cu  Cu8  1  0.58506600  0.41493400  0.00000000  1
  Cu  Cu9  1  0.08880200  0.91119800  0.50000000  1
  O  O10  1  0.66603000  0.83442800  0.75027500  1
  O  O11  1  0.16557200  0.33397000  0.24972500  1
  O  O12  1  0.16557200  0.33397000  0.75027500  1
  O  O13  1  0.66603000  0.83442800  0.24972500  1
  O  O14  1  0.83056800  0.65556000  0.74721900  1
  O  O15  1  0.34444000  0.16943200  0.25278100  1
  O  O16  1  0.34444000  0.16943200  0.74721900  1
  O  O17  1  0.83056800  0.65556000  0.25278100  1
  O  O18  1  0.79491800  0.20508200  0.50000000  1
  O  O19  1  0.29442500  0.70557500  0.00000000  1
  O  O20  1  0.70558000  0.29442000  0.00000000  1
  O  O21  1  0.19662600  0.80337400  0.50000000  1
