# generated using pymatgen
data_Sr2Ce2YCoCu2O11
_symmetry_space_group_name_H-M   'P 1'
_cell_length_a   17.41554580
_cell_length_b   17.41554580
_cell_length_c   17.41554580
_cell_angle_alpha   161.97739989
_cell_angle_beta   161.84311336
_cell_angle_gamma   25.69149856
_symmetry_Int_Tables_number   1
_chemical_formula_structural   Sr2Ce2YCoCu2O11
_chemical_formula_sum   'Sr4 Ce4 Y2 Co2 Cu4 O22'
_cell_volume   509.10381734
_cell_formula_units_Z   2
loop_
 _symmetry_equiv_pos_site_id
 _symmetry_equiv_pos_as_xyz
  1  'x, y, z'
loop_
 _atom_site_type_symbol
 _atom_site_label
 _atom_site_symmetry_multiplicity
 _atom_site_fract_x
 _atom_site_fract_y
 _atom_site_fract_z
 _atom_site_occupancy
  Sr  Sr0  1  0.19503700  0.18458500  0.01295100  1
  Sr  Sr1  1  0.80496300  0.81791400  0.98954800  1
  Sr  Sr2  1  0.67163400  0.68458500  0.98954800  1
  Sr  Sr3  1  0.32836600  0.31791400  0.01295100  1
  Ce  Ce4  1  0.07647000  0.07599800  0.00114100  1
  Ce  Ce5  1  0.92353000  0.92467100  0.99952800  1
  Ce  Ce6  1  0.57485700  0.57599800  0.99952800  1
  Ce  Ce7  1  0.42514300  0.42467100  0.00114100  1
  Y  Y8  1  0.50000000  0.00001000  0.50001000  1
  Y  Y9  1  0.00000000  0.50001000  0.50001000  1
  Co  Co10  1  0.18563500  0.71442500  0.40006000  1
  Co  Co11  1  0.81436500  0.21442500  0.52879000  1
  Cu  Cu12  1  0.12967300  0.63130500  0.50060200  1
  Cu  Cu13  1  0.87032700  0.37092800  0.50163200  1
  Cu  Cu14  1  0.63070400  0.13130500  0.50163200  1
  Cu  Cu15  1  0.36929600  0.87092800  0.50060200  1
  O  O16  1  0.66558700  0.21886700  0.48584800  1
  O  O17  1  0.33441300  0.82026100  0.55328000  1
  O  O18  1  0.23301900  0.71886700  0.55328000  1
  O  O19  1  0.76698100  0.32026100  0.48584800  1
  O  O20  1  0.37509700  0.87314800  0.00123600  1
  O  O21  1  0.62490300  0.62613900  0.49805100  1
  O  O22  1  0.37191300  0.37314800  0.49805100  1
  O  O23  1  0.62808700  0.12613900  0.00123600  1
  O  O24  1  0.29077200  0.79079400  0.99992600  1
  O  O25  1  0.70922800  0.70915400  0.50002200  1
  O  O26  1  0.29086800  0.29079400  0.50002200  1
  O  O27  1  0.70913200  0.20915400  0.99992600  1
  O  O28  1  0.87528000  0.37560900  0.00156200  1
  O  O29  1  0.12472000  0.12628300  0.50033000  1
  O  O30  1  0.87404700  0.87560900  0.50033000  1
  O  O31  1  0.12595300  0.62628300  0.00156200  1
  O  O32  1  0.79114400  0.29107400  0.00001400  1
  O  O33  1  0.20885600  0.20887000  0.49993000  1
  O  O34  1  0.79106000  0.79107400  0.49993000  1
  O  O35  1  0.20894000  0.70887000  0.00001400  1
  O  O36  1  0.13840200  0.35917100  0.99757400  1
  O  O37  1  0.86159800  0.85917100  0.22076900  1
