# generated using pymatgen
data_Sr2CaCu2Bi2O9
_symmetry_space_group_name_H-M   'P 1'
_cell_length_a   3.63599469
_cell_length_b   4.17593082
_cell_length_c   15.98560693
_cell_angle_alpha   82.49507097
_cell_angle_beta   83.47004108
_cell_angle_gamma   90.00192938
_symmetry_Int_Tables_number   1
_chemical_formula_structural   Sr2CaCu2Bi2O9
_chemical_formula_sum   'Sr2 Ca1 Cu2 Bi2 O9'
_cell_volume   239.05236859
_cell_formula_units_Z   1
loop_
 _symmetry_equiv_pos_site_id
 _symmetry_equiv_pos_as_xyz
  1  'x, y, z'
loop_
 _atom_site_type_symbol
 _atom_site_label
 _atom_site_symmetry_multiplicity
 _atom_site_fract_x
 _atom_site_fract_y
 _atom_site_fract_z
 _atom_site_occupancy
  Sr  Sr0  1  0.88454000  0.88454000  0.73092000  1
  Sr  Sr1  1  0.10812100  0.10812100  0.28375800  1
  Ca  Ca2  1  0.99680400  0.99680400  0.50639200  1
  Cu  Cu3  1  0.44124300  0.44124300  0.61751400  1
  Cu  Cu4  1  0.55406700  0.55406700  0.39186700  1
  Bi  Bi5  1  0.30234000  0.30234000  0.89532000  1
  Bi  Bi6  1  0.69197600  0.69197600  0.11604800  1
  O  O7  1  0.95308800  0.45308800  0.59382500  1
  O  O8  1  0.55028500  0.05028500  0.39943000  1
  O  O9  1  0.04466600  0.54466600  0.41066700  1
  O  O10  1  0.44541600  0.94541600  0.60916800  1
  O  O11  1  0.37152600  0.37152600  0.75694800  1
  O  O12  1  0.62276100  0.62276100  0.25447800  1
  O  O13  1  0.32285500  0.82285500  0.85429000  1
  O  O14  1  0.22911200  0.72911200  0.04177500  1
  O  O15  1  0.67839900  0.17839900  0.14320100  1
