# generated using pymatgen
data_SnGeSe2
_symmetry_space_group_name_H-M   'P 1'
_cell_length_a   4.03801500
_cell_length_b   4.57280900
_cell_length_c   11.44638400
_cell_angle_alpha   90.00000000
_cell_angle_beta   90.00000000
_cell_angle_gamma   90.00000000
_symmetry_Int_Tables_number   1
_chemical_formula_structural   SnGeSe2
_chemical_formula_sum   'Sn2 Ge2 Se4'
_cell_volume   211.35829708
_cell_formula_units_Z   2
loop_
 _symmetry_equiv_pos_site_id
 _symmetry_equiv_pos_as_xyz
  1  'x, y, z'
loop_
 _atom_site_type_symbol
 _atom_site_label
 _atom_site_symmetry_multiplicity
 _atom_site_fract_x
 _atom_site_fract_y
 _atom_site_fract_z
 _atom_site_occupancy
  Sn  Sn0  1  0.50000000  0.35314200  0.38558900  1
  Sn  Sn1  1  0.50000000  0.64685800  0.88558900  1
  Ge  Ge2  1  0.00000000  0.12651900  0.62560900  1
  Ge  Ge3  1  0.00000000  0.87348100  0.12560900  1
  Se  Se4  1  0.00000000  0.23450000  0.84554700  1
  Se  Se5  1  0.00000000  0.76550000  0.34554700  1
  Se  Se6  1  0.50000000  0.23951800  0.14325500  1
  Se  Se7  1  0.50000000  0.76048200  0.64325500  1
