# generated using pymatgen
data_CuPb2(SCl)2
_symmetry_space_group_name_H-M   'P 1'
_cell_length_a   8.70350449
_cell_length_b   8.70350449
_cell_length_c   8.70350449
_cell_angle_alpha   150.03551603
_cell_angle_beta   150.03551603
_cell_angle_gamma   42.88927174
_symmetry_Int_Tables_number   1
_chemical_formula_structural   CuPb2(SCl)2
_chemical_formula_sum   'Cu1 Pb2 S2 Cl2'
_cell_volume   164.04862010
_cell_formula_units_Z   1
loop_
 _symmetry_equiv_pos_site_id
 _symmetry_equiv_pos_as_xyz
  1  'x, y, z'
loop_
 _atom_site_type_symbol
 _atom_site_label
 _atom_site_symmetry_multiplicity
 _atom_site_fract_x
 _atom_site_fract_y
 _atom_site_fract_z
 _atom_site_occupancy
  Cu  Cu0  1  0.00000000  0.00000000  0.00000000  1
  Pb  Pb1  1  0.33664500  0.33664500  0.00000000  1
  Pb  Pb2  1  0.66335500  0.66335500  0.00000000  1
  S  S3  1  0.16861700  0.16861700  0.00000000  1
  S  S4  1  0.83138300  0.83138300  0.00000000  1
  Cl  Cl5  1  0.50000000  0.00000000  0.50000000  1
  Cl  Cl6  1  0.00000000  0.50000000  0.50000000  1
