# generated using pymatgen
data_Sr2GdCu2RuO8
_symmetry_space_group_name_H-M   'P 1'
_cell_length_a   3.89371218
_cell_length_b   3.89371218
_cell_length_c   11.57097900
_cell_angle_alpha   90.11089192
_cell_angle_beta   89.88910808
_cell_angle_gamma   90.12686613
_symmetry_Int_Tables_number   1
_chemical_formula_structural   Sr2GdCu2RuO8
_chemical_formula_sum   'Sr2 Gd1 Cu2 Ru1 O8'
_cell_volume   175.42646337
_cell_formula_units_Z   1
loop_
 _symmetry_equiv_pos_site_id
 _symmetry_equiv_pos_as_xyz
  1  'x, y, z'
loop_
 _atom_site_type_symbol
 _atom_site_label
 _atom_site_symmetry_multiplicity
 _atom_site_fract_x
 _atom_site_fract_y
 _atom_site_fract_z
 _atom_site_occupancy
  Sr  Sr0  1  0.49969200  0.50066300  0.68928600  1
  Sr  Sr1  1  0.50066300  0.49969200  0.31071400  1
  Gd  Gd2  1  0.50018800  0.50018800  0.00000000  1
  Cu  Cu3  1  0.99974300  0.00030700  0.85686500  1
  Cu  Cu4  1  0.00030700  0.99974300  0.14313500  1
  Ru  Ru5  1  0.98191900  0.98191900  0.50000000  1
  O  O6  1  0.49965100  0.99949800  0.87238500  1
  O  O7  1  0.00008200  0.50059800  0.87257700  1
  O  O8  1  0.50059800  0.00008200  0.12742300  1
  O  O9  1  0.99949800  0.49965100  0.12761500  1
  O  O10  1  0.99809800  0.00510100  0.66876800  1
  O  O11  1  0.00510100  0.99809800  0.33123200  1
  O  O12  1  0.48243400  0.95702500  0.50132900  1
  O  O13  1  0.95702500  0.48243400  0.49867100  1
