# generated using pymatgen
data_Sr2CaTi3O9
_symmetry_space_group_name_H-M   'P 1'
_cell_length_a   12.39689951
_cell_length_b   12.38982443
_cell_length_c   5.55699853
_cell_angle_alpha   77.11570031
_cell_angle_beta   76.97351799
_cell_angle_gamma   25.91078170
_symmetry_Int_Tables_number   1
_chemical_formula_structural   Sr2CaTi3O9
_chemical_formula_sum   'Sr4 Ca2 Ti6 O18'
_cell_volume   362.95882633
_cell_formula_units_Z   2
loop_
 _symmetry_equiv_pos_site_id
 _symmetry_equiv_pos_as_xyz
  1  'x, y, z'
loop_
 _atom_site_type_symbol
 _atom_site_label
 _atom_site_symmetry_multiplicity
 _atom_site_fract_x
 _atom_site_fract_y
 _atom_site_fract_z
 _atom_site_occupancy
  Sr  Sr0  1  0.74993100  0.25006900  0.74993100  1
  Sr  Sr1  1  0.58326600  0.08325900  0.91674100  1
  Sr  Sr2  1  0.91674100  0.41673400  0.58326600  1
  Sr  Sr3  1  0.24999800  0.75000200  0.24999800  1
  Ca  Ca4  1  0.08340000  0.58332800  0.41667200  1
  Ca  Ca5  1  0.41667200  0.91660000  0.08340000  1
  Ti  Ti6  1  0.33373800  0.83339800  0.66626400  1
  Ti  Ti7  1  0.66626400  0.16660000  0.33373800  1
  Ti  Ti8  1  0.99999900  0.50000100  0.99999900  1
  Ti  Ti9  1  0.16660200  0.66626200  0.83340000  1
  Ti  Ti10  1  0.49999900  0.00000100  0.49999900  1
  Ti  Ti11  1  0.83340000  0.33373600  0.16660200  1
  O  O12  1  0.22341700  0.77658300  0.77642800  1
  O  O13  1  0.55426200  0.11233500  0.44307300  1
  O  O14  1  0.88766500  0.44573800  0.10967000  1
  O  O15  1  0.44307300  0.89033000  0.55426200  1
  O  O16  1  0.77642800  0.22357200  0.22341700  1
  O  O17  1  0.10967000  0.55692700  0.88766500  1
  O  O18  1  0.09424100  0.09108500  0.90891500  1
  O  O19  1  0.42522000  0.42560200  0.57439800  1
  O  O20  1  0.76061300  0.75787500  0.24212500  1
  O  O21  1  0.57439800  0.57478000  0.42522000  1
  O  O22  1  0.90891500  0.90575900  0.09424100  1
  O  O23  1  0.24212500  0.23938700  0.76061300  1
  O  O24  1  0.41568100  0.41711700  0.08431000  1
  O  O25  1  0.75000600  0.74999400  0.75000600  1
  O  O26  1  0.08431000  0.08289200  0.41568100  1
  O  O27  1  0.25000600  0.24999400  0.25000600  1
  O  O28  1  0.58288300  0.58431900  0.91710800  1
  O  O29  1  0.91710800  0.91569000  0.58288300  1
