# generated using pymatgen
data_SmY4Se5
_symmetry_space_group_name_H-M   'P 1'
_cell_length_a   16.81996948
_cell_length_b   16.81996948
_cell_length_c   16.81997016
_cell_angle_alpha   14.08877183
_cell_angle_beta   14.08877183
_cell_angle_gamma   14.08877186
_symmetry_Int_Tables_number   1
_chemical_formula_structural   SmY4Se5
_chemical_formula_sum   'Sm1 Y4 Se5'
_cell_volume   245.42514633
_cell_formula_units_Z   1
loop_
 _symmetry_equiv_pos_site_id
 _symmetry_equiv_pos_as_xyz
  1  'x, y, z'
loop_
 _atom_site_type_symbol
 _atom_site_label
 _atom_site_symmetry_multiplicity
 _atom_site_fract_x
 _atom_site_fract_y
 _atom_site_fract_z
 _atom_site_occupancy
  Sm  Sm0  1  0.00000000  0.00000000  0.00000000  1
  Y  Y1  1  0.59977200  0.59977200  0.59977200  1
  Y  Y2  1  0.20004300  0.20004300  0.20004300  1
  Y  Y3  1  0.79995700  0.79995700  0.79995700  1
  Y  Y4  1  0.40022800  0.40022800  0.40022800  1
  Se  Se5  1  0.70134100  0.70134100  0.70134100  1
  Se  Se6  1  0.10010700  0.10010700  0.10010700  1
  Se  Se7  1  0.50000000  0.50000000  0.50000000  1
  Se  Se8  1  0.29865900  0.29865900  0.29865900  1
  Se  Se9  1  0.89989300  0.89989300  0.89989300  1
