# generated using pymatgen
data_SmCu4Pd
_symmetry_space_group_name_H-M   'P 1'
_cell_length_a   5.21648798
_cell_length_b   5.21648798
_cell_length_c   5.21648800
_cell_angle_alpha   57.02861926
_cell_angle_beta   57.02861926
_cell_angle_gamma   57.02862430
_symmetry_Int_Tables_number   1
_chemical_formula_structural   SmCu4Pd
_chemical_formula_sum   'Sm1 Cu4 Pd1'
_cell_volume   93.49768983
_cell_formula_units_Z   1
loop_
 _symmetry_equiv_pos_site_id
 _symmetry_equiv_pos_as_xyz
  1  'x, y, z'
loop_
 _atom_site_type_symbol
 _atom_site_label
 _atom_site_symmetry_multiplicity
 _atom_site_fract_x
 _atom_site_fract_y
 _atom_site_fract_z
 _atom_site_occupancy
  Sm  Sm0  1  0.99879100  0.99879100  0.99879100  1
  Cu  Cu1  1  0.63009900  0.13175800  0.63009900  1
  Cu  Cu2  1  0.13175800  0.63009900  0.63009900  1
  Cu  Cu3  1  0.63009900  0.63009900  0.13175800  1
  Cu  Cu4  1  0.23096100  0.23096100  0.23096100  1
  Pd  Pd5  1  0.62829100  0.62829100  0.62829100  1
