# generated using pymatgen
data_SmAgSn
_symmetry_space_group_name_H-M   'P 1'
_cell_length_a   4.87662377
_cell_length_b   4.87662377
_cell_length_c   7.60547800
_cell_angle_alpha   90.00000000
_cell_angle_beta   90.00000000
_cell_angle_gamma   119.99999684
_symmetry_Int_Tables_number   1
_chemical_formula_structural   SmAgSn
_chemical_formula_sum   'Sm2 Ag2 Sn2'
_cell_volume   156.63747073
_cell_formula_units_Z   2
loop_
 _symmetry_equiv_pos_site_id
 _symmetry_equiv_pos_as_xyz
  1  'x, y, z'
loop_
 _atom_site_type_symbol
 _atom_site_label
 _atom_site_symmetry_multiplicity
 _atom_site_fract_x
 _atom_site_fract_y
 _atom_site_fract_z
 _atom_site_occupancy
  Sm  Sm0  1  0.00000000  0.00000000  0.27021200  1
  Sm  Sm1  1  0.00000000  0.00000000  0.72978800  1
  Ag  Ag2  1  0.33333300  0.66666700  0.47965600  1
  Ag  Ag3  1  0.66666700  0.33333300  0.52034400  1
  Sn  Sn4  1  0.66666700  0.33333300  0.94318700  1
  Sn  Sn5  1  0.33333300  0.66666700  0.05681300  1
