# generated using pymatgen
data_SmHo3Ni4
_symmetry_space_group_name_H-M   'P 1'
_cell_length_a   4.15717900
_cell_length_b   5.39817994
_cell_length_c   7.12045053
_cell_angle_alpha   89.45643428
_cell_angle_beta   90.00000000
_cell_angle_gamma   90.00000000
_symmetry_Int_Tables_number   1
_chemical_formula_structural   SmHo3Ni4
_chemical_formula_sum   'Sm1 Ho3 Ni4'
_cell_volume   159.78426563
_cell_formula_units_Z   1
loop_
 _symmetry_equiv_pos_site_id
 _symmetry_equiv_pos_as_xyz
  1  'x, y, z'
loop_
 _atom_site_type_symbol
 _atom_site_label
 _atom_site_symmetry_multiplicity
 _atom_site_fract_x
 _atom_site_fract_y
 _atom_site_fract_z
 _atom_site_occupancy
  Sm  Sm0  1  0.25000000  0.37189800  0.67741200  1
  Ho  Ho1  1  0.25000000  0.12941600  0.17890300  1
  Ho  Ho2  1  0.75000000  0.63161900  0.31731200  1
  Ho  Ho3  1  0.75000000  0.86969000  0.82368200  1
  Ni  Ni4  1  0.25000000  0.87456900  0.53363200  1
  Ni  Ni5  1  0.25000000  0.62818600  0.04072300  1
  Ni  Ni6  1  0.75000000  0.11892300  0.45896500  1
  Ni  Ni7  1  0.75000000  0.37569900  0.96937200  1
