# generated using pymatgen
data_SmV2(FeCo)5
_symmetry_space_group_name_H-M   'P 1'
_cell_length_a   4.68545700
_cell_length_b   6.42414072
_cell_length_c   6.42414072
_cell_angle_alpha   97.52937575
_cell_angle_beta   111.38762596
_cell_angle_gamma   68.61237404
_symmetry_Int_Tables_number   1
_chemical_formula_structural   SmV2(FeCo)5
_chemical_formula_sum   'Sm1 V2 Fe5 Co5'
_cell_volume   167.65089280
_cell_formula_units_Z   1
loop_
 _symmetry_equiv_pos_site_id
 _symmetry_equiv_pos_as_xyz
  1  'x, y, z'
loop_
 _atom_site_type_symbol
 _atom_site_label
 _atom_site_symmetry_multiplicity
 _atom_site_fract_x
 _atom_site_fract_y
 _atom_site_fract_z
 _atom_site_occupancy
  Sm  Sm0  1  0.00000000  0.99875400  0.99875400  1
  V  V1  1  0.00000000  0.35935200  0.35935200  1
  V  V2  1  0.00000000  0.64112400  0.64112400  1
  Fe  Fe3  1  0.50117100  0.99871000  0.50143100  1
  Fe  Fe4  1  0.00155100  0.99871000  0.50143100  1
  Fe  Fe5  1  0.49882900  0.50143100  0.99871000  1
  Fe  Fe6  1  0.99844900  0.50143100  0.99871000  1
  Fe  Fe7  1  0.50000000  0.22795600  0.22795600  1
  Co  Co8  1  0.72781500  0.77303700  0.22866600  1
  Co  Co9  1  0.27218500  0.22866600  0.77303700  1
  Co  Co10  1  0.50000000  0.77332700  0.77332700  1
  Co  Co11  1  0.64050400  0.35824700  0.63925500  1
  Co  Co12  1  0.35949600  0.63925500  0.35824700  1
