# generated using pymatgen
data_SnMo12PbS16
_symmetry_space_group_name_H-M   'P 1'
_cell_length_a   6.56395500
_cell_length_b   6.56966307
_cell_length_c   13.21246433
_cell_angle_alpha   89.27719260
_cell_angle_beta   89.16540777
_cell_angle_gamma   89.23926522
_symmetry_Int_Tables_number   1
_chemical_formula_structural   SnMo12PbS16
_chemical_formula_sum   'Sn1 Mo12 Pb1 S16'
_cell_volume   569.60611317
_cell_formula_units_Z   1
loop_
 _symmetry_equiv_pos_site_id
 _symmetry_equiv_pos_as_xyz
  1  'x, y, z'
loop_
 _atom_site_type_symbol
 _atom_site_label
 _atom_site_symmetry_multiplicity
 _atom_site_fract_x
 _atom_site_fract_y
 _atom_site_fract_z
 _atom_site_occupancy
  Sn  Sn0  1  0.00000000  0.00000000  0.50000000  1
  Mo  Mo1  1  0.22599100  0.41432000  0.78046800  1
  Mo  Mo2  1  0.22671300  0.41519100  0.28137000  1
  Mo  Mo3  1  0.56170000  0.22676400  0.70748000  1
  Mo  Mo4  1  0.56290700  0.22743200  0.20821800  1
  Mo  Mo5  1  0.41355500  0.56184500  0.61154700  1
  Mo  Mo6  1  0.41374500  0.56242900  0.11195500  1
  Mo  Mo7  1  0.77328700  0.58480900  0.71863000  1
  Mo  Mo8  1  0.77400900  0.58568000  0.21953200  1
  Mo  Mo9  1  0.43709300  0.77256800  0.79178200  1
  Mo  Mo10  1  0.43830000  0.77323600  0.29252000  1
  Mo  Mo11  1  0.58625500  0.43757100  0.88804500  1
  Mo  Mo12  1  0.58644500  0.43815500  0.38845300  1
  Pb  Pb13  1  0.00000000  0.00000000  0.00000000  1
  S  S14  1  0.74025600  0.38168000  0.56316500  1
  S  S15  1  0.73962100  0.38420800  0.06359200  1
  S  S16  1  0.12648100  0.74225700  0.69016300  1
  S  S17  1  0.12705100  0.74108500  0.19156500  1
  S  S18  1  0.38338600  0.12739300  0.87048000  1
  S  S19  1  0.38117100  0.12783600  0.37139100  1
  S  S20  1  0.26037900  0.61579200  0.93640800  1
  S  S21  1  0.25974400  0.61832000  0.43683500  1
  S  S22  1  0.87294900  0.25891500  0.80843500  1
  S  S23  1  0.87351900  0.25774300  0.30983700  1
  S  S24  1  0.61882900  0.87216400  0.62860900  1
  S  S25  1  0.61661400  0.87260700  0.12952000  1
  S  S26  1  0.24136900  0.24304800  0.62087300  1
  S  S27  1  0.24320500  0.24458500  0.12222700  1
  S  S28  1  0.75679500  0.75541500  0.87777300  1
  S  S29  1  0.75863100  0.75695200  0.37912700  1
