# generated using pymatgen
data_Sm7Ti4(Se2O)6
_symmetry_space_group_name_H-M   'P 1'
_cell_length_a   14.25849179
_cell_length_b   14.25849179
_cell_length_c   11.19903059
_cell_angle_alpha   89.58191578
_cell_angle_beta   89.58191578
_cell_angle_gamma   15.39446971
_symmetry_Int_Tables_number   1
_chemical_formula_structural   Sm7Ti4(Se2O)6
_chemical_formula_sum   'Sm7 Ti4 Se12 O6'
_cell_volume   604.39370699
_cell_formula_units_Z   1
loop_
 _symmetry_equiv_pos_site_id
 _symmetry_equiv_pos_as_xyz
  1  'x, y, z'
loop_
 _atom_site_type_symbol
 _atom_site_label
 _atom_site_symmetry_multiplicity
 _atom_site_fract_x
 _atom_site_fract_y
 _atom_site_fract_z
 _atom_site_occupancy
  Sm  Sm0  1  0.05761300  0.05761300  0.73053900  1
  Sm  Sm1  1  0.94680800  0.94680800  0.26999100  1
  Sm  Sm2  1  0.56789100  0.56789100  0.22949200  1
  Sm  Sm3  1  0.43823500  0.43823500  0.76735300  1
  Sm  Sm4  1  0.19615500  0.19615500  0.57587000  1
  Sm  Sm5  1  0.79908700  0.79908700  0.42294800  1
  Sm  Sm6  1  0.32524900  0.32524900  0.04634600  1
  Ti  Ti7  1  0.20882300  0.20882300  0.26508600  1
  Ti  Ti8  1  0.78591200  0.78591200  0.73123800  1
  Ti  Ti9  1  0.50060800  0.50060800  0.49987900  1
  Ti  Ti10  1  0.00091300  0.00091300  0.99948600  1
  Se  Se11  1  0.43703000  0.43703000  0.04919300  1
  Se  Se12  1  0.56127300  0.56127300  0.95204100  1
  Se  Se13  1  0.33933700  0.33933700  0.62196400  1
  Se  Se14  1  0.66197400  0.66197400  0.38148800  1
  Se  Se15  1  0.06399100  0.06399100  0.45774600  1
  Se  Se16  1  0.93573400  0.93573400  0.54070200  1
  Se  Se17  1  0.75745200  0.75745200  0.15454000  1
  Se  Se18  1  0.24634000  0.24634000  0.84627400  1
  Se  Se19  1  0.13992700  0.13992700  0.13439700  1
  Se  Se20  1  0.85984700  0.85984700  0.87331200  1
  Se  Se21  1  0.36304000  0.36304000  0.28861600  1
  Se  Se22  1  0.63671400  0.63671400  0.70716100  1
  O  O23  1  0.48553900  0.48553900  0.33316100  1
  O  O24  1  0.51428300  0.51428300  0.66759800  1
  O  O25  1  0.02044700  0.02044700  0.16345700  1
  O  O26  1  0.97849900  0.97849900  0.83410200  1
  O  O27  1  0.25122200  0.25122200  0.40344200  1
  O  O28  1  0.74771700  0.74771700  0.59727000  1
