# generated using pymatgen
data_SmGd3Al4O12
_symmetry_space_group_name_H-M   'P 1'
_cell_length_a   7.51766600
_cell_length_b   5.28561300
_cell_length_c   5.36894476
_cell_angle_alpha   89.89648443
_cell_angle_beta   90.00000000
_cell_angle_gamma   90.00000000
_symmetry_Int_Tables_number   1
_chemical_formula_structural   SmGd3Al4O12
_chemical_formula_sum   'Sm1 Gd3 Al4 O12'
_cell_volume   213.33721221
_cell_formula_units_Z   1
loop_
 _symmetry_equiv_pos_site_id
 _symmetry_equiv_pos_as_xyz
  1  'x, y, z'
loop_
 _atom_site_type_symbol
 _atom_site_label
 _atom_site_symmetry_multiplicity
 _atom_site_fract_x
 _atom_site_fract_y
 _atom_site_fract_z
 _atom_site_occupancy
  Sm  Sm0  1  0.50000000  0.49071100  0.54107000  1
  Gd  Gd1  1  0.50000000  0.00903200  0.04341100  1
  Gd  Gd2  1  0.00000000  0.50887400  0.45626500  1
  Gd  Gd3  1  0.00000000  0.99130400  0.95713800  1
  Al  Al4  1  0.24948900  0.49974400  0.99993500  1
  Al  Al5  1  0.75054600  0.00017100  0.50001600  1
  Al  Al6  1  0.75051100  0.49974400  0.99993500  1
  Al  Al7  1  0.24945400  0.00017100  0.50001600  1
  O  O8  1  0.50000000  0.57402700  0.98613500  1
  O  O9  1  0.50000000  0.92998700  0.48265800  1
  O  O10  1  0.00000000  0.42618800  0.01639700  1
  O  O11  1  0.00000000  0.07420200  0.51845500  1
  O  O12  1  0.28927300  0.21151400  0.78911100  1
  O  O13  1  0.71313000  0.28712000  0.28753800  1
  O  O14  1  0.78946700  0.78785900  0.21155300  1
  O  O15  1  0.21067600  0.71142900  0.71108300  1
  O  O16  1  0.21053300  0.78785900  0.21155300  1
  O  O17  1  0.78932400  0.71142900  0.71108300  1
  O  O18  1  0.71072700  0.21151400  0.78911100  1
  O  O19  1  0.28687000  0.28712000  0.28753800  1
