# generated using pymatgen
data_SmMnIn
_symmetry_space_group_name_H-M   'P 1'
_cell_length_a   4.53457462
_cell_length_b   4.53457462
_cell_length_c   3.87837800
_cell_angle_alpha   90.00000000
_cell_angle_beta   90.00000000
_cell_angle_gamma   120.00000911
_symmetry_Int_Tables_number   1
_chemical_formula_structural   SmMnIn
_chemical_formula_sum   'Sm1 Mn1 In1'
_cell_volume   69.06433479
_cell_formula_units_Z   1
loop_
 _symmetry_equiv_pos_site_id
 _symmetry_equiv_pos_as_xyz
  1  'x, y, z'
loop_
 _atom_site_type_symbol
 _atom_site_label
 _atom_site_symmetry_multiplicity
 _atom_site_fract_x
 _atom_site_fract_y
 _atom_site_fract_z
 _atom_site_occupancy
  Sm  Sm0  1  0.66666700  0.33333300  0.00000000  1
  Mn  Mn1  1  0.00000000  0.00000000  0.50000000  1
  In  In2  1  0.33333300  0.66666700  0.50000000  1
