# generated using pymatgen
data_SmGa7Co5
_symmetry_space_group_name_H-M   'P 1'
_cell_length_a   6.65913481
_cell_length_b   6.65913481
_cell_length_c   6.65913481
_cell_angle_alpha   136.31464903
_cell_angle_beta   100.15408917
_cell_angle_gamma   95.77142930
_symmetry_Int_Tables_number   1
_chemical_formula_structural   SmGa7Co5
_chemical_formula_sum   'Sm1 Ga7 Co5'
_cell_volume   189.13295295
_cell_formula_units_Z   1
loop_
 _symmetry_equiv_pos_site_id
 _symmetry_equiv_pos_as_xyz
  1  'x, y, z'
loop_
 _atom_site_type_symbol
 _atom_site_label
 _atom_site_symmetry_multiplicity
 _atom_site_fract_x
 _atom_site_fract_y
 _atom_site_fract_z
 _atom_site_occupancy
  Sm  Sm0  1  0.00236400  0.00236400  0.00000000  1
  Ga  Ga1  1  0.48992700  0.50589000  0.48570000  1
  Ga  Ga2  1  0.48992700  0.00422700  0.98403700  1
  Ga  Ga3  1  0.02019000  0.50589000  0.01596300  1
  Ga  Ga4  1  0.02019000  0.00422700  0.51430000  1
  Ga  Ga5  1  0.73851700  0.23851700  0.50000000  1
  Ga  Ga6  1  0.76946000  0.50711300  0.26234700  1
  Ga  Ga7  1  0.24476600  0.50711300  0.73765300  1
  Co  Co8  1  0.64843100  0.64843100  0.00000000  1
  Co  Co9  1  0.36429700  0.36429700  0.00000000  1
  Co  Co10  1  0.35114300  0.99612200  0.35502100  1
  Co  Co11  1  0.64110100  0.99612200  0.64497900  1
  Co  Co12  1  0.21968700  0.71968700  0.50000000  1
