# generated using pymatgen
data_SiPN3
_symmetry_space_group_name_H-M   'P 1'
_cell_length_a   4.69664000
_cell_length_b   5.27599500
_cell_length_c   5.29304605
_cell_angle_alpha   60.27041811
_cell_angle_beta   90.00000000
_cell_angle_gamma   90.00000000
_symmetry_Int_Tables_number   1
_chemical_formula_structural   SiPN3
_chemical_formula_sum   'Si2 P2 N6'
_cell_volume   113.89507069
_cell_formula_units_Z   2
loop_
 _symmetry_equiv_pos_site_id
 _symmetry_equiv_pos_as_xyz
  1  'x, y, z'
loop_
 _atom_site_type_symbol
 _atom_site_label
 _atom_site_symmetry_multiplicity
 _atom_site_fract_x
 _atom_site_fract_y
 _atom_site_fract_z
 _atom_site_occupancy
  Si  Si0  1  0.50372800  0.32536500  0.67607500  1
  Si  Si1  1  0.00372800  0.67463500  0.32392500  1
  P  P2  1  0.49539500  0.99392600  0.33438000  1
  P  P3  1  0.99539500  0.00607400  0.66562000  1
  N  N4  1  0.85854700  0.33245800  0.57281400  1
  N  N5  1  0.84225800  0.91546000  0.43066600  1
  N  N6  1  0.35854700  0.66754200  0.42718600  1
  N  N7  1  0.34225800  0.08454000  0.56933400  1
  N  N8  1  0.93327200  0.76919200  0.98323600  1
  N  N9  1  0.43327200  0.23080800  0.01676400  1
