# generated using pymatgen
data_Si5C3
_symmetry_space_group_name_H-M   'P 1'
_cell_length_a   5.59493398
_cell_length_b   5.59493398
_cell_length_c   5.59493470
_cell_angle_alpha   97.30263540
_cell_angle_beta   97.30263540
_cell_angle_gamma   97.30263001
_symmetry_Int_Tables_number   1
_chemical_formula_structural   Si5C3
_chemical_formula_sum   'Si5 C3'
_cell_volume   170.47338432
_cell_formula_units_Z   1
loop_
 _symmetry_equiv_pos_site_id
 _symmetry_equiv_pos_as_xyz
  1  'x, y, z'
loop_
 _atom_site_type_symbol
 _atom_site_label
 _atom_site_symmetry_multiplicity
 _atom_site_fract_x
 _atom_site_fract_y
 _atom_site_fract_z
 _atom_site_occupancy
  Si  Si0  1  0.38535000  0.38535000  0.38535000  1
  Si  Si1  1  0.56303600  0.84427100  0.35721800  1
  Si  Si2  1  0.84427100  0.35721800  0.56303600  1
  Si  Si3  1  0.35721800  0.56303600  0.84427100  1
  Si  Si4  1  0.72163200  0.72163200  0.72163200  1
  C  C5  1  0.16474100  0.35940700  0.60434500  1
  C  C6  1  0.35940700  0.60434500  0.16474100  1
  C  C7  1  0.60434500  0.16474100  0.35940700  1
