# generated using pymatgen
data_Sm2Mo2O7
_symmetry_space_group_name_H-M   'P 1'
_cell_length_a   7.41625189
_cell_length_b   7.41625189
_cell_length_c   7.41625189
_cell_angle_alpha   60.00000000
_cell_angle_beta   60.00000000
_cell_angle_gamma   60.00000000
_symmetry_Int_Tables_number   1
_chemical_formula_structural   Sm2Mo2O7
_chemical_formula_sum   'Sm4 Mo4 O14'
_cell_volume   288.42866355
_cell_formula_units_Z   2
loop_
 _symmetry_equiv_pos_site_id
 _symmetry_equiv_pos_as_xyz
  1  'x, y, z'
loop_
 _atom_site_type_symbol
 _atom_site_label
 _atom_site_symmetry_multiplicity
 _atom_site_fract_x
 _atom_site_fract_y
 _atom_site_fract_z
 _atom_site_occupancy
  Sm  Sm0  1  0.62500000  0.12500000  0.12500000  1
  Sm  Sm1  1  0.12500000  0.62500000  0.12500000  1
  Sm  Sm2  1  0.12500000  0.12500000  0.62500000  1
  Sm  Sm3  1  0.12500000  0.12500000  0.12500000  1
  Mo  Mo4  1  0.12500000  0.62500000  0.62500000  1
  Mo  Mo5  1  0.62500000  0.12500000  0.62500000  1
  Mo  Mo6  1  0.62500000  0.62500000  0.12500000  1
  Mo  Mo7  1  0.62500000  0.62500000  0.62500000  1
  O  O8  1  0.74146600  0.74146600  0.25853400  1
  O  O9  1  0.25853400  0.25853400  0.74146600  1
  O  O10  1  0.74146600  0.25853400  0.74146600  1
  O  O11  1  0.25853400  0.74146600  0.25853400  1
  O  O12  1  0.25853400  0.74146600  0.74146600  1
  O  O13  1  0.74146600  0.25853400  0.25853400  1
  O  O14  1  0.50853400  0.50853400  0.99146600  1
  O  O15  1  0.99146600  0.99146600  0.50853400  1
  O  O16  1  0.50853400  0.99146600  0.50853400  1
  O  O17  1  0.99146600  0.50853400  0.99146600  1
  O  O18  1  0.99146600  0.50853400  0.50853400  1
  O  O19  1  0.50853400  0.99146600  0.99146600  1
  O  O20  1  0.50000000  0.50000000  0.50000000  1
  O  O21  1  0.75000000  0.75000000  0.75000000  1
