# generated using pymatgen
data_Sm3SOF5
_symmetry_space_group_name_H-M   'P 1'
_cell_length_a   3.78271000
_cell_length_b   9.60917400
_cell_length_c   9.65705747
_cell_angle_alpha   60.39839641
_cell_angle_beta   90.00000000
_cell_angle_gamma   90.00000000
_symmetry_Int_Tables_number   1
_chemical_formula_structural   Sm3SOF5
_chemical_formula_sum   'Sm6 S2 O2 F10'
_cell_volume   305.20670455
_cell_formula_units_Z   2
loop_
 _symmetry_equiv_pos_site_id
 _symmetry_equiv_pos_as_xyz
  1  'x, y, z'
loop_
 _atom_site_type_symbol
 _atom_site_label
 _atom_site_symmetry_multiplicity
 _atom_site_fract_x
 _atom_site_fract_y
 _atom_site_fract_z
 _atom_site_occupancy
  Sm  Sm0  1  0.00000000  0.58283700  0.13319300  1
  Sm  Sm1  1  0.00000000  0.13199300  0.27225400  1
  Sm  Sm2  1  0.00000000  0.29879300  0.58532500  1
  Sm  Sm3  1  0.50000000  0.40509000  0.89583100  1
  Sm  Sm4  1  0.50000000  0.87704200  0.71424300  1
  Sm  Sm5  1  0.50000000  0.70413400  0.40314300  1
  S  S6  1  0.00000000  0.67138600  0.66716500  1
  S  S7  1  0.50000000  0.32648700  0.33864400  1
  O  O8  1  0.00000000  0.56370600  0.38740300  1
  O  O9  1  0.00000000  0.38369500  0.05202600  1
  F  F10  1  0.00000000  0.84075200  0.87936300  1
  F  F11  1  0.00000000  0.88720700  0.27355200  1
  F  F12  1  0.00000000  0.27586800  0.83763200  1
  F  F13  1  0.50000000  0.14566400  0.11871500  1
  F  F14  1  0.50000000  0.12177200  0.71484600  1
  F  F15  1  0.50000000  0.72711300  0.14921200  1
  F  F16  1  0.00000000  0.04786700  0.56615600  1
  F  F17  1  0.50000000  0.43116800  0.62559600  1
  F  F18  1  0.50000000  0.62241400  0.95241900  1
  F  F19  1  0.50000000  0.95501000  0.43328400  1
