# generated using pymatgen
data_SmMnGe
_symmetry_space_group_name_H-M   'P 1'
_cell_length_a   4.25292600
_cell_length_b   7.30496400
_cell_length_c   7.88121100
_cell_angle_alpha   90.00000000
_cell_angle_beta   90.00000000
_cell_angle_gamma   90.00000000
_symmetry_Int_Tables_number   1
_chemical_formula_structural   SmMnGe
_chemical_formula_sum   'Sm4 Mn4 Ge4'
_cell_volume   244.84929675
_cell_formula_units_Z   4
loop_
 _symmetry_equiv_pos_site_id
 _symmetry_equiv_pos_as_xyz
  1  'x, y, z'
loop_
 _atom_site_type_symbol
 _atom_site_label
 _atom_site_symmetry_multiplicity
 _atom_site_fract_x
 _atom_site_fract_y
 _atom_site_fract_z
 _atom_site_occupancy
  Sm  Sm0  1  0.25000000  0.51289400  0.68296800  1
  Sm  Sm1  1  0.25000000  0.01289400  0.81703200  1
  Sm  Sm2  1  0.75000000  0.48710600  0.31703200  1
  Sm  Sm3  1  0.75000000  0.98710600  0.18296800  1
  Mn  Mn4  1  0.25000000  0.13286600  0.44500800  1
  Mn  Mn5  1  0.25000000  0.63286600  0.05499200  1
  Mn  Mn6  1  0.75000000  0.86713400  0.55499200  1
  Mn  Mn7  1  0.75000000  0.36713400  0.94500800  1
  Ge  Ge8  1  0.25000000  0.78126100  0.38599200  1
  Ge  Ge9  1  0.25000000  0.28126100  0.11400800  1
  Ge  Ge10  1  0.75000000  0.21873900  0.61400800  1
  Ge  Ge11  1  0.75000000  0.71873900  0.88599200  1
