# generated using pymatgen
data_SiH8C4F3
_symmetry_space_group_name_H-M   'P 1'
_cell_length_a   10.27204900
_cell_length_b   6.87836200
_cell_length_c   6.89374321
_cell_angle_alpha   77.17225971
_cell_angle_beta   90.00000000
_cell_angle_gamma   90.00000000
_symmetry_Int_Tables_number   1
_chemical_formula_structural   SiH8C4F3
_chemical_formula_sum   'Si2 H16 C8 F6'
_cell_volume   474.92007258
_cell_formula_units_Z   2
loop_
 _symmetry_equiv_pos_site_id
 _symmetry_equiv_pos_as_xyz
  1  'x, y, z'
loop_
 _atom_site_type_symbol
 _atom_site_label
 _atom_site_symmetry_multiplicity
 _atom_site_fract_x
 _atom_site_fract_y
 _atom_site_fract_z
 _atom_site_occupancy
  Si  Si0  1  0.24942900  0.19838600  0.22131400  1
  Si  Si1  1  0.74942900  0.80161400  0.77868600  1
  H  H2  1  0.26308800  0.89571600  0.51751100  1
  H  H3  1  0.76308800  0.10428400  0.48248900  1
  H  H4  1  0.09704700  0.48740700  0.17996800  1
  H  H5  1  0.59704700  0.51259300  0.82003200  1
  H  H6  1  0.90226100  0.51597500  0.81821400  1
  H  H7  1  0.40226100  0.48402500  0.18178600  1
  H  H8  1  0.09342400  0.33351000  0.42621900  1
  H  H9  1  0.59342400  0.66649000  0.57378100  1
  H  H10  1  0.90707500  0.66662800  0.57291700  1
  H  H11  1  0.40707500  0.33337200  0.42708300  1
  H  H12  1  0.01156200  0.25379100  0.23053600  1
  H  H13  1  0.51156200  0.74620900  0.76946400  1
  H  H14  1  0.98947800  0.74671500  0.76867000  1
  H  H15  1  0.48947800  0.25328500  0.23133000  1
  H  H16  1  0.17188500  0.82970500  0.31136300  1
  H  H17  1  0.67188500  0.17029500  0.68863700  1
  C  C18  1  0.23289800  0.93911400  0.36117200  1
  C  C19  1  0.73289800  0.06088600  0.63882800  1
  C  C20  1  0.25009800  0.19863800  0.93769500  1
  C  C21  1  0.75009800  0.80136200  0.06230500  1
  C  C22  1  0.09799400  0.33296100  0.26657700  1
  C  C23  1  0.59799400  0.66703900  0.73342300  1
  C  C24  1  0.90180300  0.67098300  0.73152900  1
  C  C25  1  0.40180300  0.32901700  0.26847100  1
  F  F26  1  0.25003300  0.39045500  0.82049900  1
  F  F27  1  0.75003300  0.60954500  0.17950100  1
  F  F28  1  0.14281400  0.10542700  0.87827100  1
  F  F29  1  0.64281400  0.89457300  0.12172900  1
  F  F30  1  0.85741200  0.89403100  0.12269700  1
  F  F31  1  0.35741200  0.10596900  0.87730300  1
