# generated using pymatgen
data_ScMn3(BiO3)4
_symmetry_space_group_name_H-M   'P 1'
_cell_length_a   5.65357113
_cell_length_b   5.65351671
_cell_length_c   9.94671414
_cell_angle_alpha   73.56356442
_cell_angle_beta   73.56642298
_cell_angle_gamma   61.59757362
_symmetry_Int_Tables_number   1
_chemical_formula_structural   ScMn3(BiO3)4
_chemical_formula_sum   'Sc1 Mn3 Bi4 O12'
_cell_volume   264.04825694
_cell_formula_units_Z   1
loop_
 _symmetry_equiv_pos_site_id
 _symmetry_equiv_pos_as_xyz
  1  'x, y, z'
loop_
 _atom_site_type_symbol
 _atom_site_label
 _atom_site_symmetry_multiplicity
 _atom_site_fract_x
 _atom_site_fract_y
 _atom_site_fract_z
 _atom_site_occupancy
  Sc  Sc0  1  0.77524000  0.22478400  0.74999500  1
  Mn  Mn1  1  0.20981000  0.79017700  0.25002200  1
  Mn  Mn2  1  0.99562500  0.49350600  0.99862800  1
  Mn  Mn3  1  0.50616000  0.00449200  0.50135400  1
  Bi  Bi4  1  0.92939600  0.35481500  0.37211400  1
  Bi  Bi5  1  0.64530900  0.07055400  0.12785600  1
  Bi  Bi6  1  0.08401400  0.65349600  0.61951300  1
  Bi  Bi7  1  0.34659200  0.91593900  0.88049700  1
  O  O8  1  0.57145900  0.71277000  0.12992900  1
  O  O9  1  0.28726500  0.42852500  0.37007600  1
  O  O10  1  0.40808800  0.27508200  0.87921300  1
  O  O11  1  0.72490300  0.59196000  0.62074300  1
  O  O12  1  0.80817500  0.90021100  0.33608400  1
  O  O13  1  0.09991600  0.19170700  0.16398300  1
  O  O14  1  0.21185200  0.10226700  0.66473500  1
  O  O15  1  0.89772500  0.78814300  0.83527400  1
  O  O16  1  0.91278400  0.25686000  0.92089900  1
  O  O17  1  0.74313100  0.08725800  0.57909100  1
  O  O18  1  0.06764000  0.72504800  0.08293100  1
  O  O19  1  0.27491600  0.93240600  0.41706500  1
