# generated using pymatgen
data_Sm2Ge3
_symmetry_space_group_name_H-M   'P 1'
_cell_length_a   4.43439549
_cell_length_b   4.43439549
_cell_length_c   7.28314200
_cell_angle_alpha   90.00000000
_cell_angle_beta   90.00000000
_cell_angle_gamma   119.99999242
_symmetry_Int_Tables_number   1
_chemical_formula_structural   Sm2Ge3
_chemical_formula_sum   'Sm2 Ge3'
_cell_volume   124.02758589
_cell_formula_units_Z   1
loop_
 _symmetry_equiv_pos_site_id
 _symmetry_equiv_pos_as_xyz
  1  'x, y, z'
loop_
 _atom_site_type_symbol
 _atom_site_label
 _atom_site_symmetry_multiplicity
 _atom_site_fract_x
 _atom_site_fract_y
 _atom_site_fract_z
 _atom_site_occupancy
  Sm  Sm0  1  0.66666700  0.33333300  0.73059300  1
  Sm  Sm1  1  0.66666700  0.33333300  0.26940700  1
  Ge  Ge2  1  0.00000000  0.00000000  0.00000000  1
  Ge  Ge3  1  0.33333300  0.66666700  0.50000000  1
  Ge  Ge4  1  0.33333300  0.66666700  0.00000000  1
