# generated using pymatgen
data_Sm4Fe31Si3
_symmetry_space_group_name_H-M   'P 1'
_cell_length_a   6.38263578
_cell_length_b   6.40077022
_cell_length_c   12.77283878
_cell_angle_alpha   82.82685390
_cell_angle_beta   82.86783750
_cell_angle_gamma   82.87751882
_symmetry_Int_Tables_number   1
_chemical_formula_structural   Sm4Fe31Si3
_chemical_formula_sum   'Sm4 Fe31 Si3'
_cell_volume   510.60002295
_cell_formula_units_Z   1
loop_
 _symmetry_equiv_pos_site_id
 _symmetry_equiv_pos_as_xyz
  1  'x, y, z'
loop_
 _atom_site_type_symbol
 _atom_site_label
 _atom_site_symmetry_multiplicity
 _atom_site_fract_x
 _atom_site_fract_y
 _atom_site_fract_z
 _atom_site_occupancy
  Sm  Sm0  1  0.66001700  0.66150300  0.33015200  1
  Sm  Sm1  1  0.65850000  0.65999600  0.83009600  1
  Sm  Sm2  1  0.34244300  0.34182900  0.17125200  1
  Sm  Sm3  1  0.34292700  0.34270100  0.67137200  1
  Fe  Fe4  1  0.29403900  0.70608100  0.49975800  1
  Fe  Fe5  1  0.29266400  0.70715700  0.00083700  1
  Fe  Fe6  1  0.70740000  0.00070200  0.14667500  1
  Fe  Fe7  1  0.70687300  0.00012200  0.64553100  1
  Fe  Fe8  1  0.99924900  0.29251300  0.35290600  1
  Fe  Fe9  1  0.99888100  0.29306600  0.85291700  1
  Fe  Fe10  1  0.29287700  0.00124800  0.35357000  1
  Fe  Fe11  1  0.29258500  0.00137100  0.85345200  1
  Fe  Fe12  1  0.99870000  0.70562900  0.14747900  1
  Fe  Fe13  1  0.99960700  0.70644900  0.64617600  1
  Fe  Fe14  1  0.70761500  0.29172800  0.00020900  1
  Fe  Fe15  1  0.70544700  0.29290500  0.49915500  1
  Fe  Fe16  1  0.00055300  0.00207700  0.24916900  1
  Fe  Fe17  1  0.00069700  0.00189000  0.74782200  1
  Fe  Fe18  1  0.00177400  0.49617900  0.50053300  1
  Fe  Fe19  1  0.00050500  0.49771500  0.00112500  1
  Fe  Fe20  1  0.49899300  0.99987600  0.00026300  1
  Fe  Fe21  1  0.49626800  0.00258000  0.50011700  1
  Fe  Fe22  1  0.90379600  0.90409100  0.45195000  1
  Fe  Fe23  1  0.90417800  0.90386000  0.95175900  1
  Fe  Fe24  1  0.09405700  0.09615600  0.04844400  1
  Fe  Fe25  1  0.09415100  0.09685100  0.54656400  1
  Fe  Fe26  1  0.34127600  0.34248100  0.92227700  1
  Fe  Fe27  1  0.34013500  0.84469700  0.17202000  1
  Fe  Fe28  1  0.34192000  0.84366400  0.66983100  1
  Fe  Fe29  1  0.15781600  0.65845300  0.33010500  1
  Fe  Fe30  1  0.15743500  0.65900600  0.82934500  1
  Fe  Fe31  1  0.65774500  0.65754900  0.07847900  1
  Fe  Fe32  1  0.66077500  0.65870500  0.57833600  1
  Fe  Fe33  1  0.65970000  0.15493000  0.33000800  1
  Fe  Fe34  1  0.65767100  0.15602100  0.82844200  1
  Si  Si35  1  0.84530400  0.33943700  0.17050000  1
  Si  Si36  1  0.84647200  0.33940200  0.66850500  1
  Si  Si37  1  0.33895600  0.33938200  0.42286900  1
