# generated using pymatgen
data_Sm9Ga5S21
_symmetry_space_group_name_H-M   'P 1'
_cell_length_a   11.64926730
_cell_length_b   11.64926730
_cell_length_c   11.64926753
_cell_angle_alpha   94.69755344
_cell_angle_beta   94.69755344
_cell_angle_gamma   94.69755499
_symmetry_Int_Tables_number   1
_chemical_formula_structural   Sm9Ga5S21
_chemical_formula_sum   'Sm18 Ga10 S42'
_cell_volume   1564.00637441
_cell_formula_units_Z   2
loop_
 _symmetry_equiv_pos_site_id
 _symmetry_equiv_pos_as_xyz
  1  'x, y, z'
loop_
 _atom_site_type_symbol
 _atom_site_label
 _atom_site_symmetry_multiplicity
 _atom_site_fract_x
 _atom_site_fract_y
 _atom_site_fract_z
 _atom_site_occupancy
  Sm  Sm0  1  0.25945200  0.12125900  0.88471200  1
  Sm  Sm1  1  0.91800400  0.77307700  0.54201800  1
  Sm  Sm2  1  0.60238400  0.44997300  0.22703900  1
  Sm  Sm3  1  0.44997300  0.22703900  0.60238400  1
  Sm  Sm4  1  0.12125900  0.88471200  0.25945200  1
  Sm  Sm5  1  0.77307700  0.54201800  0.91800400  1
  Sm  Sm6  1  0.54201800  0.91800400  0.77307700  1
  Sm  Sm7  1  0.22703900  0.60238400  0.44997300  1
  Sm  Sm8  1  0.88471200  0.25945200  0.12125900  1
  Sm  Sm9  1  0.41680400  0.56193000  0.79148200  1
  Sm  Sm10  1  0.06942100  0.21555900  0.44591300  1
  Sm  Sm11  1  0.75239300  0.89599200  0.12772000  1
  Sm  Sm12  1  0.21555900  0.44591300  0.06942100  1
  Sm  Sm13  1  0.89599200  0.12772000  0.75239300  1
  Sm  Sm14  1  0.56193000  0.79148200  0.41680400  1
  Sm  Sm15  1  0.12772000  0.75239300  0.89599200  1
  Sm  Sm16  1  0.79148200  0.41680400  0.56193000  1
  Sm  Sm17  1  0.44591300  0.06942100  0.21555900  1
  Ga  Ga18  1  0.94985700  0.60923900  0.27618700  1
  Ga  Ga19  1  0.60923900  0.27618700  0.94985700  1
  Ga  Ga20  1  0.27618700  0.94985700  0.60923900  1
  Ga  Ga21  1  0.44869500  0.77310100  0.11358200  1
  Ga  Ga22  1  0.11358200  0.44869500  0.77310100  1
  Ga  Ga23  1  0.77310100  0.11358200  0.44869500  1
  Ga  Ga24  1  0.14397000  0.14397000  0.14397000  1
  Ga  Ga25  1  0.84592000  0.84592000  0.84592000  1
  Ga  Ga26  1  0.34677500  0.34677500  0.34677500  1
  Ga  Ga27  1  0.64378300  0.64378300  0.64378300  1
  S  S28  1  0.98656000  0.55066600  0.45753900  1
  S  S29  1  0.64168700  0.21696700  0.13034700  1
  S  S30  1  0.30395600  0.89451900  0.79420600  1
  S  S31  1  0.89451900  0.79420600  0.30395600  1
  S  S32  1  0.55066600  0.45753900  0.98656000  1
  S  S33  1  0.21696700  0.13034700  0.64168700  1
  S  S34  1  0.13034700  0.64168700  0.21696700  1
  S  S35  1  0.79420600  0.30395600  0.89451900  1
  S  S36  1  0.45753900  0.98656000  0.55066600  1
  S  S37  1  0.52247300  0.93174900  0.03203100  1
  S  S38  1  0.18836600  0.61245100  0.70060100  1
  S  S39  1  0.84096500  0.27801500  0.36896800  1
  S  S40  1  0.61245100  0.70060100  0.18836600  1
  S  S41  1  0.27801500  0.36896800  0.84096500  1
  S  S42  1  0.93174900  0.03203100  0.52247300  1
  S  S43  1  0.36896800  0.84096500  0.27801500  1
  S  S44  1  0.03203100  0.52247300  0.93174900  1
  S  S45  1  0.70060100  0.18836600  0.61245100  1
  S  S46  1  0.82423500  0.49089300  0.15255300  1
  S  S47  1  0.49089300  0.15255300  0.82423500  1
  S  S48  1  0.15255300  0.82423500  0.49089300  1
  S  S49  1  0.65303200  0.99223300  0.32245500  1
  S  S50  1  0.32245500  0.65303200  0.99223300  1
  S  S51  1  0.99223300  0.32245500  0.65303200  1
  S  S52  1  0.69043500  0.59270000  0.44193800  1
  S  S53  1  0.33477000  0.24075000  0.10265300  1
  S  S54  1  0.00574700  0.90527200  0.75980200  1
  S  S55  1  0.90527200  0.75980200  0.00574700  1
  S  S56  1  0.59270000  0.44193800  0.69043500  1
  S  S57  1  0.24075000  0.10265300  0.33477000  1
  S  S58  1  0.10265300  0.33477000  0.24075000  1
  S  S59  1  0.75980200  0.00574700  0.90527200  1
  S  S60  1  0.44193800  0.69043500  0.59270000  1
  S  S61  1  0.61879800  0.71149500  0.84991800  1
  S  S62  1  0.27330100  0.37829300  0.51985700  1
  S  S63  1  0.96006500  0.05503700  0.20855700  1
  S  S64  1  0.37829300  0.51985700  0.27330100  1
  S  S65  1  0.05503700  0.20855700  0.96006500  1
  S  S66  1  0.71149500  0.84991800  0.61879800  1
  S  S67  1  0.20855700  0.96006500  0.05503700  1
  S  S68  1  0.84991800  0.61879800  0.71149500  1
  S  S69  1  0.51985700  0.27330100  0.37829300  1
