# generated using pymatgen
data_Rh3Cl4
_symmetry_space_group_name_H-M   'P 1'
_cell_length_a   6.60096400
_cell_length_b   6.60096400
_cell_length_c   6.60096400
_cell_angle_alpha   90.00000000
_cell_angle_beta   90.00000000
_cell_angle_gamma   90.00000000
_symmetry_Int_Tables_number   1
_chemical_formula_structural   Rh3Cl4
_chemical_formula_sum   'Rh6 Cl8'
_cell_volume   287.62199392
_cell_formula_units_Z   2
loop_
 _symmetry_equiv_pos_site_id
 _symmetry_equiv_pos_as_xyz
  1  'x, y, z'
loop_
 _atom_site_type_symbol
 _atom_site_label
 _atom_site_symmetry_multiplicity
 _atom_site_fract_x
 _atom_site_fract_y
 _atom_site_fract_z
 _atom_site_occupancy
  Rh  Rh0  1  0.75000000  0.00000000  0.50000000  1
  Rh  Rh1  1  0.50000000  0.75000000  0.00000000  1
  Rh  Rh2  1  0.00000000  0.50000000  0.75000000  1
  Rh  Rh3  1  0.00000000  0.50000000  0.25000000  1
  Rh  Rh4  1  0.25000000  0.00000000  0.50000000  1
  Rh  Rh5  1  0.50000000  0.25000000  0.00000000  1
  Cl  Cl6  1  0.75000000  0.25000000  0.25000000  1
  Cl  Cl7  1  0.25000000  0.25000000  0.75000000  1
  Cl  Cl8  1  0.25000000  0.75000000  0.25000000  1
  Cl  Cl9  1  0.75000000  0.75000000  0.75000000  1
  Cl  Cl10  1  0.25000000  0.75000000  0.75000000  1
  Cl  Cl11  1  0.75000000  0.75000000  0.25000000  1
  Cl  Cl12  1  0.25000000  0.25000000  0.25000000  1
  Cl  Cl13  1  0.75000000  0.25000000  0.75000000  1
