# generated using pymatgen
data_Sm(ReO5)3
_symmetry_space_group_name_H-M   'P 1'
_cell_length_a   8.74188400
_cell_length_b   11.61850900
_cell_length_c   14.79001500
_cell_angle_alpha   90.00000000
_cell_angle_beta   90.00000000
_cell_angle_gamma   90.00000000
_symmetry_Int_Tables_number   1
_chemical_formula_structural   Sm(ReO5)3
_chemical_formula_sum   'Sm4 Re12 O60'
_cell_volume   1502.18718431
_cell_formula_units_Z   4
loop_
 _symmetry_equiv_pos_site_id
 _symmetry_equiv_pos_as_xyz
  1  'x, y, z'
loop_
 _atom_site_type_symbol
 _atom_site_label
 _atom_site_symmetry_multiplicity
 _atom_site_fract_x
 _atom_site_fract_y
 _atom_site_fract_z
 _atom_site_occupancy
  Sm  Sm0  1  0.76883900  0.72316600  0.82752600  1
  Sm  Sm1  1  0.23116100  0.22316600  0.17247400  1
  Sm  Sm2  1  0.26883900  0.22316600  0.67247400  1
  Sm  Sm3  1  0.73116100  0.72316600  0.32752600  1
  Re  Re4  1  0.80675100  0.86202300  0.58316700  1
  Re  Re5  1  0.19324900  0.36202300  0.41683300  1
  Re  Re6  1  0.30675100  0.36202300  0.91683300  1
  Re  Re7  1  0.69324900  0.86202300  0.08316700  1
  Re  Re8  1  0.60343300  0.46487100  0.67159300  1
  Re  Re9  1  0.39656700  0.96487100  0.32840700  1
  Re  Re10  1  0.10343300  0.96487100  0.82840700  1
  Re  Re11  1  0.89656700  0.46487100  0.17159300  1
  Re  Re12  1  0.60067400  0.05174100  0.81947900  1
  Re  Re13  1  0.39932600  0.55174100  0.18052100  1
  Re  Re14  1  0.10067400  0.55174100  0.68052100  1
  Re  Re15  1  0.89932600  0.05174100  0.31947900  1
  O  O16  1  0.54779800  0.52902700  0.57092100  1
  O  O17  1  0.45220200  0.02902700  0.42907900  1
  O  O18  1  0.04779800  0.02902700  0.92907900  1
  O  O19  1  0.95220200  0.52902700  0.07092100  1
  O  O20  1  0.72639000  0.99425300  0.60929400  1
  O  O21  1  0.27361000  0.49425300  0.39070600  1
  O  O22  1  0.22639000  0.49425300  0.89070600  1
  O  O23  1  0.77361000  0.99425300  0.10929400  1
  O  O24  1  0.00699100  0.69312000  0.92022000  1
  O  O25  1  0.99300900  0.19312000  0.07978000  1
  O  O26  1  0.50699100  0.19312000  0.57978000  1
  O  O27  1  0.49300900  0.69312000  0.42022000  1
  O  O28  1  0.75365700  0.76323200  0.66821900  1
  O  O29  1  0.24634300  0.26323200  0.33178100  1
  O  O30  1  0.25365700  0.26323200  0.83178100  1
  O  O31  1  0.74634300  0.76323200  0.16821900  1
  O  O32  1  0.62684600  0.56928400  0.75828200  1
  O  O33  1  0.37315400  0.06928400  0.24171800  1
  O  O34  1  0.12684600  0.06928400  0.74171800  1
  O  O35  1  0.87315400  0.56928400  0.25828200  1
  O  O36  1  0.74669300  0.55119100  0.93169200  1
  O  O37  1  0.25330700  0.05119100  0.06830800  1
  O  O38  1  0.24669300  0.05119100  0.56830800  1
  O  O39  1  0.75330700  0.55119100  0.43169200  1
  O  O40  1  0.63288800  0.90108700  0.81125100  1
  O  O41  1  0.36711200  0.40108700  0.18874900  1
  O  O42  1  0.13288800  0.40108700  0.68874900  1
  O  O43  1  0.86711200  0.90108700  0.31125100  1
  O  O44  1  0.77653900  0.39638600  0.65421900  1
  O  O45  1  0.22346100  0.89638600  0.34578100  1
  O  O46  1  0.27653900  0.89638600  0.84578100  1
  O  O47  1  0.72346100  0.39638600  0.15421900  1
  O  O48  1  0.00406200  0.87617100  0.58318100  1
  O  O49  1  0.99593800  0.37617100  0.41681900  1
  O  O50  1  0.50406200  0.37617100  0.91681900  1
  O  O51  1  0.49593800  0.87617100  0.08318100  1
  O  O52  1  0.03576200  0.36055900  0.20260700  1
  O  O53  1  0.96423800  0.86055900  0.79739300  1
  O  O54  1  0.53576200  0.86055900  0.29739300  1
  O  O55  1  0.46423800  0.36055900  0.70260700  1
  O  O56  1  0.49391200  0.70941600  0.88227400  1
  O  O57  1  0.50608800  0.20941600  0.11772600  1
  O  O58  1  0.99391200  0.20941600  0.61772600  1
  O  O59  1  0.00608800  0.70941600  0.38227400  1
  O  O60  1  0.54129700  0.08381700  0.92838300  1
  O  O61  1  0.45870300  0.58381700  0.07161700  1
  O  O62  1  0.04129700  0.58381700  0.57161700  1
  O  O63  1  0.95870300  0.08381700  0.42838300  1
  O  O64  1  0.74076300  0.81094400  0.47575500  1
  O  O65  1  0.25923700  0.31094400  0.52424500  1
  O  O66  1  0.24076300  0.31094400  0.02424500  1
  O  O67  1  0.75923700  0.81094400  0.97575500  1
  O  O68  1  0.77182600  0.12303800  0.80096800  1
  O  O69  1  0.22817400  0.62303800  0.19903200  1
  O  O70  1  0.27182600  0.62303800  0.69903200  1
  O  O71  1  0.72817400  0.12303800  0.30096800  1
  O  O72  1  0.45981200  0.10057700  0.74134900  1
  O  O73  1  0.54018800  0.60057700  0.25865100  1
  O  O74  1  0.95981200  0.60057700  0.75865100  1
  O  O75  1  0.04018800  0.10057700  0.24134900  1
