# generated using pymatgen
data_SbHC2O5
_symmetry_space_group_name_H-M   'P 1'
_cell_length_a   6.02979600
_cell_length_b   6.49633000
_cell_length_c   11.37564800
_cell_angle_alpha   90.00000000
_cell_angle_beta   90.00000000
_cell_angle_gamma   90.00000000
_symmetry_Int_Tables_number   1
_chemical_formula_structural   SbHC2O5
_chemical_formula_sum   'Sb4 H4 C8 O20'
_cell_volume   445.60170354
_cell_formula_units_Z   4
loop_
 _symmetry_equiv_pos_site_id
 _symmetry_equiv_pos_as_xyz
  1  'x, y, z'
loop_
 _atom_site_type_symbol
 _atom_site_label
 _atom_site_symmetry_multiplicity
 _atom_site_fract_x
 _atom_site_fract_y
 _atom_site_fract_z
 _atom_site_occupancy
  Sb  Sb0  1  0.07237100  0.01601200  0.49992800  1
  Sb  Sb1  1  0.57237100  0.48398800  0.50007200  1
  Sb  Sb2  1  0.42762900  0.98398800  0.99992800  1
  Sb  Sb3  1  0.92762900  0.51601200  0.00007200  1
  H  H4  1  0.60322000  0.10277100  0.46446500  1
  H  H5  1  0.10322000  0.39722900  0.53553500  1
  H  H6  1  0.89678000  0.89722900  0.96446500  1
  H  H7  1  0.39678000  0.60277100  0.03553500  1
  C  C8  1  0.14429300  0.05199000  0.22649500  1
  C  C9  1  0.64429300  0.44801000  0.77350500  1
  C  C10  1  0.35570700  0.94801000  0.72649500  1
  C  C11  1  0.85570700  0.55199000  0.27350500  1
  C  C12  1  0.35584200  0.94870800  0.27326000  1
  C  C13  1  0.85584200  0.55129200  0.72674000  1
  C  C14  1  0.14415800  0.05129200  0.77326000  1
  C  C15  1  0.64415800  0.44870800  0.22674000  1
  O  O16  1  0.99765300  0.10315600  0.29965100  1
  O  O17  1  0.49765300  0.39684400  0.70034900  1
  O  O18  1  0.50234700  0.89684400  0.79965100  1
  O  O19  1  0.00234700  0.60315600  0.20034900  1
  O  O20  1  0.50248700  0.89419400  0.20110600  1
  O  O21  1  0.00248700  0.60580600  0.79889400  1
  O  O22  1  0.99751300  0.10580600  0.70110600  1
  O  O23  1  0.49751300  0.39419400  0.29889400  1
  O  O24  1  0.71066700  0.20083700  0.49826300  1
  O  O25  1  0.21066700  0.29916300  0.50173700  1
  O  O26  1  0.78933300  0.79916300  0.99826300  1
  O  O27  1  0.28933300  0.70083700  0.00173700  1
  O  O28  1  0.13321300  0.08298300  0.11563900  1
  O  O29  1  0.63321300  0.41701700  0.88436100  1
  O  O30  1  0.36678700  0.91701700  0.61563900  1
  O  O31  1  0.86678700  0.58298300  0.38436100  1
  O  O32  1  0.37227400  0.92724800  0.38541600  1
  O  O33  1  0.87227400  0.57275200  0.61458400  1
  O  O34  1  0.12772600  0.07275200  0.88541600  1
  O  O35  1  0.62772600  0.42724800  0.11458400  1
