# generated using pymatgen
data_Sm4ZrFe33
_symmetry_space_group_name_H-M   'P 1'
_cell_length_a   6.46962370
_cell_length_b   6.46962370
_cell_length_c   13.02040218
_cell_angle_alpha   83.06525512
_cell_angle_beta   83.06525512
_cell_angle_gamma   82.86948950
_symmetry_Int_Tables_number   1
_chemical_formula_structural   Sm4ZrFe33
_chemical_formula_sum   'Sm4 Zr1 Fe33'
_cell_volume   533.70863426
_cell_formula_units_Z   1
loop_
 _symmetry_equiv_pos_site_id
 _symmetry_equiv_pos_as_xyz
  1  'x, y, z'
loop_
 _atom_site_type_symbol
 _atom_site_label
 _atom_site_symmetry_multiplicity
 _atom_site_fract_x
 _atom_site_fract_y
 _atom_site_fract_z
 _atom_site_occupancy
  Sm  Sm0  1  0.65079700  0.65079700  0.32107500  1
  Sm  Sm1  1  0.65844200  0.65844200  0.83061000  1
  Sm  Sm2  1  0.34140200  0.34140200  0.16778700  1
  Sm  Sm3  1  0.34101800  0.34101800  0.67504500  1
  Zr  Zr4  1  0.90614400  0.90614400  0.45191500  1
  Fe  Fe5  1  0.84559400  0.34282500  0.16802600  1
  Fe  Fe6  1  0.84527300  0.33892600  0.67255800  1
  Fe  Fe7  1  0.33978800  0.33978800  0.42103900  1
  Fe  Fe8  1  0.34183200  0.34183200  0.92198400  1
  Fe  Fe9  1  0.34282500  0.84559400  0.16802600  1
  Fe  Fe10  1  0.33892600  0.84527300  0.67255800  1
  Fe  Fe11  1  0.16436700  0.65324000  0.32564100  1
  Fe  Fe12  1  0.15466700  0.65790100  0.83063300  1
  Fe  Fe13  1  0.65883100  0.65883100  0.07683600  1
  Fe  Fe14  1  0.65556700  0.65556700  0.58399500  1
  Fe  Fe15  1  0.65324000  0.16436700  0.32564100  1
  Fe  Fe16  1  0.65790100  0.15466700  0.83063300  1
  Fe  Fe17  1  0.00531600  0.00531600  0.24432200  1
  Fe  Fe18  1  0.99720600  0.99720600  0.75198200  1
  Fe  Fe19  1  0.00356200  0.48791900  0.50239700  1
  Fe  Fe20  1  0.00059100  0.50018800  0.99957100  1
  Fe  Fe21  1  0.50018800  0.00059100  0.99957100  1
  Fe  Fe22  1  0.48791900  0.00356200  0.50239700  1
  Fe  Fe23  1  0.30842800  0.69287100  0.50089300  1
  Fe  Fe24  1  0.29285100  0.70714300  0.00013500  1
  Fe  Fe25  1  0.70987400  0.00172900  0.14398300  1
  Fe  Fe26  1  0.70215900  0.00259300  0.64885500  1
  Fe  Fe27  1  0.99907900  0.30202100  0.35056000  1
  Fe  Fe28  1  0.99718000  0.28976200  0.85630500  1
  Fe  Fe29  1  0.30202100  0.99907900  0.35056000  1
  Fe  Fe30  1  0.28976200  0.99718000  0.85630500  1
  Fe  Fe31  1  0.00172900  0.70987400  0.14398300  1
  Fe  Fe32  1  0.00259300  0.70215900  0.64885500  1
  Fe  Fe33  1  0.70714300  0.29285100  0.00013500  1
  Fe  Fe34  1  0.69287100  0.30842800  0.50089300  1
  Fe  Fe35  1  0.90389600  0.90389600  0.95093700  1
  Fe  Fe36  1  0.09687900  0.09687900  0.04636400  1
  Fe  Fe37  1  0.10214000  0.10214000  0.55699300  1
