# generated using pymatgen
data_Sb4(TeSe)3
_symmetry_space_group_name_H-M   'P 1'
_cell_length_a   10.37550710
_cell_length_b   10.37550710
_cell_length_c   7.28556733
_cell_angle_alpha   83.42441966
_cell_angle_beta   83.42441966
_cell_angle_gamma   23.41046655
_symmetry_Int_Tables_number   1
_chemical_formula_structural   Sb4(TeSe)3
_chemical_formula_sum   'Sb4 Te3 Se3'
_cell_volume   309.47624581
_cell_formula_units_Z   1
loop_
 _symmetry_equiv_pos_site_id
 _symmetry_equiv_pos_as_xyz
  1  'x, y, z'
loop_
 _atom_site_type_symbol
 _atom_site_label
 _atom_site_symmetry_multiplicity
 _atom_site_fract_x
 _atom_site_fract_y
 _atom_site_fract_z
 _atom_site_occupancy
  Sb  Sb0  1  0.90901200  0.90901200  0.70076800  1
  Sb  Sb1  1  0.40766700  0.40766700  0.19223000  1
  Sb  Sb2  1  0.58873200  0.58873200  0.80319800  1
  Sb  Sb3  1  0.08968300  0.08968300  0.30391400  1
  Te  Te4  1  0.82086000  0.82086000  0.39021100  1
  Te  Te5  1  0.17705500  0.17705500  0.60979900  1
  Te  Te6  1  0.67630300  0.67630300  0.10648000  1
  Se  Se7  1  0.49673400  0.49673400  0.50200500  1
  Se  Se8  1  0.99953100  0.99953100  0.00015800  1
  Se  Se9  1  0.33442400  0.33442400  0.89123700  1
