# generated using pymatgen
data_Sc2Se3
_symmetry_space_group_name_H-M   'P 1'
_cell_length_a   6.81589151
_cell_length_b   6.81589151
_cell_length_c   6.81589151
_cell_angle_alpha   147.32535236
_cell_angle_beta   133.12255283
_cell_angle_gamma   58.31082648
_symmetry_Int_Tables_number   1
_chemical_formula_structural   Sc2Se3
_chemical_formula_sum   'Sc2 Se3'
_cell_volume   123.75971783
_cell_formula_units_Z   1
loop_
 _symmetry_equiv_pos_site_id
 _symmetry_equiv_pos_as_xyz
  1  'x, y, z'
loop_
 _atom_site_type_symbol
 _atom_site_label
 _atom_site_symmetry_multiplicity
 _atom_site_fract_x
 _atom_site_fract_y
 _atom_site_fract_z
 _atom_site_occupancy
  Sc  Sc0  1  0.66198900  0.16198900  0.50000000  1
  Sc  Sc1  1  0.33801100  0.83801100  0.50000000  1
  Se  Se2  1  0.50000000  0.50000000  0.00000000  1
  Se  Se3  1  0.17865800  0.17865800  0.00000000  1
  Se  Se4  1  0.82134200  0.82134200  0.00000000  1
