# generated using pymatgen
data_Sb2TeRu
_symmetry_space_group_name_H-M   'P 1'
_cell_length_a   8.13934038
_cell_length_b   8.13934038
_cell_length_c   8.13934038
_cell_angle_alpha   110.17527928
_cell_angle_beta   109.20419073
_cell_angle_gamma   109.03653682
_symmetry_Int_Tables_number   1
_chemical_formula_structural   Sb2TeRu
_chemical_formula_sum   'Sb8 Te4 Ru4'
_cell_volume   415.04536429
_cell_formula_units_Z   4
loop_
 _symmetry_equiv_pos_site_id
 _symmetry_equiv_pos_as_xyz
  1  'x, y, z'
loop_
 _atom_site_type_symbol
 _atom_site_label
 _atom_site_symmetry_multiplicity
 _atom_site_fract_x
 _atom_site_fract_y
 _atom_site_fract_z
 _atom_site_occupancy
  Sb  Sb0  1  0.84585500  0.33962000  0.18547500  1
  Sb  Sb1  1  0.15414500  0.66038000  0.81452500  1
  Sb  Sb2  1  0.84585500  0.66038000  0.50623500  1
  Sb  Sb3  1  0.15414500  0.33962000  0.49376500  1
  Sb  Sb4  1  0.34204100  0.18742100  0.84538000  1
  Sb  Sb5  1  0.65795900  0.81257900  0.15462000  1
  Sb  Sb6  1  0.65795900  0.50334000  0.84538000  1
  Sb  Sb7  1  0.34204100  0.49666000  0.15462000  1
  Te  Te8  1  0.16672400  0.84044500  0.32627900  1
  Te  Te9  1  0.83327600  0.15955500  0.67372100  1
  Te  Te10  1  0.51416500  0.84044500  0.67372100  1
  Te  Te11  1  0.48583500  0.15955500  0.32627900  1
  Ru  Ru12  1  0.00000000  0.50000000  0.00000000  1
  Ru  Ru13  1  0.00000000  0.00000000  0.50000000  1
  Ru  Ru14  1  0.50000000  0.00000000  0.00000000  1
  Ru  Ru15  1  0.50000000  0.50000000  0.50000000  1
