# generated using pymatgen
data_Sc(SeO5)2
_symmetry_space_group_name_H-M   'P 1'
_cell_length_a   5.32610800
_cell_length_b   5.34994367
_cell_length_c   8.89568535
_cell_angle_alpha   81.06527696
_cell_angle_beta   74.49335944
_cell_angle_gamma   63.65437941
_symmetry_Int_Tables_number   1
_chemical_formula_structural   Sc(SeO5)2
_chemical_formula_sum   'Sc1 Se2 O10'
_cell_volume   218.68348535
_cell_formula_units_Z   1
loop_
 _symmetry_equiv_pos_site_id
 _symmetry_equiv_pos_as_xyz
  1  'x, y, z'
loop_
 _atom_site_type_symbol
 _atom_site_label
 _atom_site_symmetry_multiplicity
 _atom_site_fract_x
 _atom_site_fract_y
 _atom_site_fract_z
 _atom_site_occupancy
  Sc  Sc0  1  0.00000000  0.00000000  0.00000000  1
  Se  Se1  1  0.42846500  0.37307900  0.80572900  1
  Se  Se2  1  0.57153500  0.62692100  0.19427100  1
  O  O3  1  0.76170000  0.25356400  0.83350900  1
  O  O4  1  0.27351100  0.72001100  0.81903900  1
  O  O5  1  0.23830000  0.74643600  0.16649100  1
  O  O6  1  0.72648900  0.27998900  0.18096100  1
  O  O7  1  0.43247400  0.29884000  0.62859800  1
  O  O8  1  0.56752600  0.70116000  0.37140200  1
  O  O9  1  0.24473200  0.23111300  0.94613700  1
  O  O10  1  0.75526800  0.76888700  0.05386300  1
  O  O11  1  0.19395500  0.02080600  0.49401200  1
  O  O12  1  0.80604500  0.97919400  0.50598800  1
