# generated using pymatgen
data_SmB7H7O17
_symmetry_space_group_name_H-M   'P 1'
_cell_length_a   6.91525700
_cell_length_b   7.22808077
_cell_length_c   14.08114070
_cell_angle_alpha   101.79823945
_cell_angle_beta   101.52973669
_cell_angle_gamma   100.99694896
_symmetry_Int_Tables_number   1
_chemical_formula_structural   SmB7H7O17
_chemical_formula_sum   'Sm2 B14 H14 O34'
_cell_volume   655.07964811
_cell_formula_units_Z   2
loop_
 _symmetry_equiv_pos_site_id
 _symmetry_equiv_pos_as_xyz
  1  'x, y, z'
loop_
 _atom_site_type_symbol
 _atom_site_label
 _atom_site_symmetry_multiplicity
 _atom_site_fract_x
 _atom_site_fract_y
 _atom_site_fract_z
 _atom_site_occupancy
  Sm  Sm0  1  0.27278600  0.77184100  0.54529300  1
  Sm  Sm1  1  0.72721400  0.22815900  0.45470700  1
  B  B2  1  0.10145900  0.67078900  0.75234800  1
  B  B3  1  0.34780600  0.92116900  0.24732600  1
  B  B4  1  0.89854100  0.32921100  0.24765200  1
  B  B5  1  0.65219400  0.07883100  0.75267400  1
  B  B6  1  0.76917100  0.76791500  0.53645800  1
  B  B7  1  0.23082900  0.23208500  0.46354200  1
  B  B8  1  0.17154600  0.41373600  0.62484200  1
  B  B9  1  0.54808800  0.79176000  0.37505000  1
  B  B10  1  0.82845400  0.58626400  0.37515800  1
  B  B11  1  0.45191200  0.20824000  0.62495000  1
  B  B12  1  0.15695500  0.65653900  0.31246400  1
  B  B13  1  0.84304500  0.34346100  0.68753600  1
  B  B14  1  0.91306400  0.71178600  0.99757000  1
  B  B15  1  0.08693600  0.28821400  0.00243000  1
  H  H16  1  0.39379300  0.40144300  0.75630300  1
  H  H17  1  0.60620700  0.59855700  0.24369700  1
  H  H18  1  0.63558200  0.60503200  0.62126500  1
  H  H19  1  0.01229100  0.98595200  0.37728200  1
  H  H20  1  0.36441800  0.39496800  0.37873500  1
  H  H21  1  0.98770900  0.01404800  0.62271800  1
  H  H22  1  0.83300200  0.58053300  0.84846700  1
  H  H23  1  0.98268900  0.75639300  0.14938900  1
  H  H24  1  0.16699800  0.41946700  0.15153300  1
  H  H25  1  0.01731100  0.24360700  0.85061100  1
  H  H26  1  0.14013500  0.86898600  0.88377900  1
  H  H27  1  0.26568700  0.96825900  0.11162500  1
  H  H28  1  0.85986500  0.13101400  0.11622100  1
  H  H29  1  0.73431300  0.03174100  0.88837500  1
  O  O30  1  0.18988500  0.84098100  0.82259800  1
  O  O31  1  0.36187000  0.02542000  0.17820100  1
  O  O32  1  0.81011500  0.15901900  0.17740200  1
  O  O33  1  0.63813000  0.97458000  0.82179900  1
  O  O34  1  0.78633500  0.58345000  0.91241100  1
  O  O35  1  0.86444300  0.72942700  0.08880700  1
  O  O36  1  0.21366500  0.41655000  0.08758900  1
  O  O37  1  0.13555700  0.27057300  0.91119300  1
  O  O38  1  0.33880700  0.33718900  0.68129400  1
  O  O39  1  0.66119300  0.66281100  0.31870600  1
  O  O40  1  0.92509700  0.54412500  0.75245400  1
  O  O41  1  0.17293200  0.78834800  0.24496500  1
  O  O42  1  0.07490300  0.45587500  0.24754600  1
  O  O43  1  0.82706800  0.21165200  0.75503500  1
  O  O44  1  0.09153900  0.83334800  0.99870400  1
  O  O45  1  0.90846100  0.16665200  0.00129600  1
  O  O46  1  0.61975700  0.71864700  0.59509500  1
  O  O47  1  0.02315000  0.12529600  0.40337100  1
  O  O48  1  0.38024300  0.28135300  0.40490500  1
  O  O49  1  0.97685000  0.87470400  0.59662900  1
  O  O50  1  0.20305300  0.41424500  0.52562900  1
  O  O51  1  0.68121800  0.88917400  0.47384800  1
  O  O52  1  0.79694700  0.58575500  0.47437100  1
  O  O53  1  0.31878200  0.11082600  0.52615200  1
  O  O54  1  0.35608900  0.67508700  0.38126700  1
  O  O55  1  0.97229200  0.29298900  0.61881700  1
  O  O56  1  0.64391100  0.32491300  0.61873300  1
  O  O57  1  0.02770800  0.70701100  0.38118300  1
  O  O58  1  0.20109600  0.61899300  0.67718300  1
  O  O59  1  0.52148900  0.94681000  0.32415100  1
  O  O60  1  0.79890400  0.38100700  0.32281700  1
  O  O61  1  0.47851100  0.05319000  0.67584900  1
  O  O62  1  0.44603400  0.51514300  0.87412300  1
  O  O63  1  0.55396600  0.48485700  0.12587700  1
