# generated using pymatgen
data_Sc2Te3
_symmetry_space_group_name_H-M   'P 1'
_cell_length_a   7.29942899
_cell_length_b   7.29942899
_cell_length_c   7.29942899
_cell_angle_alpha   147.37220522
_cell_angle_beta   132.54712491
_cell_angle_gamma   58.77586231
_symmetry_Int_Tables_number   1
_chemical_formula_structural   Sc2Te3
_chemical_formula_sum   'Sc2 Te3'
_cell_volume   153.20740954
_cell_formula_units_Z   1
loop_
 _symmetry_equiv_pos_site_id
 _symmetry_equiv_pos_as_xyz
  1  'x, y, z'
loop_
 _atom_site_type_symbol
 _atom_site_label
 _atom_site_symmetry_multiplicity
 _atom_site_fract_x
 _atom_site_fract_y
 _atom_site_fract_z
 _atom_site_occupancy
  Sc  Sc0  1  0.66495000  0.66495000  0.00000000  1
  Sc  Sc1  1  0.33505000  0.33505000  0.00000000  1
  Te  Te2  1  0.50000000  0.00000000  0.50000000  1
  Te  Te3  1  0.17196300  0.67196300  0.50000000  1
  Te  Te4  1  0.82803700  0.32803700  0.50000000  1
