# generated using pymatgen
data_Se2N3O8
_symmetry_space_group_name_H-M   'P 1'
_cell_length_a   6.18252500
_cell_length_b   6.26629220
_cell_length_c   8.56159871
_cell_angle_alpha   93.53327468
_cell_angle_beta   107.69286259
_cell_angle_gamma   118.96851931
_symmetry_Int_Tables_number   1
_chemical_formula_structural   Se2N3O8
_chemical_formula_sum   'Se2 N3 O8'
_cell_volume   267.64686764
_cell_formula_units_Z   1
loop_
 _symmetry_equiv_pos_site_id
 _symmetry_equiv_pos_as_xyz
  1  'x, y, z'
loop_
 _atom_site_type_symbol
 _atom_site_label
 _atom_site_symmetry_multiplicity
 _atom_site_fract_x
 _atom_site_fract_y
 _atom_site_fract_z
 _atom_site_occupancy
  Se  Se0  1  0.17120100  0.58965100  0.77795300  1
  Se  Se1  1  0.80588500  0.39193100  0.21978300  1
  N  N2  1  0.00692000  0.00400800  0.01712800  1
  N  N3  1  0.39949100  0.20143400  0.58958800  1
  N  N4  1  0.60021700  0.79774300  0.40021300  1
  O  O5  1  0.99025800  0.27240300  0.71241500  1
  O  O6  1  0.99695200  0.72208600  0.69852500  1
  O  O7  1  0.43055400  0.72481500  0.71812200  1
  O  O8  1  0.00131100  0.70796900  0.28107400  1
  O  O9  1  0.02264400  0.29705000  0.29498800  1
  O  O10  1  0.55335700  0.27799000  0.29113200  1
  O  O11  1  0.25583700  0.61393100  0.98701500  1
  O  O12  1  0.63437300  0.26798800  0.01206400  1
