# generated using pymatgen
data_Sm2Ga3(Fe7C)2
_symmetry_space_group_name_H-M   'P 1'
_cell_length_a   6.51717592
_cell_length_b   6.51717592
_cell_length_c   6.51311004
_cell_angle_alpha   83.85341644
_cell_angle_beta   83.85341644
_cell_angle_gamma   83.37249122
_symmetry_Int_Tables_number   1
_chemical_formula_structural   Sm2Ga3(Fe7C)2
_chemical_formula_sum   'Sm2 Ga3 Fe14 C2'
_cell_volume   271.94749770
_cell_formula_units_Z   1
loop_
 _symmetry_equiv_pos_site_id
 _symmetry_equiv_pos_as_xyz
  1  'x, y, z'
loop_
 _atom_site_type_symbol
 _atom_site_label
 _atom_site_symmetry_multiplicity
 _atom_site_fract_x
 _atom_site_fract_y
 _atom_site_fract_z
 _atom_site_occupancy
  Sm  Sm0  1  0.34818900  0.34818900  0.33681800  1
  Sm  Sm1  1  0.65181100  0.65181100  0.66318200  1
  Ga  Ga2  1  0.00000000  0.00000000  0.50000000  1
  Ga  Ga3  1  0.00000000  0.50000000  0.00000000  1
  Ga  Ga4  1  0.50000000  0.00000000  0.00000000  1
  Fe  Fe5  1  0.09180500  0.09180500  0.09453900  1
  Fe  Fe6  1  0.90819500  0.90819500  0.90546100  1
  Fe  Fe7  1  0.65586200  0.65586200  0.15158900  1
  Fe  Fe8  1  0.65442000  0.14938100  0.65672900  1
  Fe  Fe9  1  0.14938100  0.65442000  0.65672900  1
  Fe  Fe10  1  0.34413800  0.34413800  0.84841100  1
  Fe  Fe11  1  0.34558000  0.85061900  0.34327100  1
  Fe  Fe12  1  0.85061900  0.34558000  0.34327100  1
  Fe  Fe13  1  0.71219300  0.28780700  0.00000000  1
  Fe  Fe14  1  0.28594400  0.00051700  0.71376600  1
  Fe  Fe15  1  0.99948300  0.71405600  0.28623400  1
  Fe  Fe16  1  0.71405600  0.99948300  0.28623400  1
  Fe  Fe17  1  0.00051700  0.28594400  0.71376600  1
  Fe  Fe18  1  0.28780700  0.71219300  0.00000000  1
  C  C19  1  0.50000000  0.00000000  0.50000000  1
  C  C20  1  0.00000000  0.50000000  0.50000000  1
