# generated using pymatgen
data_Sm9Ga5Se21
_symmetry_space_group_name_H-M   'P 1'
_cell_length_a   12.18970190
_cell_length_b   12.18970190
_cell_length_c   12.18970246
_cell_angle_alpha   95.10050977
_cell_angle_beta   95.10050977
_cell_angle_gamma   95.10051343
_symmetry_Int_Tables_number   1
_chemical_formula_structural   Sm9Ga5Se21
_chemical_formula_sum   'Sm18 Ga10 Se42'
_cell_volume   1788.36267770
_cell_formula_units_Z   2
loop_
 _symmetry_equiv_pos_site_id
 _symmetry_equiv_pos_as_xyz
  1  'x, y, z'
loop_
 _atom_site_type_symbol
 _atom_site_label
 _atom_site_symmetry_multiplicity
 _atom_site_fract_x
 _atom_site_fract_y
 _atom_site_fract_z
 _atom_site_occupancy
  Sm  Sm0  1  0.88751800  0.25862100  0.11975400  1
  Sm  Sm1  1  0.54376000  0.91865200  0.77367700  1
  Sm  Sm2  1  0.22578700  0.60218800  0.44911400  1
  Sm  Sm3  1  0.60218800  0.44911400  0.22578700  1
  Sm  Sm4  1  0.25862100  0.11975400  0.88751800  1
  Sm  Sm5  1  0.91865200  0.77367700  0.54376000  1
  Sm  Sm6  1  0.77367700  0.54376000  0.91865200  1
  Sm  Sm7  1  0.44911400  0.22578700  0.60218800  1
  Sm  Sm8  1  0.11975400  0.88751800  0.25862100  1
  Sm  Sm9  1  0.78933500  0.41788500  0.56255900  1
  Sm  Sm10  1  0.44641700  0.07117700  0.21711200  1
  Sm  Sm11  1  0.12690600  0.75089800  0.89627700  1
  Sm  Sm12  1  0.07117700  0.21711200  0.44641700  1
  Sm  Sm13  1  0.75089800  0.89627700  0.12690600  1
  Sm  Sm14  1  0.41788500  0.56255900  0.78933500  1
  Sm  Sm15  1  0.89627700  0.12690600  0.75089800  1
  Sm  Sm16  1  0.56255900  0.78933500  0.41788500  1
  Sm  Sm17  1  0.21711200  0.44641700  0.07117700  1
  Ga  Ga18  1  0.27884800  0.94978200  0.61198700  1
  Ga  Ga19  1  0.94978200  0.61198700  0.27884800  1
  Ga  Ga20  1  0.61198700  0.27884800  0.94978200  1
  Ga  Ga21  1  0.11566800  0.44853000  0.77634700  1
  Ga  Ga22  1  0.77634700  0.11566800  0.44853000  1
  Ga  Ga23  1  0.44853000  0.77634700  0.11566800  1
  Ga  Ga24  1  0.14798700  0.14798700  0.14798700  1
  Ga  Ga25  1  0.85360700  0.85360700  0.85360700  1
  Ga  Ga26  1  0.35417100  0.35417100  0.35417100  1
  Ga  Ga27  1  0.64775900  0.64775900  0.64775900  1
  Se  Se28  1  0.44157300  0.69363400  0.59423300  1
  Se  Se29  1  0.10377800  0.34074700  0.24445900  1
  Se  Se30  1  0.76141800  0.01295800  0.91038000  1
  Se  Se31  1  0.01295800  0.91038000  0.76141800  1
  Se  Se32  1  0.69363400  0.59423300  0.44157300  1
  Se  Se33  1  0.34074700  0.24445900  0.10377800  1
  Se  Se34  1  0.24445900  0.10377800  0.34074700  1
  Se  Se35  1  0.91038000  0.76141800  0.01295800  1
  Se  Se36  1  0.59423300  0.44157300  0.69363400  1
  Se  Se37  1  0.85588300  0.61996900  0.71475100  1
  Se  Se38  1  0.52745400  0.27513300  0.38215900  1
  Se  Se39  1  0.21180500  0.95979300  0.05665100  1
  Se  Se40  1  0.27513300  0.38215900  0.52745400  1
  Se  Se41  1  0.95979300  0.05665100  0.21180500  1
  Se  Se42  1  0.61996900  0.71475100  0.85588300  1
  Se  Se43  1  0.05665100  0.21180500  0.95979300  1
  Se  Se44  1  0.71475100  0.85588300  0.61996900  1
  Se  Se45  1  0.38215900  0.52745400  0.27513300  1
  Se  Se46  1  0.46132500  0.98703200  0.55139400  1
  Se  Se47  1  0.13173900  0.64483600  0.21745400  1
  Se  Se48  1  0.79834100  0.30695100  0.89325800  1
  Se  Se49  1  0.30695100  0.89325800  0.79834100  1
  Se  Se50  1  0.98703200  0.55139400  0.46132500  1
  Se  Se51  1  0.64483600  0.21745400  0.13173900  1
  Se  Se52  1  0.21745400  0.13173900  0.64483600  1
  Se  Se53  1  0.89325800  0.79834100  0.30695100  1
  Se  Se54  1  0.55139400  0.46132500  0.98703200  1
  Se  Se55  1  0.03305200  0.52342200  0.93654600  1
  Se  Se56  1  0.70063300  0.18822400  0.61420000  1
  Se  Se57  1  0.36844300  0.84417200  0.28135400  1
  Se  Se58  1  0.18822400  0.61420000  0.70063300  1
  Se  Se59  1  0.84417200  0.28135400  0.36844300  1
  Se  Se60  1  0.52342200  0.93654600  0.03305200  1
  Se  Se61  1  0.28135400  0.36844300  0.84417200  1
  Se  Se62  1  0.93654600  0.03305200  0.52342200  1
  Se  Se63  1  0.61420000  0.70063300  0.18822400  1
  Se  Se64  1  0.15222900  0.82296300  0.48828800  1
  Se  Se65  1  0.82296300  0.48828800  0.15222900  1
  Se  Se66  1  0.48828800  0.15222900  0.82296300  1
  Se  Se67  1  0.32168600  0.65241200  0.98914400  1
  Se  Se68  1  0.98914400  0.32168600  0.65241200  1
  Se  Se69  1  0.65241200  0.98914400  0.32168600  1
