# generated using pymatgen
data_SbH8N2F5
_symmetry_space_group_name_H-M   'P 1'
_cell_length_a   6.44881981
_cell_length_b   6.79884800
_cell_length_c   8.37683311
_cell_angle_alpha   90.00000000
_cell_angle_beta   65.82834105
_cell_angle_gamma   90.00000000
_symmetry_Int_Tables_number   1
_chemical_formula_structural   SbH8N2F5
_chemical_formula_sum   'Sb2 H16 N4 F10'
_cell_volume   335.07648613
_cell_formula_units_Z   2
loop_
 _symmetry_equiv_pos_site_id
 _symmetry_equiv_pos_as_xyz
  1  'x, y, z'
loop_
 _atom_site_type_symbol
 _atom_site_label
 _atom_site_symmetry_multiplicity
 _atom_site_fract_x
 _atom_site_fract_y
 _atom_site_fract_z
 _atom_site_occupancy
  Sb  Sb0  1  0.08779400  0.75000000  0.81889400  1
  Sb  Sb1  1  0.91220600  0.25000000  0.18110600  1
  H  H2  1  0.50199500  0.75000000  0.99118400  1
  H  H3  1  0.49800500  0.25000000  0.00881600  1
  H  H4  1  0.58533700  0.75000000  0.56681500  1
  H  H5  1  0.15192000  0.25000000  0.43665600  1
  H  H6  1  0.41466300  0.25000000  0.43318500  1
  H  H7  1  0.84808000  0.75000000  0.56334400  1
  H  H8  1  0.79680900  0.62590900  0.40954800  1
  H  H9  1  0.20319100  0.37409100  0.59045200  1
  H  H10  1  0.79680900  0.87409100  0.40954800  1
  H  H11  1  0.20319100  0.12590900  0.59045200  1
  H  H12  1  0.32046000  0.87467500  0.16950900  1
  H  H13  1  0.32046000  0.62532500  0.16950900  1
  H  H14  1  0.67954000  0.12532500  0.83049100  1
  H  H15  1  0.67954000  0.37467500  0.83049100  1
  H  H16  1  0.54636200  0.75000000  0.17465100  1
  H  H17  1  0.45363800  0.25000000  0.82534900  1
  N  N18  1  0.42494000  0.75000000  0.12545500  1
  N  N19  1  0.57506000  0.25000000  0.87454500  1
  N  N20  1  0.75664000  0.75000000  0.48740800  1
  N  N21  1  0.24336000  0.25000000  0.51259200  1
  F  F22  1  0.21491700  0.75000000  0.55958300  1
  F  F23  1  0.78508300  0.25000000  0.44041700  1
  F  F24  1  0.34078500  0.53869100  0.76283800  1
  F  F25  1  0.11953500  0.46515300  0.23538300  1
  F  F26  1  0.34078500  0.96130900  0.76283800  1
  F  F27  1  0.11953500  0.03484700  0.23538300  1
  F  F28  1  0.65921500  0.46130900  0.23716200  1
  F  F29  1  0.88046500  0.53484700  0.76461700  1
  F  F30  1  0.65921500  0.03869100  0.23716200  1
  F  F31  1  0.88046500  0.96515300  0.76461700  1
