# generated using pymatgen
data_Sb8Cl2O11
_symmetry_space_group_name_H-M   'P 1'
_cell_length_a   4.21523200
_cell_length_b   9.16309455
_cell_length_c   11.47414414
_cell_angle_alpha   82.32102950
_cell_angle_beta   86.84209477
_cell_angle_gamma   79.99249290
_symmetry_Int_Tables_number   1
_chemical_formula_structural   Sb8Cl2O11
_chemical_formula_sum   'Sb8 Cl2 O11'
_cell_volume   432.29632482
_cell_formula_units_Z   1
loop_
 _symmetry_equiv_pos_site_id
 _symmetry_equiv_pos_as_xyz
  1  'x, y, z'
loop_
 _atom_site_type_symbol
 _atom_site_label
 _atom_site_symmetry_multiplicity
 _atom_site_fract_x
 _atom_site_fract_y
 _atom_site_fract_z
 _atom_site_occupancy
  Sb  Sb0  1  0.68282600  0.52380900  0.86209100  1
  Sb  Sb1  1  0.31717400  0.47619100  0.13790900  1
  Sb  Sb2  1  0.27925200  0.05251800  0.68191300  1
  Sb  Sb3  1  0.72074800  0.94748200  0.31808700  1
  Sb  Sb4  1  0.86602500  0.85950900  0.93735200  1
  Sb  Sb5  1  0.13397500  0.14049100  0.06264800  1
  Sb  Sb6  1  0.24011600  0.44697100  0.65083200  1
  Sb  Sb7  1  0.75988400  0.55302900  0.34916800  1
  Cl  Cl8  1  0.92129800  0.18976600  0.51586000  1
  Cl  Cl9  1  0.07870200  0.81023400  0.48414000  1
  O  O10  1  0.73102200  0.48654900  0.69346900  1
  O  O11  1  0.26897800  0.51345100  0.30653100  1
  O  O12  1  0.19887300  0.53729900  0.80579000  1
  O  O13  1  0.80112700  0.46270100  0.19421000  1
  O  O14  1  0.91752400  0.99831100  0.78983400  1
  O  O15  1  0.08247600  0.00168900  0.21016600  1
  O  O16  1  0.58605500  0.74766400  0.85912300  1
  O  O17  1  0.41394500  0.25233600  0.14087700  1
  O  O18  1  0.50000000  0.00000000  0.00000000  1
  O  O19  1  0.28602100  0.24310800  0.74403900  1
  O  O20  1  0.71397900  0.75689200  0.25596100  1
