# generated using pymatgen
data_RbNdTiNbO6F
_symmetry_space_group_name_H-M   'P 1'
_cell_length_a   3.85274100
_cell_length_b   3.85274100
_cell_length_c   11.35129800
_cell_angle_alpha   90.00000000
_cell_angle_beta   90.00000000
_cell_angle_gamma   90.00000000
_symmetry_Int_Tables_number   1
_chemical_formula_structural   RbNdTiNbO6F
_chemical_formula_sum   'Rb1 Nd1 Ti1 Nb1 O6 F1'
_cell_volume   168.49427698
_cell_formula_units_Z   1
loop_
 _symmetry_equiv_pos_site_id
 _symmetry_equiv_pos_as_xyz
  1  'x, y, z'
loop_
 _atom_site_type_symbol
 _atom_site_label
 _atom_site_symmetry_multiplicity
 _atom_site_fract_x
 _atom_site_fract_y
 _atom_site_fract_z
 _atom_site_occupancy
  Rb  Rb0  1  0.50000000  0.50000000  0.51066900  1
  Nd  Nd1  1  0.50000000  0.50000000  0.97534500  1
  Ti  Ti2  1  0.00000000  0.00000000  0.79061800  1
  Nb  Nb3  1  0.00000000  0.00000000  0.20896500  1
  O  O4  1  0.00000000  0.00000000  0.64078500  1
  O  O5  1  0.00000000  0.00000000  0.36705200  1
  O  O6  1  0.50000000  0.00000000  0.84438300  1
  O  O7  1  0.00000000  0.50000000  0.84438300  1
  O  O8  1  0.50000000  0.00000000  0.15846400  1
  O  O9  1  0.00000000  0.50000000  0.15846400  1
  F  F10  1  0.00000000  0.00000000  0.00087200  1
