# generated using pymatgen
data_Si9C10NO18
_symmetry_space_group_name_H-M   'P 1'
_cell_length_a   10.76799649
_cell_length_b   10.76799649
_cell_length_c   10.72999635
_cell_angle_alpha   76.13933902
_cell_angle_beta   76.13933902
_cell_angle_gamma   76.24047860
_symmetry_Int_Tables_number   1
_chemical_formula_structural   Si9C10NO18
_chemical_formula_sum   'Si18 C20 N2 O36'
_cell_volume   1151.04786552
_cell_formula_units_Z   2
loop_
 _symmetry_equiv_pos_site_id
 _symmetry_equiv_pos_as_xyz
  1  'x, y, z'
loop_
 _atom_site_type_symbol
 _atom_site_label
 _atom_site_symmetry_multiplicity
 _atom_site_fract_x
 _atom_site_fract_y
 _atom_site_fract_z
 _atom_site_occupancy
  Si  Si0  1  0.73941200  0.50036000  0.26030600  1
  Si  Si1  1  0.25952600  0.73997300  0.49999200  1
  Si  Si2  1  0.49966300  0.26006100  0.73986900  1
  Si  Si3  1  0.50036000  0.73941200  0.26030600  1
  Si  Si4  1  0.26006100  0.49966300  0.73986900  1
  Si  Si5  1  0.73997300  0.25952600  0.49999200  1
  Si  Si6  1  0.93016200  0.69803200  0.16451600  1
  Si  Si7  1  0.16361900  0.93101200  0.69814100  1
  Si  Si8  1  0.69796400  0.16459200  0.93085200  1
  Si  Si9  1  0.69803200  0.93016200  0.16451600  1
  Si  Si10  1  0.16459200  0.69796400  0.93085200  1
  Si  Si11  1  0.93101200  0.16361900  0.69814100  1
  Si  Si12  1  0.06978800  0.30129500  0.83651000  1
  Si  Si13  1  0.83564600  0.06881000  0.30217800  1
  Si  Si14  1  0.30225900  0.83502400  0.06955300  1
  Si  Si15  1  0.30129500  0.06978800  0.83651000  1
  Si  Si16  1  0.83502400  0.30225900  0.06955300  1
  Si  Si17  1  0.06881000  0.83564600  0.30217800  1
  C  C18  1  0.76124200  0.76124200  0.79728200  1
  C  C19  1  0.24059400  0.24059400  0.20029800  1
  C  C20  1  0.84759700  0.74306500  0.67188200  1
  C  C21  1  0.74306500  0.84759700  0.67188200  1
  C  C22  1  0.68625900  0.68625900  0.88509700  1
  C  C23  1  0.14917400  0.26188300  0.32581600  1
  C  C24  1  0.26188300  0.14917400  0.32581600  1
  C  C25  1  0.31719700  0.31719700  0.11343400  1
  C  C26  1  0.85352200  0.61446700  0.63089300  1
  C  C27  1  0.61446700  0.85352200  0.63089300  1
  C  C28  1  0.63407400  0.63407400  0.79985000  1
  C  C29  1  0.17818000  0.36689500  0.36596300  1
  C  C30  1  0.36689500  0.17818000  0.36596300  1
  C  C31  1  0.36510800  0.36510800  0.19315100  1
  C  C32  1  0.71265000  0.59114500  0.67971400  1
  C  C33  1  0.62792000  0.62792000  0.58350000  1
  C  C34  1  0.59114500  0.71265000  0.67971400  1
  C  C35  1  0.27540100  0.43439800  0.30170000  1
  C  C36  1  0.32269800  0.32269800  0.41226700  1
  C  C37  1  0.43439800  0.27540100  0.30170000  1
  N  N38  1  0.94348700  0.54391500  0.56852400  1
  N  N39  1  0.54391500  0.94348700  0.56852400  1
  O  O40  1  0.03982300  0.65741900  0.03985000  1
  O  O41  1  0.03842100  0.03842100  0.65708300  1
  O  O42  1  0.65741900  0.03982300  0.03985000  1
  O  O43  1  0.95988300  0.34267100  0.96046900  1
  O  O44  1  0.96038700  0.96038700  0.34243700  1
  O  O45  1  0.34267100  0.95988300  0.96046900  1
  O  O46  1  0.73813500  0.39612000  0.39675400  1
  O  O47  1  0.39612000  0.73813500  0.39675400  1
  O  O48  1  0.39807000  0.39807000  0.73731700  1
  O  O49  1  0.26231100  0.60165100  0.60171900  1
  O  O50  1  0.60165100  0.26231100  0.60171900  1
  O  O51  1  0.60155900  0.60155900  0.26125500  1
  O  O52  1  0.99886900  0.73278700  0.26814800  1
  O  O53  1  0.26512300  0.00160300  0.73340800  1
  O  O54  1  0.73128400  0.26906000  0.99960600  1
  O  O55  1  0.73278700  0.99886900  0.26814800  1
  O  O56  1  0.26906000  0.73128400  0.99960600  1
  O  O57  1  0.00160300  0.26512300  0.73340800  1
  O  O58  1  0.85933200  0.57614700  0.23781600  1
  O  O59  1  0.23848300  0.85828400  0.57771600  1
  O  O60  1  0.57700300  0.23858100  0.85881200  1
  O  O61  1  0.57614700  0.85933200  0.23781600  1
  O  O62  1  0.23858100  0.57700300  0.85881200  1
  O  O63  1  0.85828400  0.23848300  0.57771600  1
  O  O64  1  0.14062600  0.42329800  0.76352600  1
  O  O65  1  0.76273700  0.13882300  0.42503500  1
  O  O66  1  0.42388200  0.76179300  0.14031500  1
  O  O67  1  0.42329800  0.14062600  0.76352600  1
  O  O68  1  0.76179300  0.42388200  0.14031500  1
  O  O69  1  0.13882300  0.76273700  0.42503500  1
  O  O70  1  0.82477600  0.82477600  0.11151500  1
  O  O71  1  0.11166100  0.82522800  0.82582200  1
  O  O72  1  0.82522800  0.11166100  0.82582200  1
  O  O73  1  0.17544700  0.17544700  0.89029600  1
  O  O74  1  0.88705700  0.17466300  0.17463800  1
  O  O75  1  0.17466300  0.88705700  0.17463800  1
