# generated using pymatgen
data_S5N2O2F
_symmetry_space_group_name_H-M   'P 1'
_cell_length_a   8.17774299
_cell_length_b   8.17774299
_cell_length_c   12.44442511
_cell_angle_alpha   79.54778468
_cell_angle_beta   79.54778468
_cell_angle_gamma   83.21128234
_symmetry_Int_Tables_number   1
_chemical_formula_structural   S5N2O2F
_chemical_formula_sum   'S20 N8 O8 F4'
_cell_volume   801.70042602
_cell_formula_units_Z   4
loop_
 _symmetry_equiv_pos_site_id
 _symmetry_equiv_pos_as_xyz
  1  'x, y, z'
loop_
 _atom_site_type_symbol
 _atom_site_label
 _atom_site_symmetry_multiplicity
 _atom_site_fract_x
 _atom_site_fract_y
 _atom_site_fract_z
 _atom_site_occupancy
  S  S0  1  0.59561400  0.89125100  0.69050700  1
  S  S1  1  0.10874900  0.40438600  0.80949300  1
  S  S2  1  0.40438600  0.10874900  0.30949300  1
  S  S3  1  0.89125100  0.59561400  0.19050700  1
  S  S4  1  0.30700200  0.71498400  0.53796500  1
  S  S5  1  0.28501600  0.69299800  0.96203500  1
  S  S6  1  0.69299800  0.28501600  0.46203500  1
  S  S7  1  0.71498400  0.30700200  0.03796500  1
  S  S8  1  0.98998000  0.73116400  0.48526000  1
  S  S9  1  0.26883600  0.01002000  0.01474000  1
  S  S10  1  0.01002000  0.26883600  0.51474000  1
  S  S11  1  0.73116400  0.98998000  0.98526000  1
  S  S12  1  0.39644400  0.03340700  0.66464000  1
  S  S13  1  0.96659300  0.60355600  0.83536000  1
  S  S14  1  0.60355600  0.96659300  0.33536000  1
  S  S15  1  0.03340800  0.39644400  0.16464000  1
  S  S16  1  0.17805400  0.56091600  0.39349300  1
  S  S17  1  0.43908400  0.82194600  0.10650700  1
  S  S18  1  0.82194600  0.43908400  0.60650700  1
  S  S19  1  0.56091600  0.17805400  0.89349300  1
  N  N20  1  0.32989800  0.59481700  0.44863000  1
  N  N21  1  0.40518300  0.67010200  0.05137000  1
  N  N22  1  0.67010200  0.40518300  0.55137000  1
  N  N23  1  0.59481700  0.32989800  0.94863000  1
  N  N24  1  0.11738900  0.78704400  0.55170600  1
  N  N25  1  0.21295600  0.88261100  0.94829400  1
  N  N26  1  0.88261100  0.21295600  0.44829400  1
  N  N27  1  0.78704400  0.11738900  0.05170600  1
  O  O28  1  0.59417100  0.71703400  0.68112600  1
  O  O29  1  0.28296600  0.40582900  0.81887400  1
  O  O30  1  0.40582900  0.28296600  0.31887400  1
  O  O31  1  0.71703400  0.59417100  0.18112600  1
  O  O32  1  0.75222600  0.96624800  0.65320800  1
  O  O33  1  0.03375200  0.24777400  0.84679200  1
  O  O34  1  0.24777400  0.03375200  0.34679200  1
  O  O35  1  0.96624800  0.75222600  0.15320800  1
  F  F36  1  0.58554100  0.87098300  0.83486400  1
  F  F37  1  0.12901700  0.41445900  0.66513600  1
  F  F38  1  0.41445900  0.12901700  0.16513600  1
  F  F39  1  0.87098300  0.58554100  0.33486400  1
