# generated using pymatgen
data_RbSbWO6
_symmetry_space_group_name_H-M   'P 1'
_cell_length_a   7.38701733
_cell_length_b   7.38701733
_cell_length_c   7.38701733
_cell_angle_alpha   120.74654391
_cell_angle_beta   119.73566413
_cell_angle_gamma   89.58514609
_symmetry_Int_Tables_number   1
_chemical_formula_structural   RbSbWO6
_chemical_formula_sum   'Rb2 Sb2 W2 O12'
_cell_volume   283.95649374
_cell_formula_units_Z   2
loop_
 _symmetry_equiv_pos_site_id
 _symmetry_equiv_pos_as_xyz
  1  'x, y, z'
loop_
 _atom_site_type_symbol
 _atom_site_label
 _atom_site_symmetry_multiplicity
 _atom_site_fract_x
 _atom_site_fract_y
 _atom_site_fract_z
 _atom_site_occupancy
  Rb  Rb0  1  0.67718900  0.39211800  0.78507000  1
  Rb  Rb1  1  0.39295200  0.60788200  0.28507000  1
  Sb  Sb2  1  0.00113300  0.50000000  0.50113300  1
  Sb  Sb3  1  0.00113300  0.00000000  0.00113300  1
  W  W4  1  0.50170100  0.99942800  0.00227400  1
  W  W5  1  0.00284600  0.00057200  0.50227400  1
  O  O6  1  0.07253800  0.32438900  0.24814900  1
  O  O7  1  0.69157300  0.94095300  0.25061900  1
  O  O8  1  0.06455000  0.93235400  0.25262300  1
  O  O9  1  0.68106400  0.31184600  0.24671800  1
  O  O10  1  0.68106400  0.93434600  0.86921900  1
  O  O11  1  0.06455000  0.31192700  0.63219500  1
  O  O12  1  0.92376000  0.67561100  0.74814900  1
  O  O13  1  0.30966600  0.05904700  0.75061900  1
  O  O14  1  0.93487200  0.06565400  0.74671800  1
  O  O15  1  0.32026800  0.68807300  0.75262300  1
  O  O16  1  0.32026800  0.06764600  0.13219500  1
  O  O17  1  0.93487200  0.68815400  0.36921900  1
