# generated using pymatgen
data_RbLaTiNbO6F
_symmetry_space_group_name_H-M   'P 1'
_cell_length_a   3.87243400
_cell_length_b   3.91595800
_cell_length_c   11.28940500
_cell_angle_alpha   90.00000000
_cell_angle_beta   90.00000000
_cell_angle_gamma   90.00000000
_symmetry_Int_Tables_number   1
_chemical_formula_structural   RbLaTiNbO6F
_chemical_formula_sum   'Rb1 La1 Ti1 Nb1 O6 F1'
_cell_volume   171.19579895
_cell_formula_units_Z   1
loop_
 _symmetry_equiv_pos_site_id
 _symmetry_equiv_pos_as_xyz
  1  'x, y, z'
loop_
 _atom_site_type_symbol
 _atom_site_label
 _atom_site_symmetry_multiplicity
 _atom_site_fract_x
 _atom_site_fract_y
 _atom_site_fract_z
 _atom_site_occupancy
  Rb  Rb0  1  0.50000000  0.50000000  0.50207200  1
  La  La1  1  0.50000000  0.50000000  0.00025400  1
  Ti  Ti2  1  0.00000000  0.00000000  0.79403000  1
  Nb  Nb3  1  0.00000000  0.00000000  0.20512400  1
  O  O4  1  0.00000000  0.00000000  0.64312700  1
  O  O5  1  0.00000000  0.00000000  0.36540000  1
  O  O6  1  0.50000000  0.00000000  0.83406300  1
  O  O7  1  0.50000000  0.00000000  0.16465500  1
  O  O8  1  0.00000000  0.50000000  0.16331900  1
  O  O9  1  0.00000000  0.00000000  0.99767600  1
  F  F10  1  0.00000000  0.50000000  0.83027900  1
