# generated using pymatgen
data_Rb3Ag9(SbS3)4
_symmetry_space_group_name_H-M   'P 1'
_cell_length_a   9.85931393
_cell_length_b   9.85931393
_cell_length_c   9.85931393
_cell_angle_alpha   111.24154962
_cell_angle_beta   111.24154962
_cell_angle_gamma   105.98578438
_symmetry_Int_Tables_number   1
_chemical_formula_structural   Rb3Ag9(SbS3)4
_chemical_formula_sum   'Rb3 Ag9 Sb4 S12'
_cell_volume   735.73364699
_cell_formula_units_Z   1
loop_
 _symmetry_equiv_pos_site_id
 _symmetry_equiv_pos_as_xyz
  1  'x, y, z'
loop_
 _atom_site_type_symbol
 _atom_site_label
 _atom_site_symmetry_multiplicity
 _atom_site_fract_x
 _atom_site_fract_y
 _atom_site_fract_z
 _atom_site_occupancy
  Rb  Rb0  1  0.00000000  0.00000000  0.00000000  1
  Rb  Rb1  1  0.67175100  0.67175100  0.00000000  1
  Rb  Rb2  1  0.32824900  0.32824900  0.00000000  1
  Ag  Ag3  1  0.25000000  0.75000000  0.50000000  1
  Ag  Ag4  1  0.33430200  0.48676000  0.49371600  1
  Ag  Ag5  1  0.99304400  0.84058500  0.50628400  1
  Ag  Ag6  1  0.50154100  0.00623900  0.16934800  1
  Ag  Ag7  1  0.83689100  0.33219300  0.83065200  1
  Ag  Ag8  1  0.66780700  0.49845900  0.50469800  1
  Ag  Ag9  1  0.99376100  0.16310900  0.49530200  1
  Ag  Ag10  1  0.51324000  0.00695600  0.84754200  1
  Ag  Ag11  1  0.15941500  0.66569800  0.15245800  1
  Sb  Sb12  1  0.12068300  0.60742400  0.74093200  1
  Sb  Sb13  1  0.86649200  0.37975000  0.25906800  1
  Sb  Sb14  1  0.62025000  0.87931700  0.48674200  1
  Sb  Sb15  1  0.39257600  0.13350800  0.51325800  1
  S  S16  1  0.21129900  0.88808300  0.78126000  1
  S  S17  1  0.10682300  0.43003900  0.21874000  1
  S  S18  1  0.90210100  0.10809400  0.68986200  1
  S  S19  1  0.41823200  0.21224000  0.31013800  1
  S  S20  1  0.78776000  0.09789900  0.20599300  1
  S  S21  1  0.89190600  0.58176800  0.79400700  1
  S  S22  1  0.11191700  0.89317700  0.32321600  1
  S  S23  1  0.56996100  0.78870100  0.67678400  1
  S  S24  1  0.33652500  0.69153500  0.02322500  1
  S  S25  1  0.66831000  0.31329900  0.97677500  1
  S  S26  1  0.68670100  0.66347500  0.35501100  1
  S  S27  1  0.30846500  0.33169000  0.64498900  1
