# generated using pymatgen
data_RbNaCa2Nb4O13
_symmetry_space_group_name_H-M   'P 1'
_cell_length_a   3.97914300
_cell_length_b   3.97914300
_cell_length_c   19.25434700
_cell_angle_alpha   90.00000000
_cell_angle_beta   90.00000000
_cell_angle_gamma   90.00000000
_symmetry_Int_Tables_number   1
_chemical_formula_structural   RbNaCa2Nb4O13
_chemical_formula_sum   'Rb1 Na1 Ca2 Nb4 O13'
_cell_volume   304.86522460
_cell_formula_units_Z   1
loop_
 _symmetry_equiv_pos_site_id
 _symmetry_equiv_pos_as_xyz
  1  'x, y, z'
loop_
 _atom_site_type_symbol
 _atom_site_label
 _atom_site_symmetry_multiplicity
 _atom_site_fract_x
 _atom_site_fract_y
 _atom_site_fract_z
 _atom_site_occupancy
  Rb  Rb0  1  0.50000000  0.50000000  0.50000000  1
  Na  Na1  1  0.50000000  0.50000000  0.00000000  1
  Ca  Ca2  1  0.50000000  0.50000000  0.77752800  1
  Ca  Ca3  1  0.50000000  0.50000000  0.22247200  1
  Nb  Nb4  1  0.00000000  0.00000000  0.67272500  1
  Nb  Nb5  1  0.00000000  0.00000000  0.32727500  1
  Nb  Nb6  1  0.00000000  0.00000000  0.89483100  1
  Nb  Nb7  1  0.00000000  0.00000000  0.10516900  1
  O  O8  1  0.50000000  0.00000000  0.69468200  1
  O  O9  1  0.00000000  0.50000000  0.69468200  1
  O  O10  1  0.50000000  0.00000000  0.30531800  1
  O  O11  1  0.00000000  0.50000000  0.30531800  1
  O  O12  1  0.50000000  0.00000000  0.89458900  1
  O  O13  1  0.00000000  0.50000000  0.89458900  1
  O  O14  1  0.50000000  0.00000000  0.10541100  1
  O  O15  1  0.00000000  0.50000000  0.10541100  1
  O  O16  1  0.00000000  0.00000000  0.79307100  1
  O  O17  1  0.00000000  0.00000000  0.20692900  1
  O  O18  1  0.00000000  0.00000000  0.57933100  1
  O  O19  1  0.00000000  0.00000000  0.42066900  1
  O  O20  1  0.00000000  0.00000000  0.00000000  1
