# generated using pymatgen
data_RbAlSi3O8
_symmetry_space_group_name_H-M   'P 1'
_cell_length_a   8.01704976
_cell_length_b   8.01704976
_cell_length_c   7.22985689
_cell_angle_alpha   76.01360898
_cell_angle_beta   76.01360898
_cell_angle_gamma   112.26579304
_symmetry_Int_Tables_number   1
_chemical_formula_structural   RbAlSi3O8
_chemical_formula_sum   'Rb2 Al2 Si6 O16'
_cell_volume   387.48599989
_cell_formula_units_Z   2
loop_
 _symmetry_equiv_pos_site_id
 _symmetry_equiv_pos_as_xyz
  1  'x, y, z'
loop_
 _atom_site_type_symbol
 _atom_site_label
 _atom_site_symmetry_multiplicity
 _atom_site_fract_x
 _atom_site_fract_y
 _atom_site_fract_z
 _atom_site_occupancy
  Rb  Rb0  1  0.28966000  0.30300500  0.85619100  1
  Rb  Rb1  1  0.69699500  0.71034000  0.14380900  1
  Al  Al2  1  0.60449800  0.84195800  0.65210300  1
  Al  Al3  1  0.15804200  0.39550200  0.34789700  1
  Si  Si4  1  0.84800300  0.60717400  0.65087900  1
  Si  Si5  1  0.39282600  0.15199700  0.34912100  1
  Si  Si6  1  0.82166600  0.20225800  0.77292400  1
  Si  Si7  1  0.20091900  0.81391000  0.77794900  1
  Si  Si8  1  0.18609000  0.79908100  0.22205100  1
  Si  Si9  1  0.79774200  0.17833400  0.22707600  1
  O  O10  1  0.66294300  0.99918000  0.78251800  1
  O  O11  1  0.98797800  0.67582500  0.77911200  1
  O  O12  1  0.32417500  0.01202200  0.22088800  1
  O  O13  1  0.00082000  0.33705700  0.21748200  1
  O  O14  1  0.83533700  0.16466300  0.00000000  1
  O  O15  1  0.15618200  0.84381800  0.00000000  1
  O  O16  1  0.03898700  0.27919000  0.61367900  1
  O  O17  1  0.28695600  0.03019200  0.59894200  1
  O  O18  1  0.96980800  0.71304400  0.40105800  1
  O  O19  1  0.72081000  0.96101300  0.38632100  1
  O  O20  1  0.66949100  0.65545400  0.71724000  1
  O  O21  1  0.34454600  0.33050900  0.28276000  1
  O  O22  1  0.75255400  0.37169300  0.71580700  1
  O  O23  1  0.34822500  0.72356100  0.73616300  1
  O  O24  1  0.27643900  0.65177500  0.26383700  1
  O  O25  1  0.62830700  0.24744600  0.28419300  1
