# generated using pymatgen
data_RbOsNO3
_symmetry_space_group_name_H-M   'P 1'
_cell_length_a   5.83952100
_cell_length_b   5.96903000
_cell_length_c   14.22157400
_cell_angle_alpha   90.00000000
_cell_angle_beta   90.00000000
_cell_angle_gamma   90.00000000
_symmetry_Int_Tables_number   1
_chemical_formula_structural   RbOsNO3
_chemical_formula_sum   'Rb4 Os4 N4 O12'
_cell_volume   495.71110899
_cell_formula_units_Z   4
loop_
 _symmetry_equiv_pos_site_id
 _symmetry_equiv_pos_as_xyz
  1  'x, y, z'
loop_
 _atom_site_type_symbol
 _atom_site_label
 _atom_site_symmetry_multiplicity
 _atom_site_fract_x
 _atom_site_fract_y
 _atom_site_fract_z
 _atom_site_occupancy
  Rb  Rb0  1  0.97196300  0.25144100  0.62463900  1
  Rb  Rb1  1  0.47196300  0.24855900  0.37536100  1
  Rb  Rb2  1  0.02803700  0.75144100  0.87536100  1
  Rb  Rb3  1  0.52803700  0.74855900  0.12463900  1
  Os  Os4  1  0.53645200  0.25146600  0.87084400  1
  Os  Os5  1  0.03645200  0.24853400  0.12915600  1
  Os  Os6  1  0.46354800  0.75146600  0.62915600  1
  Os  Os7  1  0.96354800  0.74853400  0.37084400  1
  N  N8  1  0.48738800  0.01904400  0.93736100  1
  N  N9  1  0.98738800  0.48095600  0.06263900  1
  N  N10  1  0.51261200  0.51904400  0.56263900  1
  N  N11  1  0.01261200  0.98095600  0.43736100  1
  O  O12  1  0.34535900  0.24591000  0.77484300  1
  O  O13  1  0.84535900  0.25409000  0.22515700  1
  O  O14  1  0.65464100  0.74591000  0.72515700  1
  O  O15  1  0.15464100  0.75409000  0.27484300  1
  O  O16  1  0.82520600  0.24523100  0.83273300  1
  O  O17  1  0.32520600  0.25476900  0.16726700  1
  O  O18  1  0.17479400  0.74523100  0.66726700  1
  O  O19  1  0.67479400  0.75476900  0.33273300  1
  O  O20  1  0.51615600  0.98847800  0.55865500  1
  O  O21  1  0.01615600  0.51152200  0.44134500  1
  O  O22  1  0.48384400  0.48847800  0.94134500  1
  O  O23  1  0.98384400  0.01152200  0.05865500  1
