# generated using pymatgen
data_RbBi4Se7
_symmetry_space_group_name_H-M   'P 1'
_cell_length_a   11.90870044
_cell_length_b   11.90870044
_cell_length_c   19.77559897
_cell_angle_alpha   57.23757136
_cell_angle_beta   57.23757136
_cell_angle_gamma   20.54153701
_symmetry_Int_Tables_number   1
_chemical_formula_structural   RbBi4Se7
_chemical_formula_sum   'Rb2 Bi8 Se14'
_cell_volume   821.87805322
_cell_formula_units_Z   2
loop_
 _symmetry_equiv_pos_site_id
 _symmetry_equiv_pos_as_xyz
  1  'x, y, z'
loop_
 _atom_site_type_symbol
 _atom_site_label
 _atom_site_symmetry_multiplicity
 _atom_site_fract_x
 _atom_site_fract_y
 _atom_site_fract_z
 _atom_site_occupancy
  Rb  Rb0  1  0.46212900  0.46212900  0.84837000  1
  Rb  Rb1  1  0.53787100  0.53787100  0.15163000  1
  Bi  Bi2  1  0.63783300  0.63783300  0.43415300  1
  Bi  Bi3  1  0.36216700  0.36216700  0.56584700  1
  Bi  Bi4  1  0.22700900  0.22700900  0.92951100  1
  Bi  Bi5  1  0.77299100  0.77299100  0.07048900  1
  Bi  Bi6  1  0.15284400  0.15284400  0.61044600  1
  Bi  Bi7  1  0.84715600  0.84715600  0.38955400  1
  Bi  Bi8  1  0.69618500  0.69618500  0.76896000  1
  Bi  Bi9  1  0.30381500  0.30381500  0.23104000  1
  Se  Se10  1  0.29585100  0.29585100  0.73871600  1
  Se  Se11  1  0.70414900  0.70414900  0.26128400  1
  Se  Se12  1  0.82796800  0.82796800  0.90537600  1
  Se  Se13  1  0.17203200  0.17203200  0.09462400  1
  Se  Se14  1  0.56814000  0.56814000  0.61825100  1
  Se  Se15  1  0.43186000  0.43186000  0.38174900  1
  Se  Se16  1  0.10220300  0.10220300  0.77617000  1
  Se  Se17  1  0.89779700  0.89779700  0.22383000  1
  Se  Se18  1  0.63558200  0.63558200  0.93945800  1
  Se  Se19  1  0.36441800  0.36441800  0.06054200  1
  Se  Se20  1  0.76467100  0.76467100  0.58038700  1
  Se  Se21  1  0.23532900  0.23532900  0.41961300  1
  Se  Se22  1  0.04918700  0.04918700  0.43216400  1
  Se  Se23  1  0.95081300  0.95081300  0.56783600  1
