# generated using pymatgen
data_Rb8Hg3Ge43
_symmetry_space_group_name_H-M   'P 1'
_cell_length_a   11.12688385
_cell_length_b   11.12688385
_cell_length_c   11.12688329
_cell_angle_alpha   90.00921856
_cell_angle_beta   90.00921856
_cell_angle_gamma   90.00921930
_symmetry_Int_Tables_number   1
_chemical_formula_structural   Rb8Hg3Ge43
_chemical_formula_sum   'Rb8 Hg3 Ge43'
_cell_volume   1377.59204170
_cell_formula_units_Z   1
loop_
 _symmetry_equiv_pos_site_id
 _symmetry_equiv_pos_as_xyz
  1  'x, y, z'
loop_
 _atom_site_type_symbol
 _atom_site_label
 _atom_site_symmetry_multiplicity
 _atom_site_fract_x
 _atom_site_fract_y
 _atom_site_fract_z
 _atom_site_occupancy
  Rb  Rb0  1  0.24987000  0.24987000  0.24987000  1
  Rb  Rb1  1  0.75013000  0.75013000  0.75013000  1
  Rb  Rb2  1  0.50000000  0.24966300  0.75033700  1
  Rb  Rb3  1  0.24966300  0.75033700  0.50000000  1
  Rb  Rb4  1  0.75033700  0.50000000  0.24966300  1
  Rb  Rb5  1  0.00000000  0.24965700  0.75034300  1
  Rb  Rb6  1  0.24965700  0.75034300  0.00000000  1
  Rb  Rb7  1  0.75034300  0.00000000  0.24965700  1
  Hg  Hg8  1  0.74992100  0.25007900  0.00000000  1
  Hg  Hg9  1  0.25007900  0.00000000  0.74992100  1
  Hg  Hg10  1  0.00000000  0.74992100  0.25007900  1
  Ge  Ge11  1  0.55393800  0.24983900  0.36779700  1
  Ge  Ge12  1  0.24983900  0.36779700  0.55393800  1
  Ge  Ge13  1  0.36779700  0.55393800  0.24983900  1
  Ge  Ge14  1  0.94655600  0.24992100  0.13344900  1
  Ge  Ge15  1  0.24992100  0.13344900  0.94655600  1
  Ge  Ge16  1  0.13344900  0.94655600  0.24992100  1
  Ge  Ge17  1  0.24982100  0.36768700  0.94624100  1
  Ge  Ge18  1  0.13354100  0.55360200  0.25000800  1
  Ge  Ge19  1  0.25000800  0.13354100  0.55360200  1
  Ge  Ge20  1  0.36768700  0.94624100  0.24982100  1
  Ge  Ge21  1  0.55360200  0.25000800  0.13354100  1
  Ge  Ge22  1  0.94624100  0.24982100  0.36768700  1
  Ge  Ge23  1  0.63220300  0.75016100  0.44606200  1
  Ge  Ge24  1  0.44639800  0.86645900  0.74999200  1
  Ge  Ge25  1  0.75017900  0.05375900  0.63231300  1
  Ge  Ge26  1  0.86655100  0.75007900  0.05344400  1
  Ge  Ge27  1  0.05375900  0.63231300  0.75017900  1
  Ge  Ge28  1  0.74999200  0.44639800  0.86645900  1
  Ge  Ge29  1  0.05344400  0.86655100  0.75007900  1
  Ge  Ge30  1  0.75007900  0.05344400  0.86655100  1
  Ge  Ge31  1  0.44606200  0.63220300  0.75016100  1
  Ge  Ge32  1  0.75016100  0.44606200  0.63220300  1
  Ge  Ge33  1  0.86645900  0.74999200  0.44639800  1
  Ge  Ge34  1  0.63231300  0.75017900  0.05375900  1
  Ge  Ge35  1  0.43446200  0.43446200  0.43446200  1
  Ge  Ge36  1  0.06754400  0.06754400  0.06754400  1
  Ge  Ge37  1  0.06667000  0.43332400  0.06692100  1
  Ge  Ge38  1  0.43388500  0.06628300  0.43407100  1
  Ge  Ge39  1  0.43332400  0.06692100  0.06667000  1
  Ge  Ge40  1  0.06628300  0.43407100  0.43388500  1
  Ge  Ge41  1  0.06692100  0.06667000  0.43332400  1
  Ge  Ge42  1  0.43407100  0.43388500  0.06628300  1
  Ge  Ge43  1  0.56592900  0.93371700  0.56611500  1
  Ge  Ge44  1  0.93307900  0.56667600  0.93333000  1
  Ge  Ge45  1  0.93245600  0.93245600  0.93245600  1
  Ge  Ge46  1  0.56553800  0.56553800  0.56553800  1
  Ge  Ge47  1  0.93371700  0.56611500  0.56592900  1
  Ge  Ge48  1  0.56667600  0.93333000  0.93307900  1
  Ge  Ge49  1  0.56611500  0.56592900  0.93371700  1
  Ge  Ge50  1  0.93333000  0.93307900  0.56667600  1
  Ge  Ge51  1  0.74978700  0.25021300  0.50000000  1
  Ge  Ge52  1  0.25021300  0.50000000  0.74978700  1
  Ge  Ge53  1  0.50000000  0.74978700  0.25021300  1
