# generated using pymatgen
data_Rb3Ti4Tl(PO5)4
_symmetry_space_group_name_H-M   'P 1'
_cell_length_a   10.68921600
_cell_length_b   6.57320500
_cell_length_c   13.13227203
_cell_angle_alpha   89.96107353
_cell_angle_beta   90.00000000
_cell_angle_gamma   90.00000000
_symmetry_Int_Tables_number   1
_chemical_formula_structural   Rb3Ti4Tl(PO5)4
_chemical_formula_sum   'Rb6 Ti8 Tl2 P8 O40'
_cell_volume   922.70484320
_cell_formula_units_Z   2
loop_
 _symmetry_equiv_pos_site_id
 _symmetry_equiv_pos_as_xyz
  1  'x, y, z'
loop_
 _atom_site_type_symbol
 _atom_site_label
 _atom_site_symmetry_multiplicity
 _atom_site_fract_x
 _atom_site_fract_y
 _atom_site_fract_z
 _atom_site_occupancy
  Rb  Rb0  1  0.17411600  0.78299600  0.61669300  1
  Rb  Rb1  1  0.67411600  0.21700400  0.38330700  1
  Rb  Rb2  1  0.92476600  0.19535900  0.60565400  1
  Rb  Rb3  1  0.42476600  0.80464100  0.39434600  1
  Rb  Rb4  1  0.42466200  0.69415700  0.89479200  1
  Rb  Rb5  1  0.92466200  0.30584300  0.10520800  1
  Ti  Ti6  1  0.99790100  0.99772900  0.87131900  1
  Ti  Ti7  1  0.49790100  0.00227100  0.12868100  1
  Ti  Ti8  1  0.49773600  0.49816200  0.62877600  1
  Ti  Ti9  1  0.99773600  0.50183800  0.37122400  1
  Ti  Ti10  1  0.74651300  0.76465400  0.74721900  1
  Ti  Ti11  1  0.24651300  0.23534600  0.25278100  1
  Ti  Ti12  1  0.24631400  0.26494400  0.75297300  1
  Ti  Ti13  1  0.74631400  0.73505600  0.24702700  1
  Tl  Tl14  1  0.67432000  0.28229000  0.88229600  1
  Tl  Tl15  1  0.17432000  0.71771000  0.11770400  1
  P  P16  1  0.48783200  0.00248600  0.68045200  1
  P  P17  1  0.98783200  0.99751400  0.31954800  1
  P  P18  1  0.98788700  0.50217900  0.81957100  1
  P  P19  1  0.48788700  0.49782100  0.18042900  1
  P  P20  1  0.74097900  0.83416600  0.99958200  1
  P  P21  1  0.24097900  0.16583400  0.00041800  1
  P  P22  1  0.24086200  0.33409800  0.50029100  1
  P  P23  1  0.74086200  0.66590200  0.49970900  1
  O  O24  1  0.85244700  0.98013200  0.98597900  1
  O  O25  1  0.35244700  0.01986800  0.01402100  1
  O  O26  1  0.35236100  0.48010800  0.51387800  1
  O  O27  1  0.85236100  0.51989200  0.48612200  1
  O  O28  1  0.76174000  0.69664200  0.09512500  1
  O  O29  1  0.26174000  0.30335800  0.90487500  1
  O  O30  1  0.26197600  0.19621200  0.40499000  1
  O  O31  1  0.76197600  0.80378800  0.59501000  1
  O  O32  1  0.51665000  0.19166400  0.61379400  1
  O  O33  1  0.01665000  0.80833600  0.38620600  1
  O  O34  1  0.01639800  0.69186300  0.88563000  1
  O  O35  1  0.51639800  0.30813700  0.11437000  1
  O  O36  1  0.37286000  0.04456700  0.75090900  1
  O  O37  1  0.87286000  0.95543300  0.24909100  1
  O  O38  1  0.87324900  0.54479200  0.74875300  1
  O  O39  1  0.37324900  0.45520800  0.25124700  1
  O  O40  1  0.61210400  0.54691000  0.72326200  1
  O  O41  1  0.11210400  0.45309000  0.27673800  1
  O  O42  1  0.11180000  0.04812900  0.77719200  1
  O  O43  1  0.61180000  0.95187100  0.22280800  1
  O  O44  1  0.35845300  0.46005800  0.72045900  1
  O  O45  1  0.85845300  0.53994200  0.27954100  1
  O  O46  1  0.85831500  0.96054100  0.77923300  1
  O  O47  1  0.35831500  0.03945900  0.22076700  1
  O  O48  1  0.60126200  0.95862600  0.75150800  1
  O  O49  1  0.10126200  0.04137400  0.24849200  1
  O  O50  1  0.10117400  0.45795200  0.74869900  1
  O  O51  1  0.60117400  0.54204800  0.25130100  1
  O  O52  1  0.61814600  0.96094600  0.01412700  1
  O  O53  1  0.11814600  0.03905400  0.98587300  1
  O  O54  1  0.11831200  0.46113200  0.48560200  1
  O  O55  1  0.61831200  0.53886800  0.51439800  1
  O  O56  1  0.45777400  0.81283800  0.61503400  1
  O  O57  1  0.95777400  0.18716200  0.38496600  1
  O  O58  1  0.95726100  0.31252900  0.88512500  1
  O  O59  1  0.45726100  0.68747100  0.11487500  1
  O  O60  1  0.71964400  0.70351300  0.90229700  1
  O  O61  1  0.21964400  0.29648700  0.09770300  1
  O  O62  1  0.21926400  0.20305800  0.59750300  1
  O  O63  1  0.71926400  0.79694200  0.40249700  1
