# generated using pymatgen
data_Pr3Si3Ni
_symmetry_space_group_name_H-M   'P 1'
_cell_length_a   9.53096147
_cell_length_b   9.53096147
_cell_length_c   9.53096147
_cell_angle_alpha   155.70561098
_cell_angle_beta   153.69193665
_cell_angle_gamma   36.11188588
_symmetry_Int_Tables_number   1
_chemical_formula_structural   Pr3Si3Ni
_chemical_formula_sum   'Pr3 Si3 Ni1'
_cell_volume   157.66958567
_cell_formula_units_Z   1
loop_
 _symmetry_equiv_pos_site_id
 _symmetry_equiv_pos_as_xyz
  1  'x, y, z'
loop_
 _atom_site_type_symbol
 _atom_site_label
 _atom_site_symmetry_multiplicity
 _atom_site_fract_x
 _atom_site_fract_y
 _atom_site_fract_z
 _atom_site_occupancy
  Pr  Pr0  1  0.00047000  0.00047000  0.00000000  1
  Pr  Pr1  1  0.81507500  0.31507500  0.50000000  1
  Pr  Pr2  1  0.18164700  0.68164700  0.50000000  1
  Si  Si3  1  0.63321000  0.13321000  0.50000000  1
  Si  Si4  1  0.36144700  0.86144700  0.50000000  1
  Si  Si5  1  0.44149400  0.44149400  0.00000000  1
  Ni  Ni6  1  0.56665700  0.56665700  0.00000000  1
