# generated using pymatgen
data_Rb5Al(MoO4)4
_symmetry_space_group_name_H-M   'P 1'
_cell_length_a   6.19562205
_cell_length_b   8.45846809
_cell_length_c   10.62870479
_cell_angle_alpha   69.01443875
_cell_angle_beta   90.09659843
_cell_angle_gamma   90.14249527
_symmetry_Int_Tables_number   1
_chemical_formula_structural   Rb5Al(MoO4)4
_chemical_formula_sum   'Rb5 Al1 Mo4 O16'
_cell_volume   520.05492012
_cell_formula_units_Z   1
loop_
 _symmetry_equiv_pos_site_id
 _symmetry_equiv_pos_as_xyz
  1  'x, y, z'
loop_
 _atom_site_type_symbol
 _atom_site_label
 _atom_site_symmetry_multiplicity
 _atom_site_fract_x
 _atom_site_fract_y
 _atom_site_fract_z
 _atom_site_occupancy
  Rb  Rb0  1  0.99348600  0.45072000  0.21167900  1
  Rb  Rb1  1  0.49382100  0.90772500  0.70365900  1
  Rb  Rb2  1  0.99364400  0.63509900  0.79334600  1
  Rb  Rb3  1  0.49309900  0.11658000  0.32490400  1
  Rb  Rb4  1  0.49200000  0.50554600  0.49028900  1
  Al  Al5  1  0.99043700  0.13891500  0.07198300  1
  Mo  Mo6  1  0.49389600  0.70221200  0.08732600  1
  Mo  Mo7  1  0.99323600  0.20015700  0.60047800  1
  Mo  Mo8  1  0.49107800  0.28222600  0.90938500  1
  Mo  Mo9  1  0.99183300  0.82533600  0.39930600  1
  O  O10  1  0.22957500  0.24047700  0.00860700  1
  O  O11  1  0.76059000  0.81300900  0.49932400  1
  O  O12  1  0.49102500  0.49331500  0.80435400  1
  O  O13  1  0.99209700  0.03055500  0.24078700  1
  O  O14  1  0.99589100  0.35079500  0.68519500  1
  O  O15  1  0.49948500  0.87071300  0.15522000  1
  O  O16  1  0.99188900  0.64636500  0.35380500  1
  O  O17  1  0.49219900  0.16734700  0.80574300  1
  O  O18  1  0.25729400  0.71554400  0.98688600  1
  O  O19  1  0.75786200  0.22789500  0.49434500  1
  O  O20  1  0.49192300  0.49443800  0.21948700  1
  O  O21  1  0.99223000  0.98831800  0.72060700  1
  O  O22  1  0.72631700  0.71127000  0.98489100  1
  O  O23  1  0.22668500  0.22669800  0.49328500  1
  O  O24  1  0.75270100  0.24228000  0.00879700  1
  O  O25  1  0.22380900  0.81376500  0.49901300  1
