# generated using pymatgen
data_Rb2CuBrCl3
_symmetry_space_group_name_H-M   'P 1'
_cell_length_a   8.89256442
_cell_length_b   8.89256442
_cell_length_c   7.30625600
_cell_angle_alpha   90.00000000
_cell_angle_beta   90.00000000
_cell_angle_gamma   131.53032623
_symmetry_Int_Tables_number   1
_chemical_formula_structural   Rb2CuBrCl3
_chemical_formula_sum   'Rb4 Cu2 Br2 Cl6'
_cell_volume   432.51541253
_cell_formula_units_Z   2
loop_
 _symmetry_equiv_pos_site_id
 _symmetry_equiv_pos_as_xyz
  1  'x, y, z'
loop_
 _atom_site_type_symbol
 _atom_site_label
 _atom_site_symmetry_multiplicity
 _atom_site_fract_x
 _atom_site_fract_y
 _atom_site_fract_z
 _atom_site_occupancy
  Rb  Rb0  1  0.86348500  0.13651500  0.50000000  1
  Rb  Rb1  1  0.36348500  0.63651500  0.00000000  1
  Rb  Rb2  1  0.13407700  0.86592300  0.50000000  1
  Rb  Rb3  1  0.63407700  0.36592300  0.00000000  1
  Cu  Cu4  1  0.50404400  0.49595600  0.50000000  1
  Cu  Cu5  1  0.00404400  0.99595600  0.00000000  1
  Br  Br6  1  0.34668100  0.65331900  0.50000000  1
  Br  Br7  1  0.84668100  0.15331900  0.00000000  1
  Cl  Cl8  1  0.64928000  0.35072000  0.50000000  1
  Cl  Cl9  1  0.14928000  0.85072000  0.00000000  1
  Cl  Cl10  1  0.28152100  0.27908700  0.28101300  1
  Cl  Cl11  1  0.72091300  0.71847900  0.71898700  1
  Cl  Cl12  1  0.22091300  0.21847900  0.78101300  1
  Cl  Cl13  1  0.78152100  0.77908700  0.21898700  1
