# generated using pymatgen
data_Pr2Mn3Sb3O14
_symmetry_space_group_name_H-M   'P 1'
_cell_length_a   7.29423344
_cell_length_b   7.29423344
_cell_length_c   7.39327947
_cell_angle_alpha   60.91848428
_cell_angle_beta   60.91848428
_cell_angle_gamma   61.43913520
_symmetry_Int_Tables_number   1
_chemical_formula_structural   Pr2Mn3Sb3O14
_chemical_formula_sum   'Pr2 Mn3 Sb3 O14'
_cell_volume   284.97396581
_cell_formula_units_Z   1
loop_
 _symmetry_equiv_pos_site_id
 _symmetry_equiv_pos_as_xyz
  1  'x, y, z'
loop_
 _atom_site_type_symbol
 _atom_site_label
 _atom_site_symmetry_multiplicity
 _atom_site_fract_x
 _atom_site_fract_y
 _atom_site_fract_z
 _atom_site_occupancy
  Pr  Pr0  1  0.50000000  0.00000000  0.00000000  1
  Pr  Pr1  1  0.00000000  0.50000000  0.00000000  1
  Mn  Mn2  1  0.50000000  0.50000000  0.50000000  1
  Mn  Mn3  1  0.00000000  0.00000000  0.00000000  1
  Mn  Mn4  1  0.00000000  0.00000000  0.50000000  1
  Sb  Sb5  1  0.50000000  0.50000000  0.00000000  1
  Sb  Sb6  1  0.00000000  0.50000000  0.50000000  1
  Sb  Sb7  1  0.50000000  0.00000000  0.50000000  1
  O  O8  1  0.58742900  0.58742900  0.15089200  1
  O  O9  1  0.17465800  0.17465800  0.56995400  1
  O  O10  1  0.17538800  0.57225000  0.58069600  1
  O  O11  1  0.57859800  0.17343400  0.17694900  1
  O  O12  1  0.17343400  0.57859800  0.17694900  1
  O  O13  1  0.57225000  0.17538800  0.58069600  1
  O  O14  1  0.41257100  0.41257100  0.84910800  1
  O  O15  1  0.82534200  0.82534200  0.43004600  1
  O  O16  1  0.82461200  0.42775000  0.41930400  1
  O  O17  1  0.42140200  0.82656600  0.82305100  1
  O  O18  1  0.82656600  0.42140200  0.82305100  1
  O  O19  1  0.42775000  0.82461200  0.41930400  1
  O  O20  1  0.89370300  0.89370300  0.85870500  1
  O  O21  1  0.10629700  0.10629700  0.14129500  1
