# generated using pymatgen
data_Rb2BaCl4
_symmetry_space_group_name_H-M   'P 1'
_cell_length_a   8.39244957
_cell_length_b   8.39244957
_cell_length_c   8.39244957
_cell_angle_alpha   109.87145649
_cell_angle_beta   109.87145649
_cell_angle_gamma   108.67368061
_symmetry_Int_Tables_number   1
_chemical_formula_structural   Rb2BaCl4
_chemical_formula_sum   'Rb4 Ba2 Cl8'
_cell_volume   454.96849113
_cell_formula_units_Z   2
loop_
 _symmetry_equiv_pos_site_id
 _symmetry_equiv_pos_as_xyz
  1  'x, y, z'
loop_
 _atom_site_type_symbol
 _atom_site_label
 _atom_site_symmetry_multiplicity
 _atom_site_fract_x
 _atom_site_fract_y
 _atom_site_fract_z
 _atom_site_occupancy
  Rb  Rb0  1  0.37500000  0.51058300  0.63558300  1
  Rb  Rb1  1  0.87500000  0.73941700  0.36441700  1
  Rb  Rb2  1  0.48941700  0.12500000  0.86441700  1
  Rb  Rb3  1  0.26058300  0.62500000  0.13558300  1
  Ba  Ba4  1  0.75000000  0.25000000  0.50000000  1
  Ba  Ba5  1  0.00000000  0.00000000  0.00000000  1
  Cl  Cl6  1  0.97326400  0.35870400  0.25056100  1
  Cl  Cl7  1  0.10814300  0.72270200  0.74943900  1
  Cl  Cl8  1  0.64185700  0.89129600  0.11455900  1
  Cl  Cl9  1  0.77673600  0.52729800  0.88544100  1
  Cl  Cl10  1  0.10870400  0.22326400  0.75056100  1
  Cl  Cl11  1  0.47270200  0.35814300  0.24943900  1
  Cl  Cl12  1  0.64129600  0.89185700  0.61455900  1
  Cl  Cl13  1  0.27729800  0.02673600  0.38544100  1
