# generated using pymatgen
data_Rb2(TeO4)3
_symmetry_space_group_name_H-M   'P 1'
_cell_length_a   7.58446626
_cell_length_b   7.58446626
_cell_length_c   7.58446603
_cell_angle_alpha   56.07738824
_cell_angle_beta   56.07738824
_cell_angle_gamma   56.07738902
_symmetry_Int_Tables_number   1
_chemical_formula_structural   Rb2(TeO4)3
_chemical_formula_sum   'Rb2 Te3 O12'
_cell_volume   280.47793334
_cell_formula_units_Z   1
loop_
 _symmetry_equiv_pos_site_id
 _symmetry_equiv_pos_as_xyz
  1  'x, y, z'
loop_
 _atom_site_type_symbol
 _atom_site_label
 _atom_site_symmetry_multiplicity
 _atom_site_fract_x
 _atom_site_fract_y
 _atom_site_fract_z
 _atom_site_occupancy
  Rb  Rb0  1  0.37070300  0.37070300  0.37070300  1
  Rb  Rb1  1  0.62929700  0.62929700  0.62929700  1
  Te  Te2  1  0.50000000  0.00000000  0.00000000  1
  Te  Te3  1  0.00000000  0.00000000  0.50000000  1
  Te  Te4  1  0.00000000  0.50000000  0.00000000  1
  O  O5  1  0.93245500  0.33326200  0.33326200  1
  O  O6  1  0.29962100  0.95874700  0.95874700  1
  O  O7  1  0.33326200  0.33326200  0.93245500  1
  O  O8  1  0.95874700  0.95874700  0.29962100  1
  O  O9  1  0.95874700  0.29962100  0.95874700  1
  O  O10  1  0.33326200  0.93245500  0.33326200  1
  O  O11  1  0.06754500  0.66673800  0.66673800  1
  O  O12  1  0.70037900  0.04125300  0.04125300  1
  O  O13  1  0.66673800  0.66673800  0.06754500  1
  O  O14  1  0.04125300  0.04125300  0.70037900  1
  O  O15  1  0.04125300  0.70037900  0.04125300  1
  O  O16  1  0.66673800  0.06754500  0.66673800  1
