# generated using pymatgen
data_Rb2TiCr2(MoO4)6
_symmetry_space_group_name_H-M   'P 1'
_cell_length_a   8.66416300
_cell_length_b   8.67029627
_cell_length_c   8.68319531
_cell_angle_alpha   99.71743255
_cell_angle_beta   99.61638555
_cell_angle_gamma   99.73953766
_symmetry_Int_Tables_number   1
_chemical_formula_structural   Rb2TiCr2(MoO4)6
_chemical_formula_sum   'Rb2 Ti1 Cr2 Mo6 O24'
_cell_volume   620.68520335
_cell_formula_units_Z   1
loop_
 _symmetry_equiv_pos_site_id
 _symmetry_equiv_pos_as_xyz
  1  'x, y, z'
loop_
 _atom_site_type_symbol
 _atom_site_label
 _atom_site_symmetry_multiplicity
 _atom_site_fract_x
 _atom_site_fract_y
 _atom_site_fract_z
 _atom_site_occupancy
  Rb  Rb0  1  0.81387000  0.81471200  0.81156500  1
  Rb  Rb1  1  0.18613000  0.18528800  0.18843500  1
  Ti  Ti2  1  0.50000000  0.50000000  0.00000000  1
  Cr  Cr3  1  0.00000000  0.50000000  0.50000000  1
  Cr  Cr4  1  0.50000000  0.00000000  0.50000000  1
  Mo  Mo5  1  0.78051200  0.31895500  0.77419300  1
  Mo  Mo6  1  0.77481600  0.78050800  0.32017300  1
  Mo  Mo7  1  0.31877600  0.77406400  0.77929000  1
  Mo  Mo8  1  0.21948800  0.68104500  0.22580700  1
  Mo  Mo9  1  0.22518400  0.21949200  0.67982700  1
  Mo  Mo10  1  0.68122400  0.22593600  0.22071000  1
  O  O11  1  0.94410700  0.30976300  0.91616000  1
  O  O12  1  0.91752100  0.94378900  0.31031600  1
  O  O13  1  0.31065900  0.91812400  0.94185100  1
  O  O14  1  0.05589300  0.69023700  0.08384000  1
  O  O15  1  0.08247900  0.05621100  0.68968400  1
  O  O16  1  0.68934100  0.08187600  0.05814900  1
  O  O17  1  0.68350800  0.11603300  0.67737200  1
  O  O18  1  0.67292800  0.68098400  0.11504600  1
  O  O19  1  0.11500700  0.67619700  0.68506500  1
  O  O20  1  0.31649200  0.88396700  0.32262800  1
  O  O21  1  0.32707200  0.31901600  0.88495400  1
  O  O22  1  0.88499300  0.32380300  0.31493500  1
  O  O23  1  0.64378500  0.42202200  0.87210100  1
  O  O24  1  0.86742800  0.64421000  0.41989100  1
  O  O25  1  0.42034400  0.86585700  0.64331400  1
  O  O26  1  0.35621500  0.57797800  0.12789900  1
  O  O27  1  0.13257200  0.35579000  0.58010900  1
  O  O28  1  0.57965600  0.13414300  0.35668600  1
  O  O29  1  0.84188400  0.43742400  0.63392200  1
  O  O30  1  0.63392000  0.84193500  0.43830600  1
  O  O31  1  0.43947500  0.63214000  0.84486100  1
  O  O32  1  0.15811600  0.56257600  0.36607800  1
  O  O33  1  0.36608000  0.15806500  0.56169400  1
  O  O34  1  0.56052500  0.36786000  0.15513900  1
