# generated using pymatgen
data_Rb12Sn2Sb6O
_symmetry_space_group_name_H-M   'P 1'
_cell_length_a   12.56767044
_cell_length_b   12.56767044
_cell_length_c   6.34861900
_cell_angle_alpha   90.00000000
_cell_angle_beta   90.00000000
_cell_angle_gamma   120.00000234
_symmetry_Int_Tables_number   1
_chemical_formula_structural   Rb12Sn2Sb6O
_chemical_formula_sum   'Rb12 Sn2 Sb6 O1'
_cell_volume   868.39927818
_cell_formula_units_Z   1
loop_
 _symmetry_equiv_pos_site_id
 _symmetry_equiv_pos_as_xyz
  1  'x, y, z'
loop_
 _atom_site_type_symbol
 _atom_site_label
 _atom_site_symmetry_multiplicity
 _atom_site_fract_x
 _atom_site_fract_y
 _atom_site_fract_z
 _atom_site_occupancy
  Rb  Rb0  1  0.45417700  0.54582300  0.24935900  1
  Rb  Rb1  1  0.45417700  0.90835400  0.24935900  1
  Rb  Rb2  1  0.09164600  0.54582300  0.24935900  1
  Rb  Rb3  1  0.54582300  0.45417700  0.75064100  1
  Rb  Rb4  1  0.54582300  0.09164600  0.75064100  1
  Rb  Rb5  1  0.90835400  0.45417700  0.75064100  1
  Rb  Rb6  1  0.11147900  0.88852100  0.27432500  1
  Rb  Rb7  1  0.11147900  0.22295900  0.27432500  1
  Rb  Rb8  1  0.77704100  0.88852100  0.27432500  1
  Rb  Rb9  1  0.88852100  0.11147900  0.72567500  1
  Rb  Rb10  1  0.88852100  0.77704100  0.72567500  1
  Rb  Rb11  1  0.22295900  0.11147900  0.72567500  1
  Sn  Sn12  1  0.33333300  0.66666700  0.75027600  1
  Sn  Sn13  1  0.66666700  0.33333300  0.24972400  1
  Sb  Sb14  1  0.79290500  0.20709500  0.24640100  1
  Sb  Sb15  1  0.79290500  0.58581100  0.24640100  1
  Sb  Sb16  1  0.41418900  0.20709500  0.24640100  1
  Sb  Sb17  1  0.20709500  0.79290500  0.75359900  1
  Sb  Sb18  1  0.20709500  0.41418900  0.75359900  1
  Sb  Sb19  1  0.58581100  0.79290500  0.75359900  1
  O  O20  1  0.00000000  0.00000000  0.50000000  1
