# generated using pymatgen
data_Pr2CoGe3
_symmetry_space_group_name_H-M   'P 1'
_cell_length_a   4.24908427
_cell_length_b   4.24908427
_cell_length_c   8.40750900
_cell_angle_alpha   90.00000000
_cell_angle_beta   90.00000000
_cell_angle_gamma   120.00000422
_symmetry_Int_Tables_number   1
_chemical_formula_structural   Pr2CoGe3
_chemical_formula_sum   'Pr2 Co1 Ge3'
_cell_volume   131.45849108
_cell_formula_units_Z   1
loop_
 _symmetry_equiv_pos_site_id
 _symmetry_equiv_pos_as_xyz
  1  'x, y, z'
loop_
 _atom_site_type_symbol
 _atom_site_label
 _atom_site_symmetry_multiplicity
 _atom_site_fract_x
 _atom_site_fract_y
 _atom_site_fract_z
 _atom_site_occupancy
  Pr  Pr0  1  0.33333300  0.66666700  0.23185300  1
  Pr  Pr1  1  0.33333300  0.66666700  0.76814700  1
  Co  Co2  1  0.00000000  0.00000000  0.00000000  1
  Ge  Ge3  1  0.00000000  0.00000000  0.50000000  1
  Ge  Ge4  1  0.66666700  0.33333300  0.00000000  1
  Ge  Ge5  1  0.66666700  0.33333300  0.50000000  1
