# generated using pymatgen
data_PrSm(Co2Ni3)2
_symmetry_space_group_name_H-M   'P 1'
_cell_length_a   4.01004400
_cell_length_b   4.96391400
_cell_length_c   8.58064900
_cell_angle_alpha   90.00000000
_cell_angle_beta   90.00000000
_cell_angle_gamma   90.00000000
_symmetry_Int_Tables_number   1
_chemical_formula_structural   PrSm(Co2Ni3)2
_chemical_formula_sum   'Pr1 Sm1 Co4 Ni6'
_cell_volume   170.80222496
_cell_formula_units_Z   1
loop_
 _symmetry_equiv_pos_site_id
 _symmetry_equiv_pos_as_xyz
  1  'x, y, z'
loop_
 _atom_site_type_symbol
 _atom_site_label
 _atom_site_symmetry_multiplicity
 _atom_site_fract_x
 _atom_site_fract_y
 _atom_site_fract_z
 _atom_site_occupancy
  Pr  Pr0  1  0.00000000  0.50000000  0.00000000  1
  Sm  Sm1  1  0.00000000  0.00000000  0.50000000  1
  Co  Co2  1  0.00000000  0.50000000  0.33477300  1
  Co  Co3  1  0.00000000  0.00000000  0.83247900  1
  Co  Co4  1  0.00000000  0.00000000  0.16752100  1
  Co  Co5  1  0.00000000  0.50000000  0.66522700  1
  Ni  Ni6  1  0.50000000  0.00000000  0.00000000  1
  Ni  Ni7  1  0.50000000  0.50000000  0.50000000  1
  Ni  Ni8  1  0.50000000  0.75119900  0.25124400  1
  Ni  Ni9  1  0.50000000  0.24880100  0.74875600  1
  Ni  Ni10  1  0.50000000  0.24880100  0.25124400  1
  Ni  Ni11  1  0.50000000  0.75119900  0.74875600  1
