# generated using pymatgen
data_Rb2Mo3O11
_symmetry_space_group_name_H-M   'P 1'
_cell_length_a   7.72471600
_cell_length_b   10.11666400
_cell_length_c   15.36777400
_cell_angle_alpha   90.00000000
_cell_angle_beta   90.00000000
_cell_angle_gamma   90.00000000
_symmetry_Int_Tables_number   1
_chemical_formula_structural   Rb2Mo3O11
_chemical_formula_sum   'Rb8 Mo12 O44'
_cell_volume   1200.96627759
_cell_formula_units_Z   4
loop_
 _symmetry_equiv_pos_site_id
 _symmetry_equiv_pos_as_xyz
  1  'x, y, z'
loop_
 _atom_site_type_symbol
 _atom_site_label
 _atom_site_symmetry_multiplicity
 _atom_site_fract_x
 _atom_site_fract_y
 _atom_site_fract_z
 _atom_site_occupancy
  Rb  Rb0  1  0.99986500  0.23116800  0.67159700  1
  Rb  Rb1  1  0.00013500  0.73116800  0.82840300  1
  Rb  Rb2  1  0.49986500  0.26883200  0.32840300  1
  Rb  Rb3  1  0.50013500  0.76883200  0.17159700  1
  Rb  Rb4  1  0.00123200  0.47556300  0.19457900  1
  Rb  Rb5  1  0.99876800  0.97556300  0.30542100  1
  Rb  Rb6  1  0.50123200  0.02443700  0.80542100  1
  Rb  Rb7  1  0.49876800  0.52443700  0.69457900  1
  Mo  Mo8  1  0.75049700  0.65715500  0.39865500  1
  Mo  Mo9  1  0.24950300  0.15715500  0.10134500  1
  Mo  Mo10  1  0.25049700  0.84284500  0.60134500  1
  Mo  Mo11  1  0.74950300  0.34284500  0.89865500  1
  Mo  Mo12  1  0.74941100  0.84287700  0.60148500  1
  Mo  Mo13  1  0.25058900  0.34287700  0.89851500  1
  Mo  Mo14  1  0.24941100  0.65712300  0.39851500  1
  Mo  Mo15  1  0.75058900  0.15712300  0.10148500  1
  Mo  Mo16  1  0.00015600  0.57387900  0.56657200  1
  Mo  Mo17  1  0.99984400  0.07387900  0.93342800  1
  Mo  Mo18  1  0.50015600  0.92612100  0.43342800  1
  Mo  Mo19  1  0.49984400  0.42612100  0.06657200  1
  O  O20  1  0.99995700  0.80118500  0.59500400  1
  O  O21  1  0.00004300  0.30118500  0.90499600  1
  O  O22  1  0.49995700  0.69881500  0.40499600  1
  O  O23  1  0.50004300  0.19881500  0.09500400  1
  O  O24  1  0.00001600  0.41464600  0.52346000  1
  O  O25  1  0.99998400  0.91464600  0.97654000  1
  O  O26  1  0.50001600  0.08535400  0.47654000  1
  O  O27  1  0.49998400  0.58535400  0.02346000  1
  O  O28  1  0.00009300  0.54407000  0.67945400  1
  O  O29  1  0.99990700  0.04407000  0.82054600  1
  O  O30  1  0.50009300  0.95593000  0.32054600  1
  O  O31  1  0.49990700  0.45593000  0.17945400  1
  O  O32  1  0.76290100  0.63597200  0.54469800  1
  O  O33  1  0.23709900  0.13597200  0.95530200  1
  O  O34  1  0.26290100  0.86402800  0.45530200  1
  O  O35  1  0.73709900  0.36402800  0.04469800  1
  O  O36  1  0.73683100  0.86375500  0.45516000  1
  O  O37  1  0.26316900  0.36375500  0.04484000  1
  O  O38  1  0.23683100  0.63624500  0.54484000  1
  O  O39  1  0.76316900  0.13624500  0.95516000  1
  O  O40  1  0.72352500  0.48807900  0.38290000  1
  O  O41  1  0.27647500  0.98807900  0.11710000  1
  O  O42  1  0.22352500  0.01192100  0.61710000  1
  O  O43  1  0.77647500  0.51192100  0.88290000  1
  O  O44  1  0.77628500  0.01167300  0.61735400  1
  O  O45  1  0.22371500  0.51167300  0.88264600  1
  O  O46  1  0.27628500  0.48832700  0.38264600  1
  O  O47  1  0.72371500  0.98832700  0.11735400  1
  O  O48  1  0.99986900  0.66008400  0.43049100  1
  O  O49  1  0.00013100  0.16008400  0.06950900  1
  O  O50  1  0.49986900  0.83991600  0.56950900  1
  O  O51  1  0.50013100  0.33991600  0.93049100  1
  O  O52  1  0.79368300  0.71700700  0.29334100  1
  O  O53  1  0.20631700  0.21700700  0.20665900  1
  O  O54  1  0.29368300  0.78299300  0.70665900  1
  O  O55  1  0.70631700  0.28299300  0.79334100  1
  O  O56  1  0.70624200  0.78288600  0.70669700  1
  O  O57  1  0.29375800  0.28288600  0.79330300  1
  O  O58  1  0.20624200  0.71711400  0.29330300  1
  O  O59  1  0.79375800  0.21711400  0.20669700  1
  O  O60  1  0.86883600  0.67884000  0.07017600  1
  O  O61  1  0.13116400  0.17884000  0.42982400  1
  O  O62  1  0.36883600  0.82116000  0.92982400  1
  O  O63  1  0.63116400  0.32116000  0.57017600  1
