# generated using pymatgen
data_Pr(InCu)6
_symmetry_space_group_name_H-M   'P 1'
_cell_length_a   7.13018608
_cell_length_b   7.13018608
_cell_length_c   7.13018608
_cell_angle_alpha   133.80612653
_cell_angle_beta   99.23638848
_cell_angle_gamma   98.46884295
_symmetry_Int_Tables_number   1
_chemical_formula_structural   Pr(InCu)6
_chemical_formula_sum   'Pr1 In6 Cu6'
_cell_volume   240.63077727
_cell_formula_units_Z   1
loop_
 _symmetry_equiv_pos_site_id
 _symmetry_equiv_pos_as_xyz
  1  'x, y, z'
loop_
 _atom_site_type_symbol
 _atom_site_label
 _atom_site_symmetry_multiplicity
 _atom_site_fract_x
 _atom_site_fract_y
 _atom_site_fract_z
 _atom_site_occupancy
  Pr  Pr0  1  0.00000000  0.00000000  0.00000000  1
  In  In1  1  0.66073000  0.00000000  0.66073000  1
  In  In2  1  0.33927000  0.00000000  0.33927000  1
  In  In3  1  0.65564500  0.65564500  0.00000000  1
  In  In4  1  0.34435500  0.34435500  0.00000000  1
  In  In5  1  0.18784200  0.68784200  0.50000000  1
  In  In6  1  0.81215800  0.31215800  0.50000000  1
  Cu  Cu7  1  0.00000000  0.00000000  0.50000000  1
  Cu  Cu8  1  0.00000000  0.50000000  0.00000000  1
  Cu  Cu9  1  0.50000000  0.50000000  0.50000000  1
  Cu  Cu10  1  0.50000000  0.00000000  0.00000000  1
  Cu  Cu11  1  0.23707400  0.50000000  0.73707400  1
  Cu  Cu12  1  0.76292600  0.50000000  0.26292600  1
