# generated using pymatgen
data_Rb2V3P4O17
_symmetry_space_group_name_H-M   'P 1'
_cell_length_a   7.39590700
_cell_length_b   11.71256200
_cell_length_c   17.80335500
_cell_angle_alpha   90.00000000
_cell_angle_beta   90.00000000
_cell_angle_gamma   90.00000000
_symmetry_Int_Tables_number   1
_chemical_formula_structural   Rb2V3P4O17
_chemical_formula_sum   'Rb8 V12 P16 O68'
_cell_volume   1542.21597019
_cell_formula_units_Z   4
loop_
 _symmetry_equiv_pos_site_id
 _symmetry_equiv_pos_as_xyz
  1  'x, y, z'
loop_
 _atom_site_type_symbol
 _atom_site_label
 _atom_site_symmetry_multiplicity
 _atom_site_fract_x
 _atom_site_fract_y
 _atom_site_fract_z
 _atom_site_occupancy
  Rb  Rb0  1  0.25005300  0.03437100  0.86188600  1
  Rb  Rb1  1  0.25005300  0.46562900  0.36188600  1
  Rb  Rb2  1  0.75005300  0.96562900  0.13811400  1
  Rb  Rb3  1  0.75005300  0.53437100  0.63811400  1
  Rb  Rb4  1  0.25009500  0.64476800  0.82005100  1
  Rb  Rb5  1  0.25009500  0.85523200  0.32005100  1
  Rb  Rb6  1  0.75009500  0.35523200  0.17994900  1
  Rb  Rb7  1  0.75009500  0.14476800  0.67994900  1
  V  V8  1  0.75005100  0.83791300  0.80976100  1
  V  V9  1  0.75005100  0.66208700  0.30976100  1
  V  V10  1  0.25005100  0.16208700  0.19023900  1
  V  V11  1  0.25005100  0.33791300  0.69023900  1
  V  V12  1  0.75000300  0.16181500  0.90115400  1
  V  V13  1  0.75000300  0.33818500  0.40115400  1
  V  V14  1  0.25000300  0.83818500  0.09884600  1
  V  V15  1  0.25000300  0.66181500  0.59884600  1
  V  V16  1  0.52494500  0.50144100  0.99890500  1
  V  V17  1  0.02494500  0.49855900  0.00109500  1
  V  V18  1  0.02494500  0.00144100  0.50109500  1
  V  V19  1  0.52494500  0.99855900  0.49890500  1
  P  P20  1  0.54794200  0.78742900  0.97094000  1
  P  P21  1  0.95298200  0.71300200  0.47090800  1
  P  P22  1  0.04794200  0.21257100  0.02906000  1
  P  P23  1  0.45298200  0.28699800  0.52909200  1
  P  P24  1  0.45298200  0.21300200  0.02909200  1
  P  P25  1  0.04794200  0.28742900  0.52906000  1
  P  P26  1  0.95298200  0.78699800  0.97090800  1
  P  P27  1  0.54794200  0.71257100  0.47094000  1
  P  P28  1  0.04935000  0.88676700  0.67131900  1
  P  P29  1  0.45122300  0.61324400  0.17117800  1
  P  P30  1  0.54935000  0.11323300  0.32868100  1
  P  P31  1  0.95122300  0.38675600  0.82882200  1
  P  P32  1  0.95122300  0.11324400  0.32882200  1
  P  P33  1  0.54935000  0.38676700  0.82868100  1
  P  P34  1  0.45122300  0.88675600  0.67117800  1
  P  P35  1  0.04935000  0.61323300  0.17131900  1
  O  O36  1  0.94499000  0.90519400  0.74388900  1
  O  O37  1  0.55487500  0.59494000  0.24400000  1
  O  O38  1  0.44499000  0.09480600  0.25611100  1
  O  O39  1  0.05487500  0.40506000  0.75600000  1
  O  O40  1  0.05487500  0.09494000  0.25600000  1
  O  O41  1  0.44499000  0.40519400  0.75611100  1
  O  O42  1  0.55487500  0.90506000  0.74400000  1
  O  O43  1  0.94499000  0.59480600  0.24388900  1
  O  O44  1  0.75032500  0.78922500  0.00683500  1
  O  O45  1  0.75032500  0.71077500  0.50683500  1
  O  O46  1  0.25032500  0.21077500  0.99316500  1
  O  O47  1  0.25032500  0.28922500  0.49316500  1
  O  O48  1  0.75004800  0.04548000  0.84943900  1
  O  O49  1  0.75004800  0.45452000  0.34943900  1
  O  O50  1  0.25004800  0.95452000  0.15056100  1
  O  O51  1  0.25004800  0.54548000  0.65056100  1
  O  O52  1  0.75000500  0.70591200  0.78024800  1
  O  O53  1  0.75000500  0.79408800  0.28024800  1
  O  O54  1  0.25000500  0.29408800  0.21975200  1
  O  O55  1  0.25000500  0.20591200  0.71975200  1
  O  O56  1  0.75193200  0.51112700  0.98995200  1
  O  O57  1  0.75193200  0.98887300  0.48995200  1
  O  O58  1  0.25193200  0.48887300  0.01004800  1
  O  O59  1  0.25193200  0.01112700  0.51004800  1
  O  O60  1  0.25024600  0.93161800  0.69297900  1
  O  O61  1  0.25024600  0.56838200  0.19297900  1
  O  O62  1  0.75024600  0.06838200  0.30702100  1
  O  O63  1  0.75024600  0.43161800  0.80702100  1
  O  O64  1  0.47315500  0.66637600  0.97391200  1
  O  O65  1  0.02787000  0.83364900  0.47355300  1
  O  O66  1  0.97315500  0.33362400  0.02608800  1
  O  O67  1  0.52787000  0.16635100  0.52644700  1
  O  O68  1  0.52787000  0.33364900  0.02644700  1
  O  O69  1  0.97315500  0.16637600  0.52608800  1
  O  O70  1  0.02787000  0.66635100  0.97355300  1
  O  O71  1  0.47315500  0.83362400  0.47391200  1
  O  O72  1  0.47669200  0.46437700  0.89031700  1
  O  O73  1  0.02345900  0.03553700  0.39022600  1
  O  O74  1  0.97669200  0.53562300  0.10968300  1
  O  O75  1  0.52345900  0.96446300  0.60977400  1
  O  O76  1  0.52345900  0.53553700  0.10977400  1
  O  O77  1  0.97669200  0.96437700  0.60968300  1
  O  O78  1  0.02345900  0.46446300  0.89022600  1
  O  O79  1  0.47669200  0.03562300  0.39031700  1
  O  O80  1  0.93779800  0.13138900  0.97935600  1
  O  O81  1  0.56211200  0.36864800  0.47923600  1
  O  O82  1  0.43779800  0.86861100  0.02064400  1
  O  O83  1  0.06211200  0.63135200  0.52076400  1
  O  O84  1  0.06211200  0.86864800  0.02076400  1
  O  O85  1  0.43779800  0.63138900  0.52064400  1
  O  O86  1  0.56211200  0.13135200  0.97923600  1
  O  O87  1  0.93779800  0.36861100  0.47935600  1
  O  O88  1  0.94247200  0.83373800  0.89064100  1
  O  O89  1  0.55752600  0.66614000  0.39059100  1
  O  O90  1  0.44247200  0.16626200  0.10935900  1
  O  O91  1  0.05752600  0.33386000  0.60940900  1
  O  O92  1  0.05752600  0.16614000  0.10940900  1
  O  O93  1  0.44247200  0.33373800  0.60935900  1
  O  O94  1  0.55752600  0.83386000  0.89059100  1
  O  O95  1  0.94247200  0.66626200  0.39064100  1
  O  O96  1  0.93405400  0.26063000  0.85144000  1
  O  O97  1  0.56609900  0.23934700  0.35137000  1
  O  O98  1  0.43405400  0.73937000  0.14856000  1
  O  O99  1  0.06609900  0.76065300  0.64863000  1
  O  O100  1  0.06609900  0.73934700  0.14863000  1
  O  O101  1  0.43405400  0.76063000  0.64856000  1
  O  O102  1  0.56609900  0.26065300  0.85137000  1
  O  O103  1  0.93405400  0.23937000  0.35144000  1
