# generated using pymatgen
data_Pr2Cr2Co15
_symmetry_space_group_name_H-M   'P 1'
_cell_length_a   6.32528173
_cell_length_b   6.32528173
_cell_length_c   6.29491802
_cell_angle_alpha   83.15718146
_cell_angle_beta   83.15718146
_cell_angle_gamma   83.68934881
_symmetry_Int_Tables_number   1
_chemical_formula_structural   Pr2Cr2Co15
_chemical_formula_sum   'Pr2 Cr2 Co15'
_cell_volume   247.10604107
_cell_formula_units_Z   1
loop_
 _symmetry_equiv_pos_site_id
 _symmetry_equiv_pos_as_xyz
  1  'x, y, z'
loop_
 _atom_site_type_symbol
 _atom_site_label
 _atom_site_symmetry_multiplicity
 _atom_site_fract_x
 _atom_site_fract_y
 _atom_site_fract_z
 _atom_site_occupancy
  Pr  Pr0  1  0.65231300  0.65231300  0.64907900  1
  Pr  Pr1  1  0.34768700  0.34768700  0.35092100  1
  Cr  Cr2  1  0.50000000  0.00000000  0.00000000  1
  Cr  Cr3  1  0.00000000  0.50000000  0.00000000  1
  Co  Co4  1  0.71554100  0.28445900  0.00000000  1
  Co  Co5  1  0.00013300  0.71672900  0.28310200  1
  Co  Co6  1  0.28327100  0.99986700  0.71689800  1
  Co  Co7  1  0.99986700  0.28327100  0.71689800  1
  Co  Co8  1  0.71672900  0.00013300  0.28310200  1
  Co  Co9  1  0.28445900  0.71554100  0.00000000  1
  Co  Co10  1  0.34251800  0.34251800  0.85880300  1
  Co  Co11  1  0.85751000  0.34132400  0.34180700  1
  Co  Co12  1  0.34132400  0.85751000  0.34180700  1
  Co  Co13  1  0.65748200  0.65748200  0.14119700  1
  Co  Co14  1  0.14249000  0.65867600  0.65819300  1
  Co  Co15  1  0.65867600  0.14249000  0.65819300  1
  Co  Co16  1  0.90356300  0.90356300  0.90245000  1
  Co  Co17  1  0.09643700  0.09643700  0.09755000  1
  Co  Co18  1  0.00000000  0.00000000  0.50000000  1
