# generated using pymatgen
data_NdTh
_symmetry_space_group_name_H-M   'P 1'
_cell_length_a   6.31856291
_cell_length_b   6.31856291
_cell_length_c   6.31856294
_cell_angle_alpha   32.99672158
_cell_angle_beta   32.99672158
_cell_angle_gamma   32.99673116
_symmetry_Int_Tables_number   1
_chemical_formula_structural   NdTh
_chemical_formula_sum   'Nd1 Th1'
_cell_volume   66.57967006
_cell_formula_units_Z   1
loop_
 _symmetry_equiv_pos_site_id
 _symmetry_equiv_pos_as_xyz
  1  'x, y, z'
loop_
 _atom_site_type_symbol
 _atom_site_label
 _atom_site_symmetry_multiplicity
 _atom_site_fract_x
 _atom_site_fract_y
 _atom_site_fract_z
 _atom_site_occupancy
  Nd  Nd0  1  0.00000000  0.00000000  0.00000000  1
  Th  Th1  1  0.50000000  0.50000000  0.50000000  1
