# generated using pymatgen
data_SmCd6
_symmetry_space_group_name_H-M   'P 1'
_cell_length_a   13.76611936
_cell_length_b   13.76611936
_cell_length_c   13.76611936
_cell_angle_alpha   110.61367691
_cell_angle_beta   109.64835069
_cell_angle_gamma   108.16101593
_symmetry_Int_Tables_number   1
_chemical_formula_structural   SmCd6
_chemical_formula_sum   'Sm12 Cd72'
_cell_volume   2007.29514525
_cell_formula_units_Z   12
loop_
 _symmetry_equiv_pos_site_id
 _symmetry_equiv_pos_as_xyz
  1  'x, y, z'
loop_
 _atom_site_type_symbol
 _atom_site_label
 _atom_site_symmetry_multiplicity
 _atom_site_fract_x
 _atom_site_fract_y
 _atom_site_fract_z
 _atom_site_occupancy
  Sm  Sm0  1  0.80328400  0.50528400  0.70200000  1
  Sm  Sm1  1  0.19671600  0.49471600  0.29800000  1
  Sm  Sm2  1  0.19671600  0.89871600  0.70200000  1
  Sm  Sm3  1  0.80328400  0.10128400  0.29800000  1
  Sm  Sm4  1  0.11130800  0.30301900  0.80828900  1
  Sm  Sm5  1  0.88869200  0.69698100  0.19171100  1
  Sm  Sm6  1  0.49472900  0.30301900  0.19171100  1
  Sm  Sm7  1  0.50527100  0.69698100  0.80828900  1
  Sm  Sm8  1  0.29701600  0.18737200  0.48438700  1
  Sm  Sm9  1  0.70298400  0.81262800  0.51561300  1
  Sm  Sm10  1  0.29701600  0.81262800  0.10964400  1
  Sm  Sm11  1  0.70298400  0.18737200  0.89035600  1
  Cd  Cd12  1  0.74286800  0.64632600  0.90345900  1
  Cd  Cd13  1  0.25713200  0.35367400  0.09654100  1
  Cd  Cd14  1  0.25713200  0.16059100  0.90345900  1
  Cd  Cd15  1  0.74286800  0.83940900  0.09654100  1
  Cd  Cd16  1  0.86204000  0.09023100  0.77180900  1
  Cd  Cd17  1  0.13796000  0.90976900  0.22819100  1
  Cd  Cd18  1  0.31842200  0.09023100  0.22819100  1
  Cd  Cd19  1  0.68157800  0.90976900  0.77180900  1
  Cd  Cd20  1  0.09430900  0.24040100  0.33471000  1
  Cd  Cd21  1  0.90569100  0.75959900  0.66529000  1
  Cd  Cd22  1  0.09430900  0.75959900  0.85390800  1
  Cd  Cd23  1  0.90569100  0.24040100  0.14609200  1
  Cd  Cd24  1  0.59661900  0.24117000  0.64455100  1
  Cd  Cd25  1  0.40338000  0.75883000  0.35544900  1
  Cd  Cd26  1  0.40338000  0.04793100  0.64455100  1
  Cd  Cd27  1  0.59662000  0.95206900  0.35544900  1
  Cd  Cd28  1  0.95051300  0.35438500  0.59612800  1
  Cd  Cd29  1  0.04948700  0.64561500  0.40387200  1
  Cd  Cd30  1  0.75825700  0.35438500  0.40387200  1
  Cd  Cd31  1  0.24174300  0.64561500  0.59612800  1
  Cd  Cd32  1  0.34929000  0.40136200  0.75065200  1
  Cd  Cd33  1  0.65071000  0.59863800  0.24934800  1
  Cd  Cd34  1  0.34929000  0.59863800  0.94792800  1
  Cd  Cd35  1  0.65071000  0.40136200  0.05207200  1
  Cd  Cd36  1  0.99517700  0.67364100  0.99954500  1
  Cd  Cd37  1  0.32590400  0.32635900  0.32153600  1
  Cd  Cd38  1  0.00482300  0.00436800  0.67846400  1
  Cd  Cd39  1  0.67409600  0.99563200  0.00045500  1
  Cd  Cd40  1  0.00482300  0.32635900  0.00045500  1
  Cd  Cd41  1  0.67409600  0.67364100  0.67846400  1
  Cd  Cd42  1  0.99517700  0.99563200  0.32153600  1
  Cd  Cd43  1  0.32590400  0.00436800  0.99954500  1
  Cd  Cd44  1  0.77301000  0.45015100  0.91284600  1
  Cd  Cd45  1  0.46269500  0.54984900  0.32285900  1
  Cd  Cd46  1  0.22699000  0.13983600  0.67714100  1
  Cd  Cd47  1  0.53730500  0.86016400  0.08715400  1
  Cd  Cd48  1  0.86014100  0.09200200  0.55138300  1
  Cd  Cd49  1  0.13985900  0.69124200  0.23186100  1
  Cd  Cd50  1  0.54061900  0.30875800  0.44861700  1
  Cd  Cd51  1  0.45938100  0.90799800  0.76813900  1
  Cd  Cd52  1  0.31586100  0.45493000  0.53911000  1
  Cd  Cd53  1  0.91581900  0.77675100  0.46089000  1
  Cd  Cd54  1  0.08418100  0.54507000  0.86093100  1
  Cd  Cd55  1  0.68413900  0.22324900  0.13906900  1
  Cd  Cd56  1  0.22699000  0.54984900  0.08715400  1
  Cd  Cd57  1  0.53730500  0.45015100  0.67714100  1
  Cd  Cd58  1  0.77301000  0.86016400  0.32285900  1
  Cd  Cd59  1  0.46269500  0.13983600  0.91284600  1
  Cd  Cd60  1  0.13985900  0.90799800  0.44861700  1
  Cd  Cd61  1  0.86014100  0.30875800  0.76813900  1
  Cd  Cd62  1  0.45938100  0.69124200  0.55138300  1
  Cd  Cd63  1  0.54061900  0.09200200  0.23186000  1
  Cd  Cd64  1  0.68413900  0.54507000  0.46089000  1
  Cd  Cd65  1  0.08418100  0.22324900  0.53911000  1
  Cd  Cd66  1  0.91581900  0.45493000  0.13906900  1
  Cd  Cd67  1  0.31586100  0.77675100  0.86093100  1
  Cd  Cd68  1  0.59143900  0.59143900  0.00000000  1
  Cd  Cd69  1  0.40856100  0.40856100  0.00000000  1
  Cd  Cd70  1  0.59903500  0.00000000  0.59903500  1
  Cd  Cd71  1  0.40096500  0.00000000  0.40096500  1
  Cd  Cd72  1  0.00000000  0.40336400  0.40336400  1
  Cd  Cd73  1  0.00000000  0.59663600  0.59663600  1
  Cd  Cd74  1  0.50000000  0.30063200  0.80063200  1
  Cd  Cd75  1  0.50000000  0.69936800  0.19936800  1
  Cd  Cd76  1  0.70157500  0.20157500  0.50000000  1
  Cd  Cd77  1  0.29842500  0.79842500  0.50000000  1
  Cd  Cd78  1  0.19591700  0.50000000  0.69591700  1
  Cd  Cd79  1  0.80408300  0.50000000  0.30408300  1
  Cd  Cd80  1  0.91444000  0.82108900  0.90664900  1
  Cd  Cd81  1  0.08556000  0.17891100  0.09335100  1
  Cd  Cd82  1  0.08556000  0.99220900  0.90664900  1
  Cd  Cd83  1  0.91444000  0.00779100  0.09335100  1
