# generated using pymatgen
data_Sc11Ga9
_symmetry_space_group_name_H-M   'P 1'
_cell_length_a   10.72665953
_cell_length_b   10.34930567
_cell_length_c   10.32815637
_cell_angle_alpha   62.49824936
_cell_angle_beta   58.84745365
_cell_angle_gamma   58.65429699
_symmetry_Int_Tables_number   1
_chemical_formula_structural   Sc11Ga9
_chemical_formula_sum   'Sc22 Ga18'
_cell_volume   808.36669115
_cell_formula_units_Z   2
loop_
 _symmetry_equiv_pos_site_id
 _symmetry_equiv_pos_as_xyz
  1  'x, y, z'
loop_
 _atom_site_type_symbol
 _atom_site_label
 _atom_site_symmetry_multiplicity
 _atom_site_fract_x
 _atom_site_fract_y
 _atom_site_fract_z
 _atom_site_occupancy
  Sc  Sc0  1  0.66677300  0.66677300  0.33322700  1
  Sc  Sc1  1  0.33921200  0.33921200  0.66078800  1
  Sc  Sc2  1  0.17214900  0.82631100  0.17368900  1
  Sc  Sc3  1  0.82631100  0.17214900  0.82785100  1
  Sc  Sc4  1  0.18112000  0.82503200  0.81888000  1
  Sc  Sc5  1  0.82503200  0.18112000  0.17496800  1
  Sc  Sc6  1  0.80193500  0.84216000  0.42273700  1
  Sc  Sc7  1  0.84216000  0.80193500  0.93316800  1
  Sc  Sc8  1  0.06683200  0.57726300  0.15784000  1
  Sc  Sc9  1  0.57726300  0.06683200  0.19806500  1
  Sc  Sc10  1  0.20412800  0.16632300  0.57147300  1
  Sc  Sc11  1  0.16632300  0.20412800  0.05807700  1
  Sc  Sc12  1  0.94192300  0.42852700  0.83367700  1
  Sc  Sc13  1  0.42852700  0.94192300  0.79587200  1
  Sc  Sc14  1  0.65637500  0.58235200  0.69561800  1
  Sc  Sc15  1  0.58235200  0.65637500  0.06565400  1
  Sc  Sc16  1  0.93434600  0.30438200  0.41764800  1
  Sc  Sc17  1  0.30438200  0.93434600  0.34362500  1
  Sc  Sc18  1  0.35786200  0.42247700  0.29315000  1
  Sc  Sc19  1  0.42247700  0.35786200  0.92651200  1
  Sc  Sc20  1  0.07348800  0.70685000  0.57752300  1
  Sc  Sc21  1  0.70685000  0.07348800  0.64213800  1
  Ga  Ga22  1  0.37989900  0.62807200  0.37192800  1
  Ga  Ga23  1  0.62807200  0.37989900  0.62010100  1
  Ga  Ga24  1  0.38116200  0.62504400  0.61883800  1
  Ga  Ga25  1  0.62504400  0.38116200  0.37495600  1
  Ga  Ga26  1  0.38189900  0.62780000  0.98566100  1
  Ga  Ga27  1  0.62780000  0.38189900  0.00464000  1
  Ga  Ga28  1  0.01433900  0.99536000  0.61810100  1
  Ga  Ga29  1  0.99536000  0.01433900  0.37220000  1
  Ga  Ga30  1  0.90311600  0.90311600  0.09688400  1
  Ga  Ga31  1  0.10157600  0.10157600  0.89842400  1
  Ga  Ga32  1  0.75368300  0.75368300  0.74631700  1
  Ga  Ga33  1  0.25368300  0.25368300  0.24631700  1
  Ga  Ga34  1  0.87126300  0.46868400  0.12873700  1
  Ga  Ga35  1  0.46868400  0.87126300  0.53131600  1
  Ga  Ga36  1  0.01104300  0.50820300  0.49179700  1
  Ga  Ga37  1  0.50820300  0.01104300  0.98895700  1
  Ga  Ga38  1  0.13419400  0.53516000  0.86580600  1
  Ga  Ga39  1  0.53516000  0.13419400  0.46484000  1
