# generated using pymatgen
data_Ni4Mo6CN
_symmetry_space_group_name_H-M   'P 1'
_cell_length_a   6.68561790
_cell_length_b   6.68561790
_cell_length_c   6.68197300
_cell_angle_alpha   90.00000000
_cell_angle_beta   90.00000000
_cell_angle_gamma   90.17085313
_symmetry_Int_Tables_number   1
_chemical_formula_structural   Ni4Mo6CN
_chemical_formula_sum   'Ni8 Mo12 C2 N2'
_cell_volume   298.66607159
_cell_formula_units_Z   2
loop_
 _symmetry_equiv_pos_site_id
 _symmetry_equiv_pos_as_xyz
  1  'x, y, z'
loop_
 _atom_site_type_symbol
 _atom_site_label
 _atom_site_symmetry_multiplicity
 _atom_site_fract_x
 _atom_site_fract_y
 _atom_site_fract_z
 _atom_site_occupancy
  Ni  Ni0  1  0.56823600  0.81754400  0.55702300  1
  Ni  Ni1  1  0.43176400  0.18245600  0.05702300  1
  Ni  Ni2  1  0.06774200  0.68183600  0.19279500  1
  Ni  Ni3  1  0.93225800  0.31816400  0.69279500  1
  Ni  Ni4  1  0.18245600  0.43176400  0.94297700  1
  Ni  Ni5  1  0.68183600  0.06774200  0.80720500  1
  Ni  Ni6  1  0.81754400  0.56823600  0.44297700  1
  Ni  Ni7  1  0.31816400  0.93225800  0.30720500  1
  Mo  Mo8  1  0.70136400  0.87440300  0.17426700  1
  Mo  Mo9  1  0.29863600  0.12559700  0.67426700  1
  Mo  Mo10  1  0.20009400  0.62441300  0.57567600  1
  Mo  Mo11  1  0.79990600  0.37558700  0.07567600  1
  Mo  Mo12  1  0.45203300  0.54796700  0.25000000  1
  Mo  Mo13  1  0.94975600  0.94975600  0.50000000  1
  Mo  Mo14  1  0.05024400  0.05024400  0.00000000  1
  Mo  Mo15  1  0.54796700  0.45203300  0.75000000  1
  Mo  Mo16  1  0.37558700  0.79990600  0.92432400  1
  Mo  Mo17  1  0.12559700  0.29863600  0.32573300  1
  Mo  Mo18  1  0.62441300  0.20009400  0.42432400  1
  Mo  Mo19  1  0.87440300  0.70136400  0.82573300  1
  C  C20  1  0.87353200  0.12646800  0.25000000  1
  C  C21  1  0.12646800  0.87353200  0.75000000  1
  N  N22  1  0.37642900  0.37642900  0.50000000  1
  N  N23  1  0.62357100  0.62357100  0.00000000  1
