# generated using pymatgen
data_PH9C(NO)4
_symmetry_space_group_name_H-M   'P 1'
_cell_length_a   6.91597400
_cell_length_b   7.12006596
_cell_length_c   7.52643516
_cell_angle_alpha   87.06345789
_cell_angle_beta   80.86133743
_cell_angle_gamma   79.87252404
_symmetry_Int_Tables_number   1
_chemical_formula_structural   PH9C(NO)4
_chemical_formula_sum   'P2 H18 C2 N8 O8'
_cell_volume   360.10898973
_cell_formula_units_Z   2
loop_
 _symmetry_equiv_pos_site_id
 _symmetry_equiv_pos_as_xyz
  1  'x, y, z'
loop_
 _atom_site_type_symbol
 _atom_site_label
 _atom_site_symmetry_multiplicity
 _atom_site_fract_x
 _atom_site_fract_y
 _atom_site_fract_z
 _atom_site_occupancy
  P  P0  1  0.29682900  0.75317800  0.99209900  1
  P  P1  1  0.70134400  0.24084100  0.00921800  1
  H  H2  1  0.91814100  0.75026200  0.81660300  1
  H  H3  1  0.08186900  0.24970100  0.18346100  1
  H  H4  1  0.93952700  0.77342900  0.26937800  1
  H  H5  1  0.06030000  0.22695500  0.73028400  1
  H  H6  1  0.45124700  0.49334400  0.84457500  1
  H  H7  1  0.55446600  0.50372500  0.15483300  1
  H  H8  1  0.22445800  0.69028800  0.62328300  1
  H  H9  1  0.77553800  0.30928000  0.37649400  1
  H  H10  1  0.60498100  0.70027300  0.35286100  1
  H  H11  1  0.39509700  0.30001000  0.64748500  1
  H  H12  1  0.99352800  0.01383000  0.99803200  1
  H  H13  1  0.69757900  0.78499300  0.72006200  1
  H  H14  1  0.30283900  0.21320300  0.27885600  1
  H  H15  1  0.60592000  0.92981100  0.35965800  1
  H  H16  1  0.39487500  0.07006800  0.63830300  1
  H  H17  1  0.22930100  0.70692000  0.38757800  1
  H  H18  1  0.77118200  0.29335900  0.61245300  1
  H  H19  1  0.49406000  0.98411600  0.98761300  1
  C  C20  1  0.95356100  0.75070200  0.54093900  1
  C  C21  1  0.04667600  0.24952300  0.45874000  1
  N  N22  1  0.65105300  0.80090900  0.42087000  1
  N  N23  1  0.34886800  0.19976300  0.57917000  1
  N  N24  1  0.85967200  0.76468800  0.39629600  1
  N  N25  1  0.14039500  0.23557800  0.60357800  1
  N  N26  1  0.84854400  0.75740600  0.70636700  1
  N  N27  1  0.15183900  0.24294000  0.29336200  1
  N  N28  1  0.15188000  0.73110800  0.51554100  1
  N  N29  1  0.84838900  0.26916300  0.48433900  1
  O  O30  1  0.42118100  0.90816800  0.90264400  1
  O  O31  1  0.58942200  0.08176200  0.09051400  1
  O  O32  1  0.37165000  0.66497600  0.16261500  1
  O  O33  1  0.63358000  0.33655800  0.83784200  1
  O  O34  1  0.07247300  0.83260800  0.02068300  1
  O  O35  1  0.93318300  0.16762300  0.97689600  1
  O  O36  1  0.32492400  0.59561800  0.84252600  1
  O  O37  1  0.67912800  0.40062200  0.15694800  1
