# generated using pymatgen
data_NdTl2InTe4
_symmetry_space_group_name_H-M   'P 1'
_cell_length_a   7.17533603
_cell_length_b   7.17533603
_cell_length_c   7.17533603
_cell_angle_alpha   106.59713670
_cell_angle_beta   106.59713670
_cell_angle_gamma   115.38629518
_symmetry_Int_Tables_number   1
_chemical_formula_structural   NdTl2InTe4
_chemical_formula_sum   'Nd1 Tl2 In1 Te4'
_cell_volume   282.08724060
_cell_formula_units_Z   1
loop_
 _symmetry_equiv_pos_site_id
 _symmetry_equiv_pos_as_xyz
  1  'x, y, z'
loop_
 _atom_site_type_symbol
 _atom_site_label
 _atom_site_symmetry_multiplicity
 _atom_site_fract_x
 _atom_site_fract_y
 _atom_site_fract_z
 _atom_site_occupancy
  Nd  Nd0  1  0.50000000  0.50000000  0.00000000  1
  Tl  Tl1  1  0.50000000  0.00000000  0.50000000  1
  Tl  Tl2  1  0.00000000  0.50000000  0.50000000  1
  In  In3  1  0.00000000  0.00000000  0.00000000  1
  Te  Te4  1  0.58761800  0.96153900  0.00000000  1
  Te  Te5  1  0.96153900  0.58761800  0.00000000  1
  Te  Te6  1  0.03846100  0.03846100  0.62607900  1
  Te  Te7  1  0.41238200  0.41238200  0.37392100  1
