# generated using pymatgen
data_Ni4Mo4O19
_symmetry_space_group_name_H-M   'P 1'
_cell_length_a   6.82960100
_cell_length_b   6.97032916
_cell_length_c   9.42031758
_cell_angle_alpha   76.52231060
_cell_angle_beta   83.47478017
_cell_angle_gamma   74.72891325
_symmetry_Int_Tables_number   1
_chemical_formula_structural   Ni4Mo4O19
_chemical_formula_sum   'Ni4 Mo4 O19'
_cell_volume   420.04852917
_cell_formula_units_Z   1
loop_
 _symmetry_equiv_pos_site_id
 _symmetry_equiv_pos_as_xyz
  1  'x, y, z'
loop_
 _atom_site_type_symbol
 _atom_site_label
 _atom_site_symmetry_multiplicity
 _atom_site_fract_x
 _atom_site_fract_y
 _atom_site_fract_z
 _atom_site_occupancy
  Ni  Ni0  1  0.16678300  0.64579800  0.69918800  1
  Ni  Ni1  1  0.83395100  0.35471400  0.30082400  1
  Ni  Ni2  1  0.19224100  0.83030800  0.97104000  1
  Ni  Ni3  1  0.80811400  0.16950900  0.02923700  1
  Mo  Mo4  1  0.00094200  0.19672600  0.68254700  1
  Mo  Mo5  1  0.99866300  0.80377500  0.31731900  1
  Mo  Mo6  1  0.24628200  0.29540100  0.05510900  1
  Mo  Mo7  1  0.75377800  0.70450000  0.94503400  1
  O  O8  1  0.12808800  0.13055000  0.98652700  1
  O  O9  1  0.87193900  0.86950900  0.01327600  1
  O  O10  1  0.20141900  0.54843300  0.93075500  1
  O  O11  1  0.79844800  0.45166800  0.06926300  1
  O  O12  1  0.16176400  0.36441400  0.67253900  1
  O  O13  1  0.83818600  0.63573900  0.32765800  1
  O  O14  1  0.44334200  0.60058500  0.64369900  1
  O  O15  1  0.55740600  0.40039700  0.35621300  1
  O  O16  1  0.78718000  0.25730500  0.80622300  1
  O  O17  1  0.21260300  0.74270300  0.19362500  1
  O  O18  1  0.14309600  0.92829900  0.74782400  1
  O  O19  1  0.85711800  0.07173500  0.25223900  1
  O  O20  1  0.90886600  0.22451700  0.50875300  1
  O  O21  1  0.09122000  0.77546800  0.49132400  1
  O  O22  1  0.50920900  0.19177300  0.06460200  1
  O  O23  1  0.49076700  0.80842900  0.93531500  1
  O  O24  1  0.14575800  0.31042800  0.23455500  1
  O  O25  1  0.85392600  0.68995900  0.76521800  1
  O  O26  1  0.50691100  0.00235800  0.53409500  1
