# generated using pymatgen
data_Nd3Se2NO
_symmetry_space_group_name_H-M   'P 1'
_cell_length_a   4.06448000
_cell_length_b   9.69397831
_cell_length_c   12.47490102
_cell_angle_alpha   95.81917435
_cell_angle_beta   80.62437579
_cell_angle_gamma   90.00000000
_symmetry_Int_Tables_number   1
_chemical_formula_structural   Nd3Se2NO
_chemical_formula_sum   'Nd9 Se6 N3 O3'
_cell_volume   482.38997501
_cell_formula_units_Z   3
loop_
 _symmetry_equiv_pos_site_id
 _symmetry_equiv_pos_as_xyz
  1  'x, y, z'
loop_
 _atom_site_type_symbol
 _atom_site_label
 _atom_site_symmetry_multiplicity
 _atom_site_fract_x
 _atom_site_fract_y
 _atom_site_fract_z
 _atom_site_occupancy
  Nd  Nd0  1  0.18863100  0.01282600  0.62273900  1
  Nd  Nd1  1  0.81133000  0.98770400  0.37733900  1
  Nd  Nd2  1  0.46331200  0.67731800  0.07337600  1
  Nd  Nd3  1  0.53752100  0.32021100  0.92495800  1
  Nd  Nd4  1  0.00013500  0.99193600  0.99973100  1
  Nd  Nd5  1  0.28056200  0.66829900  0.43887700  1
  Nd  Nd6  1  0.71900800  0.33222300  0.56198400  1
  Nd  Nd7  1  0.08842700  0.64478300  0.82314500  1
  Nd  Nd8  1  0.90978300  0.35469700  0.18043400  1
  Se  Se9  1  0.13235400  0.33022800  0.73529300  1
  Se  Se10  1  0.86706000  0.66429100  0.26588000  1
  Se  Se11  1  0.30911200  0.33495800  0.38177700  1
  Se  Se12  1  0.69047800  0.66625100  0.61904500  1
  Se  Se13  1  0.41264500  0.04235200  0.17471000  1
  Se  Se14  1  0.58824800  0.97424700  0.82350300  1
  N  N15  1  0.00105000  0.75574700  0.99790000  1
  N  N16  1  0.27729100  0.89761400  0.44541800  1
  N  N17  1  0.72333600  0.10321800  0.55332800  1
  O  O18  1  0.44692000  0.43242000  0.10615900  1
  O  O19  1  0.55312200  0.55644800  0.89375600  1
  O  O20  1  0.99967500  0.25223000  0.00064900  1
