# generated using pymatgen
data_NdAlCu4
_symmetry_space_group_name_H-M   'P 1'
_cell_length_a   5.33828935
_cell_length_b   5.33828935
_cell_length_c   4.05475900
_cell_angle_alpha   90.00000000
_cell_angle_beta   90.00000000
_cell_angle_gamma   119.99999192
_symmetry_Int_Tables_number   1
_chemical_formula_structural   NdAlCu4
_chemical_formula_sum   'Nd1 Al1 Cu4'
_cell_volume   100.06908604
_cell_formula_units_Z   1
loop_
 _symmetry_equiv_pos_site_id
 _symmetry_equiv_pos_as_xyz
  1  'x, y, z'
loop_
 _atom_site_type_symbol
 _atom_site_label
 _atom_site_symmetry_multiplicity
 _atom_site_fract_x
 _atom_site_fract_y
 _atom_site_fract_z
 _atom_site_occupancy
  Nd  Nd0  1  0.66666700  0.33333300  0.00000000  1
  Al  Al1  1  0.00000000  0.00000000  0.00000000  1
  Cu  Cu2  1  0.33333300  0.66666700  0.00000000  1
  Cu  Cu3  1  0.16764000  0.33527900  0.50000000  1
  Cu  Cu4  1  0.66472100  0.83236000  0.50000000  1
  Cu  Cu5  1  0.16764000  0.83236000  0.50000000  1
