# generated using pymatgen
data_Ni8B3SbO15
_symmetry_space_group_name_H-M   'P 1'
_cell_length_a   6.21312800
_cell_length_b   8.15231555
_cell_length_c   11.19197617
_cell_angle_alpha   104.50360750
_cell_angle_beta   94.14661628
_cell_angle_gamma   102.16482310
_symmetry_Int_Tables_number   1
_chemical_formula_structural   Ni8B3SbO15
_chemical_formula_sum   'Ni16 B6 Sb2 O30'
_cell_volume   531.79321830
_cell_formula_units_Z   2
loop_
 _symmetry_equiv_pos_site_id
 _symmetry_equiv_pos_as_xyz
  1  'x, y, z'
loop_
 _atom_site_type_symbol
 _atom_site_label
 _atom_site_symmetry_multiplicity
 _atom_site_fract_x
 _atom_site_fract_y
 _atom_site_fract_z
 _atom_site_occupancy
  Ni  Ni0  1  0.54942800  0.32892000  0.71147200  1
  Ni  Ni1  1  0.88201600  0.66806600  0.71354400  1
  Ni  Ni2  1  0.21568000  0.99890200  0.71377700  1
  Ni  Ni3  1  0.78432000  0.00109800  0.28622300  1
  Ni  Ni4  1  0.11798400  0.33193400  0.28645600  1
  Ni  Ni5  1  0.45057200  0.67108000  0.28852800  1
  Ni  Ni6  1  0.16701100  0.16492100  0.49790600  1
  Ni  Ni7  1  0.50000000  0.50000000  0.50000000  1
  Ni  Ni8  1  0.83298900  0.83507900  0.50209400  1
  Ni  Ni9  1  0.50000000  0.00000000  0.50000000  1
  Ni  Ni10  1  0.83359100  0.33312500  0.49990500  1
  Ni  Ni11  1  0.16640900  0.66687500  0.50009500  1
  Ni  Ni12  1  0.50000000  0.00000000  0.00000000  1
  Ni  Ni13  1  0.83330100  0.32532500  0.99819500  1
  Ni  Ni14  1  0.16669900  0.67467500  0.00180500  1
  Ni  Ni15  1  0.00000000  0.00000000  0.00000000  1
  B  B16  1  0.27368400  0.98087200  0.23658300  1
  B  B17  1  0.60663300  0.31810300  0.24131500  1
  B  B18  1  0.93970200  0.65046200  0.24110300  1
  B  B19  1  0.72631600  0.01912800  0.76341700  1
  B  B20  1  0.06029800  0.34953800  0.75889700  1
  B  B21  1  0.39336700  0.68189700  0.75868500  1
  Sb  Sb22  1  0.67469700  0.67479900  0.00033200  1
  Sb  Sb23  1  0.32530300  0.32520100  0.99966800  1
  O  O24  1  0.56364600  0.07114400  0.70248700  1
  O  O25  1  0.89600600  0.40308300  0.70490100  1
  O  O26  1  0.23036800  0.73690600  0.70489200  1
  O  O27  1  0.43635400  0.92885600  0.29751300  1
  O  O28  1  0.76963200  0.26309400  0.29510800  1
  O  O29  1  0.10399400  0.59691700  0.29509900  1
  O  O30  1  0.24323600  0.92979200  0.10329000  1
  O  O31  1  0.57468800  0.26758800  0.10423100  1
  O  O32  1  0.90563800  0.59683700  0.10356700  1
  O  O33  1  0.75676400  0.07020800  0.89671000  1
  O  O34  1  0.09436200  0.40316300  0.89643300  1
  O  O35  1  0.42531200  0.73241200  0.89576900  1
  O  O36  1  0.13889800  0.07928100  0.29662000  1
  O  O37  1  0.47025100  0.41447200  0.29678700  1
  O  O38  1  0.80213200  0.74539600  0.29662600  1
  O  O39  1  0.86110200  0.92071900  0.70338000  1
  O  O40  1  0.19786800  0.25460400  0.70337400  1
  O  O41  1  0.52974900  0.58552800  0.70321300  1
  O  O42  1  0.50752700  0.26210400  0.52943000  1
  O  O43  1  0.84085400  0.59501800  0.53067500  1
  O  O44  1  0.17307100  0.92759100  0.53089000  1
  O  O45  1  0.82692900  0.07240900  0.46911000  1
  O  O46  1  0.15914600  0.40498200  0.46932500  1
  O  O47  1  0.49247300  0.73789600  0.47057000  1
  O  O48  1  0.58659500  0.41160700  0.90998300  1
  O  O49  1  0.91930300  0.73399600  0.90595000  1
  O  O50  1  0.26495100  0.07957500  0.90634000  1
  O  O51  1  0.73504900  0.92042500  0.09366000  1
  O  O52  1  0.08069700  0.26600400  0.09405000  1
  O  O53  1  0.41340500  0.58839300  0.09001700  1
