# generated using pymatgen
data_NdFe10Mo2N
_symmetry_space_group_name_H-M   'P 1'
_cell_length_a   4.85291500
_cell_length_b   6.59134412
_cell_length_c   6.59134412
_cell_angle_alpha   98.01383951
_cell_angle_beta   111.60020003
_cell_angle_gamma   68.39979997
_symmetry_Int_Tables_number   1
_chemical_formula_structural   NdFe10Mo2N
_chemical_formula_sum   'Nd1 Fe10 Mo2 N1'
_cell_volume   182.26453250
_cell_formula_units_Z   1
loop_
 _symmetry_equiv_pos_site_id
 _symmetry_equiv_pos_as_xyz
  1  'x, y, z'
loop_
 _atom_site_type_symbol
 _atom_site_label
 _atom_site_symmetry_multiplicity
 _atom_site_fract_x
 _atom_site_fract_y
 _atom_site_fract_z
 _atom_site_occupancy
  Nd  Nd0  1  0.00000000  0.00000000  0.00000000  1
  Fe  Fe1  1  0.72075700  0.77924300  0.22075700  1
  Fe  Fe2  1  0.27924300  0.22075700  0.77924300  1
  Fe  Fe3  1  0.50000000  0.77746800  0.77746800  1
  Fe  Fe4  1  0.50000000  0.22253200  0.22253200  1
  Fe  Fe5  1  0.50000000  0.00000000  0.50000000  1
  Fe  Fe6  1  0.00000000  0.00000000  0.50000000  1
  Fe  Fe7  1  0.50000000  0.50000000  0.00000000  1
  Fe  Fe8  1  0.00000000  0.50000000  0.00000000  1
  Fe  Fe9  1  0.63916200  0.36083800  0.63916200  1
  Fe  Fe10  1  0.36083800  0.63916200  0.36083800  1
  Mo  Mo11  1  0.00000000  0.36034300  0.36034300  1
  Mo  Mo12  1  0.00000000  0.63965700  0.63965700  1
  N  N13  1  0.50000000  0.00000000  0.00000000  1
