# generated using pymatgen
data_NdThUS5
_symmetry_space_group_name_H-M   'P 1'
_cell_length_a   7.47918900
_cell_length_b   8.03242500
_cell_length_c   12.05289800
_cell_angle_alpha   90.00000000
_cell_angle_beta   90.00000000
_cell_angle_gamma   90.00000000
_symmetry_Int_Tables_number   1
_chemical_formula_structural   NdThUS5
_chemical_formula_sum   'Nd4 Th4 U4 S20'
_cell_volume   724.09019799
_cell_formula_units_Z   4
loop_
 _symmetry_equiv_pos_site_id
 _symmetry_equiv_pos_as_xyz
  1  'x, y, z'
loop_
 _atom_site_type_symbol
 _atom_site_label
 _atom_site_symmetry_multiplicity
 _atom_site_fract_x
 _atom_site_fract_y
 _atom_site_fract_z
 _atom_site_occupancy
  Nd  Nd0  1  0.97774600  0.75196900  0.93107400  1
  Nd  Nd1  1  0.52225400  0.24803100  0.43107400  1
  Nd  Nd2  1  0.02225400  0.25196900  0.56892600  1
  Nd  Nd3  1  0.47774600  0.74803100  0.06892600  1
  Th  Th4  1  0.02356800  0.75112000  0.57450500  1
  Th  Th5  1  0.47643200  0.24888000  0.07450500  1
  Th  Th6  1  0.97643200  0.25112000  0.92549500  1
  Th  Th7  1  0.52356800  0.74888000  0.42549500  1
  U  U8  1  0.43038400  0.49806900  0.75530000  1
  U  U9  1  0.06961600  0.50193100  0.25530000  1
  U  U10  1  0.56961600  0.99806900  0.74470000  1
  U  U11  1  0.93038400  0.00193100  0.24470000  1
  S  S12  1  0.66360100  0.28815200  0.65262400  1
  S  S13  1  0.83639900  0.71184800  0.15262400  1
  S  S14  1  0.33639900  0.78815200  0.84737600  1
  S  S15  1  0.16360100  0.21184800  0.34737600  1
  S  S16  1  0.33616000  0.20898600  0.85177000  1
  S  S17  1  0.16384000  0.79101400  0.35177000  1
  S  S18  1  0.66384000  0.70898600  0.64823000  1
  S  S19  1  0.83616000  0.29101400  0.14823000  1
  S  S20  1  0.30251400  0.50623200  0.53509900  1
  S  S21  1  0.19748600  0.49376800  0.03509900  1
  S  S22  1  0.69748600  0.00623200  0.96490100  1
  S  S23  1  0.80251400  0.99376800  0.46490100  1
  S  S24  1  0.67097600  0.49167400  0.93654000  1
  S  S25  1  0.82902400  0.50832600  0.43654000  1
  S  S26  1  0.32902400  0.99167400  0.56346000  1
  S  S27  1  0.17097600  0.00832600  0.06346000  1
  S  S28  1  0.04088500  0.50065700  0.75036400  1
  S  S29  1  0.45911500  0.49934300  0.25036400  1
  S  S30  1  0.95911500  0.00065700  0.74963600  1
  S  S31  1  0.54088500  0.99934300  0.24963600  1
