# generated using pymatgen
data_Nd3SOF5
_symmetry_space_group_name_H-M   'P 1'
_cell_length_a   3.84492700
_cell_length_b   9.73315100
_cell_length_c   9.77860444
_cell_angle_alpha   60.41328879
_cell_angle_beta   90.00000000
_cell_angle_gamma   90.00000000
_symmetry_Int_Tables_number   1
_chemical_formula_structural   Nd3SOF5
_chemical_formula_sum   'Nd6 S2 O2 F10'
_cell_volume   318.23115689
_cell_formula_units_Z   2
loop_
 _symmetry_equiv_pos_site_id
 _symmetry_equiv_pos_as_xyz
  1  'x, y, z'
loop_
 _atom_site_type_symbol
 _atom_site_label
 _atom_site_symmetry_multiplicity
 _atom_site_fract_x
 _atom_site_fract_y
 _atom_site_fract_z
 _atom_site_occupancy
  Nd  Nd0  1  0.00000000  0.41664300  0.86726500  1
  Nd  Nd1  1  0.00000000  0.86808100  0.72752200  1
  Nd  Nd2  1  0.00000000  0.70151600  0.41493300  1
  Nd  Nd3  1  0.50000000  0.59477400  0.10490300  1
  Nd  Nd4  1  0.50000000  0.12304000  0.28552800  1
  Nd  Nd5  1  0.50000000  0.29564000  0.59658300  1
  S  S6  1  0.00000000  0.32859600  0.33270800  1
  S  S7  1  0.50000000  0.67345100  0.66158500  1
  O  O8  1  0.00000000  0.43603500  0.61267000  1
  O  O9  1  0.00000000  0.61618200  0.94845700  1
  F  F10  1  0.00000000  0.15997800  0.12027000  1
  F  F11  1  0.00000000  0.11307200  0.72603400  1
  F  F12  1  0.00000000  0.72383100  0.16283100  1
  F  F13  1  0.50000000  0.85399400  0.88120200  1
  F  F14  1  0.50000000  0.87827000  0.28514000  1
  F  F15  1  0.50000000  0.27286900  0.85056300  1
  F  F16  1  0.00000000  0.95250600  0.43302400  1
  F  F17  1  0.50000000  0.56946600  0.37442800  1
  F  F18  1  0.50000000  0.37729700  0.04729000  1
  F  F19  1  0.50000000  0.04476000  0.56706500  1
