# generated using pymatgen
data_NdTa7O19
_symmetry_space_group_name_H-M   'P 1'
_cell_length_a   6.31078687
_cell_length_b   6.31078687
_cell_length_c   20.21671900
_cell_angle_alpha   90.00000000
_cell_angle_beta   90.00000000
_cell_angle_gamma   120.00000913
_symmetry_Int_Tables_number   1
_chemical_formula_structural   NdTa7O19
_chemical_formula_sum   'Nd2 Ta14 O38'
_cell_volume   697.28174140
_cell_formula_units_Z   2
loop_
 _symmetry_equiv_pos_site_id
 _symmetry_equiv_pos_as_xyz
  1  'x, y, z'
loop_
 _atom_site_type_symbol
 _atom_site_label
 _atom_site_symmetry_multiplicity
 _atom_site_fract_x
 _atom_site_fract_y
 _atom_site_fract_z
 _atom_site_occupancy
  Nd  Nd0  1  0.33333300  0.66666700  0.75000000  1
  Nd  Nd1  1  0.66666700  0.33333300  0.25000000  1
  Ta  Ta2  1  0.35854000  0.35496100  0.59440500  1
  Ta  Ta3  1  0.64503900  0.00357900  0.59440500  1
  Ta  Ta4  1  0.99642100  0.64146000  0.59440500  1
  Ta  Ta5  1  0.64503900  0.64146000  0.90559500  1
  Ta  Ta6  1  0.35854000  0.00357900  0.90559500  1
  Ta  Ta7  1  0.99642100  0.35496100  0.90559500  1
  Ta  Ta8  1  0.64146000  0.64503900  0.09440500  1
  Ta  Ta9  1  0.35496100  0.99642100  0.09440500  1
  Ta  Ta10  1  0.00357900  0.35854000  0.09440500  1
  Ta  Ta11  1  0.35496100  0.35854000  0.40559500  1
  Ta  Ta12  1  0.64146000  0.99642100  0.40559500  1
  Ta  Ta13  1  0.00357900  0.64503900  0.40559500  1
  Ta  Ta14  1  0.66666700  0.33333300  0.75000000  1
  Ta  Ta15  1  0.33333300  0.66666700  0.25000000  1
  O  O16  1  0.33333300  0.66666700  0.61326200  1
  O  O17  1  0.66666700  0.33333300  0.58938900  1
  O  O18  1  0.66666700  0.33333300  0.91061100  1
  O  O19  1  0.33333300  0.66666700  0.88673800  1
  O  O20  1  0.66666700  0.33333300  0.11326200  1
  O  O21  1  0.33333300  0.66666700  0.08938900  1
  O  O22  1  0.33333300  0.66666700  0.41061100  1
  O  O23  1  0.66666700  0.33333300  0.38673800  1
  O  O24  1  0.38269600  0.43175800  0.30643800  1
  O  O25  1  0.56824200  0.95093800  0.30643800  1
  O  O26  1  0.04906200  0.61730400  0.30643800  1
  O  O27  1  0.56824200  0.61730400  0.19356200  1
  O  O28  1  0.38269600  0.95093800  0.19356200  1
  O  O29  1  0.04906200  0.43175800  0.19356200  1
  O  O30  1  0.61730400  0.56824200  0.80643800  1
  O  O31  1  0.43175800  0.04906200  0.80643800  1
  O  O32  1  0.95093800  0.38269600  0.80643800  1
  O  O33  1  0.43175800  0.38269600  0.69356200  1
  O  O34  1  0.61730400  0.04906200  0.69356200  1
  O  O35  1  0.95093800  0.56824200  0.69356200  1
  O  O36  1  0.00251000  0.24370900  0.59709400  1
  O  O37  1  0.75629100  0.75880100  0.59709400  1
  O  O38  1  0.24119900  0.99749000  0.59709400  1
  O  O39  1  0.00251000  0.75880100  0.90290600  1
  O  O40  1  0.24119900  0.24370900  0.90290600  1
  O  O41  1  0.75629100  0.99749000  0.90290600  1
  O  O42  1  0.99749000  0.75629100  0.09709400  1
  O  O43  1  0.24370900  0.24119900  0.09709400  1
  O  O44  1  0.75880100  0.00251000  0.09709400  1
  O  O45  1  0.99749000  0.24119900  0.40290600  1
  O  O46  1  0.75880100  0.75629100  0.40290600  1
  O  O47  1  0.24370900  0.00251000  0.40290600  1
  O  O48  1  0.39379900  0.39379900  0.50000000  1
  O  O49  1  0.60620100  0.00000000  0.50000000  1
  O  O50  1  0.00000000  0.60620100  0.50000000  1
  O  O51  1  0.60620100  0.60620100  0.00000000  1
  O  O52  1  0.39379900  0.00000000  0.00000000  1
  O  O53  1  0.00000000  0.39379900  0.00000000  1
