# generated using pymatgen
data_Nd4S4Cl2O
_symmetry_space_group_name_H-M   'P 1'
_cell_length_a   9.27095612
_cell_length_b   9.27095612
_cell_length_c   6.91407500
_cell_angle_alpha   90.00000000
_cell_angle_beta   90.00000000
_cell_angle_gamma   120.83696210
_symmetry_Int_Tables_number   1
_chemical_formula_structural   Nd4S4Cl2O
_chemical_formula_sum   'Nd8 S8 Cl4 O2'
_cell_volume   510.25690356
_cell_formula_units_Z   2
loop_
 _symmetry_equiv_pos_site_id
 _symmetry_equiv_pos_as_xyz
  1  'x, y, z'
loop_
 _atom_site_type_symbol
 _atom_site_label
 _atom_site_symmetry_multiplicity
 _atom_site_fract_x
 _atom_site_fract_y
 _atom_site_fract_z
 _atom_site_occupancy
  Nd  Nd0  1  0.80418200  0.19581800  0.23692800  1
  Nd  Nd1  1  0.39348700  0.19209600  0.25898300  1
  Nd  Nd2  1  0.80790400  0.60651300  0.25898300  1
  Nd  Nd3  1  0.19581800  0.80418200  0.73692800  1
  Nd  Nd4  1  0.60651300  0.80790400  0.75898300  1
  Nd  Nd5  1  0.19209600  0.39348700  0.75898300  1
  Nd  Nd6  1  0.68043900  0.31956100  0.78612500  1
  Nd  Nd7  1  0.31956100  0.68043900  0.28612500  1
  S  S8  1  0.53887200  0.46112800  0.53485800  1
  S  S9  1  0.94405300  0.46798900  0.52175400  1
  S  S10  1  0.53201100  0.05594700  0.52175400  1
  S  S11  1  0.46112800  0.53887200  0.03485800  1
  S  S12  1  0.05594700  0.53201100  0.02175400  1
  S  S13  1  0.46798900  0.94405300  0.02175400  1
  S  S14  1  0.86545200  0.13454800  0.85914700  1
  S  S15  1  0.13454800  0.86545200  0.35914700  1
  Cl  Cl16  1  0.26472200  0.13353000  0.86258900  1
  Cl  Cl17  1  0.86647000  0.73527800  0.86258900  1
  Cl  Cl18  1  0.73527800  0.86647000  0.36258900  1
  Cl  Cl19  1  0.13353000  0.26472200  0.36258900  1
  O  O20  1  0.66732200  0.33267800  0.13094300  1
  O  O21  1  0.33267800  0.66732200  0.63094300  1
