# generated using pymatgen
data_Ni11(GeTe2)2
_symmetry_space_group_name_H-M   'P 1'
_cell_length_a   3.70428200
_cell_length_b   3.70428200
_cell_length_c   19.04807900
_cell_angle_alpha   90.00000000
_cell_angle_beta   90.00000000
_cell_angle_gamma   90.00000000
_symmetry_Int_Tables_number   1
_chemical_formula_structural   Ni11(GeTe2)2
_chemical_formula_sum   'Ni11 Ge2 Te4'
_cell_volume   261.37212344
_cell_formula_units_Z   1
loop_
 _symmetry_equiv_pos_site_id
 _symmetry_equiv_pos_as_xyz
  1  'x, y, z'
loop_
 _atom_site_type_symbol
 _atom_site_label
 _atom_site_symmetry_multiplicity
 _atom_site_fract_x
 _atom_site_fract_y
 _atom_site_fract_z
 _atom_site_occupancy
  Ni  Ni0  1  0.00000000  0.50000000  0.41267400  1
  Ni  Ni1  1  0.50000000  0.00000000  0.91136100  1
  Ni  Ni2  1  0.50000000  0.00000000  0.41267400  1
  Ni  Ni3  1  0.00000000  0.50000000  0.91136100  1
  Ni  Ni4  1  0.50000000  0.00000000  0.08921900  1
  Ni  Ni5  1  0.00000000  0.50000000  0.58893400  1
  Ni  Ni6  1  0.00000000  0.50000000  0.08921900  1
  Ni  Ni7  1  0.50000000  0.00000000  0.58893400  1
  Ni  Ni8  1  0.50000000  0.50000000  0.00007100  1
  Ni  Ni9  1  0.00000000  0.00000000  0.50099200  1
  Ni  Ni10  1  0.50000000  0.50000000  0.30910600  1
  Ge  Ge11  1  0.00000000  0.00000000  0.00008300  1
  Ge  Ge12  1  0.50000000  0.50000000  0.50032700  1
  Te  Te13  1  0.00000000  0.00000000  0.31721600  1
  Te  Te14  1  0.50000000  0.50000000  0.82197300  1
  Te  Te15  1  0.50000000  0.50000000  0.17738200  1
  Te  Te16  1  0.00000000  0.00000000  0.67807400  1
