# generated using pymatgen
data_Nd3Ga5SiO14
_symmetry_space_group_name_H-M   'P 1'
_cell_length_a   5.12443500
_cell_length_b   8.17667600
_cell_length_c   8.17658194
_cell_angle_alpha   60.00013766
_cell_angle_beta   89.99969690
_cell_angle_gamma   90.00018054
_symmetry_Int_Tables_number   1
_chemical_formula_structural   Nd3Ga5SiO14
_chemical_formula_sum   'Nd3 Ga5 Si1 O14'
_cell_volume   296.70564252
_cell_formula_units_Z   1
loop_
 _symmetry_equiv_pos_site_id
 _symmetry_equiv_pos_as_xyz
  1  'x, y, z'
loop_
 _atom_site_type_symbol
 _atom_site_label
 _atom_site_symmetry_multiplicity
 _atom_site_fract_x
 _atom_site_fract_y
 _atom_site_fract_z
 _atom_site_occupancy
  Nd  Nd0  1  0.00306100  0.57807800  0.00932900  1
  Nd  Nd1  1  0.00306500  0.41260100  0.57809000  1
  Nd  Nd2  1  0.00306100  0.00933200  0.41259300  1
  Ga  Ga3  1  0.49316100  0.23780000  0.99793400  1
  Ga  Ga4  1  0.49316400  0.76427100  0.23780500  1
  Ga  Ga5  1  0.49316100  0.99793100  0.76426200  1
  Ga  Ga6  1  0.99677600  0.99999900  0.99999800  1
  Ga  Ga7  1  0.47183900  0.33334400  0.33333000  1
  Si  Si8  1  0.54682300  0.66665500  0.66667300  1
  O  O9  1  0.82658400  0.33334500  0.33332800  1
  O  O10  1  0.22899700  0.66664500  0.66667700  1
  O  O11  1  0.23670100  0.84926800  0.92802900  1
  O  O12  1  0.23670000  0.22269500  0.84926600  1
  O  O13  1  0.23669800  0.92803600  0.22270500  1
  O  O14  1  0.76109700  0.14198400  0.77389300  1
  O  O15  1  0.76108900  0.08411700  0.14198500  1
  O  O16  1  0.76109100  0.77390600  0.08411400  1
  O  O17  1  0.68401900  0.84437300  0.67946800  1
  O  O18  1  0.68403300  0.47614800  0.84437900  1
  O  O19  1  0.68402600  0.67946100  0.47615500  1
  O  O20  1  0.29829400  0.14108900  0.54024700  1
  O  O21  1  0.29828100  0.31866300  0.14108700  1
  O  O22  1  0.29827800  0.54026000  0.31865500  1
