# generated using pymatgen
data_Nd2FeSb4
_symmetry_space_group_name_H-M   'P 1'
_cell_length_a   4.43058900
_cell_length_b   4.43058900
_cell_length_c   9.59720000
_cell_angle_alpha   90.00000000
_cell_angle_beta   90.00000000
_cell_angle_gamma   90.00000000
_symmetry_Int_Tables_number   1
_chemical_formula_structural   Nd2FeSb4
_chemical_formula_sum   'Nd2 Fe1 Sb4'
_cell_volume   188.39417698
_cell_formula_units_Z   1
loop_
 _symmetry_equiv_pos_site_id
 _symmetry_equiv_pos_as_xyz
  1  'x, y, z'
loop_
 _atom_site_type_symbol
 _atom_site_label
 _atom_site_symmetry_multiplicity
 _atom_site_fract_x
 _atom_site_fract_y
 _atom_site_fract_z
 _atom_site_occupancy
  Nd  Nd0  1  0.00000000  0.50000000  0.23843700  1
  Nd  Nd1  1  0.50000000  0.00000000  0.76156300  1
  Fe  Fe2  1  0.50000000  0.50000000  0.00000000  1
  Sb  Sb3  1  0.00000000  0.50000000  0.87603200  1
  Sb  Sb4  1  0.50000000  0.00000000  0.12396800  1
  Sb  Sb5  1  0.50000000  0.50000000  0.50000000  1
  Sb  Sb6  1  0.00000000  0.00000000  0.50000000  1
