# generated using pymatgen
data_NbB4Mo3
_symmetry_space_group_name_H-M   'P 1'
_cell_length_a   4.58767350
_cell_length_b   4.58767350
_cell_length_c   6.21555100
_cell_angle_alpha   90.00000000
_cell_angle_beta   90.00000000
_cell_angle_gamma   139.09588243
_symmetry_Int_Tables_number   1
_chemical_formula_structural   NbB4Mo3
_chemical_formula_sum   'Nb1 B4 Mo3'
_cell_volume   85.65842403
_cell_formula_units_Z   1
loop_
 _symmetry_equiv_pos_site_id
 _symmetry_equiv_pos_as_xyz
  1  'x, y, z'
loop_
 _atom_site_type_symbol
 _atom_site_label
 _atom_site_symmetry_multiplicity
 _atom_site_fract_x
 _atom_site_fract_y
 _atom_site_fract_z
 _atom_site_occupancy
  Nb  Nb0  1  0.85339200  0.14660800  0.00000000  1
  B  B1  1  0.55924900  0.44075100  0.00000000  1
  B  B2  1  0.55992600  0.44007400  0.50000000  1
  B  B3  1  0.44159300  0.55840700  0.25248800  1
  B  B4  1  0.44159300  0.55840700  0.74751200  1
  Mo  Mo5  1  0.85580200  0.14419800  0.50000000  1
  Mo  Mo6  1  0.14422200  0.85577800  0.25416900  1
  Mo  Mo7  1  0.14422200  0.85577800  0.74583100  1
