# generated using pymatgen
data_Nd2Ge3Pt
_symmetry_space_group_name_H-M   'P 1'
_cell_length_a   4.20624200
_cell_length_b   4.38638900
_cell_length_c   7.36385700
_cell_angle_alpha   90.00000000
_cell_angle_beta   90.00000000
_cell_angle_gamma   90.00000000
_symmetry_Int_Tables_number   1
_chemical_formula_structural   Nd2Ge3Pt
_chemical_formula_sum   'Nd2 Ge3 Pt1'
_cell_volume   135.86473487
_cell_formula_units_Z   1
loop_
 _symmetry_equiv_pos_site_id
 _symmetry_equiv_pos_as_xyz
  1  'x, y, z'
loop_
 _atom_site_type_symbol
 _atom_site_label
 _atom_site_symmetry_multiplicity
 _atom_site_fract_x
 _atom_site_fract_y
 _atom_site_fract_z
 _atom_site_occupancy
  Nd  Nd0  1  0.00000000  0.50000000  0.00203100  1
  Nd  Nd1  1  0.00000000  0.00000000  0.49793800  1
  Ge  Ge2  1  0.50000000  0.00000000  0.83444400  1
  Ge  Ge3  1  0.50000000  0.00000000  0.17564000  1
  Ge  Ge4  1  0.50000000  0.50000000  0.66074900  1
  Pt  Pt5  1  0.50000000  0.50000000  0.32919800  1
