# generated using pymatgen
data_Nb6AlSn
_symmetry_space_group_name_H-M   'P 1'
_cell_length_a   5.27176600
_cell_length_b   5.27176600
_cell_length_c   5.27176600
_cell_angle_alpha   90.00000000
_cell_angle_beta   90.00000000
_cell_angle_gamma   90.00000000
_symmetry_Int_Tables_number   1
_chemical_formula_structural   Nb6AlSn
_chemical_formula_sum   'Nb6 Al1 Sn1'
_cell_volume   146.51037314
_cell_formula_units_Z   1
loop_
 _symmetry_equiv_pos_site_id
 _symmetry_equiv_pos_as_xyz
  1  'x, y, z'
loop_
 _atom_site_type_symbol
 _atom_site_label
 _atom_site_symmetry_multiplicity
 _atom_site_fract_x
 _atom_site_fract_y
 _atom_site_fract_z
 _atom_site_occupancy
  Nb  Nb0  1  0.00000000  0.50000000  0.74094900  1
  Nb  Nb1  1  0.50000000  0.25905100  0.00000000  1
  Nb  Nb2  1  0.74094900  0.00000000  0.50000000  1
  Nb  Nb3  1  0.00000000  0.50000000  0.25905100  1
  Nb  Nb4  1  0.50000000  0.74094900  0.00000000  1
  Nb  Nb5  1  0.25905100  0.00000000  0.50000000  1
  Al  Al6  1  0.50000000  0.50000000  0.50000000  1
  Sn  Sn7  1  0.00000000  0.00000000  0.00000000  1
