# generated using pymatgen
data_Nb6CdS8
_symmetry_space_group_name_H-M   'P 1'
_cell_length_a   9.71146441
_cell_length_b   9.71146441
_cell_length_c   3.38033800
_cell_angle_alpha   90.00000000
_cell_angle_beta   90.00000000
_cell_angle_gamma   120.00000276
_symmetry_Int_Tables_number   1
_chemical_formula_structural   Nb6CdS8
_chemical_formula_sum   'Nb6 Cd1 S8'
_cell_volume   276.09604950
_cell_formula_units_Z   1
loop_
 _symmetry_equiv_pos_site_id
 _symmetry_equiv_pos_as_xyz
  1  'x, y, z'
loop_
 _atom_site_type_symbol
 _atom_site_label
 _atom_site_symmetry_multiplicity
 _atom_site_fract_x
 _atom_site_fract_y
 _atom_site_fract_z
 _atom_site_occupancy
  Nb  Nb0  1  0.11373400  0.62745000  0.24989300  1
  Nb  Nb1  1  0.51371600  0.88626600  0.24989300  1
  Nb  Nb2  1  0.37255000  0.48628400  0.24989300  1
  Nb  Nb3  1  0.88626600  0.37255000  0.75010700  1
  Nb  Nb4  1  0.48628400  0.11373400  0.75010700  1
  Nb  Nb5  1  0.62745000  0.51371600  0.75010700  1
  Cd  Cd6  1  0.00000000  0.00000000  0.50000000  1
  S  S7  1  0.66666700  0.33333300  0.24994000  1
  S  S8  1  0.33333300  0.66666700  0.75006000  1
  S  S9  1  0.28734300  0.94342100  0.25033600  1
  S  S10  1  0.65607900  0.71265700  0.25033600  1
  S  S11  1  0.05657900  0.34392100  0.25033600  1
  S  S12  1  0.71265700  0.05657900  0.74966400  1
  S  S13  1  0.34392100  0.28734300  0.74966400  1
  S  S14  1  0.94342100  0.65607900  0.74966400  1
