# generated using pymatgen
data_Nd2TiCuO6
_symmetry_space_group_name_H-M   'P 1'
_cell_length_a   5.83780400
_cell_length_b   5.50165100
_cell_length_c   9.39961241
_cell_angle_alpha   54.04174938
_cell_angle_beta   90.00000000
_cell_angle_gamma   90.00000000
_symmetry_Int_Tables_number   1
_chemical_formula_structural   Nd2TiCuO6
_chemical_formula_sum   'Nd4 Ti2 Cu2 O12'
_cell_volume   244.36549336
_cell_formula_units_Z   2
loop_
 _symmetry_equiv_pos_site_id
 _symmetry_equiv_pos_as_xyz
  1  'x, y, z'
loop_
 _atom_site_type_symbol
 _atom_site_label
 _atom_site_symmetry_multiplicity
 _atom_site_fract_x
 _atom_site_fract_y
 _atom_site_fract_z
 _atom_site_occupancy
  Nd  Nd0  1  0.06828300  0.76354800  0.75101600  1
  Nd  Nd1  1  0.56828300  0.23645200  0.74898400  1
  Nd  Nd2  1  0.93171700  0.23645200  0.24898400  1
  Nd  Nd3  1  0.43171700  0.76354800  0.25101600  1
  Ti  Ti4  1  0.50000000  0.00000000  0.50000000  1
  Ti  Ti5  1  0.00000000  0.00000000  0.00000000  1
  Cu  Cu6  1  0.50000000  0.50000000  0.00000000  1
  Cu  Cu7  1  0.00000000  0.50000000  0.50000000  1
  O  O8  1  0.46835100  0.65154600  0.75166900  1
  O  O9  1  0.96835100  0.34845400  0.74833100  1
  O  O10  1  0.53164900  0.34845400  0.24833100  1
  O  O11  1  0.03164900  0.65154600  0.25166900  1
  O  O12  1  0.81933600  0.75968800  0.95170000  1
  O  O13  1  0.31933600  0.24031200  0.54830000  1
  O  O14  1  0.21293000  0.86634400  0.44907800  1
  O  O15  1  0.71293000  0.13365600  0.05092200  1
  O  O16  1  0.18066400  0.24031200  0.04830000  1
  O  O17  1  0.68066400  0.75968800  0.45170000  1
  O  O18  1  0.78707000  0.13365600  0.55092200  1
  O  O19  1  0.28707000  0.86634400  0.94907800  1
