# generated using pymatgen
data_Os4SeS11Cl8
_symmetry_space_group_name_H-M   'P 1'
_cell_length_a   9.26368902
_cell_length_b   11.23612400
_cell_length_c   12.42861843
_cell_angle_alpha   90.00000000
_cell_angle_beta   90.68348937
_cell_angle_gamma   90.00000000
_symmetry_Int_Tables_number   1
_chemical_formula_structural   Os4SeS11Cl8
_chemical_formula_sum   'Os8 Se2 S22 Cl16'
_cell_volume   1293.57747294
_cell_formula_units_Z   2
loop_
 _symmetry_equiv_pos_site_id
 _symmetry_equiv_pos_as_xyz
  1  'x, y, z'
loop_
 _atom_site_type_symbol
 _atom_site_label
 _atom_site_symmetry_multiplicity
 _atom_site_fract_x
 _atom_site_fract_y
 _atom_site_fract_z
 _atom_site_occupancy
  Os  Os0  1  0.95335400  0.37075900  0.09185000  1
  Os  Os1  1  0.54664600  0.87075900  0.40815000  1
  Os  Os2  1  0.44858600  0.63062600  0.40837600  1
  Os  Os3  1  0.05141400  0.13062600  0.09162400  1
  Os  Os4  1  0.05233400  0.63148400  0.90798300  1
  Os  Os5  1  0.44766600  0.13148400  0.59201700  1
  Os  Os6  1  0.54949700  0.36873700  0.59225200  1
  Os  Os7  1  0.95050300  0.86873700  0.90774800  1
  Se  Se8  1  0.79947000  0.19785600  0.05010500  1
  Se  Se9  1  0.70053000  0.69785600  0.44989400  1
  S  S10  1  0.96474100  0.33446600  0.26693700  1
  S  S11  1  0.53525900  0.83446600  0.23306300  1
  S  S12  1  0.46653900  0.66370300  0.23400300  1
  S  S13  1  0.03346100  0.16370300  0.26599700  1
  S  S14  1  0.03608300  0.66526800  0.73266500  1
  S  S15  1  0.46391700  0.16526800  0.76733500  1
  S  S16  1  0.53724800  0.33505300  0.76753500  1
  S  S17  1  0.96275200  0.83505300  0.73246500  1
  S  S18  1  0.64437900  0.16080400  0.17174700  1
  S  S19  1  0.85562100  0.66080400  0.32825300  1
  S  S20  1  0.14841000  0.83604900  0.34302300  1
  S  S21  1  0.35159000  0.33604900  0.15697700  1
  S  S22  1  0.34615000  0.83916200  0.84297500  1
  S  S23  1  0.15385000  0.33916200  0.65702500  1
  S  S24  1  0.84602900  0.16109900  0.65684400  1
  S  S25  1  0.65397100  0.66109900  0.84315600  1
  S  S26  1  0.31344300  0.80004800  0.43661100  1
  S  S27  1  0.18655700  0.30004800  0.06338900  1
  S  S28  1  0.18704600  0.80115000  0.93780100  1
  S  S29  1  0.31295400  0.30115000  0.56219900  1
  S  S30  1  0.68353700  0.19903900  0.56273700  1
  S  S31  1  0.81646300  0.69903900  0.93726300  1
  Cl  Cl32  1  0.94925900  0.92722400  0.10369800  1
  Cl  Cl33  1  0.55074100  0.42722400  0.39630200  1
  Cl  Cl34  1  0.44204100  0.07322200  0.39569300  1
  Cl  Cl35  1  0.05795900  0.57322200  0.10430700  1
  Cl  Cl36  1  0.05495900  0.07102500  0.89453700  1
  Cl  Cl37  1  0.44504100  0.57102500  0.60546300  1
  Cl  Cl38  1  0.55284600  0.92912700  0.60488400  1
  Cl  Cl39  1  0.94715400  0.42912700  0.89511600  1
  Cl  Cl40  1  0.73124500  0.47289800  0.10960900  1
  Cl  Cl41  1  0.76875500  0.97289800  0.39039100  1
  Cl  Cl42  1  0.22499200  0.53231400  0.39199400  1
  Cl  Cl43  1  0.27500800  0.03231400  0.10800600  1
  Cl  Cl44  1  0.27504900  0.53187600  0.89324800  1
  Cl  Cl45  1  0.22495100  0.03187600  0.60675200  1
  Cl  Cl46  1  0.77428600  0.46701100  0.60775800  1
  Cl  Cl47  1  0.72571400  0.96701100  0.89224200  1
