# generated using pymatgen
data_Nb4Fe(CS2)2
_symmetry_space_group_name_H-M   'P 1'
_cell_length_a   3.31923600
_cell_length_b   5.74315800
_cell_length_c   8.79874074
_cell_angle_alpha   77.82371729
_cell_angle_beta   90.00000000
_cell_angle_gamma   90.00000000
_symmetry_Int_Tables_number   1
_chemical_formula_structural   Nb4Fe(CS2)2
_chemical_formula_sum   'Nb4 Fe1 C2 S4'
_cell_volume   163.95612456
_cell_formula_units_Z   1
loop_
 _symmetry_equiv_pos_site_id
 _symmetry_equiv_pos_as_xyz
  1  'x, y, z'
loop_
 _atom_site_type_symbol
 _atom_site_label
 _atom_site_symmetry_multiplicity
 _atom_site_fract_x
 _atom_site_fract_y
 _atom_site_fract_z
 _atom_site_occupancy
  Nb  Nb0  1  0.50000000  0.62558100  0.63491200  1
  Nb  Nb1  1  0.00000000  0.11923400  0.63338100  1
  Nb  Nb2  1  0.50000000  0.37441900  0.36508800  1
  Nb  Nb3  1  0.00000000  0.88076600  0.36661900  1
  Fe  Fe4  1  0.00000000  0.00000000  0.00000000  1
  C  C5  1  0.00000000  0.50000000  0.50000000  1
  C  C6  1  0.50000000  0.00000000  0.50000000  1
  S  S7  1  0.50000000  0.77281900  0.16783900  1
  S  S8  1  0.00000000  0.27596200  0.16966400  1
  S  S9  1  0.50000000  0.22718100  0.83216100  1
  S  S10  1  0.00000000  0.72403800  0.83033600  1
