data_image0
_chemical_formula_structural       Fe6N3
_chemical_formula_sum              "Fe6 N3"
_cell_length_a       4.72102
_cell_length_b       4.72093
_cell_length_c       4.31943
_cell_angle_alpha    90.0151
_cell_angle_beta     89.9924
_cell_angle_gamma    119.999

_space_group_name_H-M_alt    "P 1"
_space_group_IT_number       1

loop_
  _space_group_symop_operation_xyz
  'x, y, z'

loop_
  _atom_site_type_symbol
  _atom_site_label
  _atom_site_symmetry_multiplicity
  _atom_site_fract_x
  _atom_site_fract_y
  _atom_site_fract_z
  _atom_site_occupancy
  Fe  Fe1       1.0  0.33100  1.00000  0.25100  1.0000
  Fe  Fe2       1.0  0.66900  0.66900  0.25100  1.0000
  Fe  Fe3       1.0  0.00000  0.33100  0.25100  1.0000
  Fe  Fe4       1.0  0.00000  0.66900  0.74900  1.0000
  Fe  Fe5       1.0  0.66900  0.00001  0.74900  1.0000
  Fe  Fe6       1.0  0.33100  0.33100  0.74900  1.0000
  N   N1        1.0  0.00000  0.00000  0.00000  1.0000
  N   N2        1.0  0.66700  0.33300  0.50000  1.0000
  N   N3        1.0  0.33300  0.66700  0.50000  1.0000
