# generated using pymatgen
data_Rb2U3P4H4O19
_symmetry_space_group_name_H-M   'P 1'
_cell_length_a   9.78419159
_cell_length_b   9.78419159
_cell_length_c   11.32014129
_cell_angle_alpha   83.86669469
_cell_angle_beta   83.86669469
_cell_angle_gamma   65.17535898
_symmetry_Int_Tables_number   1
_chemical_formula_structural   Rb2U3P4H4O19
_chemical_formula_sum   'Rb4 U6 P8 H8 O38'
_cell_volume   975.60672905
_cell_formula_units_Z   2
loop_
 _symmetry_equiv_pos_site_id
 _symmetry_equiv_pos_as_xyz
  1  'x, y, z'
loop_
 _atom_site_type_symbol
 _atom_site_label
 _atom_site_symmetry_multiplicity
 _atom_site_fract_x
 _atom_site_fract_y
 _atom_site_fract_z
 _atom_site_occupancy
  Rb  Rb0  1  0.51716500  0.95719400  0.67917000  1
  Rb  Rb1  1  0.04232800  0.48306100  0.82031400  1
  Rb  Rb2  1  0.48306100  0.04232800  0.32031400  1
  Rb  Rb3  1  0.95719400  0.51716500  0.17917000  1
  U  U4  1  0.52982500  0.46600400  0.24900300  1
  U  U5  1  0.46600400  0.52982500  0.74900300  1
  U  U6  1  0.92657700  0.73727500  0.48878300  1
  U  U7  1  0.26329200  0.07126300  0.00786500  1
  U  U8  1  0.07126300  0.26329200  0.50786500  1
  U  U9  1  0.73727500  0.92657700  0.98878300  1
  P  P10  1  0.69277300  0.59837100  0.46699000  1
  P  P11  1  0.40521800  0.30195300  0.03247400  1
  P  P12  1  0.30195300  0.40521800  0.53247400  1
  P  P13  1  0.59837100  0.69277300  0.96699000  1
  P  P14  1  0.83548700  0.25297800  0.03035500  1
  P  P15  1  0.74592000  0.16425700  0.46747700  1
  P  P16  1  0.16425700  0.74592000  0.96747700  1
  P  P17  1  0.25297800  0.83548700  0.53035500  1
  H  H18  1  0.77895900  0.34619300  0.92750000  1
  H  H19  1  0.65298400  0.22163000  0.57009300  1
  H  H20  1  0.22163000  0.65298400  0.07009300  1
  H  H21  1  0.34619300  0.77895900  0.42750000  1
  H  H22  1  0.93232200  0.05343900  0.21966400  1
  H  H23  1  0.94675300  0.06720200  0.27979600  1
  H  H24  1  0.06720200  0.94675300  0.77979600  1
  H  H25  1  0.05343900  0.93232200  0.71966400  1
  O  O26  1  0.00292900  0.22262600  0.02718700  1
  O  O27  1  0.77642300  0.99687600  0.47127400  1
  O  O28  1  0.99687600  0.77642300  0.97127400  1
  O  O29  1  0.22262600  0.00292900  0.52718700  1
  O  O30  1  0.87138800  0.72916100  0.64748500  1
  O  O31  1  0.26875200  0.12816800  0.84954400  1
  O  O32  1  0.12816800  0.26875200  0.34954400  1
  O  O33  1  0.72916100  0.87138800  0.14748500  1
  O  O34  1  0.61596800  0.54938000  0.57687100  1
  O  O35  1  0.45447700  0.38906700  0.93043400  1
  O  O36  1  0.38906700  0.45447700  0.43043400  1
  O  O37  1  0.54938000  0.61596800  0.07687100  1
  O  O38  1  0.63757000  0.56708300  0.35097800  1
  O  O39  1  0.44322200  0.33911000  0.15387200  1
  O  O40  1  0.33911000  0.44322200  0.65387200  1
  O  O41  1  0.56708300  0.63757000  0.85097800  1
  O  O42  1  0.66946900  0.76519000  0.46194900  1
  O  O43  1  0.23761700  0.32893900  0.03586000  1
  O  O44  1  0.32893900  0.23761700  0.53586000  1
  O  O45  1  0.76519000  0.66946900  0.96194900  1
  O  O46  1  0.80616500  0.11174600  0.02626500  1
  O  O47  1  0.88731900  0.19356400  0.47012100  1
  O  O48  1  0.19356400  0.88731900  0.97012100  1
  O  O49  1  0.11174600  0.80616500  0.52626500  1
  O  O50  1  0.74774900  0.34348200  0.14015200  1
  O  O51  1  0.65526000  0.25115400  0.35737200  1
  O  O52  1  0.25115400  0.65526000  0.85737200  1
  O  O53  1  0.34348200  0.74774900  0.64015200  1
  O  O54  1  0.98202900  0.73005100  0.33144200  1
  O  O55  1  0.27317400  0.01433800  0.16511000  1
  O  O56  1  0.01433800  0.27317400  0.66511000  1
  O  O57  1  0.73005100  0.98202900  0.83144200  1
  O  O58  1  0.86863500  0.51053600  0.46282400  1
  O  O59  1  0.48956100  0.12653800  0.02630400  1
  O  O60  1  0.12653800  0.48956100  0.52630400  1
  O  O61  1  0.51053600  0.86863500  0.96282400  1
  O  O62  1  0.34843800  0.62882400  0.24217400  1
  O  O63  1  0.62882400  0.34843800  0.74217400  1
