# generated using pymatgen
data_Nd9Ga5Se21
_symmetry_space_group_name_H-M   'P 1'
_cell_length_a   12.30169198
_cell_length_b   12.30169198
_cell_length_c   12.30169151
_cell_angle_alpha   96.05092442
_cell_angle_beta   96.05092442
_cell_angle_gamma   96.05092604
_symmetry_Int_Tables_number   1
_chemical_formula_structural   Nd9Ga5Se21
_chemical_formula_sum   'Nd18 Ga10 Se42'
_cell_volume   1828.12371255
_cell_formula_units_Z   2
loop_
 _symmetry_equiv_pos_site_id
 _symmetry_equiv_pos_as_xyz
  1  'x, y, z'
loop_
 _atom_site_type_symbol
 _atom_site_label
 _atom_site_symmetry_multiplicity
 _atom_site_fract_x
 _atom_site_fract_y
 _atom_site_fract_z
 _atom_site_occupancy
  Nd  Nd0  1  0.11554900  0.88194900  0.74499200  1
  Nd  Nd1  1  0.45478800  0.22129700  0.08131200  1
  Nd  Nd2  1  0.78195500  0.55156800  0.40991100  1
  Nd  Nd3  1  0.40991100  0.78195500  0.55156800  1
  Nd  Nd4  1  0.74499200  0.11554900  0.88194900  1
  Nd  Nd5  1  0.08131200  0.45478800  0.22129700  1
  Nd  Nd6  1  0.22129700  0.08131200  0.45478800  1
  Nd  Nd7  1  0.55156800  0.40991100  0.78195500  1
  Nd  Nd8  1  0.88194900  0.74499200  0.11554900  1
  Nd  Nd9  1  0.21293000  0.44529200  0.58353000  1
  Nd  Nd10  1  0.55010300  0.78310100  0.92405600  1
  Nd  Nd11  1  0.88033500  0.11221900  0.25182400  1
  Nd  Nd12  1  0.92405600  0.55010300  0.78310100  1
  Nd  Nd13  1  0.25182400  0.88033500  0.11221900  1
  Nd  Nd14  1  0.58353000  0.21293000  0.44529200  1
  Nd  Nd15  1  0.11221900  0.25182400  0.88033500  1
  Nd  Nd16  1  0.44529200  0.58353000  0.21293000  1
  Nd  Nd17  1  0.78310100  0.92405600  0.55010300  1
  Ga  Ga18  1  0.72216900  0.38891900  0.05535300  1
  Ga  Ga19  1  0.05535300  0.72216900  0.38891900  1
  Ga  Ga20  1  0.38891900  0.05535300  0.72216900  1
  Ga  Ga21  1  0.88833000  0.22286800  0.55532400  1
  Ga  Ga22  1  0.22286800  0.55532400  0.88833000  1
  Ga  Ga23  1  0.55532400  0.88833000  0.22286800  1
  Ga  Ga24  1  0.85294600  0.85294600  0.85294600  1
  Ga  Ga25  1  0.15524800  0.15524800  0.15524800  1
  Ga  Ga26  1  0.65504000  0.65504000  0.65504000  1
  Ga  Ga27  1  0.35294900  0.35294900  0.35294900  1
  Se  Se28  1  0.55169500  0.39448900  0.30322500  1
  Se  Se29  1  0.88593800  0.74242300  0.65313200  1
  Se  Se30  1  0.23026000  0.08121300  0.98522000  1
  Se  Se31  1  0.98522000  0.23026000  0.08121300  1
  Se  Se32  1  0.30322500  0.55169500  0.39448900  1
  Se  Se33  1  0.65313200  0.88593800  0.74242300  1
  Se  Se34  1  0.74242300  0.65313200  0.88593800  1
  Se  Se35  1  0.08121300  0.98522000  0.23026000  1
  Se  Se36  1  0.39448900  0.30322500  0.55169500  1
  Se  Se37  1  0.13496400  0.27924800  0.36753900  1
  Se  Se38  1  0.46733700  0.61638300  0.71275100  1
  Se  Se39  1  0.78123400  0.93837100  0.02976200  1
  Se  Se40  1  0.71275100  0.46733700  0.61638300  1
  Se  Se41  1  0.02976200  0.78123400  0.93837100  1
  Se  Se42  1  0.36753900  0.13496400  0.27924800  1
  Se  Se43  1  0.93837100  0.02976200  0.78123400  1
  Se  Se44  1  0.27924800  0.36753900  0.13496400  1
  Se  Se45  1  0.61638300  0.71275100  0.46733700  1
  Se  Se46  1  0.53971700  0.44822100  0.02117800  1
  Se  Se47  1  0.87346500  0.78124400  0.35826100  1
  Se  Se48  1  0.20393400  0.11015300  0.69555700  1
  Se  Se49  1  0.69555700  0.20393400  0.11015300  1
  Se  Se50  1  0.02117800  0.53971700  0.44822100  1
  Se  Se51  1  0.35826100  0.87346500  0.78124400  1
  Se  Se52  1  0.78124400  0.35826100  0.87346500  1
  Se  Se53  1  0.11015300  0.69555700  0.20393400  1
  Se  Se54  1  0.44822100  0.02117800  0.53971700  1
  Se  Se55  1  0.96805200  0.06327600  0.47849200  1
  Se  Se56  1  0.30166700  0.39356800  0.81405000  1
  Se  Se57  1  0.63458500  0.72490400  0.15366500  1
  Se  Se58  1  0.81405000  0.30166700  0.39356800  1
  Se  Se59  1  0.15366500  0.63458500  0.72490400  1
  Se  Se60  1  0.47849200  0.96805200  0.06327600  1
  Se  Se61  1  0.72490400  0.15366500  0.63458500  1
  Se  Se62  1  0.06327600  0.47849200  0.96805200  1
  Se  Se63  1  0.39356800  0.81405000  0.30166700  1
  Se  Se64  1  0.84662900  0.51612600  0.18177500  1
  Se  Se65  1  0.18177500  0.84662900  0.51612600  1
  Se  Se66  1  0.51612600  0.18177500  0.84662900  1
  Se  Se67  1  0.68112700  0.01667500  0.34679700  1
  Se  Se68  1  0.01667500  0.34679700  0.68112700  1
  Se  Se69  1  0.34679700  0.68112700  0.01667500  1
