# generated using pymatgen
data_Nd2Sn4Ru
_symmetry_space_group_name_H-M   'P 1'
_cell_length_a   4.69880200
_cell_length_b   4.72000500
_cell_length_c   8.67136261
_cell_angle_alpha   74.20713291
_cell_angle_beta   90.00000000
_cell_angle_gamma   90.00000000
_symmetry_Int_Tables_number   1
_chemical_formula_structural   Nd2Sn4Ru
_chemical_formula_sum   'Nd2 Sn4 Ru1'
_cell_volume   185.05708663
_cell_formula_units_Z   1
loop_
 _symmetry_equiv_pos_site_id
 _symmetry_equiv_pos_as_xyz
  1  'x, y, z'
loop_
 _atom_site_type_symbol
 _atom_site_label
 _atom_site_symmetry_multiplicity
 _atom_site_fract_x
 _atom_site_fract_y
 _atom_site_fract_z
 _atom_site_occupancy
  Nd  Nd0  1  0.25000000  0.89912000  0.20175900  1
  Nd  Nd1  1  0.75000000  0.09990700  0.80018700  1
  Sn  Sn2  1  0.25000000  0.54299900  0.91400100  1
  Sn  Sn3  1  0.75000000  0.42150700  0.15698600  1
  Sn  Sn4  1  0.25000000  0.26442000  0.47116100  1
  Sn  Sn5  1  0.75000000  0.75959900  0.48080200  1
  Ru  Ru6  1  0.25000000  0.69744800  0.60510400  1
