# generated using pymatgen
data_Nb4AgS8
_symmetry_space_group_name_H-M   'P 1'
_cell_length_a   3.38252248
_cell_length_b   3.38252261
_cell_length_c   27.26612253
_cell_angle_alpha   86.44377920
_cell_angle_beta   89.99999825
_cell_angle_gamma   119.99999218
_symmetry_Int_Tables_number   1
_chemical_formula_structural   Nb4AgS8
_chemical_formula_sum   'Nb4 Ag1 S8'
_cell_volume   269.47508991
_cell_formula_units_Z   1
loop_
 _symmetry_equiv_pos_site_id
 _symmetry_equiv_pos_as_xyz
  1  'x, y, z'
loop_
 _atom_site_type_symbol
 _atom_site_label
 _atom_site_symmetry_multiplicity
 _atom_site_fract_x
 _atom_site_fract_y
 _atom_site_fract_z
 _atom_site_occupancy
  Nb  Nb0  1  0.53601374  0.07202748  0.39195878  1
  Nb  Nb1  1  0.03613804  0.07227608  0.89158588  1
  Nb  Nb2  1  0.96214493  0.92428985  0.11356522  1
  Nb  Nb3  1  0.46344651  0.92689301  0.60966048  1
  Ag  Ag4  1  0.57932120  0.15864239  0.26203641  1
  S  S5  1  0.60951189  0.21902378  0.17146433  1
  S  S6  1  0.11087204  0.22174409  0.66738387  1
  S  S7  1  0.88894854  0.77789707  0.33315439  1
  S  S8  1  0.38872647  0.77745294  0.83382059  1
  S  S9  1  0.64758766  0.29517532  0.05723702  1
  S  S10  1  0.14923051  0.29846102  0.55230846  1
  S  S11  1  0.85068898  0.70137796  0.44793306  1
  S  S12  1  0.35036950  0.70073899  0.94889151  1
