# generated using pymatgen
data_Rb6Ga10Se20O61
_symmetry_space_group_name_H-M   'P 1'
_cell_length_a   10.99039800
_cell_length_b   12.78813116
_cell_length_c   12.95397812
_cell_angle_alpha   86.86706161
_cell_angle_beta   85.06614521
_cell_angle_gamma   72.43957228
_symmetry_Int_Tables_number   1
_chemical_formula_structural   Rb6Ga10Se20O61
_chemical_formula_sum   'Rb6 Ga10 Se20 O61'
_cell_volume   1728.57366426
_cell_formula_units_Z   1
loop_
 _symmetry_equiv_pos_site_id
 _symmetry_equiv_pos_as_xyz
  1  'x, y, z'
loop_
 _atom_site_type_symbol
 _atom_site_label
 _atom_site_symmetry_multiplicity
 _atom_site_fract_x
 _atom_site_fract_y
 _atom_site_fract_z
 _atom_site_occupancy
  Rb  Rb0  1  0.73942900  0.44340500  0.94629700  1
  Rb  Rb1  1  0.26063800  0.55685000  0.05353100  1
  Rb  Rb2  1  0.50502100  0.00260300  0.82119100  1
  Rb  Rb3  1  0.49536200  0.99660200  0.17993800  1
  Rb  Rb4  1  0.82427400  0.92212400  0.45276400  1
  Rb  Rb5  1  0.17624800  0.07560900  0.54658100  1
  Ga  Ga6  1  0.80318800  0.68205300  0.72663000  1
  Ga  Ga7  1  0.19670300  0.31836000  0.27220900  1
  Ga  Ga8  1  0.82136700  0.67539400  0.22050700  1
  Ga  Ga9  1  0.17826200  0.32528500  0.78047500  1
  Ga  Ga10  1  0.49018900  0.26517900  0.00166000  1
  Ga  Ga11  1  0.51004400  0.73463700  0.99840400  1
  Ga  Ga12  1  0.80611000  0.17610800  0.22862000  1
  Ga  Ga13  1  0.19391300  0.82371500  0.77159000  1
  Ga  Ga14  1  0.80209100  0.18150200  0.73298600  1
  Ga  Ga15  1  0.19770200  0.81849300  0.26685800  1
  Se  Se16  1  0.48320900  0.32741000  0.75708500  1
  Se  Se17  1  0.51689800  0.67282100  0.24301200  1
  Se  Se18  1  0.76085100  0.65210900  0.47769100  1
  Se  Se19  1  0.23760000  0.34794100  0.52264100  1
  Se  Se20  1  0.88909500  0.40743500  0.22327500  1
  Se  Se21  1  0.11074400  0.59270800  0.77667800  1
  Se  Se22  1  0.50378600  0.67495100  0.75919700  1
  Se  Se23  1  0.49628900  0.32528600  0.24077200  1
  Se  Se24  1  0.80684700  0.72944500  0.97448800  1
  Se  Se25  1  0.19330100  0.27039800  0.02548700  1
  Se  Se26  1  0.78464800  0.13118100  0.98709700  1
  Se  Se27  1  0.21542300  0.86887000  0.01288300  1
  Se  Se28  1  0.79328200  0.23112600  0.47494200  1
  Se  Se29  1  0.20747300  0.76908700  0.52530900  1
  Se  Se30  1  0.89204800  0.91221000  0.72176800  1
  Se  Se31  1  0.10779300  0.08772600  0.27843400  1
  Se  Se32  1  0.89702000  0.40957500  0.67791000  1
  Se  Se33  1  0.10282000  0.59071300  0.32202800  1
  Se  Se34  1  0.91736700  0.90796500  0.16937600  1
  Se  Se35  1  0.08263100  0.09216900  0.83043600  1
  O  O36  1  0.78426600  0.53496600  0.70706100  1
  O  O37  1  0.21563800  0.46490500  0.29348500  1
  O  O38  1  0.61204000  0.21321200  0.73389100  1
  O  O39  1  0.38767600  0.78714200  0.26598700  1
  O  O40  1  0.79760700  0.03158000  0.77983800  1
  O  O41  1  0.20229400  0.96854900  0.22015100  1
  O  O42  1  0.78571500  0.33335300  0.26471100  1
  O  O43  1  0.21442300  0.66650800  0.73515900  1
  O  O44  1  0.79509800  0.21790900  0.88273900  1
  O  O45  1  0.20490000  0.78213100  0.11721800  1
  O  O46  1  0.60213700  0.67613900  0.47702200  1
  O  O47  1  0.39330400  0.33285900  0.52325000  1
  O  O48  1  0.78719700  0.33630700  0.69850500  1
  O  O49  1  0.21302800  0.66357600  0.30127700  1
  O  O50  1  0.79286600  0.72660700  0.57260900  1
  O  O51  1  0.20715100  0.27367900  0.42715900  1
  O  O52  1  0.78890000  0.83627200  0.75847400  1
  O  O53  1  0.21107900  0.16384100  0.24193000  1
  O  O54  1  0.79735800  0.02383200  0.21035800  1
  O  O55  1  0.20254400  0.97629800  0.78982800  1
  O  O56  1  0.06364800  0.74022100  0.51760700  1
  O  O57  1  0.93751500  0.25928700  0.48211000  1
  O  O58  1  0.81795700  0.71563400  0.37121600  1
  O  O59  1  0.18175700  0.28420800  0.62911500  1
  O  O60  1  0.83043600  0.13455300  0.38009600  1
  O  O61  1  0.16862900  0.86555900  0.62033900  1
  O  O62  1  0.37972200  0.79256100  0.74598100  1
  O  O63  1  0.62010900  0.20773400  0.25437500  1
  O  O64  1  0.82159800  0.13769000  0.58108700  1
  O  O65  1  0.17714800  0.86237200  0.41906600  1
  O  O66  1  0.00705000  0.36361400  0.31053200  1
  O  O67  1  0.99318100  0.63630400  0.68938200  1
  O  O68  1  0.37092000  0.25799800  0.77107100  1
  O  O69  1  0.62894300  0.74216400  0.22818100  1
  O  O70  1  0.82333400  0.63173300  0.07423000  1
  O  O71  1  0.17679600  0.36836800  0.92600500  1
  O  O72  1  0.82350000  0.63802300  0.87730500  1
  O  O73  1  0.17661600  0.36206600  0.12242800  1
  O  O74  1  0.49392600  0.36023700  0.88767300  1
  O  O75  1  0.50560300  0.63974900  0.11251800  1
  O  O76  1  0.35865100  0.19927000  0.01655200  1
  O  O77  1  0.64127400  0.80070100  0.98342300  1
  O  O78  1  0.78746900  0.22298600  0.07847700  1
  O  O79  1  0.21245900  0.77697600  0.92156500  1
  O  O80  1  0.50424600  0.64013600  0.89456000  1
  O  O81  1  0.49562700  0.35979000  0.10541900  1
  O  O82  1  0.00749600  0.86285800  0.81000100  1
  O  O83  1  0.99260600  0.13725400  0.19012800  1
  O  O84  1  0.98454000  0.38064100  0.78698100  1
  O  O85  1  0.01559600  0.61918000  0.21299500  1
  O  O86  1  0.79826400  0.53200500  0.27171100  1
  O  O87  1  0.20137800  0.46793200  0.72797700  1
  O  O88  1  0.62271400  0.13191700  0.99610200  1
  O  O89  1  0.37729300  0.86802400  0.00387300  1
  O  O90  1  0.00313900  0.86769700  0.27809300  1
  O  O91  1  0.99697800  0.13224100  0.72180200  1
  O  O92  1  0.18171900  0.17487900  0.82758700  1
  O  O93  1  0.81840500  0.82531700  0.17184500  1
  O  O94  1  0.61645700  0.74289100  0.74473000  1
  O  O95  1  0.38348000  0.25726500  0.25572600  1
  O  O96  1  0.47803300  0.89355600  0.48423400  1
