# generated using pymatgen
data_Nb3Re3B4
_symmetry_space_group_name_H-M   'P 1'
_cell_length_a   6.31701101
_cell_length_b   6.31701101
_cell_length_c   3.11272000
_cell_angle_alpha   90.00000000
_cell_angle_beta   90.00000000
_cell_angle_gamma   99.32525027
_symmetry_Int_Tables_number   1
_chemical_formula_structural   Nb3Re3B4
_chemical_formula_sum   'Nb3 Re3 B4'
_cell_volume   122.57039902
_cell_formula_units_Z   1
loop_
 _symmetry_equiv_pos_site_id
 _symmetry_equiv_pos_as_xyz
  1  'x, y, z'
loop_
 _atom_site_type_symbol
 _atom_site_label
 _atom_site_symmetry_multiplicity
 _atom_site_fract_x
 _atom_site_fract_y
 _atom_site_fract_z
 _atom_site_occupancy
  Nb  Nb0  1  0.46487300  0.94532700  0.00000000  1
  Nb  Nb1  1  0.05467300  0.53512700  0.00000000  1
  Nb  Nb2  1  0.81399200  0.18600800  0.50000000  1
  Re  Re3  1  0.10804300  0.89195700  0.50000000  1
  Re  Re4  1  0.69504700  0.65189700  0.50000000  1
  Re  Re5  1  0.34810300  0.30495300  0.50000000  1
  B  B6  1  0.43224800  0.56775200  0.00000000  1
  B  B7  1  0.62394600  0.37605400  0.00000000  1
  B  B8  1  0.10133600  0.14225900  0.00000000  1
  B  B9  1  0.85774100  0.89866400  0.00000000  1
