# generated using pymatgen
data_Nb5V3S20
_symmetry_space_group_name_H-M   'P 1'
_cell_length_a   9.69634478
_cell_length_b   9.69634478
_cell_length_c   10.39535532
_cell_angle_alpha   63.90124645
_cell_angle_beta   63.90124645
_cell_angle_gamma   40.75998536
_symmetry_Int_Tables_number   1
_chemical_formula_structural   Nb5V3S20
_chemical_formula_sum   'Nb5 V3 S20'
_cell_volume   563.47869673
_cell_formula_units_Z   1
loop_
 _symmetry_equiv_pos_site_id
 _symmetry_equiv_pos_as_xyz
  1  'x, y, z'
loop_
 _atom_site_type_symbol
 _atom_site_label
 _atom_site_symmetry_multiplicity
 _atom_site_fract_x
 _atom_site_fract_y
 _atom_site_fract_z
 _atom_site_occupancy
  Nb  Nb0  1  0.33075400  0.83643500  0.86506800  1
  Nb  Nb1  1  0.83643500  0.33075400  0.86506800  1
  Nb  Nb2  1  0.16413500  0.16413500  0.13826900  1
  Nb  Nb3  1  0.66468600  0.66468600  0.13896600  1
  Nb  Nb4  1  0.79933800  0.79933800  0.58801800  1
  V  V5  1  0.29716500  0.29716500  0.59678800  1
  V  V6  1  0.68780000  0.22488100  0.40004800  1
  V  V7  1  0.22488100  0.68780000  0.40004800  1
  S  S8  1  0.96497700  0.96497700  0.97993900  1
  S  S9  1  0.46637600  0.46637600  0.97843500  1
  S  S10  1  0.53216200  0.03243100  0.02300600  1
  S  S11  1  0.03243100  0.53216200  0.02300600  1
  S  S12  1  0.12859300  0.61728200  0.65331600  1
  S  S13  1  0.61728200  0.12859300  0.65331600  1
  S  S14  1  0.37811000  0.37811000  0.34441500  1
  S  S15  1  0.88532600  0.88532600  0.33632200  1
  S  S16  1  0.02229800  0.02229800  0.75600600  1
  S  S17  1  0.52438500  0.52438500  0.75498400  1
  S  S18  1  0.47505400  0.97589000  0.24669100  1
  S  S19  1  0.97589000  0.47505400  0.24669100  1
  S  S20  1  0.31256600  0.81153400  0.13503400  1
  S  S21  1  0.81153400  0.31256600  0.13503400  1
  S  S22  1  0.18736900  0.18736900  0.86641600  1
  S  S23  1  0.68509200  0.68509200  0.87051100  1
  S  S24  1  0.44402800  0.95479000  0.59485800  1
  S  S25  1  0.95479000  0.44402800  0.59485800  1
  S  S26  1  0.04523600  0.04523600  0.40381100  1
  S  S27  1  0.55130600  0.55130600  0.41107900  1
