# generated using pymatgen
data_Nb3Sb3O13
_symmetry_space_group_name_H-M   'P 1'
_cell_length_a   7.56466453
_cell_length_b   7.56466453
_cell_length_c   7.57725513
_cell_angle_alpha   60.30096574
_cell_angle_beta   60.30096574
_cell_angle_gamma   59.46649604
_symmetry_Int_Tables_number   1
_chemical_formula_structural   Nb3Sb3O13
_chemical_formula_sum   'Nb3 Sb3 O13'
_cell_volume   306.71832617
_cell_formula_units_Z   1
loop_
 _symmetry_equiv_pos_site_id
 _symmetry_equiv_pos_as_xyz
  1  'x, y, z'
loop_
 _atom_site_type_symbol
 _atom_site_label
 _atom_site_symmetry_multiplicity
 _atom_site_fract_x
 _atom_site_fract_y
 _atom_site_fract_z
 _atom_site_occupancy
  Nb  Nb0  1  0.49658000  0.99502600  0.98632600  1
  Nb  Nb1  1  0.99502600  0.49658000  0.98632600  1
  Nb  Nb2  1  0.49801000  0.49801000  0.51471300  1
  Sb  Sb3  1  0.49652000  0.49652000  0.01338600  1
  Sb  Sb4  1  0.01159800  0.48202800  0.43117100  1
  Sb  Sb5  1  0.48202800  0.01159800  0.43117100  1
  O  O6  1  0.42560100  0.80755800  0.95405800  1
  O  O7  1  0.82492300  0.44615700  0.33495600  1
  O  O8  1  0.80755800  0.42560100  0.95405800  1
  O  O9  1  0.44615700  0.82492300  0.33495600  1
  O  O10  1  0.79799800  0.79799800  0.96375400  1
  O  O11  1  0.43929500  0.43929500  0.32424900  1
  O  O12  1  0.55192800  0.17746000  0.10399000  1
  O  O13  1  0.19120900  0.56091800  0.69718700  1
  O  O14  1  0.17746000  0.55192800  0.10399000  1
  O  O15  1  0.56091800  0.19120900  0.69718700  1
  O  O16  1  0.19680600  0.19680600  0.06034600  1
  O  O17  1  0.55637900  0.55637900  0.70845200  1
  O  O18  1  0.16900400  0.16900400  0.52472200  1
