# generated using pymatgen
data_Nd2MnGaO6
_symmetry_space_group_name_H-M   'P 1'
_cell_length_a   5.80981500
_cell_length_b   5.47325700
_cell_length_c   9.44071101
_cell_angle_alpha   55.01548592
_cell_angle_beta   90.00000000
_cell_angle_gamma   90.00000000
_symmetry_Int_Tables_number   1
_chemical_formula_structural   Nd2MnGaO6
_chemical_formula_sum   'Nd4 Mn2 Ga2 O12'
_cell_volume   245.95719715
_cell_formula_units_Z   2
loop_
 _symmetry_equiv_pos_site_id
 _symmetry_equiv_pos_as_xyz
  1  'x, y, z'
loop_
 _atom_site_type_symbol
 _atom_site_label
 _atom_site_symmetry_multiplicity
 _atom_site_fract_x
 _atom_site_fract_y
 _atom_site_fract_z
 _atom_site_occupancy
  Nd  Nd0  1  0.93362600  0.73396600  0.75042900  1
  Nd  Nd1  1  0.43362600  0.26603400  0.74957100  1
  Nd  Nd2  1  0.06637400  0.26603400  0.24957100  1
  Nd  Nd3  1  0.56637400  0.73396600  0.25042900  1
  Mn  Mn4  1  0.50000000  0.00000000  0.50000000  1
  Mn  Mn5  1  0.00000000  0.00000000  0.00000000  1
  Ga  Ga6  1  0.50000000  0.50000000  0.00000000  1
  Ga  Ga7  1  0.00000000  0.50000000  0.50000000  1
  O  O8  1  0.19403300  0.33867100  0.95333500  1
  O  O9  1  0.69403300  0.66132900  0.54666500  1
  O  O10  1  0.81595800  0.26576100  0.45092100  1
  O  O11  1  0.31595800  0.73423900  0.04907900  1
  O  O12  1  0.80596700  0.66132900  0.04666500  1
  O  O13  1  0.30596700  0.33867100  0.45333500  1
  O  O14  1  0.18404200  0.73423900  0.54907900  1
  O  O15  1  0.68404200  0.26576100  0.95092100  1
  O  O16  1  0.52372300  0.84762100  0.74570900  1
  O  O17  1  0.02372300  0.15237900  0.75429100  1
  O  O18  1  0.47627700  0.15237900  0.25429100  1
  O  O19  1  0.97627700  0.84762100  0.24570900  1
