# generated using pymatgen
data_Nd2Fe20Si2C
_symmetry_space_group_name_H-M   'P 1'
_cell_length_a   6.39536167
_cell_length_b   7.84488684
_cell_length_c   7.82039269
_cell_angle_alpha   100.46750654
_cell_angle_beta   114.32327008
_cell_angle_gamma   65.66191427
_symmetry_Int_Tables_number   1
_chemical_formula_structural   Nd2Fe20Si2C
_chemical_formula_sum   'Nd2 Fe20 Si2 C1'
_cell_volume   325.72157483
_cell_formula_units_Z   1
loop_
 _symmetry_equiv_pos_site_id
 _symmetry_equiv_pos_as_xyz
  1  'x, y, z'
loop_
 _atom_site_type_symbol
 _atom_site_label
 _atom_site_symmetry_multiplicity
 _atom_site_fract_x
 _atom_site_fract_y
 _atom_site_fract_z
 _atom_site_occupancy
  Nd  Nd0  1  0.37452500  0.75025400  0.25342900  1
  Nd  Nd1  1  0.62547500  0.24974600  0.74657100  1
  Fe  Fe2  1  0.17867100  0.58249200  0.82581900  1
  Fe  Fe3  1  0.43471500  0.32399200  0.08008800  1
  Fe  Fe4  1  0.27143800  0.41999700  0.33240900  1
  Fe  Fe5  1  0.85726200  0.83361700  0.91812200  1
  Fe  Fe6  1  0.19305700  0.16692900  0.42192100  1
  Fe  Fe7  1  0.43802700  0.91998500  0.67072000  1
  Fe  Fe8  1  0.25742100  0.67640000  0.57689400  1
  Fe  Fe9  1  0.85821800  0.07801100  0.17490600  1
  Fe  Fe10  1  0.82132900  0.41750800  0.17418100  1
  Fe  Fe11  1  0.56528500  0.67600800  0.91991200  1
  Fe  Fe12  1  0.72856200  0.58000300  0.66759100  1
  Fe  Fe13  1  0.14273800  0.16638300  0.08187800  1
  Fe  Fe14  1  0.80694300  0.83307100  0.57807900  1
  Fe  Fe15  1  0.56197300  0.08001500  0.32928000  1
  Fe  Fe16  1  0.74257900  0.32360000  0.42310600  1
  Fe  Fe17  1  0.14178200  0.92198900  0.82509400  1
  Fe  Fe18  1  0.12283500  0.24774800  0.74875400  1
  Fe  Fe19  1  0.87716500  0.75225200  0.25124600  1
  Fe  Fe20  1  0.00000000  0.50000000  0.00000000  1
  Fe  Fe21  1  0.00000000  0.50000000  0.50000000  1
  Si  Si22  1  0.50000000  0.00000000  0.00000000  1
  Si  Si23  1  0.00000000  0.00000000  0.50000000  1
  C  C24  1  0.50000000  0.50000000  0.00000000  1
