# generated using pymatgen
data_Nd6Al3Fe11
_symmetry_space_group_name_H-M   'P 1'
_cell_length_a   8.11205300
_cell_length_b   8.11205300
_cell_length_c   12.93025278
_cell_angle_alpha   71.71855492
_cell_angle_beta   71.71855492
_cell_angle_gamma   90.00000000
_symmetry_Int_Tables_number   1
_chemical_formula_structural   Nd6Al3Fe11
_chemical_formula_sum   'Nd12 Al6 Fe22'
_cell_volume   762.57289333
_cell_formula_units_Z   2
loop_
 _symmetry_equiv_pos_site_id
 _symmetry_equiv_pos_as_xyz
  1  'x, y, z'
loop_
 _atom_site_type_symbol
 _atom_site_label
 _atom_site_symmetry_multiplicity
 _atom_site_fract_x
 _atom_site_fract_y
 _atom_site_fract_z
 _atom_site_occupancy
  Nd  Nd0  1  0.97822200  0.14881500  0.37296300  1
  Nd  Nd1  1  0.64881500  0.47822200  0.37296300  1
  Nd  Nd2  1  0.14881500  0.64881500  0.37296300  1
  Nd  Nd3  1  0.47822200  0.97822200  0.37296300  1
  Nd  Nd4  1  0.02413600  0.85869600  0.61716800  1
  Nd  Nd5  1  0.35869600  0.52413600  0.61716800  1
  Nd  Nd6  1  0.85869600  0.35869600  0.61716800  1
  Nd  Nd7  1  0.52413600  0.02413600  0.61716800  1
  Nd  Nd8  1  0.89341400  0.89341400  0.21317200  1
  Nd  Nd9  1  0.39341400  0.39341400  0.21317200  1
  Nd  Nd10  1  0.10708700  0.10708700  0.78582600  1
  Nd  Nd11  1  0.60708700  0.60708700  0.78582600  1
  Al  Al12  1  0.74993000  0.74993000  0.50014000  1
  Al  Al13  1  0.24993000  0.24993000  0.50014000  1
  Al  Al14  1  0.71324100  0.97520400  0.81155600  1
  Al  Al15  1  0.47520400  0.21324000  0.81155600  1
  Al  Al16  1  0.97520400  0.47520400  0.81155600  1
  Al  Al17  1  0.21324000  0.71324100  0.81155600  1
  Fe  Fe18  1  0.11968100  0.26129900  0.11902000  1
  Fe  Fe19  1  0.76129900  0.61968100  0.11902000  1
  Fe  Fe20  1  0.26129900  0.76129900  0.11902000  1
  Fe  Fe21  1  0.61968100  0.11968100  0.11902000  1
  Fe  Fe22  1  0.88115200  0.73282400  0.88602400  1
  Fe  Fe23  1  0.23282400  0.38115200  0.88602400  1
  Fe  Fe24  1  0.73282400  0.23282400  0.88602400  1
  Fe  Fe25  1  0.38115200  0.88115200  0.88602400  1
  Fe  Fe26  1  0.06740000  0.78962700  0.00132700  1
  Fe  Fe27  1  0.93127300  0.20904600  0.00132700  1
  Fe  Fe28  1  0.43127300  0.28962700  0.00132700  1
  Fe  Fe29  1  0.56740000  0.70904600  0.00132700  1
  Fe  Fe30  1  0.78962700  0.93127300  0.00132700  1
  Fe  Fe31  1  0.20904600  0.06740000  0.00132700  1
  Fe  Fe32  1  0.28962700  0.56740000  0.00132700  1
  Fe  Fe33  1  0.70904600  0.43127300  0.00132700  1
  Fe  Fe34  1  0.99869200  0.49869200  0.00261700  1
  Fe  Fe35  1  0.49869200  0.99869200  0.00261700  1
  Fe  Fe36  1  0.29099400  0.01926800  0.18973800  1
  Fe  Fe37  1  0.51926800  0.79099400  0.18973800  1
  Fe  Fe38  1  0.01926800  0.51926800  0.18973800  1
  Fe  Fe39  1  0.79099400  0.29099400  0.18973800  1
