# generated using pymatgen
data_Pb3(SO6)2
_symmetry_space_group_name_H-M   'P 1'
_cell_length_a   6.98520500
_cell_length_b   8.53494600
_cell_length_c   16.12025900
_cell_angle_alpha   90.00000000
_cell_angle_beta   90.00000000
_cell_angle_gamma   90.00000000
_symmetry_Int_Tables_number   1
_chemical_formula_structural   Pb3(SO6)2
_chemical_formula_sum   'Pb12 S8 O48'
_cell_volume   961.06320243
_cell_formula_units_Z   4
loop_
 _symmetry_equiv_pos_site_id
 _symmetry_equiv_pos_as_xyz
  1  'x, y, z'
loop_
 _atom_site_type_symbol
 _atom_site_label
 _atom_site_symmetry_multiplicity
 _atom_site_fract_x
 _atom_site_fract_y
 _atom_site_fract_z
 _atom_site_occupancy
  Pb  Pb0  1  0.08887000  0.69108400  0.92281100  1
  Pb  Pb1  1  0.08208400  0.68988300  0.24799600  1
  Pb  Pb2  1  0.08272000  0.68250600  0.57910100  1
  Pb  Pb3  1  0.91728000  0.18250600  0.92089900  1
  Pb  Pb4  1  0.91791600  0.18988300  0.25200400  1
  Pb  Pb5  1  0.91113000  0.19108400  0.57718900  1
  Pb  Pb6  1  0.41728000  0.31749400  0.07910100  1
  Pb  Pb7  1  0.41113000  0.30891600  0.42281100  1
  Pb  Pb8  1  0.41791600  0.31011700  0.74799600  1
  Pb  Pb9  1  0.58887000  0.80891600  0.07718900  1
  Pb  Pb10  1  0.58272000  0.81749400  0.42089900  1
  Pb  Pb11  1  0.58208400  0.81011700  0.75200400  1
  S  S12  1  0.06655600  0.93854800  0.41690200  1
  S  S13  1  0.06512000  0.93884300  0.74946600  1
  S  S14  1  0.93344400  0.43854800  0.08309800  1
  S  S15  1  0.93488000  0.43884300  0.75053400  1
  S  S16  1  0.43344400  0.06145200  0.91690200  1
  S  S17  1  0.43488000  0.06115700  0.24946600  1
  S  S18  1  0.56512000  0.56115700  0.25053400  1
  S  S19  1  0.56655600  0.56145200  0.58309800  1
  O  O20  1  0.95533500  0.92091300  0.15015400  1
  O  O21  1  0.93919100  0.91810500  0.49170300  1
  O  O22  1  0.94223000  0.91786900  0.82627500  1
  O  O23  1  0.06080900  0.41810500  0.00829700  1
  O  O24  1  0.04466500  0.42091300  0.34984600  1
  O  O25  1  0.05777000  0.41786900  0.67372500  1
  O  O26  1  0.56080900  0.08189500  0.99170300  1
  O  O27  1  0.55777000  0.08213100  0.32627500  1
  O  O28  1  0.54466500  0.07908700  0.65015400  1
  O  O29  1  0.45533500  0.57908700  0.84984600  1
  O  O30  1  0.44223000  0.58213100  0.17372500  1
  O  O31  1  0.43919100  0.58189500  0.50829700  1
  O  O32  1  0.55589000  0.08425600  0.84093700  1
  O  O33  1  0.56020800  0.08129000  0.17471800  1
  O  O34  1  0.54830100  0.07990900  0.51458800  1
  O  O35  1  0.45169900  0.57990900  0.98541200  1
  O  O36  1  0.43979200  0.58129000  0.32528200  1
  O  O37  1  0.44411000  0.58425600  0.65906300  1
  O  O38  1  0.95169900  0.92009100  0.01458800  1
  O  O39  1  0.94411000  0.91574400  0.34093700  1
  O  O40  1  0.93979200  0.91871000  0.67471800  1
  O  O41  1  0.05589000  0.41574400  0.15906300  1
  O  O42  1  0.04830100  0.42009100  0.48541200  1
  O  O43  1  0.06020800  0.41871000  0.82528200  1
  O  O44  1  0.19531100  0.83336700  0.08243000  1
  O  O45  1  0.21485600  0.81325900  0.41915000  1
  O  O46  1  0.21315300  0.81242500  0.74891100  1
  O  O47  1  0.78514400  0.31325900  0.08085000  1
  O  O48  1  0.80468900  0.33336700  0.41757000  1
  O  O49  1  0.78684700  0.31242500  0.75108900  1
  O  O50  1  0.28514400  0.18674100  0.91915000  1
  O  O51  1  0.28684700  0.18757500  0.24891100  1
  O  O52  1  0.30468900  0.16663300  0.58243000  1
  O  O53  1  0.69531100  0.66663300  0.91757000  1
  O  O54  1  0.71315300  0.68757500  0.25108900  1
  O  O55  1  0.71485600  0.68674100  0.58085000  1
  O  O56  1  0.13618700  0.07047400  0.08325200  1
  O  O57  1  0.14573700  0.09812300  0.41642100  1
  O  O58  1  0.14752000  0.09748800  0.75074900  1
  O  O59  1  0.85426300  0.59812300  0.08357900  1
  O  O60  1  0.86381300  0.57047400  0.41674800  1
  O  O61  1  0.85248000  0.59748800  0.74925100  1
  O  O62  1  0.35426300  0.90187700  0.91642100  1
  O  O63  1  0.35248000  0.90251200  0.25074900  1
  O  O64  1  0.36381300  0.92952600  0.58325200  1
  O  O65  1  0.63618700  0.42952600  0.91674800  1
  O  O66  1  0.64752000  0.40251200  0.24925100  1
  O  O67  1  0.64573700  0.40187700  0.58357900  1
