# generated using pymatgen
data_Nb3S5
_symmetry_space_group_name_H-M   'P 1'
_cell_length_a   5.86418700
_cell_length_b   7.19049314
_cell_length_c   7.95103457
_cell_angle_alpha   108.06172063
_cell_angle_beta   97.09473806
_cell_angle_gamma   105.81044074
_symmetry_Int_Tables_number   1
_chemical_formula_structural   Nb3S5
_chemical_formula_sum   'Nb6 S10'
_cell_volume   298.65470595
_cell_formula_units_Z   2
loop_
 _symmetry_equiv_pos_site_id
 _symmetry_equiv_pos_as_xyz
  1  'x, y, z'
loop_
 _atom_site_type_symbol
 _atom_site_label
 _atom_site_symmetry_multiplicity
 _atom_site_fract_x
 _atom_site_fract_y
 _atom_site_fract_z
 _atom_site_occupancy
  Nb  Nb0  1  0.67451900  0.52098400  0.98359400  1
  Nb  Nb1  1  0.00239800  0.99455500  0.00192000  1
  Nb  Nb2  1  0.59780600  0.20383500  0.20395000  1
  Nb  Nb3  1  0.19709400  0.39798600  0.39743300  1
  Nb  Nb4  1  0.79486200  0.59753400  0.60564700  1
  Nb  Nb5  1  0.40090400  0.79366300  0.80078000  1
  S  S6  1  0.23212100  0.04651000  0.30491300  1
  S  S7  1  0.05208300  0.64093000  0.90603600  1
  S  S8  1  0.83067000  0.24594300  0.50197800  1
  S  S9  1  0.63187300  0.85555800  0.11600200  1
  S  S10  1  0.41434600  0.42565500  0.69170000  1
  S  S11  1  0.90130700  0.55949500  0.29814400  1
  S  S12  1  0.70249700  0.15425300  0.89547100  1
  S  S13  1  0.50122800  0.75408500  0.50024700  1
  S  S14  1  0.30099700  0.35615700  0.09450200  1
  S  S15  1  0.09809500  0.95045600  0.69928300  1
