# generated using pymatgen
data_Nb2CuTe4
_symmetry_space_group_name_H-M   'P 1'
_cell_length_a   3.68383700
_cell_length_b   6.76811400
_cell_length_c   7.34334157
_cell_angle_alpha   72.71672981
_cell_angle_beta   90.00000000
_cell_angle_gamma   90.00000000
_symmetry_Int_Tables_number   1
_chemical_formula_structural   Nb2CuTe4
_chemical_formula_sum   'Nb2 Cu1 Te4'
_cell_volume   174.82190832
_cell_formula_units_Z   1
loop_
 _symmetry_equiv_pos_site_id
 _symmetry_equiv_pos_as_xyz
  1  'x, y, z'
loop_
 _atom_site_type_symbol
 _atom_site_label
 _atom_site_symmetry_multiplicity
 _atom_site_fract_x
 _atom_site_fract_y
 _atom_site_fract_z
 _atom_site_occupancy
  Nb  Nb0  1  0.00000000  0.18378800  0.00489900  1
  Nb  Nb1  1  0.50000000  0.81865700  0.99451600  1
  Cu  Cu2  1  0.00000000  0.40000500  0.58083600  1
  Te  Te3  1  0.00000000  0.99608700  0.71149700  1
  Te  Te4  1  0.50000000  0.99682400  0.28600100  1
  Te  Te5  1  0.00000000  0.50369500  0.21308700  1
  Te  Te6  1  0.50000000  0.49914400  0.79286400  1
