# generated using pymatgen
data_NaZrNb(PO4)3
_symmetry_space_group_name_H-M   'P 1'
_cell_length_a   9.15139745
_cell_length_b   9.15139745
_cell_length_c   9.15139694
_cell_angle_alpha   58.39614371
_cell_angle_beta   58.39614371
_cell_angle_gamma   58.39614651
_symmetry_Int_Tables_number   1
_chemical_formula_structural   NaZrNb(PO4)3
_chemical_formula_sum   'Na2 Zr2 Nb2 P6 O24'
_cell_volume   522.04012962
_cell_formula_units_Z   2
loop_
 _symmetry_equiv_pos_site_id
 _symmetry_equiv_pos_as_xyz
  1  'x, y, z'
loop_
 _atom_site_type_symbol
 _atom_site_label
 _atom_site_symmetry_multiplicity
 _atom_site_fract_x
 _atom_site_fract_y
 _atom_site_fract_z
 _atom_site_occupancy
  Na  Na0  1  0.49800300  0.49800300  0.49800300  1
  Na  Na1  1  0.99800300  0.99800300  0.99800300  1
  Zr  Zr2  1  0.64355500  0.64355500  0.64355500  1
  Zr  Zr3  1  0.14355500  0.14355500  0.14355500  1
  Nb  Nb4  1  0.35515900  0.35515900  0.35515900  1
  Nb  Nb5  1  0.85515900  0.85515900  0.85515900  1
  P  P6  1  0.96194000  0.54037700  0.24780900  1
  P  P7  1  0.24780900  0.96194000  0.54037700  1
  P  P8  1  0.54037700  0.24780900  0.96194000  1
  P  P9  1  0.74780900  0.04037700  0.46194000  1
  P  P10  1  0.46194000  0.74780900  0.04037700  1
  P  P11  1  0.04037700  0.46194000  0.74780900  1
  O  O12  1  0.21981200  0.44021300  0.58110200  1
  O  O13  1  0.58110200  0.21981200  0.44021300  1
  O  O14  1  0.44021300  0.58110200  0.21981200  1
  O  O15  1  0.08110200  0.94021300  0.71981200  1
  O  O16  1  0.71981200  0.08110200  0.94021300  1
  O  O17  1  0.94021300  0.71981200  0.08110200  1
  O  O18  1  0.78273800  0.56144000  0.41273500  1
  O  O19  1  0.41273500  0.78273800  0.56144000  1
  O  O20  1  0.56144000  0.41273500  0.78273800  1
  O  O21  1  0.91273500  0.06144000  0.28273800  1
  O  O22  1  0.28273800  0.91273500  0.06144000  1
  O  O23  1  0.06144000  0.28273800  0.91273500  1
  O  O24  1  0.12257000  0.50826600  0.28937200  1
  O  O25  1  0.28937200  0.12257000  0.50826600  1
  O  O26  1  0.50826600  0.28937200  0.12257000  1
  O  O27  1  0.78937200  0.00826600  0.62257000  1
  O  O28  1  0.62257000  0.78937200  0.00826600  1
  O  O29  1  0.00826600  0.62257000  0.78937200  1
  O  O30  1  0.87859600  0.49820500  0.70810800  1
  O  O31  1  0.70810800  0.87859600  0.49820500  1
  O  O32  1  0.49820500  0.70810800  0.87859600  1
  O  O33  1  0.20810800  0.99820500  0.37859600  1
  O  O34  1  0.37859600  0.20810800  0.99820500  1
  O  O35  1  0.99820500  0.37859600  0.20810800  1
