# generated using pymatgen
data_Na5NiCO5
_symmetry_space_group_name_H-M   'P 1'
_cell_length_a   6.62045013
_cell_length_b   6.62013834
_cell_length_c   17.60280165
_cell_angle_alpha   80.12394481
_cell_angle_beta   80.12370171
_cell_angle_gamma   95.08481587
_symmetry_Int_Tables_number   1
_chemical_formula_structural   Na5NiCO5
_chemical_formula_sum   'Na20 Ni4 C4 O20'
_cell_volume   743.24481528
_cell_formula_units_Z   4
loop_
 _symmetry_equiv_pos_site_id
 _symmetry_equiv_pos_as_xyz
  1  'x, y, z'
loop_
 _atom_site_type_symbol
 _atom_site_label
 _atom_site_symmetry_multiplicity
 _atom_site_fract_x
 _atom_site_fract_y
 _atom_site_fract_z
 _atom_site_occupancy
  Na  Na0  1  0.10940000  0.14027300  0.74999200  1
  Na  Na1  1  0.85979900  0.89061500  0.24999900  1
  Na  Na2  1  0.60938300  0.64026900  0.74999600  1
  Na  Na3  1  0.35974700  0.39068800  0.24999400  1
  Na  Na4  1  0.80921900  0.81468500  0.87604900  1
  Na  Na5  1  0.55933800  0.56470000  0.37607200  1
  Na  Na6  1  0.30922300  0.31466100  0.87604000  1
  Na  Na7  1  0.05938300  0.06475100  0.37607200  1
  Na  Na8  1  0.93538300  0.94071900  0.62391900  1
  Na  Na9  1  0.68524100  0.69069400  0.12394300  1
  Na  Na10  1  0.43540200  0.44076100  0.62391600  1
  Na  Na11  1  0.18526600  0.19069600  0.12395200  1
  Na  Na12  1  0.80692800  0.30378500  0.88936500  1
  Na  Na13  1  0.55686100  0.05364400  0.38933600  1
  Na  Na14  1  0.30702100  0.80379000  0.88937300  1
  Na  Na15  1  0.05689000  0.55357700  0.38935900  1
  Na  Na16  1  0.94641900  0.44319900  0.61061900  1
  Na  Na17  1  0.69612800  0.19292100  0.11063300  1
  Na  Na18  1  0.44646000  0.94315000  0.61063100  1
  Na  Na19  1  0.19616800  0.69299900  0.11062600  1
  Ni  Ni20  1  0.50243300  0.49698900  0.00012100  1
  Ni  Ni21  1  0.25279400  0.24760600  0.50016400  1
  Ni  Ni22  1  0.75235200  0.74743500  0.49993100  1
  Ni  Ni23  1  0.00250800  0.99736000  0.99993300  1
  C  C24  1  0.58969200  0.16053400  0.74997900  1
  C  C25  1  0.33947400  0.91032500  0.25000400  1
  C  C26  1  0.08967800  0.66050100  0.74998400  1
  C  C27  1  0.83952800  0.41035300  0.24999700  1
  O  O28  1  0.45592700  0.29353300  0.74997800  1
  O  O29  1  0.20663200  0.04420400  0.25000600  1
  O  O30  1  0.95585600  0.79346400  0.74998700  1
  O  O31  1  0.70644400  0.54402700  0.25000200  1
  O  O32  1  0.55566400  0.54970600  0.89452100  1
  O  O33  1  0.30589900  0.29971000  0.39459800  1
  O  O34  1  0.05570600  0.04980500  0.89442100  1
  O  O35  1  0.80587400  0.79987900  0.39438600  1
  O  O36  1  0.70027700  0.69425200  0.60547700  1
  O  O37  1  0.45013700  0.44413100  0.10561500  1
  O  O38  1  0.20028300  0.19410000  0.60568700  1
  O  O39  1  0.95015600  0.94425300  0.10551600  1
  O  O40  1  0.62141500  0.06237600  0.81687800  1
  O  O41  1  0.37091800  0.81177800  0.31687800  1
  O  O42  1  0.12142100  0.56237600  0.81688700  1
  O  O43  1  0.87109200  0.31195400  0.31687700  1
  O  O44  1  0.68827000  0.12919200  0.68307000  1
  O  O45  1  0.43745400  0.87843200  0.18306900  1
  O  O46  1  0.18826200  0.62918600  0.68308000  1
  O  O47  1  0.93759000  0.37856600  0.18307000  1
