# generated using pymatgen
data_Na5Si34
_symmetry_space_group_name_H-M   'P 1'
_cell_length_a   10.45960761
_cell_length_b   10.45960761
_cell_length_c   10.45960741
_cell_angle_alpha   59.97030075
_cell_angle_beta   59.97030075
_cell_angle_gamma   59.97030141
_symmetry_Int_Tables_number   1
_chemical_formula_structural   Na5Si34
_chemical_formula_sum   'Na5 Si34'
_cell_volume   808.60902596
_cell_formula_units_Z   1
loop_
 _symmetry_equiv_pos_site_id
 _symmetry_equiv_pos_as_xyz
  1  'x, y, z'
loop_
 _atom_site_type_symbol
 _atom_site_label
 _atom_site_symmetry_multiplicity
 _atom_site_fract_x
 _atom_site_fract_y
 _atom_site_fract_z
 _atom_site_occupancy
  Na  Na0  1  0.37498700  0.37498700  0.37498700  1
  Na  Na1  1  0.62501300  0.62501300  0.62501300  1
  Na  Na2  1  0.50000000  0.00000000  0.00000000  1
  Na  Na3  1  0.00000000  0.00000000  0.50000000  1
  Na  Na4  1  0.00000000  0.50000000  0.00000000  1
  Si  Si5  1  0.78195700  0.78195700  0.78195700  1
  Si  Si6  1  0.15505800  0.78219500  0.78219500  1
  Si  Si7  1  0.78219500  0.78219500  0.15505800  1
  Si  Si8  1  0.78219500  0.15505800  0.78219500  1
  Si  Si9  1  0.21804300  0.21804300  0.21804300  1
  Si  Si10  1  0.84494200  0.21780500  0.21780500  1
  Si  Si11  1  0.21780500  0.21780500  0.84494200  1
  Si  Si12  1  0.21780500  0.84494200  0.21780500  1
  Si  Si13  1  0.87548700  0.87548700  0.87548700  1
  Si  Si14  1  0.12451300  0.12451300  0.12451300  1
  Si  Si15  1  0.62834100  0.00603800  0.62834100  1
  Si  Si16  1  0.23573800  0.62927100  0.00637400  1
  Si  Si17  1  0.00637400  0.62927100  0.23573800  1
  Si  Si18  1  0.62918100  0.23610900  0.62918100  1
  Si  Si19  1  0.62927100  0.00637400  0.23573800  1
  Si  Si20  1  0.00603800  0.62834100  0.62834100  1
  Si  Si21  1  0.23610900  0.62918100  0.62918100  1
  Si  Si22  1  0.62927100  0.23573800  0.00637400  1
  Si  Si23  1  0.23573800  0.00637400  0.62927100  1
  Si  Si24  1  0.62918100  0.62918100  0.23610900  1
  Si  Si25  1  0.62834100  0.62834100  0.00603800  1
  Si  Si26  1  0.00637400  0.23573800  0.62927100  1
  Si  Si27  1  0.37165900  0.99396200  0.37165900  1
  Si  Si28  1  0.76426200  0.37072900  0.99362600  1
  Si  Si29  1  0.99362600  0.37072900  0.76426200  1
  Si  Si30  1  0.37081900  0.76389100  0.37081900  1
  Si  Si31  1  0.37072900  0.99362600  0.76426200  1
  Si  Si32  1  0.99396200  0.37165900  0.37165900  1
  Si  Si33  1  0.76389100  0.37081900  0.37081900  1
  Si  Si34  1  0.37072900  0.76426200  0.99362600  1
  Si  Si35  1  0.76426200  0.99362600  0.37072900  1
  Si  Si36  1  0.37081900  0.37081900  0.76389100  1
  Si  Si37  1  0.37165900  0.37165900  0.99396200  1
  Si  Si38  1  0.99362600  0.76426200  0.37072900  1
