# generated using pymatgen
data_NaLa6Ga3S14
_symmetry_space_group_name_H-M   'P 1'
_cell_length_a   10.24047569
_cell_length_b   10.24047569
_cell_length_c   6.15078300
_cell_angle_alpha   90.00000000
_cell_angle_beta   90.00000000
_cell_angle_gamma   119.99999797
_symmetry_Int_Tables_number   1
_chemical_formula_structural   NaLa6Ga3S14
_chemical_formula_sum   'Na1 La6 Ga3 S14'
_cell_volume   558.60048372
_cell_formula_units_Z   1
loop_
 _symmetry_equiv_pos_site_id
 _symmetry_equiv_pos_as_xyz
  1  'x, y, z'
loop_
 _atom_site_type_symbol
 _atom_site_label
 _atom_site_symmetry_multiplicity
 _atom_site_fract_x
 _atom_site_fract_y
 _atom_site_fract_z
 _atom_site_occupancy
  Na  Na0  1  0.00000000  0.00000000  0.73837900  1
  La  La1  1  0.62384000  0.76552500  0.49878100  1
  La  La2  1  0.14168600  0.37616000  0.49878100  1
  La  La3  1  0.23447500  0.85831400  0.49878100  1
  La  La4  1  0.37381600  0.23350200  0.00811000  1
  La  La5  1  0.85968600  0.62618400  0.00811000  1
  La  La6  1  0.76649800  0.14031400  0.00811000  1
  Ga  Ga7  1  0.66666700  0.33333300  0.58287300  1
  Ga  Ga8  1  0.33333300  0.66666700  0.08560500  1
  Ga  Ga9  1  0.00000000  0.00000000  0.23329100  1
  S  S10  1  0.90152900  0.41919700  0.73276500  1
  S  S11  1  0.51766800  0.09847100  0.73276500  1
  S  S12  1  0.58080300  0.48233200  0.73276500  1
  S  S13  1  0.09847200  0.57939900  0.23678300  1
  S  S14  1  0.48092800  0.90152800  0.23678300  1
  S  S15  1  0.42060100  0.51907200  0.23678300  1
  S  S16  1  0.85685600  0.09155800  0.44813700  1
  S  S17  1  0.23470200  0.14314400  0.44813700  1
  S  S18  1  0.90844200  0.76529800  0.44813700  1
  S  S19  1  0.15152200  0.90908600  0.99553500  1
  S  S20  1  0.75756400  0.84847800  0.99553500  1
  S  S21  1  0.09091400  0.24243600  0.99553500  1
  S  S22  1  0.33333300  0.66666700  0.71806800  1
  S  S23  1  0.66666700  0.33333300  0.21497200  1
