# generated using pymatgen
data_NaVWO6
_symmetry_space_group_name_H-M   'P 1'
_cell_length_a   3.76512100
_cell_length_b   5.17091414
_cell_length_c   7.35602651
_cell_angle_alpha   111.75445508
_cell_angle_beta   90.00000000
_cell_angle_gamma   68.64980298
_symmetry_Int_Tables_number   1
_chemical_formula_structural   NaVWO6
_chemical_formula_sum   'Na1 V1 W1 O6'
_cell_volume   122.37067074
_cell_formula_units_Z   1
loop_
 _symmetry_equiv_pos_site_id
 _symmetry_equiv_pos_as_xyz
  1  'x, y, z'
loop_
 _atom_site_type_symbol
 _atom_site_label
 _atom_site_symmetry_multiplicity
 _atom_site_fract_x
 _atom_site_fract_y
 _atom_site_fract_z
 _atom_site_occupancy
  Na  Na0  1  0.99791200  0.00417700  0.00524700  1
  V  V1  1  0.18218500  0.63562900  0.36568500  1
  W  W2  1  0.82101400  0.35797200  0.62160300  1
  O  O3  1  0.32162800  0.35674300  0.14425400  1
  O  O4  1  0.66937400  0.66125200  0.85859100  1
  O  O5  1  0.69819000  0.60362100  0.43666900  1
  O  O6  1  0.30916000  0.38167900  0.55630800  1
  O  O7  1  0.01968500  0.96063000  0.32161400  1
  O  O8  1  0.98085200  0.03829600  0.69002900  1
