# generated using pymatgen
data_Nb3Pb2O7F5
_symmetry_space_group_name_H-M   'P 1'
_cell_length_a   17.00995956
_cell_length_b   17.00995956
_cell_length_c   17.00995956
_cell_angle_alpha   166.88495912
_cell_angle_beta   166.62531078
_cell_angle_gamma   18.77414383
_symmetry_Int_Tables_number   1
_chemical_formula_structural   Nb3Pb2O7F5
_chemical_formula_sum   'Nb3 Pb2 O7 F5'
_cell_volume   258.30211478
_cell_formula_units_Z   1
loop_
 _symmetry_equiv_pos_site_id
 _symmetry_equiv_pos_as_xyz
  1  'x, y, z'
loop_
 _atom_site_type_symbol
 _atom_site_label
 _atom_site_symmetry_multiplicity
 _atom_site_fract_x
 _atom_site_fract_y
 _atom_site_fract_z
 _atom_site_occupancy
  Nb  Nb0  1  0.61962200  0.61962200  0.00000000  1
  Nb  Nb1  1  0.38416100  0.38416100  0.00000000  1
  Nb  Nb2  1  0.50437700  0.50437700  0.00000000  1
  Pb  Pb3  1  0.79009800  0.79009800  0.00000000  1
  Pb  Pb4  1  0.19511800  0.19511800  0.00000000  1
  O  O5  1  0.56429300  0.56429300  0.00000000  1
  O  O6  1  0.43694600  0.43694600  0.00000000  1
  O  O7  1  0.99738200  0.49738200  0.50000000  1
  O  O8  1  0.49625400  0.99625400  0.50000000  1
  O  O9  1  0.37378200  0.87378200  0.50000000  1
  O  O10  1  0.13142400  0.63142400  0.50000000  1
  O  O11  1  0.63222800  0.13222800  0.50000000  1
  F  F12  1  0.68795600  0.68795600  0.00000000  1
  F  F13  1  0.31684300  0.31684300  0.00000000  1
  F  F14  1  0.74865800  0.24865800  0.50000000  1
  F  F15  1  0.24873300  0.74873300  0.50000000  1
  F  F16  1  0.87212400  0.37212400  0.50000000  1
