# generated using pymatgen
data_NaTi3FeO8
_symmetry_space_group_name_H-M   'P 1'
_cell_length_a   6.49105893
_cell_length_b   6.49105893
_cell_length_c   6.56788316
_cell_angle_alpha   73.48500768
_cell_angle_beta   73.48500768
_cell_angle_gamma   34.43789786
_symmetry_Int_Tables_number   1
_chemical_formula_structural   NaTi3FeO8
_chemical_formula_sum   'Na1 Ti3 Fe1 O8'
_cell_volume   149.40352488
_cell_formula_units_Z   1
loop_
 _symmetry_equiv_pos_site_id
 _symmetry_equiv_pos_as_xyz
  1  'x, y, z'
loop_
 _atom_site_type_symbol
 _atom_site_label
 _atom_site_symmetry_multiplicity
 _atom_site_fract_x
 _atom_site_fract_y
 _atom_site_fract_z
 _atom_site_occupancy
  Na  Na0  1  0.99828900  0.99828900  0.00524100  1
  Ti  Ti1  1  0.39824400  0.39824400  0.70828600  1
  Ti  Ti2  1  0.60160800  0.60160800  0.30011100  1
  Ti  Ti3  1  0.70237300  0.70237300  0.70738400  1
  Fe  Fe4  1  0.29846000  0.29846000  0.29455400  1
  O  O5  1  0.44587700  0.44587700  0.36388600  1
  O  O6  1  0.55845800  0.55845800  0.63368500  1
  O  O7  1  0.37665400  0.37665400  0.99308000  1
  O  O8  1  0.62971800  0.62971800  0.98905200  1
  O  O9  1  0.23502600  0.23502600  0.65972400  1
  O  O10  1  0.76037400  0.76037400  0.35372000  1
  O  O11  1  0.13214700  0.13214700  0.28648900  1
  O  O12  1  0.86277000  0.86277000  0.70478900  1
