# generated using pymatgen
data_NaHoIrO4
_symmetry_space_group_name_H-M   'P 1'
_cell_length_a   3.24639000
_cell_length_b   9.59895312
_cell_length_c   9.36304919
_cell_angle_alpha   120.83700402
_cell_angle_beta   90.00000000
_cell_angle_gamma   90.00000000
_symmetry_Int_Tables_number   1
_chemical_formula_structural   NaHoIrO4
_chemical_formula_sum   'Na3 Ho3 Ir3 O12'
_cell_volume   250.52289982
_cell_formula_units_Z   3
loop_
 _symmetry_equiv_pos_site_id
 _symmetry_equiv_pos_as_xyz
  1  'x, y, z'
loop_
 _atom_site_type_symbol
 _atom_site_label
 _atom_site_symmetry_multiplicity
 _atom_site_fract_x
 _atom_site_fract_y
 _atom_site_fract_z
 _atom_site_occupancy
  Na  Na0  1  0.00000000  0.01640600  0.00000000  1
  Na  Na1  1  0.50000000  0.30046300  0.30024300  1
  Na  Na2  1  0.50000000  0.00021900  0.69975700  1
  Ho  Ho3  1  0.50000000  0.31647100  0.65847300  1
  Ho  Ho4  1  0.50000000  0.65799800  0.34152700  1
  Ho  Ho5  1  0.50000000  0.70193600  0.00000000  1
  Ir  Ir6  1  0.00000000  0.33170100  0.00000000  1
  Ir  Ir7  1  0.00000000  0.67267600  0.67476600  1
  Ir  Ir8  1  0.00000000  0.99791000  0.32523400  1
  O  O9  1  0.50000000  0.46303100  0.00000000  1
  O  O10  1  0.50000000  0.54509700  0.54422400  1
  O  O11  1  0.50000000  0.00087300  0.45577600  1
  O  O12  1  0.50000000  0.20075400  0.00000000  1
  O  O13  1  0.50000000  0.80583000  0.82002600  1
  O  O14  1  0.50000000  0.98580400  0.17997400  1
  O  O15  1  0.00000000  0.46633700  0.25018300  1
  O  O16  1  0.00000000  0.78264700  0.53971000  1
  O  O17  1  0.00000000  0.74380500  0.19295500  1
  O  O18  1  0.00000000  0.21615400  0.74981700  1
  O  O19  1  0.00000000  0.24293800  0.46029000  1
  O  O20  1  0.00000000  0.55085000  0.80704500  1
