# generated using pymatgen
data_Nd3Ti12Bi13O48
_symmetry_space_group_name_H-M   'P 1'
_cell_length_a   5.46959500
_cell_length_b   10.89836548
_cell_length_c   16.91507155
_cell_angle_alpha   89.99711119
_cell_angle_beta   99.22869548
_cell_angle_gamma   90.02981930
_symmetry_Int_Tables_number   1
_chemical_formula_structural   Nd3Ti12Bi13O48
_chemical_formula_sum   'Nd3 Ti12 Bi13 O48'
_cell_volume   995.24989500
_cell_formula_units_Z   1
loop_
 _symmetry_equiv_pos_site_id
 _symmetry_equiv_pos_as_xyz
  1  'x, y, z'
loop_
 _atom_site_type_symbol
 _atom_site_label
 _atom_site_symmetry_multiplicity
 _atom_site_fract_x
 _atom_site_fract_y
 _atom_site_fract_z
 _atom_site_occupancy
  Nd  Nd0  1  0.99226000  0.00019200  0.87098500  1
  Nd  Nd1  1  0.49151900  0.74930900  0.87058300  1
  Nd  Nd2  1  0.48859100  0.24970700  0.87099300  1
  Ti  Ti3  1  0.94531200  0.75258000  0.74581500  1
  Ti  Ti4  1  0.94422900  0.24823300  0.74532400  1
  Ti  Ti5  1  0.43290800  0.49978200  0.74477700  1
  Ti  Ti6  1  0.44388900  0.99997800  0.74589000  1
  Ti  Ti7  1  0.05706600  0.74972100  0.00010000  1
  Ti  Ti8  1  0.05772700  0.25141800  0.99946800  1
  Ti  Ti9  1  0.55804900  0.99942800  0.99997700  1
  Ti  Ti10  1  0.55542300  0.49869200  0.00126200  1
  Ti  Ti11  1  0.19231300  0.75079700  0.25776200  1
  Ti  Ti12  1  0.19196000  0.25035400  0.25755100  1
  Ti  Ti13  1  0.69217700  0.99937800  0.25778600  1
  Ti  Ti14  1  0.69210300  0.49942300  0.25791600  1
  Bi  Bi15  1  0.81229500  0.98840600  0.57663100  1
  Bi  Bi16  1  0.81220100  0.48777200  0.57679300  1
  Bi  Bi17  1  0.31291200  0.76207700  0.57670300  1
  Bi  Bi18  1  0.31240500  0.26171700  0.57662400  1
  Bi  Bi19  1  0.24037800  0.51208200  0.42250000  1
  Bi  Bi20  1  0.24009600  0.01205800  0.42225300  1
  Bi  Bi21  1  0.74059500  0.73800100  0.42244000  1
  Bi  Bi22  1  0.74029700  0.23794900  0.42227700  1
  Bi  Bi23  1  0.08326100  0.99953400  0.13357400  1
  Bi  Bi24  1  0.08343200  0.49904100  0.13404000  1
  Bi  Bi25  1  0.58347100  0.75042000  0.13354600  1
  Bi  Bi26  1  0.58205100  0.25042600  0.13311900  1
  Bi  Bi27  1  0.95803900  0.50286000  0.86440800  1
  O  O28  1  0.20264200  0.88334900  0.78325200  1
  O  O29  1  0.20311500  0.38300700  0.78075200  1
  O  O30  1  0.70227000  0.86653800  0.78280600  1
  O  O31  1  0.70286600  0.36640100  0.78332000  1
  O  O32  1  0.41217300  0.60932700  0.22213500  1
  O  O33  1  0.41258100  0.10941900  0.22223500  1
  O  O34  1  0.91251400  0.64040900  0.22217600  1
  O  O35  1  0.91240700  0.14049400  0.22238200  1
  O  O36  1  0.36018200  0.85674600  0.98052300  1
  O  O37  1  0.36893600  0.35345100  0.98472700  1
  O  O38  1  0.86061400  0.89328500  0.98138100  1
  O  O39  1  0.85989200  0.39204400  0.98239100  1
  O  O40  1  0.23371600  0.63968900  0.75617200  1
  O  O41  1  0.22644900  0.13611000  0.75796900  1
  O  O42  1  0.73381900  0.61124800  0.75792800  1
  O  O43  1  0.72622000  0.11376300  0.75808800  1
  O  O44  1  0.53888200  0.87270700  0.49793300  1
  O  O45  1  0.53883600  0.37262600  0.49793100  1
  O  O46  1  0.03889400  0.87733500  0.49800800  1
  O  O47  1  0.03884200  0.37725400  0.49800200  1
  O  O48  1  0.50582000  0.84935800  0.25030800  1
  O  O49  1  0.50613800  0.34944100  0.24993600  1
  O  O50  1  0.00577100  0.90065500  0.25008100  1
  O  O51  1  0.00598000  0.40092000  0.24986100  1
  O  O52  1  0.02365600  0.71845400  0.88668300  1
  O  O53  1  0.03111200  0.21517400  0.88728600  1
  O  O54  1  0.54510100  0.53328200  0.88710400  1
  O  O55  1  0.52703000  0.03386900  0.88681300  1
  O  O56  1  0.24633300  0.72080600  0.36218700  1
  O  O57  1  0.24653000  0.22089600  0.36209800  1
  O  O58  1  0.74623500  0.52911600  0.36232700  1
  O  O59  1  0.74657300  0.02920800  0.36225600  1
  O  O60  1  0.89753300  0.78121500  0.64070600  1
  O  O61  1  0.89784200  0.27921900  0.64034200  1
  O  O62  1  0.39943800  0.96977800  0.64077000  1
  O  O63  1  0.39807100  0.47002800  0.63990600  1
  O  O64  1  0.04061500  0.62700200  0.50164500  1
  O  O65  1  0.04066600  0.12699000  0.50143200  1
  O  O66  1  0.54086500  0.62303700  0.50167000  1
  O  O67  1  0.54043300  0.12302900  0.50145800  1
  O  O68  1  0.31539000  0.61043800  0.01991500  1
  O  O69  1  0.30876500  0.10670400  0.01897400  1
  O  O70  1  0.81007800  0.64268400  0.02038600  1
  O  O71  1  0.80949200  0.14163200  0.01837900  1
  O  O72  1  0.16435100  0.78986600  0.11825800  1
  O  O73  1  0.16389900  0.28847600  0.11869700  1
  O  O74  1  0.66384900  0.96095200  0.11818900  1
  O  O75  1  0.66402500  0.46123000  0.11832400  1
