# generated using pymatgen
data_NaYbTi2O6
_symmetry_space_group_name_H-M   'P 1'
_cell_length_a   5.37699500
_cell_length_b   5.49718300
_cell_length_c   7.67187200
_cell_angle_alpha   90.00000000
_cell_angle_beta   90.00000000
_cell_angle_gamma   90.00000000
_symmetry_Int_Tables_number   1
_chemical_formula_structural   NaYbTi2O6
_chemical_formula_sum   'Na2 Yb2 Ti4 O12'
_cell_volume   226.76768981
_cell_formula_units_Z   2
loop_
 _symmetry_equiv_pos_site_id
 _symmetry_equiv_pos_as_xyz
  1  'x, y, z'
loop_
 _atom_site_type_symbol
 _atom_site_label
 _atom_site_symmetry_multiplicity
 _atom_site_fract_x
 _atom_site_fract_y
 _atom_site_fract_z
 _atom_site_occupancy
  Na  Na0  1  0.49549700  0.72272700  0.50000000  1
  Na  Na1  1  0.99549700  0.27727300  0.00000000  1
  Yb  Yb2  1  0.01337300  0.19477200  0.50000000  1
  Yb  Yb3  1  0.51337300  0.80522800  0.00000000  1
  Ti  Ti4  1  0.50493700  0.26170600  0.74801300  1
  Ti  Ti5  1  0.00493700  0.73829400  0.24801300  1
  Ti  Ti6  1  0.50493700  0.26170600  0.25198700  1
  Ti  Ti7  1  0.00493700  0.73829400  0.75198700  1
  O  O8  1  0.94115500  0.76708200  0.50000000  1
  O  O9  1  0.57676200  0.26587500  0.50000000  1
  O  O10  1  0.07676200  0.73412500  0.00000000  1
  O  O11  1  0.44115500  0.23291800  0.00000000  1
  O  O12  1  0.20309500  0.45714500  0.70702800  1
  O  O13  1  0.27857400  0.97088600  0.27866600  1
  O  O14  1  0.77857400  0.02911400  0.22133400  1
  O  O15  1  0.70309500  0.54285500  0.79297200  1
  O  O16  1  0.77857400  0.02911400  0.77866600  1
  O  O17  1  0.70309500  0.54285500  0.20702800  1
  O  O18  1  0.20309500  0.45714500  0.29297200  1
  O  O19  1  0.27857400  0.97088600  0.72133400  1
