# generated using pymatgen
data_Tm2Ni17
_symmetry_space_group_name_H-M   'P 1'
_cell_length_a   8.23694558
_cell_length_b   8.23694558
_cell_length_c   7.98161100
_cell_angle_alpha   90.00000000
_cell_angle_beta   90.00000000
_cell_angle_gamma   119.99999662
_symmetry_Int_Tables_number   1
_chemical_formula_structural   Tm2Ni17
_chemical_formula_sum   'Tm4 Ni34'
_cell_volume   468.97921736
_cell_formula_units_Z   2
loop_
 _symmetry_equiv_pos_site_id
 _symmetry_equiv_pos_as_xyz
  1  'x, y, z'
loop_
 _atom_site_type_symbol
 _atom_site_label
 _atom_site_symmetry_multiplicity
 _atom_site_fract_x
 _atom_site_fract_y
 _atom_site_fract_z
 _atom_site_occupancy
  Tm  Tm0  1  0.00000000  0.00000000  0.25000000  1
  Tm  Tm1  1  0.00000000  0.00000000  0.75000000  1
  Tm  Tm2  1  0.33333300  0.66666700  0.75000000  1
  Tm  Tm3  1  0.66666700  0.33333300  0.25000000  1
  Ni  Ni4  1  0.33333300  0.66666700  0.10109500  1
  Ni  Ni5  1  0.66666700  0.33333300  0.60109500  1
  Ni  Ni6  1  0.66666700  0.33333300  0.89890500  1
  Ni  Ni7  1  0.33333300  0.66666700  0.39890500  1
  Ni  Ni8  1  0.50000000  0.00000000  0.00000000  1
  Ni  Ni9  1  0.50000000  0.50000000  0.50000000  1
  Ni  Ni10  1  0.00000000  0.50000000  0.50000000  1
  Ni  Ni11  1  0.00000000  0.50000000  0.00000000  1
  Ni  Ni12  1  0.50000000  0.50000000  0.00000000  1
  Ni  Ni13  1  0.50000000  0.00000000  0.50000000  1
  Ni  Ni14  1  0.32749900  0.95800200  0.25000000  1
  Ni  Ni15  1  0.36949700  0.32749900  0.75000000  1
  Ni  Ni16  1  0.95800200  0.63050300  0.75000000  1
  Ni  Ni17  1  0.04199800  0.36949700  0.25000000  1
  Ni  Ni18  1  0.63050300  0.67250100  0.25000000  1
  Ni  Ni19  1  0.36949700  0.04199800  0.75000000  1
  Ni  Ni20  1  0.67250100  0.63050300  0.75000000  1
  Ni  Ni21  1  0.67250100  0.04199800  0.75000000  1
  Ni  Ni22  1  0.95800200  0.32749900  0.75000000  1
  Ni  Ni23  1  0.04199800  0.67250100  0.25000000  1
  Ni  Ni24  1  0.63050300  0.95800200  0.25000000  1
  Ni  Ni25  1  0.32749900  0.36949700  0.25000000  1
  Ni  Ni26  1  0.16530000  0.33060100  0.97805500  1
  Ni  Ni27  1  0.83470000  0.16530000  0.47805500  1
  Ni  Ni28  1  0.33060100  0.16530000  0.47805500  1
  Ni  Ni29  1  0.66939900  0.83470000  0.97805500  1
  Ni  Ni30  1  0.16530000  0.83470000  0.97805500  1
  Ni  Ni31  1  0.83470000  0.66939900  0.02194500  1
  Ni  Ni32  1  0.83470000  0.16530000  0.02194500  1
  Ni  Ni33  1  0.83470000  0.66939900  0.47805500  1
  Ni  Ni34  1  0.33060100  0.16530000  0.02194500  1
  Ni  Ni35  1  0.66939900  0.83470000  0.52194500  1
  Ni  Ni36  1  0.16530000  0.33060100  0.52194500  1
  Ni  Ni37  1  0.16530000  0.83470000  0.52194500  1
