# generated using pymatgen
data_NaHoTi2O6
_symmetry_space_group_name_H-M   'P 1'
_cell_length_a   5.31843100
_cell_length_b   5.54303400
_cell_length_c   7.62179400
_cell_angle_alpha   90.00000000
_cell_angle_beta   90.00000000
_cell_angle_gamma   90.00000000
_symmetry_Int_Tables_number   1
_chemical_formula_structural   NaHoTi2O6
_chemical_formula_sum   'Na2 Ho2 Ti4 O12'
_cell_volume   224.69234577
_cell_formula_units_Z   2
loop_
 _symmetry_equiv_pos_site_id
 _symmetry_equiv_pos_as_xyz
  1  'x, y, z'
loop_
 _atom_site_type_symbol
 _atom_site_label
 _atom_site_symmetry_multiplicity
 _atom_site_fract_x
 _atom_site_fract_y
 _atom_site_fract_z
 _atom_site_occupancy
  Na  Na0  1  0.49511400  0.71557700  0.50000000  1
  Na  Na1  1  0.99511400  0.28442300  0.00000000  1
  Ho  Ho2  1  0.01790600  0.17713600  0.50000000  1
  Ho  Ho3  1  0.51790600  0.82286400  0.00000000  1
  Ti  Ti4  1  0.51342300  0.26624900  0.75288300  1
  Ti  Ti5  1  0.01342300  0.73375100  0.25288300  1
  Ti  Ti6  1  0.51342300  0.26624900  0.24711700  1
  Ti  Ti7  1  0.01342300  0.73375100  0.74711700  1
  O  O8  1  0.18925400  0.44289000  0.69636600  1
  O  O9  1  0.27758000  0.96356400  0.29095500  1
  O  O10  1  0.77758000  0.03643600  0.20904500  1
  O  O11  1  0.68925400  0.55711000  0.80363400  1
  O  O12  1  0.77758000  0.03643600  0.79095500  1
  O  O13  1  0.68925400  0.55711000  0.19636600  1
  O  O14  1  0.18925400  0.44289000  0.30363400  1
  O  O15  1  0.27758000  0.96356400  0.70904500  1
  O  O16  1  0.92149300  0.77395700  0.50000000  1
  O  O17  1  0.60497300  0.27701800  0.50000000  1
  O  O18  1  0.10497300  0.72298200  0.00000000  1
  O  O19  1  0.42149300  0.22604300  0.00000000  1
