# generated using pymatgen
data_Pr5Ti4GaO17
_symmetry_space_group_name_H-M   'P 1'
_cell_length_a   5.53854400
_cell_length_b   7.78756800
_cell_length_c   32.07512528
_cell_angle_alpha   82.93634957
_cell_angle_beta   90.00000000
_cell_angle_gamma   90.00000000
_symmetry_Int_Tables_number   1
_chemical_formula_structural   Pr5Ti4GaO17
_chemical_formula_sum   'Pr20 Ti16 Ga4 O68'
_cell_volume   1372.95727411
_cell_formula_units_Z   4
loop_
 _symmetry_equiv_pos_site_id
 _symmetry_equiv_pos_as_xyz
  1  'x, y, z'
loop_
 _atom_site_type_symbol
 _atom_site_label
 _atom_site_symmetry_multiplicity
 _atom_site_fract_x
 _atom_site_fract_y
 _atom_site_fract_z
 _atom_site_occupancy
  Pr  Pr0  1  0.13158500  0.14277600  0.72057100  1
  Pr  Pr1  1  0.63844400  0.85453800  0.78040900  1
  Pr  Pr2  1  0.36155600  0.85453800  0.28040900  1
  Pr  Pr3  1  0.86841500  0.14277600  0.22057100  1
  Pr  Pr4  1  0.25222800  0.30328000  0.90410800  1
  Pr  Pr5  1  0.74503500  0.70098400  0.59483300  1
  Pr  Pr6  1  0.25496500  0.70098400  0.09483300  1
  Pr  Pr7  1  0.74777200  0.30328000  0.40410800  1
  Pr  Pr8  1  0.19502400  0.64193700  0.70300100  1
  Pr  Pr9  1  0.70235500  0.35893300  0.80176600  1
  Pr  Pr10  1  0.29764500  0.35893300  0.30176600  1
  Pr  Pr11  1  0.80497600  0.64193700  0.20300100  1
  Pr  Pr12  1  0.23742100  0.78176000  0.91710600  1
  Pr  Pr13  1  0.72962600  0.21233500  0.58175200  1
  Pr  Pr14  1  0.27037400  0.21233500  0.08175200  1
  Pr  Pr15  1  0.76257900  0.78176000  0.41710600  1
  Pr  Pr16  1  0.75675600  0.74204900  0.00480700  1
  Pr  Pr17  1  0.25722100  0.26017700  0.49244600  1
  Pr  Pr18  1  0.74277900  0.26017700  0.99244600  1
  Pr  Pr19  1  0.24324400  0.74204900  0.50480700  1
  Ti  Ti20  1  0.20437700  0.08402900  0.82330500  1
  Ti  Ti21  1  0.69592500  0.91926900  0.67633600  1
  Ti  Ti22  1  0.30407500  0.91926900  0.17633600  1
  Ti  Ti23  1  0.79562300  0.08402900  0.32330500  1
  Ti  Ti24  1  0.74057300  0.04667600  0.90638700  1
  Ti  Ti25  1  0.23094500  0.95171300  0.59282800  1
  Ti  Ti26  1  0.76905500  0.95171300  0.09282800  1
  Ti  Ti27  1  0.25942700  0.04667600  0.40638700  1
  Ti  Ti28  1  0.25314400  0.00219400  0.99905500  1
  Ti  Ti29  1  0.74685600  0.00219400  0.49905500  1
  Ti  Ti30  1  0.20423500  0.59638600  0.82258500  1
  Ti  Ti31  1  0.69016500  0.40594800  0.67864500  1
  Ti  Ti32  1  0.30983500  0.40594800  0.17864500  1
  Ti  Ti33  1  0.79576500  0.59638600  0.32258500  1
  Ti  Ti34  1  0.23332900  0.45518400  0.59342500  1
  Ti  Ti35  1  0.76667100  0.45518400  0.09342500  1
  Ga  Ga36  1  0.25223900  0.49972100  0.99970700  1
  Ga  Ga37  1  0.74776100  0.49972100  0.49970700  1
  Ga  Ga38  1  0.73652900  0.54575300  0.90598800  1
  Ga  Ga39  1  0.26347100  0.54575300  0.40598800  1
  O  O40  1  0.81909900  0.28436800  0.91861000  1
  O  O41  1  0.31715500  0.71206600  0.58030200  1
  O  O42  1  0.68284500  0.71206600  0.08030200  1
  O  O43  1  0.18090100  0.28436800  0.41861000  1
  O  O44  1  0.46858000  0.48735900  0.94905400  1
  O  O45  1  0.96950900  0.51230400  0.55156300  1
  O  O46  1  0.03049100  0.51230400  0.05156300  1
  O  O47  1  0.53142000  0.48735900  0.44905400  1
  O  O48  1  0.46046400  0.06388200  0.95036900  1
  O  O49  1  0.96296400  0.93882100  0.55110100  1
  O  O50  1  0.03703600  0.93882100  0.05110100  1
  O  O51  1  0.53953600  0.06388200  0.45036900  1
  O  O52  1  0.43187000  0.91605700  0.71132900  1
  O  O53  1  0.93706400  0.08058800  0.78891900  1
  O  O54  1  0.06293600  0.08058800  0.28891900  1
  O  O55  1  0.56813000  0.91605700  0.21132900  1
  O  O56  1  0.42228100  0.13161600  0.77944200  1
  O  O57  1  0.91671500  0.87117700  0.72009100  1
  O  O58  1  0.08328500  0.87117700  0.22009100  1
  O  O59  1  0.57771900  0.13161600  0.27944200  1
  O  O60  1  0.14047700  0.33176100  0.82912700  1
  O  O61  1  0.64478600  0.66416100  0.67077800  1
  O  O62  1  0.35521400  0.66416100  0.17077800  1
  O  O63  1  0.85952300  0.33176100  0.32912700  1
  O  O64  1  0.40723900  0.37012700  0.70387600  1
  O  O65  1  0.92267000  0.63039300  0.79446500  1
  O  O66  1  0.07733000  0.63039300  0.29446500  1
  O  O67  1  0.59276100  0.37012700  0.20387600  1
  O  O68  1  0.53158300  0.02626500  0.03601700  1
  O  O69  1  0.03289600  0.97868500  0.46495000  1
  O  O70  1  0.96710400  0.97868500  0.96495000  1
  O  O71  1  0.46841700  0.02626500  0.53601700  1
  O  O72  1  0.53142000  0.44010000  0.03629000  1
  O  O73  1  0.02929300  0.55755700  0.46439800  1
  O  O74  1  0.97070700  0.55755700  0.96439800  1
  O  O75  1  0.46858000  0.44010000  0.53629000  1
  O  O76  1  0.03732500  0.87092700  0.63701900  1
  O  O77  1  0.53770000  0.12460000  0.86293800  1
  O  O78  1  0.46230000  0.12460000  0.36293800  1
  O  O79  1  0.96267500  0.87092700  0.13701900  1
  O  O80  1  0.40926300  0.59384100  0.77413900  1
  O  O81  1  0.90095900  0.40396900  0.72514700  1
  O  O82  1  0.09904100  0.40396900  0.22514700  1
  O  O83  1  0.59073700  0.59384100  0.27413900  1
  O  O84  1  0.67528200  0.79843300  0.91314800  1
  O  O85  1  0.17484900  0.20553300  0.58998700  1
  O  O86  1  0.82515100  0.20553300  0.08998700  1
  O  O87  1  0.32471800  0.79843300  0.41314800  1
  O  O88  1  0.04128200  0.49304500  0.63785400  1
  O  O89  1  0.52495000  0.50702200  0.85992200  1
  O  O90  1  0.47505000  0.50702200  0.35992200  1
  O  O91  1  0.95871800  0.49304500  0.13785400  1
  O  O92  1  0.54804300  0.42252000  0.61897200  1
  O  O93  1  0.04879100  0.58019800  0.88023000  1
  O  O94  1  0.95120900  0.58019800  0.38023000  1
  O  O95  1  0.45195700  0.42252000  0.11897200  1
  O  O96  1  0.29660100  0.83485800  0.83057700  1
  O  O97  1  0.78735000  0.16582600  0.66886000  1
  O  O98  1  0.21265000  0.16582600  0.16886000  1
  O  O99  1  0.70339900  0.83485800  0.33057700  1
  O  O100  1  0.32380300  0.75558700  0.99783000  1
  O  O101  1  0.82751200  0.24525500  0.50363000  1
  O  O102  1  0.17248800  0.24525500  0.00363000  1
  O  O103  1  0.67619700  0.75558700  0.49783000  1
  O  O104  1  0.54499700  0.96096400  0.61914100  1
  O  O105  1  0.04889900  0.03449700  0.88086100  1
  O  O106  1  0.95110100  0.03449700  0.38086100  1
  O  O107  1  0.45500300  0.96096400  0.11914100  1
