# generated using pymatgen
data_Na6Sm4Ge4Se17
_symmetry_space_group_name_H-M   'P 1'
_cell_length_a   12.81247054
_cell_length_b   12.81247054
_cell_length_c   6.99168961
_cell_angle_alpha   78.20347702
_cell_angle_beta   78.20347702
_cell_angle_gamma   51.53427954
_symmetry_Int_Tables_number   1
_chemical_formula_structural   Na6Sm4Ge4Se17
_chemical_formula_sum   'Na6 Sm4 Ge4 Se17'
_cell_volume   875.20535932
_cell_formula_units_Z   1
loop_
 _symmetry_equiv_pos_site_id
 _symmetry_equiv_pos_as_xyz
  1  'x, y, z'
loop_
 _atom_site_type_symbol
 _atom_site_label
 _atom_site_symmetry_multiplicity
 _atom_site_fract_x
 _atom_site_fract_y
 _atom_site_fract_z
 _atom_site_occupancy
  Na  Na0  1  0.40960200  0.40337200  0.84276900  1
  Na  Na1  1  0.59662800  0.59039800  0.15723100  1
  Na  Na2  1  0.60182800  0.58863100  0.70524500  1
  Na  Na3  1  0.41136900  0.39817200  0.29475500  1
  Na  Na4  1  0.82215500  0.16438800  0.24269500  1
  Na  Na5  1  0.83561200  0.17784500  0.75730500  1
  Sm  Sm6  1  0.67075200  0.94571300  0.42366900  1
  Sm  Sm7  1  0.05428700  0.32924800  0.57633100  1
  Sm  Sm8  1  0.32769700  0.04348900  0.08435200  1
  Sm  Sm9  1  0.95651100  0.67230300  0.91564800  1
  Ge  Ge10  1  0.34724400  0.94939300  0.61908200  1
  Ge  Ge11  1  0.05060700  0.65275600  0.38091800  1
  Ge  Ge12  1  0.64562800  0.05238300  0.88937100  1
  Ge  Ge13  1  0.94761700  0.35437200  0.11062900  1
  Se  Se14  1  0.62383100  0.18305700  0.57939300  1
  Se  Se15  1  0.81694300  0.37616900  0.42060700  1
  Se  Se16  1  0.36243300  0.82383800  0.92306400  1
  Se  Se17  1  0.17616200  0.63756700  0.07693600  1
  Se  Se18  1  0.86745500  0.65254800  0.34922500  1
  Se  Se19  1  0.34745200  0.13254500  0.65077500  1
  Se  Se20  1  0.13485500  0.34505300  0.14492200  1
  Se  Se21  1  0.65494700  0.86514500  0.85507800  1
  Se  Se22  1  0.52890400  0.82437100  0.37526100  1
  Se  Se23  1  0.17562900  0.47109600  0.62473900  1
  Se  Se24  1  0.46584800  0.16159300  0.14034500  1
  Se  Se25  1  0.83840700  0.53415200  0.85965500  1
  Se  Se26  1  0.84223600  0.95201200  0.04125600  1
  Se  Se27  1  0.04798800  0.15776400  0.95874400  1
  Se  Se28  1  0.15277500  0.05685600  0.45879700  1
  Se  Se29  1  0.94314400  0.84722500  0.54120300  1
  Se  Se30  1  0.61175400  0.38824600  0.00000000  1
