# generated using pymatgen
data_NaSr12Ni7O23
_symmetry_space_group_name_H-M   'P 1'
_cell_length_a   8.01728100
_cell_length_b   9.56959113
_cell_length_c   9.68699925
_cell_angle_alpha   119.36799536
_cell_angle_beta   90.32986513
_cell_angle_gamma   90.06993140
_symmetry_Int_Tables_number   1
_chemical_formula_structural   NaSr12Ni7O23
_chemical_formula_sum   'Na1 Sr12 Ni7 O23'
_cell_volume   647.67813520
_cell_formula_units_Z   1
loop_
 _symmetry_equiv_pos_site_id
 _symmetry_equiv_pos_as_xyz
  1  'x, y, z'
loop_
 _atom_site_type_symbol
 _atom_site_label
 _atom_site_symmetry_multiplicity
 _atom_site_fract_x
 _atom_site_fract_y
 _atom_site_fract_z
 _atom_site_occupancy
  Na  Na0  1  0.49893600  0.99983100  0.99786800  1
  Sr  Sr1  1  0.72463900  0.70601400  0.03021100  1
  Sr  Sr2  1  0.72057200  0.32211400  0.29383400  1
  Sr  Sr3  1  0.72947800  0.97466700  0.67507700  1
  Sr  Sr4  1  0.25916100  0.02712800  0.69445300  1
  Sr  Sr5  1  0.25967000  0.66693200  0.97138100  1
  Sr  Sr6  1  0.26699100  0.29568400  0.33240300  1
  Sr  Sr7  1  0.00851800  0.96130300  0.28912900  1
  Sr  Sr8  1  0.00684200  0.32536100  0.01995700  1
  Sr  Sr9  1  0.00146000  0.71396000  0.68825600  1
  Sr  Sr10  1  0.50328100  0.00867100  0.37002300  1
  Sr  Sr11  1  0.49327600  0.35995500  0.99279800  1
  Sr  Sr12  1  0.49434300  0.63317900  0.63910400  1
  Ni  Ni13  1  0.84217500  0.00594000  0.00230900  1
  Ni  Ni14  1  0.15817100  0.00561700  0.00408500  1
  Ni  Ni15  1  0.92732200  0.66380500  0.33164200  1
  Ni  Ni16  1  0.12906200  0.33109600  0.65642000  1
  Ni  Ni17  1  0.61079200  0.66862700  0.33551400  1
  Ni  Ni18  1  0.44776800  0.33356000  0.66947600  1
  Ni  Ni19  1  0.28616500  0.68490100  0.33510600  1
  O  O20  1  0.76974200  0.63635100  0.47252300  1
  O  O21  1  0.76181500  0.83836900  0.36198300  1
  O  O22  1  0.76514400  0.52685100  0.17390900  1
  O  O23  1  0.18752400  0.49692300  0.61897200  1
  O  O24  1  0.19121200  0.13053800  0.49547100  1
  O  O25  1  0.19728200  0.35771200  0.85089100  1
  O  O26  1  0.71532300  0.16821500  0.99482100  1
  O  O27  1  0.71626400  0.83619600  0.83908500  1
  O  O28  1  0.71569300  0.00731000  0.16773400  1
  O  O29  1  0.28487500  0.98396600  0.15658300  1
  O  O30  1  0.28451300  0.17962500  0.02356600  1
  O  O31  1  0.28174600  0.84928500  0.83339900  1
  O  O32  1  0.99827100  0.01982100  0.85568200  1
  O  O33  1  0.99808200  0.84465100  0.99274800  1
  O  O34  1  0.99840000  0.15903500  0.16534100  1
  O  O35  1  0.52677500  0.15865700  0.69461400  1
  O  O36  1  0.52472900  0.53539100  0.84233000  1
  O  O37  1  0.52794300  0.30984700  0.47103700  1
  O  O38  1  0.47178000  0.69708900  0.19257600  1
  O  O39  1  0.45609800  0.50345300  0.30807200  1
  O  O40  1  0.47281900  0.81142600  0.50197700  1
  O  O41  1  0.08553300  0.63676500  0.17970700  1
  O  O42  1  0.09201700  0.77887800  0.48223200  1
