# generated using pymatgen
data_NaTiSn(PO4)3
_symmetry_space_group_name_H-M   'P 1'
_cell_length_a   8.99960114
_cell_length_b   8.99960114
_cell_length_c   8.99960121
_cell_angle_alpha   57.66898882
_cell_angle_beta   57.66898882
_cell_angle_gamma   57.66898780
_symmetry_Int_Tables_number   1
_chemical_formula_structural   NaTiSn(PO4)3
_chemical_formula_sum   'Na2 Ti2 Sn2 P6 O24'
_cell_volume   487.80430767
_cell_formula_units_Z   2
loop_
 _symmetry_equiv_pos_site_id
 _symmetry_equiv_pos_as_xyz
  1  'x, y, z'
loop_
 _atom_site_type_symbol
 _atom_site_label
 _atom_site_symmetry_multiplicity
 _atom_site_fract_x
 _atom_site_fract_y
 _atom_site_fract_z
 _atom_site_occupancy
  Na  Na0  1  0.50084200  0.50084200  0.50084200  1
  Na  Na1  1  0.00084200  0.00084200  0.00084200  1
  Ti  Ti2  1  0.64530400  0.64530400  0.64530400  1
  Ti  Ti3  1  0.14530400  0.14530400  0.14530400  1
  Sn  Sn4  1  0.35300600  0.35300600  0.35300600  1
  Sn  Sn5  1  0.85300600  0.85300600  0.85300600  1
  P  P6  1  0.45871200  0.03820200  0.75104200  1
  P  P7  1  0.03820200  0.75104200  0.45871200  1
  P  P8  1  0.75104200  0.45871200  0.03820200  1
  P  P9  1  0.95871200  0.25104200  0.53820200  1
  P  P10  1  0.25104200  0.53820200  0.95871200  1
  P  P11  1  0.53820200  0.95871200  0.25104200  1
  O  O12  1  0.56087200  0.77971900  0.42550300  1
  O  O13  1  0.77971900  0.42550300  0.56087200  1
  O  O14  1  0.42550300  0.56087200  0.77971900  1
  O  O15  1  0.06087200  0.92550300  0.27971900  1
  O  O16  1  0.92550300  0.27971900  0.06087200  1
  O  O17  1  0.27971900  0.06087200  0.92550300  1
  O  O18  1  0.43321700  0.22097900  0.58119300  1
  O  O19  1  0.22097900  0.58119300  0.43321700  1
  O  O20  1  0.58119300  0.43321700  0.22097900  1
  O  O21  1  0.93321700  0.08119300  0.72097900  1
  O  O22  1  0.08119300  0.72097900  0.93321700  1
  O  O23  1  0.72097900  0.93321700  0.08119300  1
  O  O24  1  0.49771300  0.86653700  0.71784500  1
  O  O25  1  0.86653700  0.71784500  0.49771300  1
  O  O26  1  0.71784500  0.49771300  0.86653700  1
  O  O27  1  0.99771300  0.21784500  0.36653700  1
  O  O28  1  0.21784500  0.36653700  0.99771300  1
  O  O29  1  0.36653700  0.99771300  0.21784500  1
  O  O30  1  0.51702300  0.12433300  0.27795900  1
  O  O31  1  0.12433300  0.27795900  0.51702300  1
  O  O32  1  0.27795900  0.51702300  0.12433300  1
  O  O33  1  0.01702300  0.77795900  0.62433300  1
  O  O34  1  0.77795900  0.62433300  0.01702300  1
  O  O35  1  0.62433300  0.01702300  0.77795900  1
