# generated using pymatgen
data_Rb4Cu8(GeS4)3
_symmetry_space_group_name_H-M   'P 1'
_cell_length_a   12.69432917
_cell_length_b   12.69432917
_cell_length_c   12.69432917
_cell_angle_alpha   121.85088866
_cell_angle_beta   121.85088866
_cell_angle_gamma   86.82298963
_symmetry_Int_Tables_number   1
_chemical_formula_structural   Rb4Cu8(GeS4)3
_chemical_formula_sum   'Rb8 Cu16 Ge6 S24'
_cell_volume   1403.67139707
_cell_formula_units_Z   2
loop_
 _symmetry_equiv_pos_site_id
 _symmetry_equiv_pos_as_xyz
  1  'x, y, z'
loop_
 _atom_site_type_symbol
 _atom_site_label
 _atom_site_symmetry_multiplicity
 _atom_site_fract_x
 _atom_site_fract_y
 _atom_site_fract_z
 _atom_site_occupancy
  Rb  Rb0  1  0.32403000  0.17597000  0.50000000  1
  Rb  Rb1  1  0.67597000  0.82403000  0.50000000  1
  Rb  Rb2  1  0.82403000  0.32403000  0.14806100  1
  Rb  Rb3  1  0.17597000  0.67597000  0.85193900  1
  Rb  Rb4  1  0.84860100  0.34860100  0.50000000  1
  Rb  Rb5  1  0.15139900  0.65139900  0.50000000  1
  Rb  Rb6  1  0.34860100  0.84860100  0.50000000  1
  Rb  Rb7  1  0.65139900  0.15139900  0.50000000  1
  Cu  Cu8  1  0.65947800  0.84087400  0.81897500  1
  Cu  Cu9  1  0.65912600  0.84052200  0.18102500  1
  Cu  Cu10  1  0.65949700  0.47810100  0.81897500  1
  Cu  Cu11  1  0.02189900  0.84050300  0.18102500  1
  Cu  Cu12  1  0.15947800  0.34050300  0.81860300  1
  Cu  Cu13  1  0.15949700  0.34052200  0.18139700  1
  Cu  Cu14  1  0.15912600  0.97810100  0.81860300  1
  Cu  Cu15  1  0.52189900  0.34087400  0.18139700  1
  Cu  Cu16  1  0.83673400  0.65408900  0.17610900  1
  Cu  Cu17  1  0.84591100  0.66326600  0.82389100  1
  Cu  Cu18  1  0.83937500  0.02201900  0.17610900  1
  Cu  Cu19  1  0.47798100  0.66062500  0.82389100  1
  Cu  Cu20  1  0.33673400  0.16062500  0.18264500  1
  Cu  Cu21  1  0.33937500  0.16326600  0.81735500  1
  Cu  Cu22  1  0.34591100  0.52201900  0.18264500  1
  Cu  Cu23  1  0.97798100  0.15408900  0.81735500  1
  Ge  Ge24  1  0.50064000  0.50064000  0.50127900  1
  Ge  Ge25  1  0.99936000  0.99936000  0.49872100  1
  Ge  Ge26  1  0.50000000  0.50000000  0.00000000  1
  Ge  Ge27  1  0.00000000  0.00000000  0.00000000  1
  Ge  Ge28  1  0.49936000  0.00064000  0.00000000  1
  Ge  Ge29  1  0.00064000  0.49936000  0.00000000  1
  S  S30  1  0.67520100  0.67244500  0.64197800  1
  S  S31  1  0.82755500  0.82479900  0.35802200  1
  S  S32  1  0.46677700  0.46953300  0.64197800  1
  S  S33  1  0.03046700  0.03322300  0.35802200  1
  S  S34  1  0.31841100  0.32433900  0.78842200  1
  S  S35  1  0.17566100  0.18158900  0.21157800  1
  S  S36  1  0.97001100  0.96408300  0.78842200  1
  S  S37  1  0.53591700  0.52998900  0.21157800  1
  S  S38  1  0.67566100  0.46408300  0.99407200  1
  S  S39  1  0.81841100  0.02998900  0.99407200  1
  S  S40  1  0.47001100  0.68158900  0.00592800  1
  S  S41  1  0.03591700  0.82433900  0.00592800  1
  S  S42  1  0.32755500  0.96953300  0.00275600  1
  S  S43  1  0.17520100  0.53322300  0.00275600  1
  S  S44  1  0.96677700  0.32479900  0.99724400  1
  S  S45  1  0.53046700  0.17244500  0.99724400  1
  S  S46  1  0.68196800  0.03106800  0.21122300  1
  S  S47  1  0.81984500  0.47074500  0.78877700  1
  S  S48  1  0.46893200  0.81803200  0.78877700  1
  S  S49  1  0.02925500  0.68015500  0.21122300  1
  S  S50  1  0.31984500  0.53106800  0.34910000  1
  S  S51  1  0.18196800  0.97074500  0.65090000  1
  S  S52  1  0.96893200  0.18015500  0.65090000  1
  S  S53  1  0.52925500  0.31803200  0.34910000  1
