# generated using pymatgen
data_NaEuTi2O6
_symmetry_space_group_name_H-M   'P 1'
_cell_length_a   5.43782000
_cell_length_b   5.50522100
_cell_length_c   7.74591000
_cell_angle_alpha   90.00000000
_cell_angle_beta   90.00000000
_cell_angle_gamma   90.00000000
_symmetry_Int_Tables_number   1
_chemical_formula_structural   NaEuTi2O6
_chemical_formula_sum   'Na2 Eu2 Ti4 O12'
_cell_volume   231.88466677
_cell_formula_units_Z   2
loop_
 _symmetry_equiv_pos_site_id
 _symmetry_equiv_pos_as_xyz
  1  'x, y, z'
loop_
 _atom_site_type_symbol
 _atom_site_label
 _atom_site_symmetry_multiplicity
 _atom_site_fract_x
 _atom_site_fract_y
 _atom_site_fract_z
 _atom_site_occupancy
  Na  Na0  1  0.49564200  0.77709600  0.50000000  1
  Na  Na1  1  0.99564200  0.22290400  0.00000000  1
  Eu  Eu2  1  0.00550400  0.29001000  0.50000000  1
  Eu  Eu3  1  0.50550400  0.70999000  0.00000000  1
  Ti  Ti4  1  0.50367400  0.24338000  0.75121700  1
  Ti  Ti5  1  0.00367400  0.75662000  0.25121700  1
  Ti  Ti6  1  0.50367400  0.24338000  0.24878300  1
  Ti  Ti7  1  0.00367400  0.75662000  0.74878300  1
  O  O8  1  0.57165800  0.23509900  0.50000000  1
  O  O9  1  0.94173200  0.73416100  0.50000000  1
  O  O10  1  0.44173200  0.26583900  0.00000000  1
  O  O11  1  0.07165800  0.76490100  0.00000000  1
  O  O12  1  0.28206800  0.53352300  0.72038500  1
  O  O13  1  0.20699000  0.04208300  0.28755400  1
  O  O14  1  0.70699000  0.95791700  0.21244600  1
  O  O15  1  0.78206800  0.46647700  0.77961500  1
  O  O16  1  0.70699000  0.95791700  0.78755400  1
  O  O17  1  0.78206800  0.46647700  0.22038500  1
  O  O18  1  0.28206800  0.53352300  0.27961500  1
  O  O19  1  0.20699000  0.04208300  0.71244600  1
