# generated using pymatgen
data_NaCoO2
_symmetry_space_group_name_H-M   'P 1'
_cell_length_a   5.74343653
_cell_length_b   5.74343653
_cell_length_c   5.74343614
_cell_angle_alpha   30.47616507
_cell_angle_beta   30.47616507
_cell_angle_gamma   30.47615493
_symmetry_Int_Tables_number   1
_chemical_formula_structural   NaCoO2
_chemical_formula_sum   'Na1 Co1 O2'
_cell_volume   43.19913658
_cell_formula_units_Z   1
loop_
 _symmetry_equiv_pos_site_id
 _symmetry_equiv_pos_as_xyz
  1  'x, y, z'
loop_
 _atom_site_type_symbol
 _atom_site_label
 _atom_site_symmetry_multiplicity
 _atom_site_fract_x
 _atom_site_fract_y
 _atom_site_fract_z
 _atom_site_occupancy
  Na  Na0  1  0.83102500  0.83102500  0.83102500  1
  Co  Co1  1  0.00056500  0.00056500  0.00056500  1
  O  O2  1  0.60167200  0.60167200  0.60167200  1
  O  O3  1  0.39909400  0.39909400  0.39909400  1
