# generated using pymatgen
data_Nb2PbO6
_symmetry_space_group_name_H-M   'P 1'
_cell_length_a   3.94725600
_cell_length_b   12.99088900
_cell_length_c   13.07360430
_cell_angle_alpha   87.77966308
_cell_angle_beta   90.00000000
_cell_angle_gamma   90.00000000
_symmetry_Int_Tables_number   1
_chemical_formula_structural   Nb2PbO6
_chemical_formula_sum   'Nb10 Pb5 O30'
_cell_volume   669.88973475
_cell_formula_units_Z   5
loop_
 _symmetry_equiv_pos_site_id
 _symmetry_equiv_pos_as_xyz
  1  'x, y, z'
loop_
 _atom_site_type_symbol
 _atom_site_label
 _atom_site_symmetry_multiplicity
 _atom_site_fract_x
 _atom_site_fract_y
 _atom_site_fract_z
 _atom_site_occupancy
  Nb  Nb0  1  0.00000000  0.93765300  0.29663300  1
  Nb  Nb1  1  0.00000000  0.29169000  0.93165000  1
  Nb  Nb2  1  0.00000000  0.21107000  0.43968000  1
  Nb  Nb3  1  0.00000000  0.43096600  0.21973600  1
  Nb  Nb4  1  0.00000000  0.08547000  0.71161300  1
  Nb  Nb5  1  0.00000000  0.71854900  0.08543600  1
  Nb  Nb6  1  0.00000000  0.50312500  0.50525500  1
  Nb  Nb7  1  0.00000000  0.80390700  0.57637700  1
  Nb  Nb8  1  0.00000000  0.58590200  0.78511700  1
  Nb  Nb9  1  0.00000000  0.00067700  0.00336100  1
  Pb  Pb10  1  0.50000000  0.71752800  0.37990600  1
  Pb  Pb11  1  0.50000000  0.36968900  0.72338900  1
  Pb  Pb12  1  0.50000000  0.87360200  0.83708300  1
  Pb  Pb13  1  0.50000000  0.19666300  0.21959800  1
  Pb  Pb14  1  0.50000000  0.51332800  0.00798500  1
  O  O15  1  0.50000000  0.06561600  0.71203600  1
  O  O16  1  0.50000000  0.68905400  0.07043800  1
  O  O17  1  0.00000000  0.71457300  0.70882000  1
  O  O18  1  0.50000000  0.78220600  0.55689100  1
  O  O19  1  0.50000000  0.55842300  0.78301000  1
  O  O20  1  0.00000000  0.92609200  0.63653700  1
  O  O21  1  0.00000000  0.62589200  0.92168200  1
  O  O22  1  0.00000000  0.13315800  0.56310700  1
  O  O23  1  0.00000000  0.55444300  0.12584700  1
  O  O24  1  0.00000000  0.65037500  0.48520200  1
  O  O25  1  0.00000000  0.49272600  0.65191800  1
  O  O26  1  0.50000000  0.20401200  0.40276600  1
  O  O27  1  0.50000000  0.40847400  0.19673200  1
  O  O28  1  0.50000000  0.49451400  0.49775000  1
  O  O29  1  0.00000000  0.98779700  0.14713900  1
  O  O30  1  0.00000000  0.14553800  0.98944300  1
  O  O31  1  0.00000000  0.33942900  0.49434300  1
  O  O32  1  0.00000000  0.49613400  0.34046700  1
  O  O33  1  0.00000000  0.84796900  0.42359100  1
  O  O34  1  0.00000000  0.42019300  0.84248100  1
  O  O35  1  0.00000000  0.07073400  0.34084100  1
  O  O36  1  0.00000000  0.35122200  0.05776300  1
  O  O37  1  0.00000000  0.28062200  0.27680000  1
  O  O38  1  0.00000000  0.77498600  0.21195700  1
  O  O39  1  0.00000000  0.21440200  0.76914200  1
  O  O40  1  0.50000000  0.91228300  0.29124700  1
  O  O41  1  0.50000000  0.28842200  0.90661100  1
  O  O42  1  0.00000000  0.98357800  0.83716200  1
  O  O43  1  0.00000000  0.83381700  0.99070600  1
  O  O44  1  0.50000000  0.98139600  0.98165400  1
