# generated using pymatgen
data_NaTl3S2
_symmetry_space_group_name_H-M   'P 1'
_cell_length_a   4.29341600
_cell_length_b   7.30850800
_cell_length_c   12.37711000
_cell_angle_alpha   90.00000000
_cell_angle_beta   90.00000000
_cell_angle_gamma   90.00000000
_symmetry_Int_Tables_number   1
_chemical_formula_structural   NaTl3S2
_chemical_formula_sum   'Na2 Tl6 S4'
_cell_volume   388.37471521
_cell_formula_units_Z   2
loop_
 _symmetry_equiv_pos_site_id
 _symmetry_equiv_pos_as_xyz
  1  'x, y, z'
loop_
 _atom_site_type_symbol
 _atom_site_label
 _atom_site_symmetry_multiplicity
 _atom_site_fract_x
 _atom_site_fract_y
 _atom_site_fract_z
 _atom_site_occupancy
  Na  Na0  1  0.75000000  0.57580500  0.10902100  1
  Na  Na1  1  0.75000000  0.07580500  0.39097900  1
  Tl  Tl2  1  0.25000000  0.59370700  0.36696000  1
  Tl  Tl3  1  0.25000000  0.09370700  0.13304000  1
  Tl  Tl4  1  0.75000000  0.40085600  0.62188700  1
  Tl  Tl5  1  0.75000000  0.90085600  0.87811300  1
  Tl  Tl6  1  0.25000000  0.43149200  0.87251600  1
  Tl  Tl7  1  0.25000000  0.93149200  0.62748400  1
  S  S8  1  0.25000000  0.75017900  0.02044000  1
  S  S9  1  0.25000000  0.25017900  0.47956000  1
  S  S10  1  0.75000000  0.24796100  0.99983500  1
  S  S11  1  0.75000000  0.74796100  0.50016500  1
