# generated using pymatgen
data_NaTi2(P2O7)2
_symmetry_space_group_name_H-M   'P 1'
_cell_length_a   4.91445800
_cell_length_b   7.08678492
_cell_length_c   8.11155399
_cell_angle_alpha   90.83689849
_cell_angle_beta   93.79632371
_cell_angle_gamma   105.72929368
_symmetry_Int_Tables_number   1
_chemical_formula_structural   NaTi2(P2O7)2
_chemical_formula_sum   'Na1 Ti2 P4 O14'
_cell_volume   271.17526494
_cell_formula_units_Z   1
loop_
 _symmetry_equiv_pos_site_id
 _symmetry_equiv_pos_as_xyz
  1  'x, y, z'
loop_
 _atom_site_type_symbol
 _atom_site_label
 _atom_site_symmetry_multiplicity
 _atom_site_fract_x
 _atom_site_fract_y
 _atom_site_fract_z
 _atom_site_occupancy
  Na  Na0  1  0.93569600  0.99279200  0.00890900  1
  Ti  Ti1  1  0.49810000  0.49714300  0.99970600  1
  Ti  Ti2  1  0.00020100  0.99982800  0.50081800  1
  P  P3  1  0.01022900  0.62568700  0.75631800  1
  P  P4  1  0.98940100  0.37522900  0.24439100  1
  P  P5  1  0.62236000  0.23665900  0.69793100  1
  P  P6  1  0.37858000  0.76443500  0.30162500  1
  O  O7  1  0.26820900  0.55501000  0.81040400  1
  O  O8  1  0.73122100  0.44567100  0.19053700  1
  O  O9  1  0.79474100  0.45305700  0.64355200  1
  O  O10  1  0.20676400  0.54740600  0.35572100  1
  O  O11  1  0.81867000  0.10153400  0.69159900  1
  O  O12  1  0.17967400  0.89751700  0.30841900  1
  O  O13  1  0.85325300  0.66811900  0.90502300  1
  O  O14  1  0.14294900  0.33083800  0.09461800  1
  O  O15  1  0.36734800  0.18032800  0.57186200  1
  O  O16  1  0.63240600  0.82116100  0.42860900  1
  O  O17  1  0.08947200  0.80127300  0.64710200  1
  O  O18  1  0.90998300  0.19800900  0.35195600  1
  O  O19  1  0.54189100  0.25610300  0.87647700  1
  O  O20  1  0.46515200  0.74530100  0.12422400  1
