# generated using pymatgen
data_Nb12I21Br
_symmetry_space_group_name_H-M   'P 1'
_cell_length_a   11.49099700
_cell_length_b   13.73590800
_cell_length_c   15.58822732
_cell_angle_alpha   89.90089528
_cell_angle_beta   90.00000000
_cell_angle_gamma   90.00000000
_symmetry_Int_Tables_number   1
_chemical_formula_structural   Nb12I21Br
_chemical_formula_sum   'Nb24 I42 Br2'
_cell_volume   2460.43085876
_cell_formula_units_Z   2
loop_
 _symmetry_equiv_pos_site_id
 _symmetry_equiv_pos_as_xyz
  1  'x, y, z'
loop_
 _atom_site_type_symbol
 _atom_site_label
 _atom_site_symmetry_multiplicity
 _atom_site_fract_x
 _atom_site_fract_y
 _atom_site_fract_z
 _atom_site_occupancy
  Nb  Nb0  1  0.88646700  0.77882700  0.59982100  1
  Nb  Nb1  1  0.38646700  0.22117300  0.40017900  1
  Nb  Nb2  1  0.38945200  0.72225100  0.09728000  1
  Nb  Nb3  1  0.88945200  0.27774900  0.90272000  1
  Nb  Nb4  1  0.92823200  0.87834400  0.45341800  1
  Nb  Nb5  1  0.42823200  0.12165600  0.54658200  1
  Nb  Nb6  1  0.42955500  0.62165700  0.95193800  1
  Nb  Nb7  1  0.92955500  0.37834300  0.04806200  1
  Nb  Nb8  1  0.86866600  0.66575900  0.44788500  1
  Nb  Nb9  1  0.36866600  0.33424100  0.55211500  1
  Nb  Nb10  1  0.37047000  0.83515400  0.94641700  1
  Nb  Nb11  1  0.87047000  0.16484600  0.05358300  1
  Nb  Nb12  1  0.08822000  0.72448600  0.39150400  1
  Nb  Nb13  1  0.58822000  0.27551400  0.60849600  1
  Nb  Nb14  1  0.58931700  0.77680600  0.88893100  1
  Nb  Nb15  1  0.08931700  0.22319400  0.11106900  1
  Nb  Nb16  1  0.07287400  0.63466600  0.55624200  1
  Nb  Nb17  1  0.57287400  0.36533400  0.44375800  1
  Nb  Nb18  1  0.57374600  0.86597000  0.05461800  1
  Nb  Nb19  1  0.07374600  0.13403000  0.94538200  1
  Nb  Nb20  1  0.13137200  0.82401300  0.55123700  1
  Nb  Nb21  1  0.63137200  0.17598700  0.44876300  1
  Nb  Nb22  1  0.63318900  0.67649500  0.05020400  1
  Nb  Nb23  1  0.13318900  0.32350500  0.94979600  1
  I  I24  1  0.18724700  0.46249500  0.63810600  1
  I  I25  1  0.68724700  0.53750500  0.36189400  1
  I  I26  1  0.68738400  0.03735600  0.13819500  1
  I  I27  1  0.18738400  0.96264400  0.86180500  1
  I  I28  1  0.84371200  0.57175000  0.61313500  1
  I  I29  1  0.34371200  0.42825000  0.38686500  1
  I  I30  1  0.34471200  0.92846900  0.11210300  1
  I  I31  1  0.84471200  0.07153100  0.88789700  1
  I  I32  1  0.03245200  0.51866300  0.40185400  1
  I  I33  1  0.53245200  0.48133700  0.59814600  1
  I  I34  1  0.53414400  0.98203300  0.90023400  1
  I  I35  1  0.03414400  0.01796700  0.09976600  1
  I  I36  1  0.15676600  0.92672300  0.38737600  1
  I  I37  1  0.65676600  0.07327700  0.61262400  1
  I  I38  1  0.65789100  0.57466000  0.88712700  1
  I  I39  1  0.15789100  0.42534000  0.11287300  1
  I  I40  1  0.89302300  0.78123600  0.28922300  1
  I  I41  1  0.39302300  0.21876400  0.71077700  1
  I  I42  1  0.39397700  0.71930700  0.78781100  1
  I  I43  1  0.89397700  0.28069300  0.21218900  1
  I  I44  1  0.29753000  0.68510000  0.48680500  1
  I  I45  1  0.79753000  0.31490000  0.51319500  1
  I  I46  1  0.79841800  0.81544100  0.98534000  1
  I  I47  1  0.29841800  0.18455900  0.01466000  1
  I  I48  1  0.97807800  0.97554800  0.61198600  1
  I  I49  1  0.47807800  0.02445200  0.38801400  1
  I  I50  1  0.47925200  0.52445900  0.11079500  1
  I  I51  1  0.97925200  0.47554100  0.88920500  1
  I  I52  1  0.69472700  0.80974700  0.48327800  1
  I  I53  1  0.19472700  0.19025300  0.51672200  1
  I  I54  1  0.19664700  0.69065100  0.98144800  1
  I  I55  1  0.69664700  0.30934900  0.01855200  1
  I  I56  1  0.07557800  0.73715000  0.71724000  1
  I  I57  1  0.57557800  0.26285000  0.28276000  1
  I  I58  1  0.57712400  0.76319400  0.21616400  1
  I  I59  1  0.07712400  0.23680600  0.78383600  1
  I  I60  1  0.84046800  0.06664900  0.38341100  1
  I  I61  1  0.34046800  0.93335100  0.61658900  1
  I  I62  1  0.34068400  0.43342900  0.88315700  1
  I  I63  1  0.84068400  0.56657100  0.11684300  1
  I  I64  1  0.21460700  0.67471900  0.23071600  1
  I  I65  1  0.71460700  0.32528100  0.76928400  1
  Br  Br66  1  0.71731900  0.82086500  0.73152300  1
  Br  Br67  1  0.21731900  0.17913500  0.26847700  1
