# generated using pymatgen
data_NaNd3Ti3MnO12
_symmetry_space_group_name_H-M   'P 1'
_cell_length_a   5.49919500
_cell_length_b   5.65696092
_cell_length_c   7.88551310
_cell_angle_alpha   89.87481354
_cell_angle_beta   89.76130544
_cell_angle_gamma   89.87754794
_symmetry_Int_Tables_number   1
_chemical_formula_structural   NaNd3Ti3MnO12
_chemical_formula_sum   'Na1 Nd3 Ti3 Mn1 O12'
_cell_volume   245.30503763
_cell_formula_units_Z   1
loop_
 _symmetry_equiv_pos_site_id
 _symmetry_equiv_pos_as_xyz
  1  'x, y, z'
loop_
 _atom_site_type_symbol
 _atom_site_label
 _atom_site_symmetry_multiplicity
 _atom_site_fract_x
 _atom_site_fract_y
 _atom_site_fract_z
 _atom_site_occupancy
  Na  Na0  1  0.49725800  0.48186800  0.24979500  1
  Nd  Nd1  1  0.01704100  0.94963800  0.24161500  1
  Nd  Nd2  1  0.51251400  0.55089300  0.76291600  1
  Nd  Nd3  1  0.98859900  0.05129800  0.75450600  1
  Ti  Ti4  1  0.49835700  0.02109000  0.50380200  1
  Ti  Ti5  1  0.00989300  0.51168600  0.49145100  1
  Ti  Ti6  1  0.50360700  0.00421000  0.01633600  1
  Mn  Mn7  1  0.00403300  0.49580600  0.00675000  1
  O  O8  1  0.58741100  0.02311300  0.25380400  1
  O  O9  1  0.91646200  0.51849400  0.26688600  1
  O  O10  1  0.41366300  0.97188900  0.73866300  1
  O  O11  1  0.09389500  0.47224900  0.73417500  1
  O  O12  1  0.78459900  0.80414700  0.95289200  1
  O  O13  1  0.70751000  0.27294000  0.55598300  1
  O  O14  1  0.20398700  0.19723000  0.45967900  1
  O  O15  1  0.31124900  0.72050600  0.03902700  1
  O  O16  1  0.20460700  0.17701100  0.03035500  1
  O  O17  1  0.27007600  0.72372100  0.45333100  1
  O  O18  1  0.77642000  0.78069600  0.54906000  1
  O  O19  1  0.69881900  0.27151300  0.93897500  1
