# generated using pymatgen
data_NaGa6AgTe10
_symmetry_space_group_name_H-M   'P 1'
_cell_length_a   10.43211279
_cell_length_b   10.43211279
_cell_length_c   10.46144556
_cell_angle_alpha   89.56552461
_cell_angle_beta   89.56552461
_cell_angle_gamma   90.28426485
_symmetry_Int_Tables_number   1
_chemical_formula_structural   NaGa6AgTe10
_chemical_formula_sum   'Na2 Ga12 Ag2 Te20'
_cell_volume   1138.42861628
_cell_formula_units_Z   2
loop_
 _symmetry_equiv_pos_site_id
 _symmetry_equiv_pos_as_xyz
  1  'x, y, z'
loop_
 _atom_site_type_symbol
 _atom_site_label
 _atom_site_symmetry_multiplicity
 _atom_site_fract_x
 _atom_site_fract_y
 _atom_site_fract_z
 _atom_site_occupancy
  Na  Na0  1  0.49909400  0.50090600  0.50000000  1
  Na  Na1  1  0.23905600  0.76094400  0.00000000  1
  Ga  Ga2  1  0.42561700  0.15998400  0.87895500  1
  Ga  Ga3  1  0.15961700  0.12108900  0.57521200  1
  Ga  Ga4  1  0.12249900  0.42683000  0.84002400  1
  Ga  Ga5  1  0.87891100  0.84038300  0.42478800  1
  Ga  Ga6  1  0.57317000  0.87750100  0.15997600  1
  Ga  Ga7  1  0.84001600  0.57438300  0.12104500  1
  Ga  Ga8  1  0.66177200  0.25072700  0.16564600  1
  Ga  Ga9  1  0.25253300  0.83293700  0.33958100  1
  Ga  Ga10  1  0.83337600  0.66012500  0.74945900  1
  Ga  Ga11  1  0.16706300  0.74746700  0.66041900  1
  Ga  Ga12  1  0.33987500  0.16662400  0.25054100  1
  Ga  Ga13  1  0.74927300  0.33822800  0.83435400  1
  Ag  Ag14  1  0.69890300  0.00010900  0.69908400  1
  Ag  Ag15  1  0.99989100  0.30109700  0.30091600  1
  Te  Te16  1  0.17047800  0.17089300  0.82928800  1
  Te  Te17  1  0.82910700  0.82952200  0.17071200  1
  Te  Te18  1  0.43151900  0.32888400  0.07026300  1
  Te  Te19  1  0.32825300  0.92972300  0.56798400  1
  Te  Te20  1  0.92955100  0.43182000  0.67187400  1
  Te  Te21  1  0.07027700  0.67174700  0.43201600  1
  Te  Te22  1  0.56818000  0.07044900  0.32812600  1
  Te  Te23  1  0.67111600  0.56848100  0.92973700  1
  Te  Te24  1  0.57000100  0.24181900  0.68280400  1
  Te  Te25  1  0.24115200  0.31647600  0.42909500  1
  Te  Te26  1  0.31733500  0.56925900  0.75535700  1
  Te  Te27  1  0.68352400  0.75884800  0.57090500  1
  Te  Te28  1  0.43074100  0.68266500  0.24464300  1
  Te  Te29  1  0.75818100  0.42999900  0.31719600  1
  Te  Te30  1  0.99740300  0.83210900  0.82617200  1
  Te  Te31  1  0.82934000  0.17066000  0.00000000  1
  Te  Te32  1  0.16789100  0.00259700  0.17382800  1
  Te  Te33  1  0.50251100  0.92103100  0.91795100  1
  Te  Te34  1  0.91883200  0.08116800  0.50000000  1
  Te  Te35  1  0.07896900  0.49748900  0.08204900  1
