# generated using pymatgen
data_NaMg2Al6VSi6B3H3O31
_symmetry_space_group_name_H-M   'P 1'
_cell_length_a   9.61452010
_cell_length_b   9.61452010
_cell_length_c   7.22996037
_cell_angle_alpha   75.42735740
_cell_angle_beta   75.42735740
_cell_angle_gamma   113.85546801
_symmetry_Int_Tables_number   1
_chemical_formula_structural   NaMg2Al6VSi6B3H3O31
_chemical_formula_sum   'Na1 Mg2 Al6 V1 Si6 B3 H3 O31'
_cell_volume   542.38502426
_cell_formula_units_Z   1
loop_
 _symmetry_equiv_pos_site_id
 _symmetry_equiv_pos_as_xyz
  1  'x, y, z'
loop_
 _atom_site_type_symbol
 _atom_site_label
 _atom_site_symmetry_multiplicity
 _atom_site_fract_x
 _atom_site_fract_y
 _atom_site_fract_z
 _atom_site_occupancy
  Na  Na0  1  0.99546700  0.99546700  0.77979000  1
  Mg  Mg1  1  0.99859700  0.81595200  0.42623000  1
  Mg  Mg2  1  0.81595200  0.99859700  0.42623000  1
  Al  Al3  1  0.56011500  0.33217300  0.09332100  1
  Al  Al4  1  0.77541500  0.44328800  0.65199900  1
  Al  Al5  1  0.66859500  0.22482400  0.42730500  1
  Al  Al6  1  0.44328800  0.77541500  0.65199900  1
  Al  Al7  1  0.33217300  0.56011500  0.09332100  1
  Al  Al8  1  0.22482400  0.66859500  0.42730500  1
  V  V9  1  0.17845800  0.17845800  0.24354600  1
  Si  Si10  1  0.38238700  0.19289700  0.80795900  1
  Si  Si11  1  0.81080300  0.61716100  0.19304200  1
  Si  Si12  1  0.80645100  0.18879500  0.00435800  1
  Si  Si13  1  0.61716100  0.81080300  0.19304200  1
  Si  Si14  1  0.19289700  0.38238700  0.80795900  1
  Si  Si15  1  0.18879500  0.80645100  0.00435800  1
  B  B16  1  0.33309400  0.00095100  0.44027800  1
  B  B17  1  0.66870200  0.66870200  0.77261400  1
  B  B18  1  0.00095100  0.33309400  0.44027800  1
  H  H19  1  0.38365500  0.38365500  0.36796500  1
  H  H20  1  0.99978000  0.61529000  0.75331400  1
  H  H21  1  0.61529000  0.99978000  0.75331400  1
  O  O22  1  0.57127900  0.28380200  0.63555700  1
  O  O23  1  0.71329100  0.42885900  0.20659500  1
  O  O24  1  0.71503300  0.28600400  0.92006400  1
  O  O25  1  0.42885900  0.71329100  0.20659500  1
  O  O26  1  0.28380200  0.57127900  0.63555700  1
  O  O27  1  0.28600400  0.71503300  0.92006400  1
  O  O28  1  0.48407700  0.14923900  0.35041000  1
  O  O29  1  0.66501200  0.51614000  0.83538400  1
  O  O30  1  0.85160600  0.33360800  0.50185500  1
  O  O31  1  0.51614000  0.66501200  0.83538400  1
  O  O32  1  0.14923900  0.48407700  0.35041000  1
  O  O33  1  0.33360800  0.85160600  0.50185500  1
  O  O34  1  0.18794500  0.00158000  0.46210900  1
  O  O35  1  0.81271600  0.81271600  0.64998900  1
  O  O36  1  0.00158000  0.18794500  0.46210900  1
  O  O37  1  0.28172400  0.28172400  0.72167900  1
  O  O38  1  0.00007400  0.71960400  0.00465100  1
  O  O39  1  0.71960400  0.00007400  0.00465100  1
  O  O40  1  0.28012800  0.99973600  0.83619500  1
  O  O41  1  0.71996300  0.71996300  0.11761200  1
  O  O42  1  0.99973600  0.28012800  0.83619500  1
  O  O43  1  0.00961100  0.00961100  0.21516000  1
  O  O44  1  0.38650900  0.20498300  0.02690200  1
  O  O45  1  0.81844700  0.61247000  0.41447500  1
  O  O46  1  0.79492300  0.18193400  0.23304400  1
  O  O47  1  0.61247000  0.81844700  0.41447500  1
  O  O48  1  0.20498300  0.38650900  0.02690200  1
  O  O49  1  0.18193400  0.79492300  0.23304400  1
  O  O50  1  0.39535200  0.39535200  0.22563500  1
  O  O51  1  0.00002100  0.60155000  0.62390900  1
  O  O52  1  0.60155000  0.00002100  0.62390900  1
