# generated using pymatgen
data_NaMoAsO6
_symmetry_space_group_name_H-M   'P 1'
_cell_length_a   6.65170200
_cell_length_b   7.59924600
_cell_length_c   10.28866900
_cell_angle_alpha   90.00000000
_cell_angle_beta   90.00000000
_cell_angle_gamma   90.00000000
_symmetry_Int_Tables_number   1
_chemical_formula_structural   NaMoAsO6
_chemical_formula_sum   'Na4 Mo4 As4 O24'
_cell_volume   520.07081563
_cell_formula_units_Z   4
loop_
 _symmetry_equiv_pos_site_id
 _symmetry_equiv_pos_as_xyz
  1  'x, y, z'
loop_
 _atom_site_type_symbol
 _atom_site_label
 _atom_site_symmetry_multiplicity
 _atom_site_fract_x
 _atom_site_fract_y
 _atom_site_fract_z
 _atom_site_occupancy
  Na  Na0  1  0.01345300  0.37114100  0.01216000  1
  Na  Na1  1  0.48654700  0.62885900  0.51216000  1
  Na  Na2  1  0.51345300  0.12885900  0.98784000  1
  Na  Na3  1  0.98654700  0.87114100  0.48784000  1
  Mo  Mo4  1  0.24505500  0.80126900  0.82322400  1
  Mo  Mo5  1  0.25494500  0.19873100  0.32322400  1
  Mo  Mo6  1  0.74505500  0.69873100  0.17677600  1
  Mo  Mo7  1  0.75494500  0.30126900  0.67677600  1
  As  As8  1  0.25234800  0.20978900  0.66018400  1
  As  As9  1  0.24765200  0.79021100  0.16018400  1
  As  As10  1  0.75234800  0.29021100  0.33981600  1
  As  As11  1  0.74765200  0.70978900  0.83981600  1
  O  O12  1  0.25632800  0.91489700  0.02279700  1
  O  O13  1  0.24367200  0.08510300  0.52279700  1
  O  O14  1  0.75632800  0.58510300  0.97720300  1
  O  O15  1  0.74367200  0.41489700  0.47720300  1
  O  O16  1  0.04758000  0.35230500  0.66510900  1
  O  O17  1  0.45242000  0.64769500  0.16510900  1
  O  O18  1  0.54758000  0.14769500  0.33489100  1
  O  O19  1  0.95242000  0.85230500  0.83489100  1
  O  O20  1  0.95404000  0.14595700  0.33922100  1
  O  O21  1  0.54596000  0.85404300  0.83922100  1
  O  O22  1  0.45404000  0.35404300  0.66077900  1
  O  O23  1  0.04596000  0.64595700  0.16077900  1
  O  O24  1  0.24359200  0.59114400  0.89126600  1
  O  O25  1  0.25640800  0.40885600  0.39126600  1
  O  O26  1  0.74359200  0.90885600  0.10873400  1
  O  O27  1  0.75640800  0.09114400  0.60873400  1
  O  O28  1  0.25035000  0.24231700  0.15583000  1
  O  O29  1  0.24965000  0.75768300  0.65583000  1
  O  O30  1  0.75035000  0.25768300  0.84417000  1
  O  O31  1  0.74965000  0.74231700  0.34417000  1
  O  O32  1  0.25520000  0.09072700  0.80153100  1
  O  O33  1  0.24480000  0.90927300  0.30153100  1
  O  O34  1  0.75520000  0.40927300  0.19846900  1
  O  O35  1  0.74480000  0.59072700  0.69846900  1
