# generated using pymatgen
data_NaTa4Bi5O18
_symmetry_space_group_name_H-M   'P 1'
_cell_length_a   12.95793971
_cell_length_b   12.95793971
_cell_length_c   5.55033506
_cell_angle_alpha   89.99248127
_cell_angle_beta   89.99248127
_cell_angle_gamma   155.48009534
_symmetry_Int_Tables_number   1
_chemical_formula_structural   NaTa4Bi5O18
_chemical_formula_sum   'Na1 Ta4 Bi5 O18'
_cell_volume   386.76654324
_cell_formula_units_Z   1
loop_
 _symmetry_equiv_pos_site_id
 _symmetry_equiv_pos_as_xyz
  1  'x, y, z'
loop_
 _atom_site_type_symbol
 _atom_site_label
 _atom_site_symmetry_multiplicity
 _atom_site_fract_x
 _atom_site_fract_y
 _atom_site_fract_z
 _atom_site_occupancy
  Na  Na0  1  0.25224200  0.25224200  0.48871200  1
  Ta  Ta1  1  0.33571700  0.16897200  0.95575600  1
  Ta  Ta2  1  0.16897200  0.33571700  0.95575600  1
  Ta  Ta3  1  0.66786900  0.83560600  0.46263100  1
  Ta  Ta4  1  0.83560600  0.66786900  0.46263100  1
  Bi  Bi5  1  0.76447200  0.76447200  0.01200600  1
  Bi  Bi6  1  0.52101700  0.92000400  0.01111800  1
  Bi  Bi7  1  0.92000400  0.52101700  0.01111800  1
  Bi  Bi8  1  0.47785200  0.07860100  0.51087200  1
  Bi  Bi9  1  0.07860100  0.47785200  0.51087200  1
  O  O10  1  0.86197000  0.03339200  0.14477500  1
  O  O11  1  0.03339200  0.86197000  0.14477500  1
  O  O12  1  0.13252500  0.95715900  0.65077000  1
  O  O13  1  0.95715900  0.13252500  0.65077000  1
  O  O14  1  0.74167300  0.23942700  0.24141500  1
  O  O15  1  0.23942700  0.74167300  0.24141500  1
  O  O16  1  0.25815800  0.76020500  0.74129300  1
  O  O17  1  0.76020500  0.25815800  0.74129300  1
  O  O18  1  0.40104300  0.53243100  0.22443600  1
  O  O19  1  0.53243100  0.40104300  0.22443600  1
  O  O20  1  0.60452300  0.47213600  0.73162600  1
  O  O21  1  0.47213600  0.60452300  0.73162600  1
  O  O22  1  0.17328400  0.17328400  0.93288400  1
  O  O23  1  0.81462100  0.81462100  0.41629000  1
  O  O24  1  0.47454400  0.16070200  0.94674300  1
  O  O25  1  0.16070200  0.47454400  0.94674300  1
  O  O26  1  0.52299300  0.83686300  0.44422000  1
  O  O27  1  0.83686300  0.52299300  0.44422000  1
