# generated using pymatgen
data_Nd2InCuS5
_symmetry_space_group_name_H-M   'P 1'
_cell_length_a   3.90232700
_cell_length_b   11.55317300
_cell_length_c   16.74383800
_cell_angle_alpha   90.00000000
_cell_angle_beta   90.00000000
_cell_angle_gamma   90.00000000
_symmetry_Int_Tables_number   1
_chemical_formula_structural   Nd2InCuS5
_chemical_formula_sum   'Nd8 In4 Cu4 S20'
_cell_volume   754.88352793
_cell_formula_units_Z   4
loop_
 _symmetry_equiv_pos_site_id
 _symmetry_equiv_pos_as_xyz
  1  'x, y, z'
loop_
 _atom_site_type_symbol
 _atom_site_label
 _atom_site_symmetry_multiplicity
 _atom_site_fract_x
 _atom_site_fract_y
 _atom_site_fract_z
 _atom_site_occupancy
  Nd  Nd0  1  0.25000000  0.13648300  0.40558000  1
  Nd  Nd1  1  0.25000000  0.63648300  0.09442000  1
  Nd  Nd2  1  0.75000000  0.86351700  0.59442000  1
  Nd  Nd3  1  0.75000000  0.36351700  0.90558000  1
  Nd  Nd4  1  0.25000000  0.47731800  0.31996700  1
  Nd  Nd5  1  0.25000000  0.97731800  0.18003300  1
  Nd  Nd6  1  0.75000000  0.52268200  0.68003300  1
  Nd  Nd7  1  0.75000000  0.02268200  0.81996700  1
  In  In8  1  0.25000000  0.19354900  0.63920800  1
  In  In9  1  0.25000000  0.69354900  0.86079200  1
  In  In10  1  0.75000000  0.80645100  0.36079200  1
  In  In11  1  0.75000000  0.30645100  0.13920800  1
  Cu  Cu12  1  0.25000000  0.58317500  0.49575600  1
  Cu  Cu13  1  0.25000000  0.08317500  0.00424400  1
  Cu  Cu14  1  0.75000000  0.41682500  0.50424400  1
  Cu  Cu15  1  0.75000000  0.91682500  0.99575600  1
  S  S16  1  0.25000000  0.89063400  0.46340900  1
  S  S17  1  0.25000000  0.39063400  0.03659100  1
  S  S18  1  0.75000000  0.10936600  0.53659100  1
  S  S19  1  0.75000000  0.60936600  0.96340900  1
  S  S20  1  0.25000000  0.48518800  0.80586900  1
  S  S21  1  0.25000000  0.98518800  0.69413100  1
  S  S22  1  0.75000000  0.51481200  0.19413100  1
  S  S23  1  0.75000000  0.01481200  0.30586900  1
  S  S24  1  0.25000000  0.74050600  0.26991100  1
  S  S25  1  0.25000000  0.24050600  0.23008900  1
  S  S26  1  0.75000000  0.25949400  0.73008900  1
  S  S27  1  0.75000000  0.75949400  0.76991100  1
  S  S28  1  0.25000000  0.40177000  0.57861900  1
  S  S29  1  0.25000000  0.90177000  0.92138100  1
  S  S30  1  0.75000000  0.59823000  0.42138100  1
  S  S31  1  0.75000000  0.09823000  0.07861900  1
  S  S32  1  0.25000000  0.68186900  0.61290400  1
  S  S33  1  0.25000000  0.18186900  0.88709600  1
  S  S34  1  0.75000000  0.31813100  0.38709600  1
  S  S35  1  0.75000000  0.81813100  0.11290400  1
