# generated using pymatgen
data_Na5Zr2Si12O37
_symmetry_space_group_name_H-M   'P 1'
_cell_length_a   10.45236305
_cell_length_b   10.45236305
_cell_length_c   10.81820183
_cell_angle_alpha   61.40057777
_cell_angle_beta   61.40057777
_cell_angle_gamma   60.19656214
_symmetry_Int_Tables_number   1
_chemical_formula_structural   Na5Zr2Si12O37
_chemical_formula_sum   'Na5 Zr2 Si12 O37'
_cell_volume   854.30426551
_cell_formula_units_Z   1
loop_
 _symmetry_equiv_pos_site_id
 _symmetry_equiv_pos_as_xyz
  1  'x, y, z'
loop_
 _atom_site_type_symbol
 _atom_site_label
 _atom_site_symmetry_multiplicity
 _atom_site_fract_x
 _atom_site_fract_y
 _atom_site_fract_z
 _atom_site_occupancy
  Na  Na0  1  0.74075300  0.75541700  0.50302200  1
  Na  Na1  1  0.24321000  0.25452200  0.00198800  1
  Na  Na2  1  0.24458300  0.25924700  0.49697800  1
  Na  Na3  1  0.74547800  0.75679000  0.99801200  1
  Na  Na4  1  0.25905200  0.74094800  0.50000000  1
  Zr  Zr5  1  0.00172000  0.49592000  0.75081300  1
  Zr  Zr6  1  0.50408000  0.99828000  0.24918700  1
  Si  Si7  1  0.87426000  0.91631900  0.59633600  1
  Si  Si8  1  0.37466100  0.41571400  0.09654800  1
  Si  Si9  1  0.08368100  0.12574000  0.40366400  1
  Si  Si10  1  0.58428600  0.62533900  0.90345200  1
  Si  Si11  1  0.42182500  0.36353800  0.59094600  1
  Si  Si12  1  0.92149500  0.86387800  0.09118800  1
  Si  Si13  1  0.63646200  0.57817500  0.40905400  1
  Si  Si14  1  0.13612200  0.07850500  0.90881200  1
  Si  Si15  1  0.86977000  0.35988700  0.59984100  1
  Si  Si16  1  0.36858300  0.85980300  0.09855800  1
  Si  Si17  1  0.64011300  0.13023000  0.40015900  1
  Si  Si18  1  0.14019700  0.63141700  0.90144200  1
  O  O19  1  0.02091500  0.97908500  0.50000000  1
  O  O20  1  0.51829900  0.48170100  0.00000000  1
  O  O21  1  0.50722500  0.49277500  0.50000000  1
  O  O22  1  0.01349900  0.98650100  0.00000000  1
  O  O23  1  0.49648800  0.24510000  0.49614800  1
  O  O24  1  0.99490000  0.74375000  0.99869500  1
  O  O25  1  0.75490000  0.50351200  0.50385200  1
  O  O26  1  0.25625000  0.00510000  0.00130500  1
  O  O27  1  0.78689100  0.94009700  0.75866100  1
  O  O28  1  0.28705500  0.43967700  0.25902700  1
  O  O29  1  0.05990300  0.21310900  0.24133900  1
  O  O30  1  0.56032300  0.71294500  0.74097300  1
  O  O31  1  0.54794200  0.76216000  0.39257500  1
  O  O32  1  0.05199400  0.26264800  0.89277000  1
  O  O33  1  0.23784000  0.45205800  0.60742500  1
  O  O34  1  0.73735200  0.94800600  0.10723000  1
  O  O35  1  0.75756800  0.00064900  0.49762400  1
  O  O36  1  0.25675300  0.50030600  0.99918900  1
  O  O37  1  0.99935100  0.24243200  0.50237600  1
  O  O38  1  0.49969400  0.74324700  0.00081100  1
  O  O39  1  0.26925900  0.05435500  0.37972600  1
  O  O40  1  0.76948400  0.56042100  0.87784500  1
  O  O41  1  0.94564500  0.73074100  0.62027400  1
  O  O42  1  0.43957900  0.23051600  0.12215500  1
  O  O43  1  0.56904500  0.03886600  0.37761300  1
  O  O44  1  0.06942100  0.54084100  0.87615700  1
  O  O45  1  0.96113400  0.43095500  0.62238700  1
  O  O46  1  0.45915900  0.93057900  0.12384300  1
  O  O47  1  0.42372900  0.27348700  0.76106800  1
  O  O48  1  0.92197300  0.77467200  0.26229300  1
  O  O49  1  0.72651300  0.57627100  0.23893200  1
  O  O50  1  0.22532800  0.07802700  0.73770700  1
  O  O51  1  0.76528100  0.23471900  0.00000000  1
  O  O52  1  0.76281400  0.27121700  0.75918800  1
  O  O53  1  0.26996100  0.77258300  0.26100300  1
  O  O54  1  0.72878300  0.23718600  0.24081200  1
  O  O55  1  0.22741700  0.73003900  0.73899700  1
