# generated using pymatgen
data_NaNd3Ti2(SbO7)2
_symmetry_space_group_name_H-M   'P 1'
_cell_length_a   7.36181331
_cell_length_b   7.36181331
_cell_length_c   7.32281421
_cell_angle_alpha   60.83332315
_cell_angle_beta   60.83332315
_cell_angle_gamma   61.05536610
_symmetry_Int_Tables_number   1
_chemical_formula_structural   NaNd3Ti2(SbO7)2
_chemical_formula_sum   'Na1 Nd3 Ti2 Sb2 O14'
_cell_volume   286.36523810
_cell_formula_units_Z   1
loop_
 _symmetry_equiv_pos_site_id
 _symmetry_equiv_pos_as_xyz
  1  'x, y, z'
loop_
 _atom_site_type_symbol
 _atom_site_label
 _atom_site_symmetry_multiplicity
 _atom_site_fract_x
 _atom_site_fract_y
 _atom_site_fract_z
 _atom_site_occupancy
  Na  Na0  1  0.50000000  0.50000000  0.00000000  1
  Nd  Nd1  1  0.50000000  0.50000000  0.50000000  1
  Nd  Nd2  1  0.50000000  0.00000000  0.00000000  1
  Nd  Nd3  1  0.00000000  0.50000000  0.00000000  1
  Ti  Ti4  1  0.00000000  0.00000000  0.50000000  1
  Ti  Ti5  1  0.00000000  0.00000000  0.00000000  1
  Sb  Sb6  1  0.00000000  0.50000000  0.50000000  1
  Sb  Sb7  1  0.50000000  0.00000000  0.50000000  1
  O  O8  1  0.93061800  0.93061800  0.81661300  1
  O  O9  1  0.32598100  0.32598100  0.42941500  1
  O  O10  1  0.92425200  0.32242600  0.42482800  1
  O  O11  1  0.31876800  0.93903200  0.81987600  1
  O  O12  1  0.93903200  0.31876800  0.81987600  1
  O  O13  1  0.32242600  0.92425200  0.42482800  1
  O  O14  1  0.06938200  0.06938200  0.18338700  1
  O  O15  1  0.67401900  0.67401900  0.57058500  1
  O  O16  1  0.07574800  0.67757400  0.57517200  1
  O  O17  1  0.68123200  0.06096800  0.18012400  1
  O  O18  1  0.06096800  0.68123200  0.18012400  1
  O  O19  1  0.67757400  0.07574800  0.57517200  1
  O  O20  1  0.62788500  0.62788500  0.12550200  1
  O  O21  1  0.37211500  0.37211500  0.87449800  1
