# generated using pymatgen
data_NaGdTiNbO6F
_symmetry_space_group_name_H-M   'P 1'
_cell_length_a   7.32539373
_cell_length_b   7.32539373
_cell_length_c   7.32539373
_cell_angle_alpha   121.50078846
_cell_angle_beta   117.89046445
_cell_angle_gamma   90.55617752
_symmetry_Int_Tables_number   1
_chemical_formula_structural   NaGdTiNbO6F
_chemical_formula_sum   'Na2 Gd2 Ti2 Nb2 O12 F2'
_cell_volume   278.87928869
_cell_formula_units_Z   2
loop_
 _symmetry_equiv_pos_site_id
 _symmetry_equiv_pos_as_xyz
  1  'x, y, z'
loop_
 _atom_site_type_symbol
 _atom_site_label
 _atom_site_symmetry_multiplicity
 _atom_site_fract_x
 _atom_site_fract_y
 _atom_site_fract_z
 _atom_site_occupancy
  Na  Na0  1  0.50000000  0.00000000  0.00000000  1
  Na  Na1  1  0.50000000  0.50000000  0.50000000  1
  Gd  Gd2  1  0.50000000  0.00000000  0.50000000  1
  Gd  Gd3  1  0.00000000  0.00000000  0.00000000  1
  Ti  Ti4  1  0.00000000  0.50000000  0.00000000  1
  Ti  Ti5  1  0.00000000  0.00000000  0.50000000  1
  Nb  Nb6  1  0.00000000  0.50000000  0.50000000  1
  Nb  Nb7  1  0.50000000  0.50000000  0.00000000  1
  O  O8  1  0.92016000  0.17016000  0.75000000  1
  O  O9  1  0.31734200  0.56734200  0.75000000  1
  O  O10  1  0.93635500  0.58592200  0.76700300  1
  O  O11  1  0.31891900  0.16935200  0.73299700  1
  O  O12  1  0.93635500  0.16935200  0.35043300  1
  O  O13  1  0.31891900  0.58592200  0.14956700  1
  O  O14  1  0.07984000  0.82984000  0.25000000  1
  O  O15  1  0.68265800  0.43265800  0.25000000  1
  O  O16  1  0.06364500  0.41407800  0.23299700  1
  O  O17  1  0.68108100  0.83064800  0.26700300  1
  O  O18  1  0.06364500  0.83064800  0.64956700  1
  O  O19  1  0.68108100  0.41407800  0.85043300  1
  F  F20  1  0.62777500  0.87777500  0.75000000  1
  F  F21  1  0.37222500  0.12222500  0.25000000  1
