# generated using pymatgen
data_Na3Sc2(PO4)3
_symmetry_space_group_name_H-M   'P 1'
_cell_length_a   9.03328813
_cell_length_b   9.03328813
_cell_length_c   9.09909906
_cell_angle_alpha   60.37348937
_cell_angle_beta   60.37348937
_cell_angle_gamma   60.17503111
_symmetry_Int_Tables_number   1
_chemical_formula_structural   Na3Sc2(PO4)3
_chemical_formula_sum   'Na6 Sc4 P6 O24'
_cell_volume   528.66616205
_cell_formula_units_Z   2
loop_
 _symmetry_equiv_pos_site_id
 _symmetry_equiv_pos_as_xyz
  1  'x, y, z'
loop_
 _atom_site_type_symbol
 _atom_site_label
 _atom_site_symmetry_multiplicity
 _atom_site_fract_x
 _atom_site_fract_y
 _atom_site_fract_z
 _atom_site_occupancy
  Na  Na0  1  0.74857600  0.88826100  0.75090200  1
  Na  Na1  1  0.11173900  0.25142400  0.74909800  1
  Na  Na2  1  0.25142400  0.11173900  0.24909800  1
  Na  Na3  1  0.88826100  0.74857600  0.25090200  1
  Na  Na4  1  0.50000000  0.00000000  0.50000000  1
  Na  Na5  1  0.00000000  0.50000000  0.00000000  1
  Sc  Sc6  1  0.64679100  0.15758100  0.05456200  1
  Sc  Sc7  1  0.15758100  0.64679100  0.55456200  1
  Sc  Sc8  1  0.35320900  0.84241900  0.94543800  1
  Sc  Sc9  1  0.84241900  0.35320900  0.44543800  1
  P  P10  1  0.04566400  0.95433600  0.75000000  1
  P  P11  1  0.75095800  0.54923000  0.74523800  1
  P  P12  1  0.45077000  0.24904200  0.75476200  1
  P  P13  1  0.24904200  0.45077000  0.25476200  1
  P  P14  1  0.54923000  0.75095800  0.24523800  1
  P  P15  1  0.95433600  0.04566400  0.25000000  1
  O  O16  1  0.88108800  0.98609200  0.91961600  1
  O  O17  1  0.71782000  0.38154300  0.90907300  1
  O  O18  1  0.48056900  0.20792700  0.92635400  1
  O  O19  1  0.20792700  0.48056900  0.42635400  1
  O  O20  1  0.38154300  0.71782000  0.40907300  1
  O  O21  1  0.98609200  0.88108800  0.41961600  1
  O  O22  1  0.11891200  0.01390800  0.08038400  1
  O  O23  1  0.28218000  0.61845700  0.09092700  1
  O  O24  1  0.51943100  0.79207300  0.07364600  1
  O  O25  1  0.79207300  0.51943100  0.57364600  1
  O  O26  1  0.61845700  0.28218000  0.59092700  1
  O  O27  1  0.01390800  0.11891200  0.58038400  1
  O  O28  1  0.78072400  0.06076700  0.24009000  1
  O  O29  1  0.40894500  0.27241400  0.24240900  1
  O  O30  1  0.56788500  0.91670300  0.23982800  1
  O  O31  1  0.91670300  0.56788500  0.73982800  1
  O  O32  1  0.27241400  0.40894500  0.74240900  1
  O  O33  1  0.06076700  0.78072400  0.74009000  1
  O  O34  1  0.21927600  0.93923300  0.75991000  1
  O  O35  1  0.59105500  0.72758600  0.75759100  1
  O  O36  1  0.43211500  0.08329700  0.76017200  1
  O  O37  1  0.08329700  0.43211500  0.26017200  1
  O  O38  1  0.72758600  0.59105500  0.25759100  1
  O  O39  1  0.93923300  0.21927600  0.25991000  1
