# generated using pymatgen
data_Na4Sc3In(SiO3)8
_symmetry_space_group_name_H-M   'P 1'
_cell_length_a   9.18031300
_cell_length_b   5.41349400
_cell_length_c   9.85549078
_cell_angle_alpha   75.66688338
_cell_angle_beta   90.00000000
_cell_angle_gamma   90.00000000
_symmetry_Int_Tables_number   1
_chemical_formula_structural   Na4Sc3In(SiO3)8
_chemical_formula_sum   'Na4 Sc3 In1 Si8 O24'
_cell_volume   474.54802525
_cell_formula_units_Z   1
loop_
 _symmetry_equiv_pos_site_id
 _symmetry_equiv_pos_as_xyz
  1  'x, y, z'
loop_
 _atom_site_type_symbol
 _atom_site_label
 _atom_site_symmetry_multiplicity
 _atom_site_fract_x
 _atom_site_fract_y
 _atom_site_fract_z
 _atom_site_occupancy
  Na  Na0  1  0.80407300  0.50000000  0.50000000  1
  Na  Na1  1  0.30254100  0.00000000  0.00000000  1
  Na  Na2  1  0.19678700  0.00000000  0.50000000  1
  Na  Na3  1  0.69726000  0.50000000  0.00000000  1
  Sc  Sc4  1  0.89443000  0.00000000  0.00000000  1
  Sc  Sc5  1  0.60818100  0.00000000  0.50000000  1
  Sc  Sc6  1  0.10579000  0.50000000  0.00000000  1
  In  In7  1  0.39611000  0.50000000  0.50000000  1
  Si  Si8  1  0.08547700  0.70359000  0.28986400  1
  Si  Si9  1  0.58687700  0.20237700  0.79156300  1
  Si  Si10  1  0.08547700  0.29641000  0.71013600  1
  Si  Si11  1  0.58687700  0.79762300  0.20843700  1
  Si  Si12  1  0.91289300  0.79704800  0.70968800  1
  Si  Si13  1  0.41295000  0.29650900  0.20863600  1
  Si  Si14  1  0.91289300  0.20295200  0.29031200  1
  Si  Si15  1  0.41295000  0.70349100  0.79136400  1
  O  O16  1  0.24509600  0.70843600  0.35545300  1
  O  O17  1  0.74657200  0.19679000  0.86106900  1
  O  O18  1  0.24509600  0.29156400  0.64454700  1
  O  O19  1  0.74657200  0.80321000  0.13893100  1
  O  O20  1  0.75367500  0.80293600  0.63950600  1
  O  O21  1  0.25336700  0.30377000  0.13860200  1
  O  O22  1  0.75367500  0.19706400  0.36049400  1
  O  O23  1  0.25336700  0.69623000  0.86139800  1
  O  O24  1  0.07721300  0.77641000  0.11768400  1
  O  O25  1  0.58186300  0.27475900  0.61938300  1
  O  O26  1  0.07721300  0.22359000  0.88231600  1
  O  O27  1  0.58186300  0.72524100  0.38061700  1
  O  O28  1  0.92131500  0.72343900  0.88166200  1
  O  O29  1  0.42218800  0.21541900  0.38036400  1
  O  O30  1  0.92131500  0.27656100  0.11833800  1
  O  O31  1  0.42218800  0.78458100  0.61963600  1
  O  O32  1  0.00735300  0.41910800  0.34947300  1
  O  O33  1  0.50791600  0.91906100  0.85022100  1
  O  O34  1  0.00735300  0.58089200  0.65052700  1
  O  O35  1  0.50791600  0.08093900  0.14977900  1
  O  O36  1  0.99066100  0.08089300  0.65073900  1
  O  O37  1  0.49199800  0.58052200  0.15083100  1
  O  O38  1  0.99066100  0.91910700  0.34926100  1
  O  O39  1  0.49199800  0.41947800  0.84916900  1
