# generated using pymatgen
data_Na3TmTi2Nb2O12
_symmetry_space_group_name_H-M   'P 1'
_cell_length_a   5.41280000
_cell_length_b   5.58085976
_cell_length_c   7.74043631
_cell_angle_alpha   89.86080262
_cell_angle_beta   89.97848198
_cell_angle_gamma   89.32371079
_symmetry_Int_Tables_number   1
_chemical_formula_structural   Na3TmTi2Nb2O12
_chemical_formula_sum   'Na3 Tm1 Ti2 Nb2 O12'
_cell_volume   233.80670941
_cell_formula_units_Z   1
loop_
 _symmetry_equiv_pos_site_id
 _symmetry_equiv_pos_as_xyz
  1  'x, y, z'
loop_
 _atom_site_type_symbol
 _atom_site_label
 _atom_site_symmetry_multiplicity
 _atom_site_fract_x
 _atom_site_fract_y
 _atom_site_fract_z
 _atom_site_occupancy
  Na  Na0  1  0.48948300  0.53608400  0.74866700  1
  Na  Na1  1  0.00533400  0.02575800  0.74954500  1
  Na  Na2  1  0.50870700  0.46084400  0.24990000  1
  Tm  Tm3  1  0.98858500  0.93151900  0.25027700  1
  Ti  Ti4  1  0.48937700  0.98407000  0.00682300  1
  Ti  Ti5  1  0.00318800  0.47841500  0.49347500  1
  Nb  Nb6  1  0.49364300  0.99459600  0.51041200  1
  Nb  Nb7  1  0.00318600  0.47807300  0.98975200  1
  O  O8  1  0.57117400  0.98297800  0.75313500  1
  O  O9  1  0.91600400  0.48466100  0.74734600  1
  O  O10  1  0.39311200  0.02769700  0.24670000  1
  O  O11  1  0.07943800  0.53509500  0.25304800  1
  O  O12  1  0.20430900  0.80364700  0.97368800  1
  O  O13  1  0.29430900  0.30361800  0.53869200  1
  O  O14  1  0.80914000  0.20579100  0.44304900  1
  O  O15  1  0.71883700  0.73327500  0.05494900  1
  O  O16  1  0.80620300  0.20352200  0.05789200  1
  O  O17  1  0.72310400  0.72968600  0.44563000  1
  O  O18  1  0.20168700  0.80127600  0.52726900  1
  O  O19  1  0.30117800  0.29939500  0.95975100  1
