# generated using pymatgen
data_Na8Ti3Fe(Si4O11)4
_symmetry_space_group_name_H-M   'P 1'
_cell_length_a   8.05491500
_cell_length_b   10.85330200
_cell_length_c   10.85330200
_cell_angle_alpha   90.00000000
_cell_angle_beta   90.00000000
_cell_angle_gamma   90.00000000
_symmetry_Int_Tables_number   1
_chemical_formula_structural   Na8Ti3Fe(Si4O11)4
_chemical_formula_sum   'Na8 Ti3 Fe1 Si16 O44'
_cell_volume   948.82198096
_cell_formula_units_Z   1
loop_
 _symmetry_equiv_pos_site_id
 _symmetry_equiv_pos_as_xyz
  1  'x, y, z'
loop_
 _atom_site_type_symbol
 _atom_site_label
 _atom_site_symmetry_multiplicity
 _atom_site_fract_x
 _atom_site_fract_y
 _atom_site_fract_z
 _atom_site_occupancy
  Na  Na0  1  0.50216600  0.63079100  0.31529000  1
  Na  Na1  1  0.00055000  0.12795700  0.81763900  1
  Na  Na2  1  0.50216600  0.36920900  0.68471000  1
  Na  Na3  1  0.00055000  0.87204300  0.18236100  1
  Na  Na4  1  0.00055000  0.18236100  0.12795700  1
  Na  Na5  1  0.50216600  0.68471000  0.63079100  1
  Na  Na6  1  0.00055000  0.81763900  0.87204300  1
  Na  Na7  1  0.50216600  0.31529000  0.36920900  1
  Ti  Ti8  1  0.78200900  0.50000000  0.50000000  1
  Ti  Ti9  1  0.70737700  0.00000000  0.00000000  1
  Ti  Ti10  1  0.26785200  0.50000000  0.50000000  1
  Fe  Fe11  1  0.24550500  0.00000000  0.00000000  1
  Si  Si12  1  0.30849100  0.30740500  0.98601600  1
  Si  Si13  1  0.80845200  0.80809400  0.48776100  1
  Si  Si14  1  0.30849100  0.69259500  0.01398400  1
  Si  Si15  1  0.80845200  0.19190600  0.51223900  1
  Si  Si16  1  0.80845200  0.51223900  0.80809400  1
  Si  Si17  1  0.30849100  0.01398400  0.30740500  1
  Si  Si18  1  0.80845200  0.48776100  0.19190600  1
  Si  Si19  1  0.30849100  0.98601600  0.69259500  1
  Si  Si20  1  0.69097600  0.69302500  0.01206000  1
  Si  Si21  1  0.19120300  0.19122300  0.51386900  1
  Si  Si22  1  0.69097600  0.30697500  0.98794000  1
  Si  Si23  1  0.19120300  0.80877700  0.48613100  1
  Si  Si24  1  0.19120300  0.48613100  0.19122300  1
  Si  Si25  1  0.69097600  0.98794000  0.69302500  1
  Si  Si26  1  0.19120300  0.51386900  0.80877700  1
  Si  Si27  1  0.69097600  0.01206000  0.30697500  1
  O  O28  1  0.23329300  0.17797500  0.94266400  1
  O  O29  1  0.73051900  0.67661900  0.45249300  1
  O  O30  1  0.23329300  0.82202500  0.05733600  1
  O  O31  1  0.73051900  0.32338100  0.54750700  1
  O  O32  1  0.73051900  0.54750700  0.67661900  1
  O  O33  1  0.23329300  0.05733600  0.17797500  1
  O  O34  1  0.73051900  0.45249300  0.32338100  1
  O  O35  1  0.23329300  0.94266400  0.82202500  1
  O  O36  1  0.76628700  0.82624300  0.04664600  1
  O  O37  1  0.26709400  0.32223300  0.55109700  1
  O  O38  1  0.76628700  0.17375700  0.95335400  1
  O  O39  1  0.26709400  0.67776700  0.44890300  1
  O  O40  1  0.26709400  0.44890300  0.32223300  1
  O  O41  1  0.76628700  0.95335400  0.82624300  1
  O  O42  1  0.26709400  0.55109700  0.67776700  1
  O  O43  1  0.76628700  0.04664600  0.17375700  1
  O  O44  1  0.99993300  0.53725100  0.19562800  1
  O  O45  1  0.49971700  0.03788400  0.69819100  1
  O  O46  1  0.99993300  0.46274900  0.80437200  1
  O  O47  1  0.49971700  0.96211600  0.30180900  1
  O  O48  1  0.49971700  0.30180900  0.03788400  1
  O  O49  1  0.99993300  0.80437200  0.53725100  1
  O  O50  1  0.49971700  0.69819100  0.96211600  1
  O  O51  1  0.99993300  0.19562800  0.46274900  1
  O  O52  1  0.30731400  0.40284500  0.86701800  1
  O  O53  1  0.80530800  0.90089600  0.36672800  1
  O  O54  1  0.30731400  0.59715500  0.13298200  1
  O  O55  1  0.80530800  0.09910400  0.63327200  1
  O  O56  1  0.80530800  0.63327200  0.90089600  1
  O  O57  1  0.30731400  0.13298200  0.40284500  1
  O  O58  1  0.80530800  0.36672800  0.09910400  1
  O  O59  1  0.30731400  0.86701800  0.59715500  1
  O  O60  1  0.69496100  0.60046700  0.13297600  1
  O  O61  1  0.19335200  0.09770600  0.63409300  1
  O  O62  1  0.69496100  0.39953300  0.86702400  1
  O  O63  1  0.19335200  0.90229400  0.36590700  1
  O  O64  1  0.19335200  0.36590700  0.09770600  1
  O  O65  1  0.69496100  0.86702400  0.60046700  1
  O  O66  1  0.19335200  0.63409300  0.90229400  1
  O  O67  1  0.69496100  0.13297600  0.39953300  1
  O  O68  1  0.02443700  0.00000000  0.00000000  1
  O  O69  1  0.48594900  0.50000000  0.50000000  1
  O  O70  1  0.49413000  0.00000000  0.00000000  1
  O  O71  1  0.99427900  0.50000000  0.50000000  1
