# generated using pymatgen
data_NaLuP2H2CO7
_symmetry_space_group_name_H-M   'P 1'
_cell_length_a   6.68711000
_cell_length_b   6.88760858
_cell_length_c   8.72129034
_cell_angle_alpha   103.25559761
_cell_angle_beta   99.21500620
_cell_angle_gamma   104.61438136
_symmetry_Int_Tables_number   1
_chemical_formula_structural   NaLuP2H2CO7
_chemical_formula_sum   'Na2 Lu2 P4 H4 C2 O14'
_cell_volume   368.06181207
_cell_formula_units_Z   2
loop_
 _symmetry_equiv_pos_site_id
 _symmetry_equiv_pos_as_xyz
  1  'x, y, z'
loop_
 _atom_site_type_symbol
 _atom_site_label
 _atom_site_symmetry_multiplicity
 _atom_site_fract_x
 _atom_site_fract_y
 _atom_site_fract_z
 _atom_site_occupancy
  Na  Na0  1  0.46100700  0.69278400  0.55367100  1
  Na  Na1  1  0.53899300  0.30721600  0.44632900  1
  Lu  Lu2  1  0.82210800  0.63271500  0.26489200  1
  Lu  Lu3  1  0.17789200  0.36728500  0.73510800  1
  P  P4  1  0.97484000  0.19224300  0.30931100  1
  P  P5  1  0.02516000  0.80775700  0.69068900  1
  P  P6  1  0.25999300  0.50440500  0.16637500  1
  P  P7  1  0.74000700  0.49559500  0.83362500  1
  H  H8  1  0.20656600  0.13723300  0.12691000  1
  H  H9  1  0.79343400  0.86276700  0.87309000  1
  H  H10  1  0.97655100  0.19190800  0.03800600  1
  H  H11  1  0.02344900  0.80809200  0.96199400  1
  C  C12  1  0.10403800  0.23812300  0.14768200  1
  C  C13  1  0.89596200  0.76187700  0.85231800  1
  O  O14  1  0.15301600  0.65680900  0.25437000  1
  O  O15  1  0.84698400  0.34319100  0.74563000  1
  O  O16  1  0.15052900  0.27457500  0.46810100  1
  O  O17  1  0.84947100  0.72542500  0.53189900  1
  O  O18  1  0.86818000  0.95579200  0.26830500  1
  O  O19  1  0.13182000  0.04420800  0.73169500  1
  O  O20  1  0.81285500  0.31735500  0.31177700  1
  O  O21  1  0.18714500  0.68264500  0.68822300  1
  O  O22  1  0.50000000  0.00000000  0.00000000  1
  O  O23  1  0.50000000  0.00000000  0.50000000  1
  O  O24  1  0.26808900  0.51610100  0.99495500  1
  O  O25  1  0.73191100  0.48389900  0.00504500  1
  O  O26  1  0.48168800  0.54054400  0.27556900  1
  O  O27  1  0.51831200  0.45945600  0.72443100  1
