# generated using pymatgen
data_Na3CaFe(SiO3)8
_symmetry_space_group_name_H-M   'P 1'
_cell_length_a   6.88928152
_cell_length_b   6.88928152
_cell_length_c   10.55980616
_cell_angle_alpha   77.19296897
_cell_angle_beta   77.19296897
_cell_angle_gamma   83.07050827
_symmetry_Int_Tables_number   1
_chemical_formula_structural   Na3CaFe(SiO3)8
_chemical_formula_sum   'Na3 Ca1 Fe1 Si8 O24'
_cell_volume   475.21505268
_cell_formula_units_Z   1
loop_
 _symmetry_equiv_pos_site_id
 _symmetry_equiv_pos_as_xyz
  1  'x, y, z'
loop_
 _atom_site_type_symbol
 _atom_site_label
 _atom_site_symmetry_multiplicity
 _atom_site_fract_x
 _atom_site_fract_y
 _atom_site_fract_z
 _atom_site_occupancy
  Na  Na0  1  0.27509200  0.72490800  0.50000000  1
  Na  Na1  1  0.71874500  0.29052400  0.24460900  1
  Na  Na2  1  0.70947600  0.28125500  0.75539100  1
  Ca  Ca3  1  0.28310600  0.71689400  0.00000000  1
  Fe  Fe4  1  0.91759500  0.08240500  0.50000000  1
  Si  Si5  1  0.80483500  0.62107300  0.49226100  1
  Si  Si6  1  0.80002600  0.62274200  0.98435000  1
  Si  Si7  1  0.37892700  0.19516500  0.50773900  1
  Si  Si8  1  0.37725800  0.19997400  0.01565000  1
  Si  Si9  1  0.19796700  0.37644100  0.26643800  1
  Si  Si10  1  0.21123800  0.37223300  0.76236600  1
  Si  Si11  1  0.62776700  0.78876200  0.23763400  1
  Si  Si12  1  0.62355900  0.80203300  0.73356200  1
  O  O13  1  0.67529300  0.64145300  0.37341000  1
  O  O14  1  0.65481200  0.64762400  0.87741900  1
  O  O15  1  0.35854700  0.32470700  0.62659000  1
  O  O16  1  0.35237600  0.34518800  0.12258100  1
  O  O17  1  0.35020200  0.36487800  0.36972800  1
  O  O18  1  0.34723800  0.35803200  0.87509500  1
  O  O19  1  0.64196800  0.65276200  0.12490500  1
  O  O20  1  0.63512200  0.64979800  0.63027200  1
  O  O21  1  0.95305400  0.79950900  0.46290000  1
  O  O22  1  0.98512700  0.75995800  0.94395800  1
  O  O23  1  0.20049100  0.04694600  0.53710000  1
  O  O24  1  0.24004200  0.01487300  0.05604200  1
  O  O25  1  0.02680100  0.21732300  0.31353900  1
  O  O26  1  0.00702200  0.25483900  0.81500000  1
  O  O27  1  0.74516100  0.99297800  0.18500000  1
  O  O28  1  0.78267700  0.97319900  0.68646100  1
  O  O29  1  0.89018800  0.38752600  0.52417200  1
  O  O30  1  0.91469600  0.39951500  0.01810600  1
  O  O31  1  0.61247400  0.10981200  0.47582800  1
  O  O32  1  0.60048500  0.08530400  0.98189400  1
  O  O33  1  0.10266100  0.60271200  0.22432600  1
  O  O34  1  0.09215500  0.59087400  0.72642900  1
  O  O35  1  0.40912600  0.90784500  0.27357100  1
  O  O36  1  0.39728800  0.89733900  0.77567400  1
