# generated using pymatgen
data_Mg3Si3(NiO6)2
_symmetry_space_group_name_H-M   'P 1'
_cell_length_a   10.08861225
_cell_length_b   10.08861225
_cell_length_c   10.08861225
_cell_angle_alpha   109.47122063
_cell_angle_beta   109.47122063
_cell_angle_gamma   109.47122063
_symmetry_Int_Tables_number   1
_chemical_formula_structural   Mg3Si3(NiO6)2
_chemical_formula_sum   'Mg12 Si12 Ni8 O48'
_cell_volume   790.44635499
_cell_formula_units_Z   4
loop_
 _symmetry_equiv_pos_site_id
 _symmetry_equiv_pos_as_xyz
  1  'x, y, z'
loop_
 _atom_site_type_symbol
 _atom_site_label
 _atom_site_symmetry_multiplicity
 _atom_site_fract_x
 _atom_site_fract_y
 _atom_site_fract_z
 _atom_site_occupancy
  Mg  Mg0  1  0.25000000  0.37500000  0.12500000  1
  Mg  Mg1  1  0.75000000  0.12500000  0.37500000  1
  Mg  Mg2  1  0.37500000  0.12500000  0.25000000  1
  Mg  Mg3  1  0.12500000  0.37500000  0.75000000  1
  Mg  Mg4  1  0.25000000  0.87500000  0.62500000  1
  Mg  Mg5  1  0.12500000  0.25000000  0.37500000  1
  Mg  Mg6  1  0.62500000  0.25000000  0.87500000  1
  Mg  Mg7  1  0.75000000  0.62500000  0.87500000  1
  Mg  Mg8  1  0.87500000  0.75000000  0.62500000  1
  Mg  Mg9  1  0.87500000  0.62500000  0.25000000  1
  Mg  Mg10  1  0.62500000  0.87500000  0.75000000  1
  Mg  Mg11  1  0.37500000  0.75000000  0.12500000  1
  Si  Si12  1  0.12500000  0.75000000  0.87500000  1
  Si  Si13  1  0.87500000  0.25000000  0.12500000  1
  Si  Si14  1  0.75000000  0.37500000  0.62500000  1
  Si  Si15  1  0.12500000  0.87500000  0.25000000  1
  Si  Si16  1  0.25000000  0.12500000  0.87500000  1
  Si  Si17  1  0.37500000  0.62500000  0.75000000  1
  Si  Si18  1  0.37500000  0.25000000  0.62500000  1
  Si  Si19  1  0.87500000  0.12500000  0.75000000  1
  Si  Si20  1  0.62500000  0.37500000  0.25000000  1
  Si  Si21  1  0.75000000  0.87500000  0.12500000  1
  Si  Si22  1  0.25000000  0.62500000  0.37500000  1
  Si  Si23  1  0.62500000  0.75000000  0.37500000  1
  Ni  Ni24  1  0.50000000  0.00000000  0.00000000  1
  Ni  Ni25  1  0.50000000  0.50000000  0.00000000  1
  Ni  Ni26  1  0.00000000  0.50000000  0.50000000  1
  Ni  Ni27  1  0.00000000  0.00000000  0.50000000  1
  Ni  Ni28  1  0.50000000  0.50000000  0.50000000  1
  Ni  Ni29  1  0.00000000  0.50000000  0.00000000  1
  Ni  Ni30  1  0.50000000  0.00000000  0.50000000  1
  Ni  Ni31  1  0.00000000  0.00000000  0.00000000  1
  O  O32  1  0.58761100  0.89723700  0.37464300  1
  O  O33  1  0.37464300  0.58761100  0.89723700  1
  O  O34  1  0.28703200  0.30962600  0.91238900  1
  O  O35  1  0.47740600  0.60276300  0.19037400  1
  O  O36  1  0.30962600  0.89723700  0.02259400  1
  O  O37  1  0.12535700  0.02259400  0.21296800  1
  O  O38  1  0.37464300  0.28703200  0.47740600  1
  O  O39  1  0.89723700  0.37464300  0.58761100  1
  O  O40  1  0.19037400  0.21296800  0.58761100  1
  O  O41  1  0.47740600  0.37464300  0.28703200  1
  O  O42  1  0.89723700  0.02259400  0.30962600  1
  O  O43  1  0.60276300  0.91238900  0.12535700  1
  O  O44  1  0.91238900  0.12535700  0.60276300  1
  O  O45  1  0.28703200  0.47740600  0.37464300  1
  O  O46  1  0.58761100  0.19037400  0.21296800  1
  O  O47  1  0.21296800  0.58761100  0.19037400  1
  O  O48  1  0.02259400  0.30962600  0.89723700  1
  O  O49  1  0.91238900  0.28703200  0.30962600  1
  O  O50  1  0.02259400  0.21296800  0.12535700  1
  O  O51  1  0.80962600  0.78703200  0.41238900  1
  O  O52  1  0.19037400  0.47740600  0.60276300  1
  O  O53  1  0.60276300  0.19037400  0.47740600  1
  O  O54  1  0.21296800  0.12535700  0.02259400  1
  O  O55  1  0.12535700  0.60276300  0.91238900  1
  O  O56  1  0.41238900  0.10276300  0.62535700  1
  O  O57  1  0.62535700  0.41238900  0.10276300  1
  O  O58  1  0.71296800  0.69037400  0.08761100  1
  O  O59  1  0.52259400  0.39723700  0.80962600  1
  O  O60  1  0.69037400  0.10276300  0.97740600  1
  O  O61  1  0.87464300  0.97740600  0.78703200  1
  O  O62  1  0.62535700  0.71296800  0.52259400  1
  O  O63  1  0.10276300  0.62535700  0.41238900  1
  O  O64  1  0.87464300  0.39723700  0.08761100  1
  O  O65  1  0.78703200  0.87464300  0.97740600  1
  O  O66  1  0.39723700  0.80962600  0.52259400  1
  O  O67  1  0.69037400  0.08761100  0.71296800  1
  O  O68  1  0.80962600  0.52259400  0.39723700  1
  O  O69  1  0.97740600  0.78703200  0.87464300  1
  O  O70  1  0.08761100  0.71296800  0.69037400  1
  O  O71  1  0.97740600  0.69037400  0.10276300  1
  O  O72  1  0.78703200  0.41238900  0.80962600  1
  O  O73  1  0.41238900  0.80962600  0.78703200  1
  O  O74  1  0.71296800  0.52259400  0.62535700  1
  O  O75  1  0.08761100  0.87464300  0.39723700  1
  O  O76  1  0.39723700  0.08761100  0.87464300  1
  O  O77  1  0.10276300  0.97740600  0.69037400  1
  O  O78  1  0.52259400  0.62535700  0.71296800  1
  O  O79  1  0.30962600  0.91238900  0.28703200  1
