# generated using pymatgen
data_Na3ErTi2Nb2O12
_symmetry_space_group_name_H-M   'P 1'
_cell_length_a   5.41392800
_cell_length_b   5.57979466
_cell_length_c   7.75859334
_cell_angle_alpha   89.85011377
_cell_angle_beta   89.94961340
_cell_angle_gamma   89.32026475
_symmetry_Int_Tables_number   1
_chemical_formula_structural   Na3ErTi2Nb2O12
_chemical_formula_sum   'Na3 Er1 Ti2 Nb2 O12'
_cell_volume   234.35891381
_cell_formula_units_Z   1
loop_
 _symmetry_equiv_pos_site_id
 _symmetry_equiv_pos_as_xyz
  1  'x, y, z'
loop_
 _atom_site_type_symbol
 _atom_site_label
 _atom_site_symmetry_multiplicity
 _atom_site_fract_x
 _atom_site_fract_y
 _atom_site_fract_z
 _atom_site_occupancy
  Na  Na0  1  0.48888700  0.53579300  0.74884000  1
  Na  Na1  1  0.00624900  0.02684900  0.74936000  1
  Na  Na2  1  0.50880600  0.46115000  0.24987400  1
  Er  Er3  1  0.98813600  0.93118200  0.25024300  1
  Ti  Ti4  1  0.48979300  0.98394900  0.00771100  1
  Ti  Ti5  1  0.00231700  0.47917400  0.49248800  1
  Nb  Nb6  1  0.49290700  0.99533600  0.51144700  1
  Nb  Nb7  1  0.00341700  0.47774600  0.98864100  1
  O  O8  1  0.20527600  0.80267100  0.97368600  1
  O  O9  1  0.29419000  0.30317700  0.53871800  1
  O  O10  1  0.80679300  0.20758700  0.44387500  1
  O  O11  1  0.71931100  0.73281800  0.05504900  1
  O  O12  1  0.80345000  0.20577800  0.05705000  1
  O  O13  1  0.72323400  0.72935800  0.44570200  1
  O  O14  1  0.20333400  0.80050900  0.52734600  1
  O  O15  1  0.30046200  0.29981100  0.95979200  1
  O  O16  1  0.57068900  0.98236500  0.75326600  1
  O  O17  1  0.91570100  0.48461500  0.74716700  1
  O  O18  1  0.39726900  0.02758100  0.24638400  1
  O  O19  1  0.07977900  0.53254900  0.25336200  1
