# generated using pymatgen
data_CaSi4SnO10
_symmetry_space_group_name_H-M   'P 1'
_cell_length_a   7.56048200
_cell_length_b   7.56048200
_cell_length_c   15.97785700
_cell_angle_alpha   90.00000000
_cell_angle_beta   90.00000000
_cell_angle_gamma   90.00000000
_symmetry_Int_Tables_number   1
_chemical_formula_structural   CaSi4SnO10
_chemical_formula_sum   'Ca4 Si16 Sn4 O40'
_cell_volume   913.30849561
_cell_formula_units_Z   4
loop_
 _symmetry_equiv_pos_site_id
 _symmetry_equiv_pos_as_xyz
  1  'x, y, z'
loop_
 _atom_site_type_symbol
 _atom_site_label
 _atom_site_symmetry_multiplicity
 _atom_site_fract_x
 _atom_site_fract_y
 _atom_site_fract_z
 _atom_site_occupancy
  Ca  Ca0  1  0.50000000  0.50000000  0.50000000  1
  Ca  Ca1  1  0.00000000  0.00000000  0.50000000  1
  Ca  Ca2  1  0.00000000  0.00000000  0.00000000  1
  Ca  Ca3  1  0.50000000  0.50000000  0.00000000  1
  Si  Si4  1  0.15878600  0.24702000  0.65297900  1
  Si  Si5  1  0.84121400  0.75298000  0.65297900  1
  Si  Si6  1  0.24702000  0.15878600  0.84702100  1
  Si  Si7  1  0.74702000  0.34121400  0.65297900  1
  Si  Si8  1  0.25298000  0.65878600  0.65297900  1
  Si  Si9  1  0.34121400  0.74702000  0.84702100  1
  Si  Si10  1  0.65878600  0.25298000  0.84702100  1
  Si  Si11  1  0.75298000  0.84121400  0.84702100  1
  Si  Si12  1  0.34121400  0.25298000  0.34702100  1
  Si  Si13  1  0.65878600  0.74702000  0.34702100  1
  Si  Si14  1  0.25298000  0.34121400  0.15297900  1
  Si  Si15  1  0.75298000  0.15878600  0.34702100  1
  Si  Si16  1  0.24702000  0.84121400  0.34702100  1
  Si  Si17  1  0.15878600  0.75298000  0.15297900  1
  Si  Si18  1  0.84121400  0.24702000  0.15297900  1
  Si  Si19  1  0.74702000  0.65878600  0.15297900  1
  Sn  Sn20  1  0.50000000  0.00000000  0.54013900  1
  Sn  Sn21  1  0.00000000  0.50000000  0.95986100  1
  Sn  Sn22  1  0.00000000  0.50000000  0.45986100  1
  Sn  Sn23  1  0.50000000  0.00000000  0.04013900  1
  O  O24  1  0.23059300  0.10332700  0.58641000  1
  O  O25  1  0.76940700  0.89667300  0.58641000  1
  O  O26  1  0.10332700  0.23059300  0.91359000  1
  O  O27  1  0.60332700  0.26940700  0.58641000  1
  O  O28  1  0.39667300  0.73059300  0.58641000  1
  O  O29  1  0.26940700  0.60332700  0.91359000  1
  O  O30  1  0.73059300  0.39667300  0.91359000  1
  O  O31  1  0.89667300  0.76940700  0.91359000  1
  O  O32  1  0.26940700  0.39667300  0.41359000  1
  O  O33  1  0.73059300  0.60332700  0.41359000  1
  O  O34  1  0.39667300  0.26940700  0.08641000  1
  O  O35  1  0.89667300  0.23059300  0.41359000  1
  O  O36  1  0.10332700  0.76940700  0.41359000  1
  O  O37  1  0.23059300  0.89667300  0.08641000  1
  O  O38  1  0.76940700  0.10332700  0.08641000  1
  O  O39  1  0.25626800  0.05617500  0.36467700  1
  O  O40  1  0.60332700  0.73059300  0.08641000  1
  O  O41  1  0.75626800  0.55617500  0.63532300  1
  O  O42  1  0.44382500  0.24373200  0.86467700  1
  O  O43  1  0.94382500  0.25626800  0.63532300  1
  O  O44  1  0.05617500  0.74373200  0.63532300  1
  O  O45  1  0.25626800  0.94382500  0.86467700  1
  O  O46  1  0.74373200  0.05617500  0.86467700  1
  O  O47  1  0.55617500  0.75626800  0.86467700  1
  O  O48  1  0.69434900  0.69434900  0.25000000  1
  O  O49  1  0.80565100  0.19434900  0.25000000  1
  O  O50  1  0.19434900  0.80565100  0.25000000  1
  O  O51  1  0.30565100  0.30565100  0.25000000  1
  O  O52  1  0.80565100  0.80565100  0.75000000  1
  O  O53  1  0.69434900  0.30565100  0.75000000  1
  O  O54  1  0.30565100  0.69434900  0.75000000  1
  O  O55  1  0.19434900  0.19434900  0.75000000  1
  O  O56  1  0.94382500  0.74373200  0.13532300  1
  O  O57  1  0.75626800  0.44382500  0.13532300  1
  O  O58  1  0.24373200  0.55617500  0.13532300  1
  O  O59  1  0.44382500  0.75626800  0.36467700  1
  O  O60  1  0.55617500  0.24373200  0.36467700  1
  O  O61  1  0.05617500  0.25626800  0.13532300  1
  O  O62  1  0.74373200  0.94382500  0.36467700  1
  O  O63  1  0.24373200  0.44382500  0.63532300  1
