# generated using pymatgen
data_NaMg3In(MoO4)5
_symmetry_space_group_name_H-M   'P 1'
_cell_length_a   7.11171900
_cell_length_b   7.17455906
_cell_length_c   18.26201837
_cell_angle_alpha   87.38438788
_cell_angle_beta   87.49203290
_cell_angle_gamma   79.17599375
_symmetry_Int_Tables_number   1
_chemical_formula_structural   NaMg3In(MoO4)5
_chemical_formula_sum   'Na2 Mg6 In2 Mo10 O40'
_cell_volume   913.67169934
_cell_formula_units_Z   2
loop_
 _symmetry_equiv_pos_site_id
 _symmetry_equiv_pos_as_xyz
  1  'x, y, z'
loop_
 _atom_site_type_symbol
 _atom_site_label
 _atom_site_symmetry_multiplicity
 _atom_site_fract_x
 _atom_site_fract_y
 _atom_site_fract_z
 _atom_site_occupancy
  Na  Na0  1  0.36551500  0.16207200  0.21638500  1
  Na  Na1  1  0.63362800  0.83748000  0.78326700  1
  Mg  Mg2  1  0.32349100  0.42635000  0.38597400  1
  Mg  Mg3  1  0.67211300  0.57626400  0.61662400  1
  Mg  Mg4  1  0.30844400  0.67549100  0.00597200  1
  Mg  Mg5  1  0.27884200  0.92162900  0.62860000  1
  Mg  Mg6  1  0.74975600  0.79870100  0.23167300  1
  Mg  Mg7  1  0.25060600  0.19914900  0.76487500  1
  In  In8  1  0.68685500  0.32933300  0.99230300  1
  In  In9  1  0.72016500  0.07737300  0.37479800  1
  Mo  Mo10  1  0.25354600  0.95328800  0.41531000  1
  Mo  Mo11  1  0.74804800  0.04416400  0.58739600  1
  Mo  Mo12  1  0.77368000  0.56110300  0.40684700  1
  Mo  Mo13  1  0.22726900  0.43940900  0.59362100  1
  Mo  Mo14  1  0.77044300  0.80838700  0.02609700  1
  Mo  Mo15  1  0.23321400  0.18739700  0.97374900  1
  Mo  Mo16  1  0.81970100  0.27914000  0.19216100  1
  Mo  Mo17  1  0.18261400  0.72141900  0.80832800  1
  Mo  Mo18  1  0.28204700  0.67424200  0.21416400  1
  Mo  Mo19  1  0.71803800  0.32496800  0.78397300  1
  O  O20  1  0.68333500  0.29887600  0.11100700  1
  O  O21  1  0.31302000  0.70097000  0.89109900  1
  O  O22  1  0.70924500  0.61263900  0.49868600  1
  O  O23  1  0.29188700  0.38803400  0.50027700  1
  O  O24  1  0.33162300  0.71238100  0.39174500  1
  O  O25  1  0.67024500  0.28707700  0.60924300  1
  O  O26  1  0.06330600  0.20337500  0.17095400  1
  O  O27  1  0.93720400  0.79756100  0.82922100  1
  O  O28  1  0.44633200  0.83309900  0.23041200  1
  O  O29  1  0.55520900  0.16603700  0.76943000  1
  O  O30  1  0.01995700  0.46506200  0.39700900  1
  O  O31  1  0.97887300  0.53442000  0.60277500  1
  O  O32  1  0.74709400  0.85128200  0.12129500  1
  O  O33  1  0.25488300  0.14812200  0.87869600  1
  O  O34  1  0.72355000  0.10244000  0.25544800  1
  O  O35  1  0.27590000  0.89647300  0.74418300  1
  O  O36  1  0.70056100  0.03159500  0.97628700  1
  O  O37  1  0.29940900  0.96516600  0.02203200  1
  O  O38  1  0.01275500  0.71372100  0.00543100  1
  O  O39  1  0.98955500  0.28697400  0.99667600  1
  O  O40  1  0.29996900  0.61737100  0.12015100  1
  O  O41  1  0.70083000  0.38754900  0.87838300  1
  O  O42  1  0.04206900  0.78601900  0.23599900  1
  O  O43  1  0.95669000  0.21336200  0.76367800  1
  O  O44  1  0.33622800  0.45528800  0.27056100  1
  O  O45  1  0.66418300  0.54414600  0.72935500  1
  O  O46  1  0.78902300  0.50546100  0.23198700  1
  O  O47  1  0.21302000  0.49288900  0.76867700  1
  O  O48  1  0.72957100  0.78308800  0.35016300  1
  O  O49  1  0.27067300  0.21501000  0.64771000  1
  O  O50  1  0.40689400  0.11806300  0.37517400  1
  O  O51  1  0.59189200  0.88383300  0.62458700  1
  O  O52  1  0.25210100  0.96343000  0.51142100  1
  O  O53  1  0.74916500  0.03218800  0.48914500  1
  O  O54  1  0.63594100  0.38114900  0.38267700  1
  O  O55  1  0.36047600  0.62273400  0.61662100  1
  O  O56  1  0.02441400  0.04194800  0.37786600  1
  O  O57  1  0.97971600  0.96063800  0.62050300  1
  O  O58  1  0.61851100  0.63719200  0.00425700  1
  O  O59  1  0.37667800  0.36598000  0.99706100  1
