# generated using pymatgen
data_Na2ThTi3O9
_symmetry_space_group_name_H-M   'P 1'
_cell_length_a   5.50448315
_cell_length_b   5.50448315
_cell_length_c   6.72133400
_cell_angle_alpha   90.00000000
_cell_angle_beta   90.00000000
_cell_angle_gamma   119.99998981
_symmetry_Int_Tables_number   1
_chemical_formula_structural   Na2ThTi3O9
_chemical_formula_sum   'Na2 Th1 Ti3 O9'
_cell_volume   176.36777947
_cell_formula_units_Z   1
loop_
 _symmetry_equiv_pos_site_id
 _symmetry_equiv_pos_as_xyz
  1  'x, y, z'
loop_
 _atom_site_type_symbol
 _atom_site_label
 _atom_site_symmetry_multiplicity
 _atom_site_fract_x
 _atom_site_fract_y
 _atom_site_fract_z
 _atom_site_occupancy
  Na  Na0  1  0.66666700  0.33333300  0.33289100  1
  Na  Na1  1  0.33333300  0.66666700  0.66710900  1
  Th  Th2  1  0.00000000  0.00000000  0.00000000  1
  Ti  Ti3  1  0.00000000  0.00000000  0.50000000  1
  Ti  Ti4  1  0.66666700  0.33333300  0.82478100  1
  Ti  Ti5  1  0.33333300  0.66666700  0.17521900  1
  O  O6  1  0.68228400  0.84114200  0.31740700  1
  O  O7  1  0.31771600  0.15885800  0.68259300  1
  O  O8  1  0.00000000  0.50000000  0.00000000  1
  O  O9  1  0.84114200  0.68228400  0.68259300  1
  O  O10  1  0.50000000  0.00000000  0.00000000  1
  O  O11  1  0.15885800  0.31771600  0.31740700  1
  O  O12  1  0.84114200  0.15885800  0.68259300  1
  O  O13  1  0.50000000  0.50000000  0.00000000  1
  O  O14  1  0.15885800  0.84114200  0.31740700  1
