# generated using pymatgen
data_Mg3Si3(AgO6)2
_symmetry_space_group_name_H-M   'P 1'
_cell_length_a   10.41911526
_cell_length_b   10.41911526
_cell_length_c   10.41911526
_cell_angle_alpha   109.47122063
_cell_angle_beta   109.47122063
_cell_angle_gamma   109.47122063
_symmetry_Int_Tables_number   1
_chemical_formula_structural   Mg3Si3(AgO6)2
_chemical_formula_sum   'Mg12 Si12 Ag8 O48'
_cell_volume   870.70419399
_cell_formula_units_Z   4
loop_
 _symmetry_equiv_pos_site_id
 _symmetry_equiv_pos_as_xyz
  1  'x, y, z'
loop_
 _atom_site_type_symbol
 _atom_site_label
 _atom_site_symmetry_multiplicity
 _atom_site_fract_x
 _atom_site_fract_y
 _atom_site_fract_z
 _atom_site_occupancy
  Mg  Mg0  1  0.25000000  0.37500000  0.12500000  1
  Mg  Mg1  1  0.75000000  0.12500000  0.37500000  1
  Mg  Mg2  1  0.37500000  0.12500000  0.25000000  1
  Mg  Mg3  1  0.12500000  0.37500000  0.75000000  1
  Mg  Mg4  1  0.25000000  0.87500000  0.62500000  1
  Mg  Mg5  1  0.12500000  0.25000000  0.37500000  1
  Mg  Mg6  1  0.62500000  0.25000000  0.87500000  1
  Mg  Mg7  1  0.75000000  0.62500000  0.87500000  1
  Mg  Mg8  1  0.87500000  0.75000000  0.62500000  1
  Mg  Mg9  1  0.87500000  0.62500000  0.25000000  1
  Mg  Mg10  1  0.62500000  0.87500000  0.75000000  1
  Mg  Mg11  1  0.37500000  0.75000000  0.12500000  1
  Si  Si12  1  0.12500000  0.75000000  0.87500000  1
  Si  Si13  1  0.87500000  0.25000000  0.12500000  1
  Si  Si14  1  0.75000000  0.37500000  0.62500000  1
  Si  Si15  1  0.12500000  0.87500000  0.25000000  1
  Si  Si16  1  0.25000000  0.12500000  0.87500000  1
  Si  Si17  1  0.37500000  0.62500000  0.75000000  1
  Si  Si18  1  0.37500000  0.25000000  0.62500000  1
  Si  Si19  1  0.87500000  0.12500000  0.75000000  1
  Si  Si20  1  0.62500000  0.37500000  0.25000000  1
  Si  Si21  1  0.75000000  0.87500000  0.12500000  1
  Si  Si22  1  0.25000000  0.62500000  0.37500000  1
  Si  Si23  1  0.62500000  0.75000000  0.37500000  1
  Ag  Ag24  1  0.50000000  0.00000000  0.00000000  1
  Ag  Ag25  1  0.50000000  0.50000000  0.00000000  1
  Ag  Ag26  1  0.00000000  0.50000000  0.50000000  1
  Ag  Ag27  1  0.00000000  0.00000000  0.50000000  1
  Ag  Ag28  1  0.50000000  0.50000000  0.50000000  1
  Ag  Ag29  1  0.00000000  0.50000000  0.00000000  1
  Ag  Ag30  1  0.50000000  0.00000000  0.50000000  1
  Ag  Ag31  1  0.00000000  0.00000000  0.00000000  1
  O  O32  1  0.59777600  0.89695400  0.36859200  1
  O  O33  1  0.36859200  0.59777600  0.89695400  1
  O  O34  1  0.27081600  0.29917900  0.90222400  1
  O  O35  1  0.47163700  0.60304600  0.20082100  1
  O  O36  1  0.29917900  0.89695400  0.02836300  1
  O  O37  1  0.13140800  0.02836300  0.22918400  1
  O  O38  1  0.36859200  0.27081600  0.47163700  1
  O  O39  1  0.89695400  0.36859200  0.59777600  1
  O  O40  1  0.20082100  0.22918400  0.59777600  1
  O  O41  1  0.47163700  0.36859200  0.27081600  1
  O  O42  1  0.89695400  0.02836300  0.29917900  1
  O  O43  1  0.60304600  0.90222400  0.13140800  1
  O  O44  1  0.90222400  0.13140800  0.60304600  1
  O  O45  1  0.27081600  0.47163700  0.36859200  1
  O  O46  1  0.59777600  0.20082100  0.22918400  1
  O  O47  1  0.22918400  0.59777600  0.20082100  1
  O  O48  1  0.02836300  0.29917900  0.89695400  1
  O  O49  1  0.90222400  0.27081600  0.29917900  1
  O  O50  1  0.02836300  0.22918400  0.13140800  1
  O  O51  1  0.79917900  0.77081600  0.40222400  1
  O  O52  1  0.20082100  0.47163700  0.60304600  1
  O  O53  1  0.60304600  0.20082100  0.47163700  1
  O  O54  1  0.22918400  0.13140800  0.02836300  1
  O  O55  1  0.13140800  0.60304600  0.90222400  1
  O  O56  1  0.40222400  0.10304600  0.63140800  1
  O  O57  1  0.63140800  0.40222400  0.10304600  1
  O  O58  1  0.72918400  0.70082100  0.09777600  1
  O  O59  1  0.52836300  0.39695400  0.79917900  1
  O  O60  1  0.70082100  0.10304600  0.97163700  1
  O  O61  1  0.86859200  0.97163700  0.77081600  1
  O  O62  1  0.63140800  0.72918400  0.52836300  1
  O  O63  1  0.10304600  0.63140800  0.40222400  1
  O  O64  1  0.86859200  0.39695400  0.09777600  1
  O  O65  1  0.77081600  0.86859200  0.97163700  1
  O  O66  1  0.39695400  0.79917900  0.52836300  1
  O  O67  1  0.70082100  0.09777600  0.72918400  1
  O  O68  1  0.79917900  0.52836300  0.39695400  1
  O  O69  1  0.97163700  0.77081600  0.86859200  1
  O  O70  1  0.09777600  0.72918400  0.70082100  1
  O  O71  1  0.97163700  0.70082100  0.10304600  1
  O  O72  1  0.77081600  0.40222400  0.79917900  1
  O  O73  1  0.40222400  0.79917900  0.77081600  1
  O  O74  1  0.72918400  0.52836300  0.63140800  1
  O  O75  1  0.09777600  0.86859200  0.39695400  1
  O  O76  1  0.39695400  0.09777600  0.86859200  1
  O  O77  1  0.10304600  0.97163700  0.70082100  1
  O  O78  1  0.52836300  0.63140800  0.72918400  1
  O  O79  1  0.29917900  0.90222400  0.27081600  1
