# generated using pymatgen
data_NaV2(SO)4
_symmetry_space_group_name_H-M   'P 1'
_cell_length_a   3.78628100
_cell_length_b   5.82581400
_cell_length_c   10.46489165
_cell_angle_alpha   74.15971220
_cell_angle_beta   90.00000000
_cell_angle_gamma   90.00000000
_symmetry_Int_Tables_number   1
_chemical_formula_structural   NaV2(SO)4
_chemical_formula_sum   'Na1 V2 S4 O4'
_cell_volume   222.07063703
_cell_formula_units_Z   1
loop_
 _symmetry_equiv_pos_site_id
 _symmetry_equiv_pos_as_xyz
  1  'x, y, z'
loop_
 _atom_site_type_symbol
 _atom_site_label
 _atom_site_symmetry_multiplicity
 _atom_site_fract_x
 _atom_site_fract_y
 _atom_site_fract_z
 _atom_site_occupancy
  Na  Na0  1  0.00000000  0.50000000  0.50000000  1
  V  V1  1  0.00000000  0.00000000  0.00000000  1
  V  V2  1  0.50000000  0.50000000  0.00000000  1
  S  S3  1  0.50000000  0.79087300  0.12482400  1
  S  S4  1  0.00000000  0.27099300  0.13052600  1
  S  S5  1  0.50000000  0.20912700  0.87517600  1
  S  S6  1  0.00000000  0.72900700  0.86947400  1
  O  O7  1  0.50000000  0.28967100  0.71786200  1
  O  O8  1  0.00000000  0.26009300  0.70016000  1
  O  O9  1  0.50000000  0.71032900  0.28213800  1
  O  O10  1  0.00000000  0.73990700  0.29984000  1
