# generated using pymatgen
data_Na3GdTi2Nb2O12
_symmetry_space_group_name_H-M   'P 1'
_cell_length_a   5.46546900
_cell_length_b   5.58773897
_cell_length_c   7.79773341
_cell_angle_alpha   89.89307234
_cell_angle_beta   89.97264433
_cell_angle_gamma   89.50804549
_symmetry_Int_Tables_number   1
_chemical_formula_structural   Na3GdTi2Nb2O12
_chemical_formula_sum   'Na3 Gd1 Ti2 Nb2 O12'
_cell_volume   238.13055121
_cell_formula_units_Z   1
loop_
 _symmetry_equiv_pos_site_id
 _symmetry_equiv_pos_as_xyz
  1  'x, y, z'
loop_
 _atom_site_type_symbol
 _atom_site_label
 _atom_site_symmetry_multiplicity
 _atom_site_fract_x
 _atom_site_fract_y
 _atom_site_fract_z
 _atom_site_occupancy
  Na  Na0  1  0.49268300  0.52543300  0.74852500  1
  Na  Na1  1  0.00362000  0.01823100  0.74981700  1
  Na  Na2  1  0.50730000  0.46664400  0.25016900  1
  Gd  Gd3  1  0.99217300  0.94230300  0.25018800  1
  Ti  Ti4  1  0.49209500  0.98342700  0.00671500  1
  Ti  Ti5  1  0.00500100  0.47868400  0.49435300  1
  Nb  Nb6  1  0.49526700  0.99240900  0.51285800  1
  Nb  Nb7  1  0.00438800  0.47964000  0.98712300  1
  O  O8  1  0.56741700  0.98508000  0.75327700  1
  O  O9  1  0.92200700  0.49015600  0.74701900  1
  O  O10  1  0.41063500  0.02575900  0.24669200  1
  O  O11  1  0.07353600  0.52660300  0.25299800  1
  O  O12  1  0.20662100  0.80200400  0.97580000  1
  O  O13  1  0.28849400  0.29898000  0.53592800  1
  O  O14  1  0.79996100  0.21373800  0.45117900  1
  O  O15  1  0.71954700  0.73384900  0.04965400  1
  O  O16  1  0.79708800  0.21105400  0.04935900  1
  O  O17  1  0.72333700  0.73146900  0.45090100  1
  O  O18  1  0.20423200  0.79939100  0.52550400  1
  O  O19  1  0.29459800  0.29514500  0.96194100  1
