# generated using pymatgen
data_NaCaAlSi2O7
_symmetry_space_group_name_H-M   'P 1'
_cell_length_a   7.71007500
_cell_length_b   5.11261600
_cell_length_c   7.72337002
_cell_angle_alpha   88.71443763
_cell_angle_beta   90.00000000
_cell_angle_gamma   90.00000000
_symmetry_Int_Tables_number   1
_chemical_formula_structural   NaCaAlSi2O7
_chemical_formula_sum   'Na2 Ca2 Al2 Si4 O14'
_cell_volume   304.36821066
_cell_formula_units_Z   2
loop_
 _symmetry_equiv_pos_site_id
 _symmetry_equiv_pos_as_xyz
  1  'x, y, z'
loop_
 _atom_site_type_symbol
 _atom_site_label
 _atom_site_symmetry_multiplicity
 _atom_site_fract_x
 _atom_site_fract_y
 _atom_site_fract_z
 _atom_site_occupancy
  Na  Na0  1  0.83674200  0.48808400  0.42043200  1
  Na  Na1  1  0.33674200  0.51191600  0.57956800  1
  Ca  Ca2  1  0.15918500  0.48091200  0.09920300  1
  Ca  Ca3  1  0.65918500  0.51908800  0.90079700  1
  Al  Al4  1  0.49916100  0.99822600  0.24972700  1
  Al  Al5  1  0.99916100  0.00177400  0.75027300  1
  Si  Si6  1  0.64251800  0.04754800  0.61099500  1
  Si  Si7  1  0.14251800  0.95245200  0.38900500  1
  Si  Si8  1  0.35777500  0.04692700  0.89585700  1
  Si  Si9  1  0.85777500  0.95307300  0.10414300  1
  O  O10  1  0.58976400  0.17362700  0.42137200  1
  O  O11  1  0.08976400  0.82637300  0.57862800  1
  O  O12  1  0.41692800  0.19892600  0.07542300  1
  O  O13  1  0.91692800  0.80107400  0.92457700  1
  O  O14  1  0.66972400  0.81721600  0.15364100  1
  O  O15  1  0.16972400  0.18278400  0.84635900  1
  O  O16  1  0.32332800  0.80533500  0.32667700  1
  O  O17  1  0.82332800  0.19466500  0.67332300  1
  O  O18  1  0.99677700  0.82818300  0.24993700  1
  O  O19  1  0.49677700  0.17181700  0.75006300  1
  O  O20  1  0.64824300  0.73448700  0.62662600  1
  O  O21  1  0.14824300  0.26551300  0.37337400  1
  O  O22  1  0.35985500  0.73279100  0.91297300  1
  O  O23  1  0.85985500  0.26720900  0.08702700  1
