# generated using pymatgen
data_Na4Al3Si3ClO12
_symmetry_space_group_name_H-M   'P 1'
_cell_length_a   7.78827724
_cell_length_b   7.78827724
_cell_length_c   8.96349610
_cell_angle_alpha   54.83512881
_cell_angle_beta   54.83512881
_cell_angle_gamma   70.49099631
_symmetry_Int_Tables_number   1
_chemical_formula_structural   Na4Al3Si3ClO12
_chemical_formula_sum   'Na4 Al3 Si3 Cl1 O12'
_cell_volume   363.35515954
_cell_formula_units_Z   1
loop_
 _symmetry_equiv_pos_site_id
 _symmetry_equiv_pos_as_xyz
  1  'x, y, z'
loop_
 _atom_site_type_symbol
 _atom_site_label
 _atom_site_symmetry_multiplicity
 _atom_site_fract_x
 _atom_site_fract_y
 _atom_site_fract_z
 _atom_site_occupancy
  Na  Na0  1  0.64517700  0.00303600  0.35834000  1
  Na  Na1  1  0.36136700  0.00224400  0.99133100  1
  Na  Na2  1  0.99775600  0.63863300  0.00866900  1
  Na  Na3  1  0.99696400  0.35482300  0.64166000  1
  Al  Al4  1  0.74809600  0.25190400  0.50000000  1
  Al  Al5  1  0.25072700  0.25217800  0.25296300  1
  Al  Al6  1  0.74782200  0.74927300  0.74703700  1
  Si  Si7  1  0.49624400  0.49441300  0.75332900  1
  Si  Si8  1  0.25359200  0.74640800  0.50000000  1
  Si  Si9  1  0.50558700  0.50375600  0.24667100  1
  Cl  Cl10  1  0.99920200  0.00079800  0.00000000  1
  O  O11  1  0.69947500  0.00099400  0.58384100  1
  O  O12  1  0.42386000  0.30391700  0.29071400  1
  O  O13  1  0.41499300  0.69551200  0.58631500  1
  O  O14  1  0.29884100  0.98671500  0.30459100  1
  O  O15  1  0.57841100  0.70214700  0.00882600  1
  O  O16  1  0.56725600  0.29608500  0.71538200  1
  O  O17  1  0.01328500  0.70115900  0.69540900  1
  O  O18  1  0.29785300  0.42158900  0.99117400  1
  O  O19  1  0.70391500  0.43274400  0.28461800  1
  O  O20  1  0.99900600  0.30052500  0.41615900  1
  O  O21  1  0.69608300  0.57614000  0.70928600  1
  O  O22  1  0.30448800  0.58500700  0.41368500  1
