# generated using pymatgen
data_Na4Al3Cr(P2O7)4
_symmetry_space_group_name_H-M   'P 1'
_cell_length_a   7.28964900
_cell_length_b   7.87009888
_cell_length_c   9.45072137
_cell_angle_alpha   90.03409725
_cell_angle_beta   111.76084811
_cell_angle_gamma   90.12548866
_symmetry_Int_Tables_number   1
_chemical_formula_structural   Na4Al3Cr(P2O7)4
_chemical_formula_sum   'Na4 Al3 Cr1 P8 O28'
_cell_volume   503.55172070
_cell_formula_units_Z   1
loop_
 _symmetry_equiv_pos_site_id
 _symmetry_equiv_pos_as_xyz
  1  'x, y, z'
loop_
 _atom_site_type_symbol
 _atom_site_label
 _atom_site_symmetry_multiplicity
 _atom_site_fract_x
 _atom_site_fract_y
 _atom_site_fract_z
 _atom_site_occupancy
  Na  Na0  1  0.29287600  0.52229700  0.29818800  1
  Na  Na1  1  0.70716800  0.02241000  0.20163300  1
  Na  Na2  1  0.70762100  0.47747800  0.70174700  1
  Na  Na3  1  0.29277500  0.97805800  0.79789900  1
  Al  Al4  1  0.26070400  0.50923800  0.74880900  1
  Al  Al5  1  0.26080900  0.99073000  0.24916300  1
  Al  Al6  1  0.73935100  0.49100000  0.25125900  1
  Cr  Cr7  1  0.73993100  0.00613400  0.75286900  1
  P  P8  1  0.92711600  0.24652700  0.05064200  1
  P  P9  1  0.07532600  0.74362700  0.45198000  1
  P  P10  1  0.07837000  0.75406100  0.95387100  1
  P  P11  1  0.92494500  0.25964400  0.54558500  1
  P  P12  1  0.32894600  0.29253900  0.04700500  1
  P  P13  1  0.67129200  0.78988900  0.45061900  1
  P  P14  1  0.67136900  0.70481800  0.95572800  1
  P  P15  1  0.32503400  0.20958900  0.54444100  1
  O  O16  1  0.31261400  0.30750000  0.88156600  1
  O  O17  1  0.68475200  0.79601900  0.61580200  1
  O  O18  1  0.68760300  0.68834200  0.12065100  1
  O  O19  1  0.31243600  0.19343500  0.37982100  1
  O  O20  1  0.80590700  0.21426800  0.88246500  1
  O  O21  1  0.19355200  0.70451700  0.61927800  1
  O  O22  1  0.19508700  0.79351500  0.12152300  1
  O  O23  1  0.80752600  0.29900800  0.37869800  1
  O  O24  1  0.47548100  0.41448100  0.15660900  1
  O  O25  1  0.52563000  0.91435000  0.34326100  1
  O  O26  1  0.52594800  0.58371900  0.84377200  1
  O  O27  1  0.46408800  0.08505800  0.65505700  1
  O  O28  1  0.99858300  0.08434500  0.14605900  1
  O  O29  1  0.00204900  0.58401200  0.35349100  1
  O  O30  1  0.01396300  0.91524100  0.85643200  1
  O  O31  1  0.99961500  0.41777600  0.64619100  1
  O  O32  1  0.12243900  0.35361300  0.06110700  1
  O  O33  1  0.87985300  0.85177300  0.44101300  1
  O  O34  1  0.87948200  0.64970500  0.94105800  1
  O  O35  1  0.11675900  0.15021600  0.55498700  1
  O  O36  1  0.35692800  0.10650800  0.10212800  1
  O  O37  1  0.64195600  0.60498100  0.39382800  1
  O  O38  1  0.63873000  0.89240100  0.90647200  1
  O  O39  1  0.35592200  0.39541200  0.59998400  1
  O  O40  1  0.81467100  0.36506300  0.11455500  1
  O  O41  1  0.18824400  0.86399000  0.38873900  1
  O  O42  1  0.18978300  0.63306600  0.89074500  1
  O  O43  1  0.80676900  0.13964500  0.60326900  1
