# generated using pymatgen
data_NaUVO7
_symmetry_space_group_name_H-M   'P 1'
_cell_length_a   7.70589282
_cell_length_b   8.59021500
_cell_length_c   10.29758962
_cell_angle_alpha   90.00000000
_cell_angle_beta   109.28171990
_cell_angle_gamma   90.00000000
_symmetry_Int_Tables_number   1
_chemical_formula_structural   NaUVO7
_chemical_formula_sum   'Na4 U4 V4 O28'
_cell_volume   643.41545345
_cell_formula_units_Z   4
loop_
 _symmetry_equiv_pos_site_id
 _symmetry_equiv_pos_as_xyz
  1  'x, y, z'
loop_
 _atom_site_type_symbol
 _atom_site_label
 _atom_site_symmetry_multiplicity
 _atom_site_fract_x
 _atom_site_fract_y
 _atom_site_fract_z
 _atom_site_occupancy
  Na  Na0  1  0.98927700  0.01051500  0.49033300  1
  Na  Na1  1  0.48927700  0.48948500  0.99033300  1
  Na  Na2  1  0.31760500  0.99170000  0.84511200  1
  Na  Na3  1  0.81760500  0.50830000  0.34511200  1
  U  U4  1  0.68825300  0.51996500  0.67871400  1
  U  U5  1  0.80947300  0.02000200  0.81931100  1
  U  U6  1  0.30947300  0.47999800  0.31931100  1
  U  U7  1  0.18825300  0.98003500  0.17871400  1
  V  V8  1  0.47085100  0.85162700  0.56083900  1
  V  V9  1  0.03087100  0.34397100  0.93557100  1
  V  V10  1  0.53087100  0.15602900  0.43557100  1
  V  V11  1  0.97085100  0.64837300  0.06083900  1
  O  O12  1  0.27018700  0.70646200  0.89233600  1
  O  O13  1  0.25700700  0.14774700  0.63888400  1
  O  O14  1  0.75700700  0.35225300  0.13888400  1
  O  O15  1  0.77018700  0.79353800  0.39233600  1
  O  O16  1  0.66861800  0.79138300  0.70973000  1
  O  O17  1  0.83274400  0.29018200  0.78364800  1
  O  O18  1  0.33274400  0.20981800  0.28364800  1
  O  O19  1  0.16861800  0.70861700  0.20973000  1
  O  O20  1  0.52647000  0.50172100  0.77356300  1
  O  O21  1  0.98822900  0.00123700  0.73573800  1
  O  O22  1  0.48822900  0.49876300  0.23573800  1
  O  O23  1  0.02647000  0.99827900  0.27356300  1
  O  O24  1  0.28278500  0.87253700  0.60660000  1
  O  O25  1  0.22276800  0.33815400  0.89939300  1
  O  O26  1  0.72276800  0.16184600  0.39939300  1
  O  O27  1  0.78278500  0.62746300  0.10660000  1
  O  O28  1  0.46330000  0.65562600  0.49392100  1
  O  O29  1  0.01819200  0.15046800  0.00634500  1
  O  O30  1  0.51819200  0.34953200  0.50634500  1
  O  O31  1  0.96330000  0.84437400  0.99392100  1
  O  O32  1  0.43202300  0.94150900  0.38590800  1
  O  O33  1  0.08014000  0.43963700  0.10974400  1
  O  O34  1  0.58014000  0.06036300  0.60974400  1
  O  O35  1  0.93202300  0.55849100  0.88590800  1
  O  O36  1  0.84757500  0.54346900  0.58125600  1
  O  O37  1  0.63063200  0.03762400  0.89805300  1
  O  O38  1  0.13063200  0.46237600  0.39805300  1
  O  O39  1  0.34757500  0.95653100  0.08125600  1
