# generated using pymatgen
data_Na4Al3FeO8
_symmetry_space_group_name_H-M   'P 1'
_cell_length_a   5.33128700
_cell_length_b   5.54082620
_cell_length_c   7.11489469
_cell_angle_alpha   90.02496309
_cell_angle_beta   90.00374461
_cell_angle_gamma   90.01533519
_symmetry_Int_Tables_number   1
_chemical_formula_structural   Na4Al3FeO8
_chemical_formula_sum   'Na4 Al3 Fe1 O8'
_cell_volume   210.17207352
_cell_formula_units_Z   1
loop_
 _symmetry_equiv_pos_site_id
 _symmetry_equiv_pos_as_xyz
  1  'x, y, z'
loop_
 _atom_site_type_symbol
 _atom_site_label
 _atom_site_symmetry_multiplicity
 _atom_site_fract_x
 _atom_site_fract_y
 _atom_site_fract_z
 _atom_site_occupancy
  Na  Na0  1  0.51506300  0.06849000  0.37687700  1
  Na  Na1  1  0.01428600  0.92850300  0.62498300  1
  Na  Na2  1  0.01308000  0.42654700  0.87710400  1
  Na  Na3  1  0.51441200  0.57342200  0.12132800  1
  Al  Al4  1  0.49924700  0.56332900  0.63198700  1
  Al  Al5  1  0.50134300  0.06258000  0.87426800  1
  Al  Al6  1  0.00144000  0.93901900  0.11956800  1
  Fe  Fe7  1  0.00104700  0.43852900  0.37378300  1
  O  O8  1  0.65191900  0.46893100  0.42215900  1
  O  O9  1  0.17061400  0.54036100  0.59248400  1
  O  O10  1  0.17387300  0.03940100  0.92066300  1
  O  O11  1  0.67382900  0.96973500  0.07592200  1
  O  O12  1  0.07519200  0.10719400  0.32638100  1
  O  O13  1  0.57294400  0.87299800  0.67789200  1
  O  O14  1  0.57435900  0.37180200  0.82620700  1
  O  O15  1  0.07535200  0.62915800  0.15839600  1
