# generated using pymatgen
data_NaCaGaSi2O7
_symmetry_space_group_name_H-M   'P 1'
_cell_length_a   7.79526600
_cell_length_b   5.11259000
_cell_length_c   7.81771379
_cell_angle_alpha   88.42039983
_cell_angle_beta   90.00000000
_cell_angle_gamma   90.00000000
_symmetry_Int_Tables_number   1
_chemical_formula_structural   NaCaGaSi2O7
_chemical_formula_sum   'Na2 Ca2 Ga2 Si4 O14'
_cell_volume   311.44875970
_cell_formula_units_Z   2
loop_
 _symmetry_equiv_pos_site_id
 _symmetry_equiv_pos_as_xyz
  1  'x, y, z'
loop_
 _atom_site_type_symbol
 _atom_site_label
 _atom_site_symmetry_multiplicity
 _atom_site_fract_x
 _atom_site_fract_y
 _atom_site_fract_z
 _atom_site_occupancy
  Na  Na0  1  0.66365200  0.49125800  0.92073400  1
  Na  Na1  1  0.16365200  0.50874200  0.07926600  1
  Ca  Ca2  1  0.34058500  0.48310800  0.59836700  1
  Ca  Ca3  1  0.84058500  0.51689200  0.40163300  1
  Ga  Ga4  1  0.50015000  0.00224100  0.24857500  1
  Ga  Ga5  1  0.00015000  0.99775900  0.75142500  1
  Si  Si6  1  0.85925100  0.05077200  0.11430600  1
  Si  Si7  1  0.35925100  0.94922800  0.88569400  1
  Si  Si8  1  0.14090400  0.05124500  0.39578800  1
  Si  Si9  1  0.64090400  0.94875500  0.60421200  1
  O  O10  1  0.85106100  0.73926200  0.12882500  1
  O  O11  1  0.35106100  0.26073800  0.87117500  1
  O  O12  1  0.14063800  0.73867100  0.41520800  1
  O  O13  1  0.64063800  0.26132900  0.58479200  1
  O  O14  1  0.58161700  0.79040000  0.42971300  1
  O  O15  1  0.08161700  0.20960000  0.57028700  1
  O  O16  1  0.40959600  0.81514200  0.07300000  1
  O  O17  1  0.90959600  0.18485800  0.92700000  1
  O  O18  1  0.68281900  0.20638600  0.17501500  1
  O  O19  1  0.18281900  0.79361400  0.82498500  1
  O  O20  1  0.32556000  0.19378300  0.34740900  1
  O  O21  1  0.82556000  0.80621700  0.65259100  1
  O  O22  1  0.50416600  0.82447000  0.74989500  1
  O  O23  1  0.00416600  0.17553000  0.25010500  1
