# generated using pymatgen
data_Na3NdTi2Nb2O12
_symmetry_space_group_name_H-M   'P 1'
_cell_length_a   5.51282600
_cell_length_b   5.60183153
_cell_length_c   7.84597433
_cell_angle_alpha   89.89688292
_cell_angle_beta   89.95286190
_cell_angle_gamma   89.83394747
_symmetry_Int_Tables_number   1
_chemical_formula_structural   Na3NdTi2Nb2O12
_chemical_formula_sum   'Na3 Nd1 Ti2 Nb2 O12'
_cell_volume   242.29728007
_cell_formula_units_Z   1
loop_
 _symmetry_equiv_pos_site_id
 _symmetry_equiv_pos_as_xyz
  1  'x, y, z'
loop_
 _atom_site_type_symbol
 _atom_site_label
 _atom_site_symmetry_multiplicity
 _atom_site_fract_x
 _atom_site_fract_y
 _atom_site_fract_z
 _atom_site_occupancy
  Na  Na0  1  0.49498200  0.51526900  0.74883400  1
  Na  Na1  1  0.00336600  0.01245000  0.74980100  1
  Na  Na2  1  0.50608200  0.47263800  0.25038100  1
  Nd  Nd3  1  0.99466800  0.95235700  0.25011700  1
  Ti  Ti4  1  0.49561900  0.98215500  0.00773500  1
  Ti  Ti5  1  0.00688900  0.47885900  0.49349400  1
  Nb  Nb6  1  0.49845400  0.99033500  0.51401000  1
  Nb  Nb7  1  0.00444900  0.48106000  0.98526000  1
  O  O8  1  0.56554200  0.98640200  0.75354500  1
  O  O9  1  0.92456300  0.49571400  0.74670900  1
  O  O10  1  0.42319400  0.02226700  0.24626600  1
  O  O11  1  0.06900000  0.51993300  0.25358300  1
  O  O12  1  0.21020400  0.79938600  0.97730500  1
  O  O13  1  0.28192900  0.29362700  0.53329200  1
  O  O14  1  0.79127900  0.22095700  0.45641400  1
  O  O15  1  0.72191200  0.73616000  0.04741000  1
  O  O16  1  0.78811300  0.21844900  0.04404200  1
  O  O17  1  0.72490400  0.73473200  0.45333000  1
  O  O18  1  0.20802500  0.79651700  0.52429600  1
  O  O19  1  0.28682600  0.29073500  0.96417800  1
