# generated using pymatgen
data_NaCa3AlFe3(SiO3)8
_symmetry_space_group_name_H-M   'P 1'
_cell_length_a   8.98264600
_cell_length_b   5.33891900
_cell_length_c   9.81501039
_cell_angle_alpha   74.82964205
_cell_angle_beta   90.00000000
_cell_angle_gamma   90.00000000
_symmetry_Int_Tables_number   1
_chemical_formula_structural   NaCa3AlFe3(SiO3)8
_chemical_formula_sum   'Na1 Ca3 Al1 Fe3 Si8 O24'
_cell_volume   454.30142555
_cell_formula_units_Z   1
loop_
 _symmetry_equiv_pos_site_id
 _symmetry_equiv_pos_as_xyz
  1  'x, y, z'
loop_
 _atom_site_type_symbol
 _atom_site_label
 _atom_site_symmetry_multiplicity
 _atom_site_fract_x
 _atom_site_fract_y
 _atom_site_fract_z
 _atom_site_occupancy
  Na  Na0  1  0.30145000  0.00000000  0.00000000  1
  Ca  Ca1  1  0.79660100  0.50000000  0.50000000  1
  Ca  Ca2  1  0.20168700  0.00000000  0.50000000  1
  Ca  Ca3  1  0.69938900  0.50000000  0.00000000  1
  Al  Al4  1  0.10187800  0.50000000  0.00000000  1
  Fe  Fe5  1  0.40430100  0.50000000  0.50000000  1
  Fe  Fe6  1  0.90980900  0.00000000  0.00000000  1
  Fe  Fe7  1  0.59186900  0.00000000  0.50000000  1
  Si  Si8  1  0.09404500  0.69161300  0.28223000  1
  Si  Si9  1  0.58788900  0.19352000  0.79100700  1
  Si  Si10  1  0.09404500  0.30838700  0.71777000  1
  Si  Si11  1  0.58788900  0.80648000  0.20899300  1
  Si  Si12  1  0.91245200  0.80001200  0.71609400  1
  Si  Si13  1  0.40159500  0.30675900  0.20536900  1
  Si  Si14  1  0.91245200  0.19998800  0.28390600  1
  Si  Si15  1  0.40159500  0.69324100  0.79463100  1
  O  O16  1  0.25009500  0.71636400  0.35640000  1
  O  O17  1  0.74718000  0.20582300  0.86463600  1
  O  O18  1  0.25009500  0.28363600  0.64360000  1
  O  O19  1  0.74718000  0.79417700  0.13536400  1
  O  O20  1  0.75245600  0.78683100  0.64522500  1
  O  O21  1  0.24243400  0.30898700  0.12868900  1
  O  O22  1  0.75245600  0.21316900  0.35477500  1
  O  O23  1  0.24243400  0.69101300  0.87131100  1
  O  O24  1  0.01907900  0.39671200  0.35500100  1
  O  O25  1  0.51369000  0.89765300  0.85282700  1
  O  O26  1  0.01907900  0.60328800  0.64499900  1
  O  O27  1  0.51369000  0.10234700  0.14717300  1
  O  O28  1  0.98394800  0.09910500  0.65872900  1
  O  O29  1  0.48376500  0.59670100  0.14686200  1
  O  O30  1  0.98394800  0.90089500  0.34127100  1
  O  O31  1  0.48376500  0.40329900  0.85313800  1
  O  O32  1  0.08692800  0.74992700  0.11083100  1
  O  O33  1  0.58840500  0.28220600  0.61951900  1
  O  O34  1  0.08692800  0.25007300  0.88916900  1
  O  O35  1  0.58840500  0.71779400  0.38048100  1
  O  O36  1  0.92909000  0.70131800  0.88745400  1
  O  O37  1  0.40345900  0.21656900  0.37689000  1
  O  O38  1  0.92909000  0.29868200  0.11254600  1
  O  O39  1  0.40345900  0.78343100  0.62311000  1
