# generated using pymatgen
data_Nd2H13Cl3O20
_symmetry_space_group_name_H-M   'P 1'
_cell_length_a   7.33583600
_cell_length_b   8.00683780
_cell_length_c   18.83181422
_cell_angle_alpha   100.49858323
_cell_angle_beta   90.00000000
_cell_angle_gamma   62.73555217
_symmetry_Int_Tables_number   1
_chemical_formula_structural   Nd2H13Cl3O20
_chemical_formula_sum   'Nd4 H26 Cl6 O40'
_cell_volume   962.35439169
_cell_formula_units_Z   2
loop_
 _symmetry_equiv_pos_site_id
 _symmetry_equiv_pos_as_xyz
  1  'x, y, z'
loop_
 _atom_site_type_symbol
 _atom_site_label
 _atom_site_symmetry_multiplicity
 _atom_site_fract_x
 _atom_site_fract_y
 _atom_site_fract_z
 _atom_site_occupancy
  Nd  Nd0  1  0.86624100  0.32450500  0.39640800  1
  Nd  Nd1  1  0.18115700  0.71050500  0.10234400  1
  Nd  Nd2  1  0.10833800  0.71050500  0.60234400  1
  Nd  Nd3  1  0.80925300  0.32450500  0.89640800  1
  H  H4  1  0.66530700  0.63956000  0.30219300  1
  H  H5  1  0.29663600  0.38050700  0.18996900  1
  H  H6  1  0.32285700  0.38050700  0.68996900  1
  H  H7  1  0.69513300  0.63956000  0.80219300  1
  H  H8  1  0.32609800  0.03854700  0.40233900  1
  H  H9  1  0.35365600  0.95316200  0.07241100  1
  H  H10  1  0.69318200  0.95316200  0.57241100  1
  H  H11  1  0.63535500  0.03854700  0.90233900  1
  H  H12  1  0.74013800  0.02224500  0.34092700  1
  H  H13  1  0.74723100  0.97944300  0.15771900  1
  H  H14  1  0.27332500  0.97944300  0.65771900  1
  H  H15  1  0.23761700  0.02224500  0.84092700  1
  H  H16  1  0.53666500  0.69499900  0.48185000  1
  H  H17  1  0.19849600  0.31323500  0.02940300  1
  H  H18  1  0.48826900  0.31323500  0.52940300  1
  H  H19  1  0.76833600  0.69499900  0.98185000  1
  H  H20  1  0.73376200  0.73704100  0.49721700  1
  H  H21  1  0.42372800  0.28513000  0.01515000  1
  H  H22  1  0.29114200  0.28513000  0.51515000  1
  H  H23  1  0.52919700  0.73704100  0.99721700  1
  H  H24  1  0.79710800  0.44425200  0.24541100  1
  H  H25  1  0.23585300  0.56239400  0.25285700  1
  H  H26  1  0.20175300  0.56239400  0.75285700  1
  H  H27  1  0.75864000  0.44425200  0.74541000  1
  H  H28  1  0.22448100  0.02136600  0.47215400  1
  H  H29  1  0.75415300  0.02136600  0.97215400  1
  Cl  Cl30  1  0.33835600  0.01055600  0.25264500  1
  Cl  Cl31  1  0.65108800  0.01055600  0.75264500  1
  Cl  Cl32  1  0.75925500  0.41692400  0.59184800  1
  Cl  Cl33  1  0.17205500  0.57449800  0.90921100  1
  Cl  Cl34  1  0.25344800  0.57449800  0.40921100  1
  Cl  Cl35  1  0.82382100  0.41692400  0.09184800  1
  O  O36  1  0.94191500  0.44162900  0.58334700  1
  O  O37  1  0.38723100  0.50831800  0.92274000  1
  O  O38  1  0.10445000  0.50831800  0.42274000  1
  O  O39  1  0.61645600  0.44162900  0.08334700  1
  O  O40  1  0.15146200  0.17874300  0.28962600  1
  O  O41  1  0.28847400  0.86093100  0.21723200  1
  O  O42  1  0.85059400  0.86093100  0.71723200  1
  O  O43  1  0.66979500  0.17874300  0.78962600  1
  O  O44  1  0.82621900  0.08254600  0.35538300  1
  O  O45  1  0.87704600  0.93938200  0.12995600  1
  O  O46  1  0.18357200  0.93938200  0.62995600  1
  O  O47  1  0.09123500  0.08254600  0.85538300  1
  O  O48  1  0.48089500  0.93413400  0.30742200  1
  O  O49  1  0.42977200  0.06851000  0.20024000  1
  O  O50  1  0.50171800  0.06851000  0.70024100  1
  O  O51  1  0.58497200  0.93413400  0.80742200  1
  O  O52  1  0.75037800  0.50097900  0.29719100  1
  O  O53  1  0.24302000  0.51975000  0.20019400  1
  O  O54  1  0.23723000  0.51975000  0.70019400  1
  O  O55  1  0.74864300  0.50097900  0.79719100  1
  O  O56  1  0.77033200  0.31950500  0.65063800  1
  O  O57  1  0.12364900  0.67149500  0.84894000  1
  O  O58  1  0.20485600  0.67149500  0.34894000  1
  O  O59  1  0.91016300  0.31950500  0.15063800  1
  O  O60  1  0.67147300  0.66071800  0.45860000  1
  O  O61  1  0.29724300  0.35747800  0.04865200  1
  O  O62  1  0.34527900  0.35747800  0.54865200  1
  O  O63  1  0.66781000  0.66071800  0.95860000  1
  O  O64  1  0.57222400  0.59925600  0.60309500  1
  O  O65  1  0.12940200  0.41088400  0.89622400  1
  O  O66  1  0.45971400  0.41088400  0.39622400  1
  O  O67  1  0.82852000  0.59925600  0.10309500  1
  O  O68  1  0.22072300  0.11428300  0.44395700  1
  O  O69  1  0.35836400  0.83264400  0.04874600  1
  O  O70  1  0.80899200  0.83264400  0.54874600  1
  O  O71  1  0.66499400  0.11428300  0.94395700  1
  O  O72  1  0.75435800  0.29194600  0.52233000  1
  O  O73  1  0.04190000  0.71279900  0.97533300  1
  O  O74  1  0.24530100  0.71279900  0.47533300  1
  O  O75  1  0.95369700  0.29194600  0.02233000  1
