# generated using pymatgen
data_Na2Zr4As3(PO8)3
_symmetry_space_group_name_H-M   'P 1'
_cell_length_a   9.13538570
_cell_length_b   9.13538600
_cell_length_c   9.41243325
_cell_angle_alpha   90.00000000
_cell_angle_beta   60.96899419
_cell_angle_gamma   120.00000110
_symmetry_Int_Tables_number   1
_chemical_formula_structural   Na2Zr4As3(PO8)3
_chemical_formula_sum   'Na2 Zr4 As3 P3 O24'
_cell_volume   563.44122016
_cell_formula_units_Z   1
loop_
 _symmetry_equiv_pos_site_id
 _symmetry_equiv_pos_as_xyz
  1  'x, y, z'
loop_
 _atom_site_type_symbol
 _atom_site_label
 _atom_site_symmetry_multiplicity
 _atom_site_fract_x
 _atom_site_fract_y
 _atom_site_fract_z
 _atom_site_occupancy
  Na  Na0  1  0.99701800  0.49850900  0.50447200  1
  Na  Na1  1  0.00298200  0.00149100  0.99552800  1
  Zr  Zr2  1  0.28132500  0.64066300  0.07801200  1
  Zr  Zr3  1  0.29614000  0.14807000  0.55579100  1
  Zr  Zr4  1  0.70386000  0.35193000  0.94420900  1
  Zr  Zr5  1  0.71867500  0.85933700  0.42198800  1
  As  As6  1  0.50000000  0.03937600  0.75000000  1
  As  As7  1  0.78937600  0.75000000  0.75000000  1
  As  As8  1  0.21062400  0.46062400  0.75000000  1
  P  P9  1  0.20992000  0.25000000  0.25000000  1
  P  P10  1  0.79008000  0.54008000  0.25000000  1
  P  P11  1  0.50000000  0.95992000  0.25000000  1
  O  O12  1  0.34437900  0.78431800  0.24342100  1
  O  O13  1  0.19651800  0.41220000  0.24342100  1
  O  O14  1  0.97226100  0.56006100  0.24342100  1
  O  O15  1  0.99063500  0.92860900  0.74113200  1
  O  O16  1  0.19684200  0.26823300  0.74113200  1
  O  O17  1  0.33025900  0.06202600  0.74113200  1
  O  O18  1  0.66974100  0.23176700  0.75886800  1
  O  O19  1  0.80315800  0.57139100  0.75886800  1
  O  O20  1  0.00936500  0.43797400  0.75886800  1
  O  O21  1  0.02773900  0.08780000  0.25657900  1
  O  O22  1  0.80348200  0.71568200  0.25657900  1
  O  O23  1  0.65562100  0.93993900  0.25657900  1
  O  O24  1  0.35968600  0.86664200  0.93119300  1
  O  O25  1  0.57576400  0.70912200  0.93119300  1
  O  O26  1  0.20216500  0.49304400  0.93119300  1
  O  O27  1  0.20867400  0.20991800  0.41088800  1
  O  O28  1  0.59035600  0.38043800  0.41088800  1
  O  O29  1  0.37919400  0.99875600  0.41088800  1
  O  O30  1  0.62080600  0.11956200  0.08911200  1
  O  O31  1  0.40964400  0.29008200  0.08911200  1
  O  O32  1  0.79132600  0.50124400  0.08911200  1
  O  O33  1  0.79783500  0.79087800  0.56880700  1
  O  O34  1  0.42423600  0.63335800  0.56880700  1
  O  O35  1  0.64031400  0.00695600  0.56880700  1
