# generated using pymatgen
data_Na3Tl4
_symmetry_space_group_name_H-M   'P 1'
_cell_length_a   5.37739009
_cell_length_b   5.37739009
_cell_length_c   9.22944159
_cell_angle_alpha   73.06316431
_cell_angle_beta   90.00000000
_cell_angle_gamma   120.00000000
_symmetry_Int_Tables_number   1
_chemical_formula_structural   Na3Tl4
_chemical_formula_sum   'Na3 Tl4'
_cell_volume   217.65726402
_cell_formula_units_Z   1
loop_
 _symmetry_equiv_pos_site_id
 _symmetry_equiv_pos_as_xyz
  1  'x, y, z'
loop_
 _atom_site_type_symbol
 _atom_site_label
 _atom_site_symmetry_multiplicity
 _atom_site_fract_x
 _atom_site_fract_y
 _atom_site_fract_z
 _atom_site_occupancy
  Na  Na0  1  0.37494600  0.74989200  0.87516200  1
  Na  Na1  1  0.99471000  0.98942000  0.01587000  1
  Na  Na2  1  0.50545600  0.01091300  0.48363100  1
  Tl  Tl3  1  0.62849800  0.25699500  0.11450700  1
  Tl  Tl4  1  0.12479900  0.24959900  0.62560200  1
  Tl  Tl5  1  0.24622000  0.49244100  0.26133900  1
  Tl  Tl6  1  0.75037000  0.50074000  0.74889000  1
