# generated using pymatgen
data_NaCaN3
_symmetry_space_group_name_H-M   'P 1'
_cell_length_a   12.85193346
_cell_length_b   12.50860270
_cell_length_c   5.86190812
_cell_angle_alpha   79.92474785
_cell_angle_beta   73.39075682
_cell_angle_gamma   26.68449533
_symmetry_Int_Tables_number   1
_chemical_formula_structural   NaCaN3
_chemical_formula_sum   'Na4 Ca4 N12'
_cell_volume   398.38407986
_cell_formula_units_Z   4
loop_
 _symmetry_equiv_pos_site_id
 _symmetry_equiv_pos_as_xyz
  1  'x, y, z'
loop_
 _atom_site_type_symbol
 _atom_site_label
 _atom_site_symmetry_multiplicity
 _atom_site_fract_x
 _atom_site_fract_y
 _atom_site_fract_z
 _atom_site_occupancy
  Na  Na0  1  0.68204800  0.68204800  0.81795200  1
  Na  Na1  1  0.43204800  0.43204800  0.56795200  1
  Na  Na2  1  0.81795200  0.81795200  0.68204800  1
  Na  Na3  1  0.56795200  0.56795200  0.43204800  1
  Ca  Ca4  1  0.17339000  0.17339000  0.32661000  1
  Ca  Ca5  1  0.92339000  0.92339000  0.07661000  1
  Ca  Ca6  1  0.32661000  0.32661000  0.17339000  1
  Ca  Ca7  1  0.07661000  0.07661000  0.92339000  1
  N  N8  1  0.88043300  0.40555500  0.11504500  1
  N  N9  1  0.40555500  0.88043300  0.59896700  1
  N  N10  1  0.13495500  0.65103300  0.36956700  1
  N  N11  1  0.65103300  0.13495500  0.84444500  1
  N  N12  1  0.11504500  0.59896700  0.88043300  1
  N  N13  1  0.59896700  0.11504500  0.40555500  1
  N  N14  1  0.77398400  0.22601600  0.22601600  1
  N  N15  1  0.22601600  0.77398400  0.77398400  1
  N  N16  1  0.02398400  0.47601600  0.47601600  1
  N  N17  1  0.47601600  0.02398400  0.02398400  1
  N  N18  1  0.36956700  0.84444500  0.13495500  1
  N  N19  1  0.84444500  0.36956700  0.65103300  1
