# generated using pymatgen
data_Na3YSi2O7
_symmetry_space_group_name_H-M   'P 1'
_cell_length_a   9.51144612
_cell_length_b   9.51144612
_cell_length_c   13.93651300
_cell_angle_alpha   90.00000000
_cell_angle_beta   90.00000000
_cell_angle_gamma   120.00000083
_symmetry_Int_Tables_number   1
_chemical_formula_structural   Na3YSi2O7
_chemical_formula_sum   'Na18 Y6 Si12 O42'
_cell_volume   1091.88740493
_cell_formula_units_Z   6
loop_
 _symmetry_equiv_pos_site_id
 _symmetry_equiv_pos_as_xyz
  1  'x, y, z'
loop_
 _atom_site_type_symbol
 _atom_site_label
 _atom_site_symmetry_multiplicity
 _atom_site_fract_x
 _atom_site_fract_y
 _atom_site_fract_z
 _atom_site_occupancy
  Na  Na0  1  0.33333300  0.66666700  0.25006500  1
  Na  Na1  1  0.66666700  0.33333300  0.75006500  1
  Na  Na2  1  0.00000000  0.00000000  0.00004900  1
  Na  Na3  1  0.00000000  0.00000000  0.50004900  1
  Na  Na4  1  0.33333300  0.66666700  0.77038000  1
  Na  Na5  1  0.66666700  0.33333300  0.27038000  1
  Na  Na6  1  0.01519300  0.68518400  0.08757400  1
  Na  Na7  1  0.31481600  0.33000900  0.08757400  1
  Na  Na8  1  0.66999100  0.98480700  0.08757400  1
  Na  Na9  1  0.98480700  0.31481600  0.58757400  1
  Na  Na10  1  0.68518400  0.66999100  0.58757400  1
  Na  Na11  1  0.33000900  0.01519300  0.58757400  1
  Na  Na12  1  0.98430700  0.31440700  0.91262700  1
  Na  Na13  1  0.68559300  0.66990000  0.91262700  1
  Na  Na14  1  0.33010000  0.01569300  0.91262700  1
  Na  Na15  1  0.01569300  0.68559300  0.41262700  1
  Na  Na16  1  0.31440700  0.33010000  0.41262700  1
  Na  Na17  1  0.66990000  0.98430700  0.41262700  1
  Y  Y18  1  0.66666700  0.33333300  0.51981200  1
  Y  Y19  1  0.33333300  0.66666700  0.01981200  1
  Y  Y20  1  0.33333300  0.66666700  0.48215500  1
  Y  Y21  1  0.66666700  0.33333300  0.98215500  1
  Y  Y22  1  0.00000000  0.00000000  0.74983300  1
  Y  Y23  1  0.00000000  0.00000000  0.24983300  1
  Si  Si24  1  0.01895600  0.67221800  0.64079500  1
  Si  Si25  1  0.32778200  0.34673700  0.64079500  1
  Si  Si26  1  0.65326300  0.98104400  0.64079500  1
  Si  Si27  1  0.98104400  0.32778200  0.14079500  1
  Si  Si28  1  0.67221800  0.65326300  0.14079500  1
  Si  Si29  1  0.34673700  0.01895600  0.14079500  1
  Si  Si30  1  0.98198900  0.32794600  0.35911800  1
  Si  Si31  1  0.67205400  0.65404300  0.35911800  1
  Si  Si32  1  0.34595700  0.01801100  0.35911800  1
  Si  Si33  1  0.01801100  0.67205400  0.85911800  1
  Si  Si34  1  0.32794600  0.34595700  0.85911800  1
  Si  Si35  1  0.65404300  0.98198900  0.85911800  1
  O  O36  1  0.51498900  0.39145500  0.62081000  1
  O  O37  1  0.60854500  0.12353500  0.62081000  1
  O  O38  1  0.87646500  0.48501100  0.62081000  1
  O  O39  1  0.48501100  0.60854500  0.12081000  1
  O  O40  1  0.39145500  0.87646500  0.12081000  1
  O  O41  1  0.12353500  0.51498900  0.12081000  1
  O  O42  1  0.48492000  0.60838100  0.37922100  1
  O  O43  1  0.39161900  0.87653900  0.37922100  1
  O  O44  1  0.12346100  0.51508000  0.37922100  1
  O  O45  1  0.51508000  0.39161900  0.87922100  1
  O  O46  1  0.60838100  0.12346100  0.87922100  1
  O  O47  1  0.87653900  0.48492000  0.87922100  1
  O  O48  1  0.17184700  0.73076700  0.93337700  1
  O  O49  1  0.26923300  0.44108000  0.93337700  1
  O  O50  1  0.55892000  0.82815300  0.93337700  1
  O  O51  1  0.82815300  0.26923300  0.43337700  1
  O  O52  1  0.73076700  0.55892000  0.43337700  1
  O  O53  1  0.44108000  0.17184700  0.43337700  1
  O  O54  1  0.82903300  0.26882400  0.06578800  1
  O  O55  1  0.73117600  0.56020900  0.06578800  1
  O  O56  1  0.43979100  0.17096700  0.06578800  1
  O  O57  1  0.17096700  0.73117600  0.56578800  1
  O  O58  1  0.26882400  0.43979100  0.56578800  1
  O  O59  1  0.56020900  0.82903300  0.56578800  1
  O  O60  1  0.95179500  0.80088700  0.86116400  1
  O  O61  1  0.19911300  0.15090800  0.86116400  1
  O  O62  1  0.84909200  0.04820500  0.86116400  1
  O  O63  1  0.04820500  0.19911300  0.36116400  1
  O  O64  1  0.80088700  0.84909200  0.36116400  1
  O  O65  1  0.15090800  0.95179500  0.36116400  1
  O  O66  1  0.04821500  0.19934100  0.13900600  1
  O  O67  1  0.80065900  0.84887400  0.13900600  1
  O  O68  1  0.15112600  0.95178500  0.13900600  1
  O  O69  1  0.95178500  0.80065900  0.63900600  1
  O  O70  1  0.19934100  0.15112600  0.63900600  1
  O  O71  1  0.84887400  0.04821500  0.63900600  1
  O  O72  1  0.09923900  0.68090700  0.75009000  1
  O  O73  1  0.31909300  0.41833100  0.75009000  1
  O  O74  1  0.58166900  0.90076100  0.75009000  1
  O  O75  1  0.90076100  0.31909300  0.25009000  1
  O  O76  1  0.68090700  0.58166900  0.25009000  1
  O  O77  1  0.41833100  0.09923900  0.25009000  1
