# generated using pymatgen
data_Na2MnCdFe(PO4)3
_symmetry_space_group_name_H-M   'P 1'
_cell_length_a   6.64197700
_cell_length_b   8.85624693
_cell_length_c   8.90900907
_cell_angle_alpha   92.35593665
_cell_angle_beta   106.80620816
_cell_angle_gamma   106.20303758
_symmetry_Int_Tables_number   1
_chemical_formula_structural   Na2MnCdFe(PO4)3
_chemical_formula_sum   'Na4 Mn2 Cd2 Fe2 P6 O24'
_cell_volume   477.49773380
_cell_formula_units_Z   2
loop_
 _symmetry_equiv_pos_site_id
 _symmetry_equiv_pos_as_xyz
  1  'x, y, z'
loop_
 _atom_site_type_symbol
 _atom_site_label
 _atom_site_symmetry_multiplicity
 _atom_site_fract_x
 _atom_site_fract_y
 _atom_site_fract_z
 _atom_site_occupancy
  Na  Na0  1  0.75093900  0.02200900  0.97754800  1
  Na  Na1  1  0.24905200  0.97848100  0.02262900  1
  Na  Na2  1  0.74531400  0.73232100  0.26681700  1
  Na  Na3  1  0.50353200  0.50386100  0.49480700  1
  Mn  Mn4  1  0.35742200  0.93148000  0.61987500  1
  Mn  Mn5  1  0.14486200  0.37819800  0.07119000  1
  Cd  Cd6  1  0.25198500  0.26762900  0.73222900  1
  Cd  Cd7  1  0.99371500  0.50707400  0.49509700  1
  Fe  Fe8  1  0.63985400  0.06107100  0.38309200  1
  Fe  Fe9  1  0.86027800  0.61847600  0.93650400  1
  P  P10  1  0.36524100  0.65616700  0.86550700  1
  P  P11  1  0.12771600  0.13431200  0.34554800  1
  P  P12  1  0.63520700  0.34007200  0.13576400  1
  P  P13  1  0.87314500  0.86363800  0.65906200  1
  P  P14  1  0.75278700  0.28539800  0.71787700  1
  P  P15  1  0.24767100  0.72059600  0.27578600  1
  O  O16  1  0.39789400  0.83141800  0.83844400  1
  O  O17  1  0.09897300  0.15961900  0.17050000  1
  O  O18  1  0.62590300  0.16838800  0.18016700  1
  O  O19  1  0.87617800  0.82100000  0.83003800  1
  O  O20  1  0.58801600  0.64406600  0.97693400  1
  O  O21  1  0.90640800  0.01592500  0.35206800  1
  O  O22  1  0.40797800  0.32308400  0.01190100  1
  O  O23  1  0.09776300  0.99222100  0.68137000  1
  O  O24  1  0.54553900  0.17140300  0.74393000  1
  O  O25  1  0.95999600  0.25487800  0.82974000  1
  O  O26  1  0.45373300  0.85066900  0.26137700  1
  O  O27  1  0.03981100  0.73915500  0.14878800  1
  O  O28  1  0.30058800  0.54211600  0.70737300  1
  O  O29  1  0.18063700  0.29066600  0.45709900  1
  O  O30  1  0.68254800  0.45426500  0.28630300  1
  O  O31  1  0.83575000  0.71462200  0.54805200  1
  O  O32  1  0.75969300  0.26192700  0.54319000  1
  O  O33  1  0.74571300  0.45895000  0.74159100  1
  O  O34  1  0.20868000  0.73774600  0.43860800  1
  O  O35  1  0.28735200  0.55917100  0.26045600  1
  O  O36  1  0.17757000  0.60081700  0.94080200  1
  O  O37  1  0.32240100  0.06280000  0.40474300  1
  O  O38  1  0.81880300  0.40482000  0.05708400  1
  O  O39  1  0.68335400  0.93949400  0.59011000  1
