# generated using pymatgen
data_Na3Th6ZnF29
_symmetry_space_group_name_H-M   'P 1'
_cell_length_a   10.14786774
_cell_length_b   10.14786774
_cell_length_c   13.32374142
_cell_angle_alpha   89.50216587
_cell_angle_beta   89.50216587
_cell_angle_gamma   59.52711440
_symmetry_Int_Tables_number   1
_chemical_formula_structural   Na3Th6ZnF29
_chemical_formula_sum   'Na6 Th12 Zn2 F58'
_cell_volume   1182.48440741
_cell_formula_units_Z   2
loop_
 _symmetry_equiv_pos_site_id
 _symmetry_equiv_pos_as_xyz
  1  'x, y, z'
loop_
 _atom_site_type_symbol
 _atom_site_label
 _atom_site_symmetry_multiplicity
 _atom_site_fract_x
 _atom_site_fract_y
 _atom_site_fract_z
 _atom_site_occupancy
  Na  Na0  1  0.00666000  0.00532000  0.73263500  1
  Na  Na1  1  0.99468000  0.99334000  0.26736500  1
  Na  Na2  1  0.33631100  0.33412700  0.40986000  1
  Na  Na3  1  0.66587300  0.66368900  0.59014000  1
  Na  Na4  1  0.33103600  0.33414100  0.91028000  1
  Na  Na5  1  0.66585900  0.66896400  0.08972000  1
  Th  Th6  1  0.66086700  0.92548000  0.84912300  1
  Th  Th7  1  0.39879900  0.67182100  0.85086000  1
  Th  Th8  1  0.92408700  0.39926700  0.85321800  1
  Th  Th9  1  0.32817900  0.60120100  0.14914000  1
  Th  Th10  1  0.07452000  0.33913300  0.15087700  1
  Th  Th11  1  0.60073300  0.07591300  0.14678200  1
  Th  Th12  1  0.92211500  0.68054300  0.35651500  1
  Th  Th13  1  0.39760700  0.92502400  0.35001100  1
  Th  Th14  1  0.67818700  0.39789400  0.35171800  1
  Th  Th15  1  0.07497600  0.60239300  0.64998900  1
  Th  Th16  1  0.31945700  0.07788500  0.64348500  1
  Th  Th17  1  0.60210600  0.32181300  0.64828200  1
  Zn  Zn18  1  0.00424000  0.99576000  0.00000000  1
  Zn  Zn19  1  0.99990500  0.00009500  0.50000000  1
  F  F20  1  0.30651500  0.56193100  0.96808900  1
  F  F21  1  0.13242300  0.29503800  0.97181200  1
  F  F22  1  0.55964800  0.13060900  0.96490400  1
  F  F23  1  0.70496200  0.86757700  0.02818800  1
  F  F24  1  0.43806900  0.69348500  0.03191100  1
  F  F25  1  0.86939100  0.44035200  0.03509600  1
  F  F26  1  0.86555400  0.69690500  0.53727800  1
  F  F27  1  0.43843400  0.87031700  0.53214900  1
  F  F28  1  0.69257400  0.43777600  0.53341400  1
  F  F29  1  0.12968300  0.56156600  0.46785100  1
  F  F30  1  0.30309500  0.13444600  0.46272200  1
  F  F31  1  0.56222400  0.30742600  0.46658600  1
  F  F32  1  0.46687700  0.41201500  0.80319300  1
  F  F33  1  0.11846000  0.46344000  0.80511400  1
  F  F34  1  0.41195700  0.11782700  0.80154600  1
  F  F35  1  0.53656000  0.88154000  0.19488600  1
  F  F36  1  0.58798500  0.53312300  0.19680700  1
  F  F37  1  0.88217300  0.58804300  0.19845400  1
  F  F38  1  0.19108400  0.68711900  0.76956000  1
  F  F39  1  0.11824400  0.19100700  0.76795700  1
  F  F40  1  0.69986400  0.11178700  0.77844400  1
  F  F41  1  0.80899300  0.88175600  0.23204400  1
  F  F42  1  0.31288100  0.80891600  0.23044000  1
  F  F43  1  0.88821300  0.30013600  0.22155600  1
  F  F44  1  0.81663700  0.10655300  0.59457400  1
  F  F45  1  0.07291400  0.81708400  0.59411400  1
  F  F46  1  0.10587100  0.07735400  0.59171100  1
  F  F47  1  0.18291600  0.92708600  0.40588600  1
  F  F48  1  0.89344700  0.18336300  0.40542600  1
  F  F49  1  0.92264600  0.89412900  0.40828900  1
  F  F50  1  0.33894700  0.48704400  0.61603300  1
  F  F51  1  0.17131700  0.34225000  0.61364600  1
  F  F52  1  0.48937700  0.17093600  0.61758300  1
  F  F53  1  0.65775000  0.82868300  0.38635400  1
  F  F54  1  0.51295600  0.66105300  0.38396700  1
  F  F55  1  0.82906400  0.51062300  0.38241700  1
  F  F56  1  0.82472700  0.66073100  0.88756200  1
  F  F57  1  0.50446400  0.83108700  0.88807600  1
  F  F58  1  0.65956600  0.51293600  0.88619900  1
  F  F59  1  0.16891300  0.49553600  0.11192400  1
  F  F60  1  0.33926900  0.17527300  0.11243800  1
  F  F61  1  0.48706400  0.34043400  0.11380100  1
  F  F62  1  0.58730800  0.87751500  0.69737100  1
  F  F63  1  0.53271700  0.58357900  0.69774800  1
  F  F64  1  0.87938100  0.53716800  0.70072300  1
  F  F65  1  0.41642100  0.46728300  0.30225200  1
  F  F66  1  0.12248500  0.41269200  0.30262900  1
  F  F67  1  0.46283200  0.12061900  0.29927700  1
  F  F68  1  0.88792000  0.81404700  0.75256800  1
  F  F69  1  0.31149600  0.88108500  0.73339700  1
  F  F70  1  0.81013100  0.30762900  0.73708900  1
  F  F71  1  0.11891500  0.68850400  0.26660300  1
  F  F72  1  0.18595300  0.11208000  0.24743200  1
  F  F73  1  0.69237100  0.18986900  0.26291100  1
  F  F74  1  0.16913600  0.89166700  0.90464300  1
  F  F75  1  0.92856000  0.17945600  0.92052200  1
  F  F76  1  0.10833300  0.83086400  0.09535700  1
  F  F77  1  0.82054400  0.07144000  0.07947800  1
