# generated using pymatgen
data_Na2MgSi5O12
_symmetry_space_group_name_H-M   'P 1'
_cell_length_a   9.98520773
_cell_length_b   9.98520773
_cell_length_c   9.98520773
_cell_angle_alpha   109.37968569
_cell_angle_beta   109.37968569
_cell_angle_gamma   109.65444604
_symmetry_Int_Tables_number   1
_chemical_formula_structural   Na2MgSi5O12
_chemical_formula_sum   'Na8 Mg4 Si20 O48'
_cell_volume   766.38340036
_cell_formula_units_Z   4
loop_
 _symmetry_equiv_pos_site_id
 _symmetry_equiv_pos_as_xyz
  1  'x, y, z'
loop_
 _atom_site_type_symbol
 _atom_site_label
 _atom_site_symmetry_multiplicity
 _atom_site_fract_x
 _atom_site_fract_y
 _atom_site_fract_z
 _atom_site_occupancy
  Na  Na0  1  0.00064200  0.62500000  0.87564200  1
  Na  Na1  1  0.50064200  0.62500000  0.37564200  1
  Na  Na2  1  0.24935800  0.12500000  0.62435800  1
  Na  Na3  1  0.74935800  0.12500000  0.12435800  1
  Na  Na4  1  0.37500000  0.25064200  0.37564200  1
  Na  Na5  1  0.87500000  0.49935800  0.12435800  1
  Na  Na6  1  0.37500000  0.75064200  0.87564200  1
  Na  Na7  1  0.87500000  0.99935800  0.62435800  1
  Mg  Mg8  1  0.75000000  0.75000000  0.00000000  1
  Mg  Mg9  1  0.25000000  0.25000000  0.00000000  1
  Mg  Mg10  1  0.50000000  0.00000000  0.50000000  1
  Mg  Mg11  1  0.00000000  0.50000000  0.50000000  1
  Si  Si12  1  0.50000000  0.50000000  0.00000000  1
  Si  Si13  1  0.00000000  0.00000000  0.00000000  1
  Si  Si14  1  0.37500000  0.99945600  0.12445600  1
  Si  Si15  1  0.87500000  0.75054400  0.37554400  1
  Si  Si16  1  0.75000000  0.25000000  0.50000000  1
  Si  Si17  1  0.25000000  0.75000000  0.50000000  1
  Si  Si18  1  0.37500000  0.49945600  0.62445600  1
  Si  Si19  1  0.87500000  0.25054400  0.87554400  1
  Si  Si20  1  0.74945600  0.62500000  0.62445600  1
  Si  Si21  1  0.24945600  0.62500000  0.12445600  1
  Si  Si22  1  0.00054400  0.12500000  0.37554400  1
  Si  Si23  1  0.50054400  0.12500000  0.87554400  1
  Si  Si24  1  0.12500000  0.87500000  0.25000000  1
  Si  Si25  1  0.62500000  0.37500000  0.25000000  1
  Si  Si26  1  0.62500000  0.37500000  0.75000000  1
  Si  Si27  1  0.12500000  0.37500000  0.25000000  1
  Si  Si28  1  0.62500000  0.87500000  0.75000000  1
  Si  Si29  1  0.12500000  0.37500000  0.75000000  1
  Si  Si30  1  0.62500000  0.87500000  0.25000000  1
  Si  Si31  1  0.12500000  0.87500000  0.75000000  1
  O  O32  1  0.00445500  0.86453100  0.05898500  1
  O  O33  1  0.50445500  0.44547000  0.13992400  1
  O  O34  1  0.43678300  0.37000200  0.64218900  1
  O  O35  1  0.93678300  0.29459500  0.06678100  1
  O  O36  1  0.24554500  0.88546900  0.44101500  1
  O  O37  1  0.74554500  0.30453000  0.36007600  1
  O  O38  1  0.81321700  0.37999800  0.85781100  1
  O  O39  1  0.31321700  0.45540500  0.43321900  1
  O  O40  1  0.44445400  0.80453000  0.55898500  1
  O  O41  1  0.94445400  0.38546900  0.63992400  1
  O  O42  1  0.52218600  0.95540500  0.14218900  1
  O  O43  1  0.02218600  0.87999800  0.56678100  1
  O  O44  1  0.80554600  0.94547000  0.94101500  1
  O  O45  1  0.30554600  0.36453100  0.86007600  1
  O  O46  1  0.72781400  0.79459500  0.35781100  1
  O  O47  1  0.22781400  0.87000200  0.93321900  1
  O  O48  1  0.12000200  0.68678300  0.14218900  1
  O  O49  1  0.62000200  0.47781400  0.43321900  1
  O  O50  1  0.51468400  0.18498200  0.74165900  1
  O  O51  1  0.01468400  0.27302600  0.32970300  1
  O  O52  1  0.12999800  0.06321700  0.35781100  1
  O  O53  1  0.62999800  0.27218600  0.06678100  1
  O  O54  1  0.73531600  0.56501800  0.75834100  1
  O  O55  1  0.23531600  0.47697400  0.17029700  1
  O  O56  1  0.70540500  0.77218600  0.64218900  1
  O  O57  1  0.20540500  0.56321700  0.93321900  1
  O  O58  1  0.80667700  0.97697400  0.24165900  1
  O  O59  1  0.30667700  0.06501800  0.82970300  1
  O  O60  1  0.54459500  0.97781400  0.85781100  1
  O  O61  1  0.04459500  0.18678300  0.56678100  1
  O  O62  1  0.44332300  0.77302600  0.25834100  1
  O  O63  1  0.94332300  0.68498200  0.67029700  1
  O  O64  1  0.93498200  0.76468400  0.24165900  1
  O  O65  1  0.43498200  0.19332300  0.17029700  1
  O  O66  1  0.61453100  0.25445500  0.55898500  1
  O  O67  1  0.11453100  0.55554600  0.36007600  1
  O  O68  1  0.31501800  0.98531600  0.25834100  1
  O  O69  1  0.81501800  0.55667700  0.32970300  1
  O  O70  1  0.63546900  0.49554500  0.94101500  1
  O  O71  1  0.13546900  0.19445400  0.13992400  1
  O  O72  1  0.72697400  0.05667700  0.74165900  1
  O  O73  1  0.22697400  0.48531600  0.67029700  1
  O  O74  1  0.55453000  0.69445400  0.05898500  1
  O  O75  1  0.05453000  0.99554500  0.86007600  1
  O  O76  1  0.52302600  0.69332300  0.75834100  1
  O  O77  1  0.02302600  0.26468400  0.82970300  1
  O  O78  1  0.69547000  0.05554600  0.44101500  1
  O  O79  1  0.19547000  0.75445500  0.63992400  1
