# generated using pymatgen
data_MnZnTe2
_symmetry_space_group_name_H-M   'P 1'
_cell_length_a   7.66452850
_cell_length_b   7.66452850
_cell_length_c   7.66452865
_cell_angle_alpha   33.67846304
_cell_angle_beta   33.67846304
_cell_angle_gamma   33.67846324
_symmetry_Int_Tables_number   1
_chemical_formula_structural   MnZnTe2
_chemical_formula_sum   'Mn1 Zn1 Te2'
_cell_volume   123.34985451
_cell_formula_units_Z   1
loop_
 _symmetry_equiv_pos_site_id
 _symmetry_equiv_pos_as_xyz
  1  'x, y, z'
loop_
 _atom_site_type_symbol
 _atom_site_label
 _atom_site_symmetry_multiplicity
 _atom_site_fract_x
 _atom_site_fract_y
 _atom_site_fract_z
 _atom_site_occupancy
  Mn  Mn0  1  0.00015800  0.00015800  0.00015800  1
  Zn  Zn1  1  0.49998100  0.49998100  0.49998100  1
  Te  Te2  1  0.12613600  0.12613600  0.12613600  1
  Te  Te3  1  0.62372500  0.62372500  0.62372500  1
