# generated using pymatgen
data_MoCl3
_symmetry_space_group_name_H-M   'P 1'
_cell_length_a   5.82929919
_cell_length_b   5.82929919
_cell_length_c   13.09367860
_cell_angle_alpha   88.73968153
_cell_angle_beta   88.73968153
_cell_angle_gamma   120.13679563
_symmetry_Int_Tables_number   1
_chemical_formula_structural   MoCl3
_chemical_formula_sum   'Mo4 Cl12'
_cell_volume   384.41678348
_cell_formula_units_Z   4
loop_
 _symmetry_equiv_pos_site_id
 _symmetry_equiv_pos_as_xyz
  1  'x, y, z'
loop_
 _atom_site_type_symbol
 _atom_site_label
 _atom_site_symmetry_multiplicity
 _atom_site_fract_x
 _atom_site_fract_y
 _atom_site_fract_z
 _atom_site_occupancy
  Mo  Mo0  1  0.87040100  0.12959900  0.00000000  1
  Mo  Mo1  1  0.12959900  0.87040100  0.00000000  1
  Mo  Mo2  1  0.81336700  0.18663300  0.50000000  1
  Mo  Mo3  1  0.18663300  0.81336700  0.50000000  1
  Cl  Cl4  1  0.83578600  0.83578600  0.40299400  1
  Cl  Cl5  1  0.16421400  0.16421400  0.59700600  1
  Cl  Cl6  1  0.15524400  0.15524400  0.13250400  1
  Cl  Cl7  1  0.84475600  0.84475600  0.86749600  1
  Cl  Cl8  1  0.16848000  0.52141200  0.89533600  1
  Cl  Cl9  1  0.52141200  0.16848000  0.89533600  1
  Cl  Cl10  1  0.83152000  0.47858800  0.10466400  1
  Cl  Cl11  1  0.47858800  0.83152000  0.10466400  1
  Cl  Cl12  1  0.16999300  0.49841800  0.38052600  1
  Cl  Cl13  1  0.49841800  0.16999300  0.38052600  1
  Cl  Cl14  1  0.83000700  0.50158200  0.61947400  1
  Cl  Cl15  1  0.50158200  0.83000700  0.61947400  1
