# generated using pymatgen
data_Mo3(SeS)2
_symmetry_space_group_name_H-M   'P 1'
_cell_length_a   6.53865400
_cell_length_b   6.60924352
_cell_length_c   6.60983169
_cell_angle_alpha   91.67843397
_cell_angle_beta   91.62315922
_cell_angle_gamma   91.65694468
_symmetry_Int_Tables_number   1
_chemical_formula_structural   Mo3(SeS)2
_chemical_formula_sum   'Mo6 Se4 S4'
_cell_volume   285.28393569
_cell_formula_units_Z   2
loop_
 _symmetry_equiv_pos_site_id
 _symmetry_equiv_pos_as_xyz
  1  'x, y, z'
loop_
 _atom_site_type_symbol
 _atom_site_label
 _atom_site_symmetry_multiplicity
 _atom_site_fract_x
 _atom_site_fract_y
 _atom_site_fract_z
 _atom_site_occupancy
  Mo  Mo0  1  0.59343400  0.45458400  0.77978900  1
  Mo  Mo1  1  0.44792900  0.77945800  0.59028600  1
  Mo  Mo2  1  0.78815900  0.59831800  0.44845400  1
  Mo  Mo3  1  0.40867900  0.55102000  0.21366400  1
  Mo  Mo4  1  0.54721500  0.21386800  0.41130300  1
  Mo  Mo5  1  0.20986400  0.41085500  0.54871200  1
  Se  Se6  1  0.75117500  0.37772800  0.12726500  1
  Se  Se7  1  0.37366800  0.12763400  0.75013000  1
  Se  Se8  1  0.79201300  0.79357700  0.78786300  1
  Se  Se9  1  0.20776600  0.21163400  0.21142900  1
  S  S10  1  0.86232300  0.27771900  0.60690400  1
  S  S11  1  0.27201400  0.60984700  0.86432600  1
  S  S12  1  0.61048100  0.86605900  0.27452600  1
  S  S13  1  0.13528000  0.72769800  0.38534900  1
