# generated using pymatgen
data_Na2NbO3F5
_symmetry_space_group_name_H-M   'P 1'
_cell_length_a   7.74549700
_cell_length_b   8.29897900
_cell_length_c   10.41666200
_cell_angle_alpha   90.00000000
_cell_angle_beta   90.00000000
_cell_angle_gamma   90.00000000
_symmetry_Int_Tables_number   1
_chemical_formula_structural   Na2NbO3F5
_chemical_formula_sum   'Na8 Nb4 O12 F20'
_cell_volume   669.58008490
_cell_formula_units_Z   4
loop_
 _symmetry_equiv_pos_site_id
 _symmetry_equiv_pos_as_xyz
  1  'x, y, z'
loop_
 _atom_site_type_symbol
 _atom_site_label
 _atom_site_symmetry_multiplicity
 _atom_site_fract_x
 _atom_site_fract_y
 _atom_site_fract_z
 _atom_site_occupancy
  Na  Na0  1  0.04143600  0.50088000  0.74962700  1
  Na  Na1  1  0.95856400  0.00088000  0.25037300  1
  Na  Na2  1  0.95856400  0.50088000  0.24962700  1
  Na  Na3  1  0.04143600  0.00088000  0.75037300  1
  Na  Na4  1  0.75858300  0.25071100  0.96637800  1
  Na  Na5  1  0.24141700  0.75071100  0.03362200  1
  Na  Na6  1  0.75858300  0.75071100  0.53362200  1
  Na  Na7  1  0.24141700  0.25071100  0.46637800  1
  Nb  Nb8  1  0.77305200  0.24969500  0.56245900  1
  Nb  Nb9  1  0.22694800  0.74969500  0.43754100  1
  Nb  Nb10  1  0.77305200  0.74969500  0.93754100  1
  Nb  Nb11  1  0.22694800  0.24969500  0.06245900  1
  O  O12  1  0.55571600  0.33617300  0.48587200  1
  O  O13  1  0.44428400  0.83617300  0.51412800  1
  O  O14  1  0.55584900  0.66110500  0.01416700  1
  O  O15  1  0.44415100  0.16110500  0.98583300  1
  O  O16  1  0.44415100  0.66110500  0.51416700  1
  O  O17  1  0.55584900  0.16110500  0.48583300  1
  O  O18  1  0.44428400  0.33617300  0.98587200  1
  O  O19  1  0.55571600  0.83617300  0.01412800  1
  O  O20  1  0.35047500  0.46744900  0.72212700  1
  O  O21  1  0.64952500  0.96744900  0.27787300  1
  O  O22  1  0.64952500  0.46744900  0.22212700  1
  O  O23  1  0.35047500  0.96744900  0.77787300  1
  F  F24  1  0.70682700  0.24910800  0.74170100  1
  F  F25  1  0.29317300  0.74910800  0.25829900  1
  F  F26  1  0.70682700  0.74910800  0.75829900  1
  F  F27  1  0.29317300  0.24910800  0.24170100  1
  F  F28  1  0.02477900  0.24942900  0.63494400  1
  F  F29  1  0.97522100  0.74942900  0.36505600  1
  F  F30  1  0.02477900  0.74942900  0.86505600  1
  F  F31  1  0.97522100  0.24942900  0.13494400  1
  F  F32  1  0.82352700  0.48728800  0.57987100  1
  F  F33  1  0.17647300  0.98728800  0.42012900  1
  F  F34  1  0.82397800  0.51245700  0.91931800  1
  F  F35  1  0.17602200  0.01245700  0.08068200  1
  F  F36  1  0.17602200  0.51245700  0.41931800  1
  F  F37  1  0.82397800  0.01245700  0.58068200  1
  F  F38  1  0.17647300  0.48728800  0.07987100  1
  F  F39  1  0.82352700  0.98728800  0.92012900  1
  F  F40  1  0.09662100  0.25070500  0.89927600  1
  F  F41  1  0.90337900  0.75070500  0.10072400  1
  F  F42  1  0.09662100  0.75070500  0.60072400  1
  F  F43  1  0.90337900  0.25070500  0.39927600  1
