# generated using pymatgen
data_Nd6Ga3Fe11
_symmetry_space_group_name_H-M   'P 1'
_cell_length_a   8.12447100
_cell_length_b   8.12447100
_cell_length_c   13.06281681
_cell_angle_alpha   71.88188378
_cell_angle_beta   71.88188378
_cell_angle_gamma   90.00000000
_symmetry_Int_Tables_number   1
_chemical_formula_structural   Nd6Ga3Fe11
_chemical_formula_sum   'Nd12 Ga6 Fe22'
_cell_volume   774.37717074
_cell_formula_units_Z   2
loop_
 _symmetry_equiv_pos_site_id
 _symmetry_equiv_pos_as_xyz
  1  'x, y, z'
loop_
 _atom_site_type_symbol
 _atom_site_label
 _atom_site_symmetry_multiplicity
 _atom_site_fract_x
 _atom_site_fract_y
 _atom_site_fract_z
 _atom_site_occupancy
  Nd  Nd0  1  0.35342000  0.85342000  0.62839800  1
  Nd  Nd1  1  0.01818100  0.51818100  0.62839800  1
  Nd  Nd2  1  0.51818100  0.35342000  0.62839800  1
  Nd  Nd3  1  0.85342000  0.01818100  0.62839800  1
  Nd  Nd4  1  0.64144300  0.14144300  0.37781900  1
  Nd  Nd5  1  0.98073800  0.48073800  0.37781900  1
  Nd  Nd6  1  0.48073800  0.64144300  0.37781900  1
  Nd  Nd7  1  0.14144300  0.98073800  0.37781900  1
  Nd  Nd8  1  0.39471300  0.39471300  0.21057400  1
  Nd  Nd9  1  0.89471300  0.89471300  0.21057400  1
  Nd  Nd10  1  0.60533400  0.60533400  0.78933200  1
  Nd  Nd11  1  0.10533400  0.10533400  0.78933200  1
  Ga  Ga12  1  0.75036300  0.75036300  0.49927500  1
  Ga  Ga13  1  0.25036200  0.25036200  0.49927500  1
  Ga  Ga14  1  0.52553700  0.02553700  0.19074700  1
  Ga  Ga15  1  0.28371600  0.78371600  0.19074700  1
  Ga  Ga16  1  0.78371600  0.52553700  0.19074700  1
  Ga  Ga17  1  0.02553700  0.28371600  0.19074700  1
  Fe  Fe18  1  0.23737900  0.73737900  0.88210900  1
  Fe  Fe19  1  0.88051200  0.38051200  0.88210900  1
  Fe  Fe20  1  0.38051200  0.23737900  0.88210900  1
  Fe  Fe21  1  0.73737900  0.88051200  0.88210900  1
  Fe  Fe22  1  0.76903000  0.26903000  0.11201200  1
  Fe  Fe23  1  0.11895700  0.61895700  0.11201200  1
  Fe  Fe24  1  0.61895700  0.76903000  0.11201200  1
  Fe  Fe25  1  0.26903000  0.11895700  0.11201200  1
  Fe  Fe26  1  0.71109700  0.56886700  0.99868500  1
  Fe  Fe27  1  0.29021700  0.43244800  0.99868500  1
  Fe  Fe28  1  0.79021700  0.06886700  0.99868500  1
  Fe  Fe29  1  0.21109700  0.93244800  0.99868500  1
  Fe  Fe30  1  0.56886700  0.29021700  0.99868500  1
  Fe  Fe31  1  0.43244800  0.71109700  0.99868500  1
  Fe  Fe32  1  0.06886700  0.21109700  0.99868500  1
  Fe  Fe33  1  0.93244800  0.79021700  0.99868500  1
  Fe  Fe34  1  0.00050700  0.50050700  0.99898500  1
  Fe  Fe35  1  0.50050700  0.00050700  0.99898500  1
  Fe  Fe36  1  0.47975400  0.97975400  0.81246000  1
  Fe  Fe37  1  0.70778600  0.20778600  0.81246000  1
  Fe  Fe38  1  0.20778600  0.47975400  0.81246000  1
  Fe  Fe39  1  0.97975400  0.70778600  0.81246000  1
