# generated using pymatgen
data_Mo2O
_symmetry_space_group_name_H-M   'P 1'
_cell_length_a   3.94904995
_cell_length_b   3.94904995
_cell_length_c   3.94904995
_cell_angle_alpha   60.00000000
_cell_angle_beta   60.00000000
_cell_angle_gamma   60.00000000
_symmetry_Int_Tables_number   1
_chemical_formula_structural   Mo2O
_chemical_formula_sum   'Mo2 O1'
_cell_volume   43.54746549
_cell_formula_units_Z   1
loop_
 _symmetry_equiv_pos_site_id
 _symmetry_equiv_pos_as_xyz
  1  'x, y, z'
loop_
 _atom_site_type_symbol
 _atom_site_label
 _atom_site_symmetry_multiplicity
 _atom_site_fract_x
 _atom_site_fract_y
 _atom_site_fract_z
 _atom_site_occupancy
  Mo  Mo0  1  0.75000000  0.75000000  0.75000000  1
  Mo  Mo1  1  0.25000000  0.25000000  0.25000000  1
  O  O2  1  0.50000000  0.50000000  0.50000000  1
