# generated using pymatgen
data_Na(Nb3Se4)2
_symmetry_space_group_name_H-M   'P 1'
_cell_length_a   10.09991478
_cell_length_b   10.09991478
_cell_length_c   3.52821400
_cell_angle_alpha   90.00000000
_cell_angle_beta   90.00000000
_cell_angle_gamma   120.00000511
_symmetry_Int_Tables_number   1
_chemical_formula_structural   Na(Nb3Se4)2
_chemical_formula_sum   'Na1 Nb6 Se8'
_cell_volume   311.68862057
_cell_formula_units_Z   1
loop_
 _symmetry_equiv_pos_site_id
 _symmetry_equiv_pos_as_xyz
  1  'x, y, z'
loop_
 _atom_site_type_symbol
 _atom_site_label
 _atom_site_symmetry_multiplicity
 _atom_site_fract_x
 _atom_site_fract_y
 _atom_site_fract_z
 _atom_site_occupancy
  Na  Na0  1  0.00000000  0.00000000  0.50000000  1
  Nb  Nb1  1  0.10605500  0.61847000  0.25024000  1
  Nb  Nb2  1  0.51241500  0.89394500  0.25024000  1
  Nb  Nb3  1  0.38153000  0.48758500  0.25024000  1
  Nb  Nb4  1  0.89394500  0.38153000  0.74976000  1
  Nb  Nb5  1  0.48758500  0.10605500  0.74976000  1
  Nb  Nb6  1  0.61847000  0.51241500  0.74976000  1
  Se  Se7  1  0.27858600  0.94088000  0.24931400  1
  Se  Se8  1  0.66229400  0.72141400  0.24931400  1
  Se  Se9  1  0.05912000  0.33770600  0.24931400  1
  Se  Se10  1  0.72141400  0.05912000  0.75068600  1
  Se  Se11  1  0.33770600  0.27858600  0.75068600  1
  Se  Se12  1  0.94088000  0.66229400  0.75068600  1
  Se  Se13  1  0.66666700  0.33333300  0.25001800  1
  Se  Se14  1  0.33333300  0.66666700  0.74998200  1
