# generated using pymatgen
data_Na2MnVF7
_symmetry_space_group_name_H-M   'P 1'
_cell_length_a   7.60578833
_cell_length_b   7.60578833
_cell_length_c   18.48804000
_cell_angle_alpha   90.00000000
_cell_angle_beta   90.00000000
_cell_angle_gamma   120.00000283
_symmetry_Int_Tables_number   1
_chemical_formula_structural   Na2MnVF7
_chemical_formula_sum   'Na12 Mn6 V6 F42'
_cell_volume   926.21105533
_cell_formula_units_Z   6
loop_
 _symmetry_equiv_pos_site_id
 _symmetry_equiv_pos_as_xyz
  1  'x, y, z'
loop_
 _atom_site_type_symbol
 _atom_site_label
 _atom_site_symmetry_multiplicity
 _atom_site_fract_x
 _atom_site_fract_y
 _atom_site_fract_z
 _atom_site_occupancy
  Na  Na0  1  0.37062400  0.87547700  0.33502900  1
  Na  Na1  1  0.50485400  0.62937600  0.66836200  1
  Na  Na2  1  0.12452300  0.49514600  0.00169500  1
  Na  Na3  1  0.49720000  0.12396100  0.66664600  1
  Na  Na4  1  0.87603900  0.37323900  0.33331300  1
  Na  Na5  1  0.62676100  0.50280000  0.99997900  1
  Na  Na6  1  0.99789700  0.14366800  0.66863000  1
  Na  Na7  1  0.14577100  0.00210300  0.00196400  1
  Na  Na8  1  0.85633200  0.85422900  0.33529700  1
  Na  Na9  1  0.17948100  0.04464600  0.50341100  1
  Na  Na10  1  0.86516500  0.82051900  0.83674500  1
  Na  Na11  1  0.95535400  0.13483500  0.17007800  1
  Mn  Mn12  1  0.16216900  0.50586200  0.50365300  1
  Mn  Mn13  1  0.34369200  0.83783100  0.83698700  1
  Mn  Mn14  1  0.49413800  0.65630800  0.17032000  1
  Mn  Mn15  1  0.66168600  0.49968700  0.49643100  1
  Mn  Mn16  1  0.50031300  0.16199900  0.16309700  1
  Mn  Mn17  1  0.83800100  0.33831400  0.82976400  1
  V  V18  1  0.66283700  0.00078500  0.49994400  1
  V  V19  1  0.33794800  0.33716300  0.83327700  1
  V  V20  1  0.99921500  0.66205200  0.16661100  1
  V  V21  1  0.31433200  0.31432400  0.33312400  1
  V  V22  1  0.99999200  0.68566800  0.66645700  1
  V  V23  1  0.68567600  0.00000800  0.99979100  1
  F  F24  1  0.19504200  0.05299100  0.38587600  1
  F  F25  1  0.85794900  0.80495800  0.71920900  1
  F  F26  1  0.94700900  0.14205100  0.05254200  1
  F  F27  1  0.14158300  0.94751200  0.61532000  1
  F  F28  1  0.05248800  0.19407100  0.28198700  1
  F  F29  1  0.80592900  0.85841700  0.94865300  1
  F  F30  1  0.19320900  0.43284500  0.39568100  1
  F  F31  1  0.23963600  0.80679100  0.72901500  1
  F  F32  1  0.56715500  0.76036400  0.06234800  1
  F  F33  1  0.75726400  0.56653400  0.60499600  1
  F  F34  1  0.43346600  0.19073000  0.27166300  1
  F  F35  1  0.80927000  0.24273600  0.93833000  1
  F  F36  1  0.94431000  0.56153400  0.45717200  1
  F  F37  1  0.61722500  0.05569000  0.79050600  1
  F  F38  1  0.43846600  0.38277500  0.12383900  1
  F  F39  1  0.37632100  0.42605700  0.54017100  1
  F  F40  1  0.57394300  0.95026400  0.20683800  1
  F  F41  1  0.04973600  0.62367900  0.87350500  1
  F  F42  1  0.43820700  0.57937900  0.28116400  1
  F  F43  1  0.14117200  0.56179300  0.61449700  1
  F  F44  1  0.42062100  0.85882800  0.94783000  1
  F  F45  1  0.86037700  0.42272600  0.71878200  1
  F  F46  1  0.57727400  0.43765100  0.38544900  1
  F  F47  1  0.56234900  0.13962300  0.05211500  1
  F  F48  1  0.37637500  0.80978000  0.47503900  1
  F  F49  1  0.43340400  0.62362500  0.80837200  1
  F  F50  1  0.19022000  0.56659600  0.14170600  1
  F  F51  1  0.56313500  0.19047500  0.52487600  1
  F  F52  1  0.80952500  0.37266000  0.19154300  1
  F  F53  1  0.62734000  0.43686500  0.85820900  1
  F  F54  1  0.95123600  0.19023300  0.52668400  1
  F  F55  1  0.23899700  0.04876400  0.86001700  1
  F  F56  1  0.80976700  0.76100300  0.19335100  1
  F  F57  1  0.75917000  0.80991900  0.47301000  1
  F  F58  1  0.19008100  0.94925000  0.13967700  1
  F  F59  1  0.05075000  0.24083000  0.80634300  1
  F  F60  1  0.69546200  0.06851900  0.39507100  1
  F  F61  1  0.37305600  0.30453800  0.72840400  1
  F  F62  1  0.93148100  0.62694400  0.06173800  1
  F  F63  1  0.62723600  0.93241200  0.60482000  1
  F  F64  1  0.06758800  0.69482400  0.27148700  1
  F  F65  1  0.30517600  0.37276400  0.93815400  1
