# generated using pymatgen
data_MoO4
_symmetry_space_group_name_H-M   'P 1'
_cell_length_a   6.59468352
_cell_length_b   6.59468352
_cell_length_c   5.03787748
_cell_angle_alpha   67.58610431
_cell_angle_beta   67.58610431
_cell_angle_gamma   111.18208988
_symmetry_Int_Tables_number   1
_chemical_formula_structural   MoO4
_chemical_formula_sum   'Mo2 O8'
_cell_volume   150.77949558
_cell_formula_units_Z   2
loop_
 _symmetry_equiv_pos_site_id
 _symmetry_equiv_pos_as_xyz
  1  'x, y, z'
loop_
 _atom_site_type_symbol
 _atom_site_label
 _atom_site_symmetry_multiplicity
 _atom_site_fract_x
 _atom_site_fract_y
 _atom_site_fract_z
 _atom_site_occupancy
  Mo  Mo0  1  0.12134000  0.87866000  0.25000000  1
  Mo  Mo1  1  0.87866000  0.12134000  0.75000000  1
  O  O2  1  0.06671500  0.63015600  0.16783600  1
  O  O3  1  0.93328500  0.36984400  0.83216400  1
  O  O4  1  0.63015600  0.06671500  0.66783600  1
  O  O5  1  0.36984400  0.93328500  0.33216400  1
  O  O6  1  0.75145000  0.80152700  0.15390600  1
  O  O7  1  0.24855000  0.19847300  0.84609400  1
  O  O8  1  0.80152700  0.75145000  0.65390600  1
  O  O9  1  0.19847300  0.24855000  0.34609400  1
