# generated using pymatgen
data_Na2BrCl
_symmetry_space_group_name_H-M   'P 1'
_cell_length_a   7.19146605
_cell_length_b   7.19146605
_cell_length_c   7.19146581
_cell_angle_alpha   33.55015884
_cell_angle_beta   33.55015884
_cell_angle_gamma   33.55016288
_symmetry_Int_Tables_number   1
_chemical_formula_structural   Na2BrCl
_chemical_formula_sum   'Na2 Br1 Cl1'
_cell_volume   101.18517305
_cell_formula_units_Z   1
loop_
 _symmetry_equiv_pos_site_id
 _symmetry_equiv_pos_as_xyz
  1  'x, y, z'
loop_
 _atom_site_type_symbol
 _atom_site_label
 _atom_site_symmetry_multiplicity
 _atom_site_fract_x
 _atom_site_fract_y
 _atom_site_fract_z
 _atom_site_occupancy
  Na  Na0  1  0.25358200  0.25358200  0.25358200  1
  Na  Na1  1  0.74641800  0.74641800  0.74641800  1
  Br  Br2  1  0.50000000  0.50000000  0.50000000  1
  Cl  Cl3  1  0.00000000  0.00000000  0.00000000  1
