# generated using pymatgen
data_Na3YbC2(O3F)2
_symmetry_space_group_name_H-M   'P 1'
_cell_length_a   15.59170068
_cell_length_b   15.59170068
_cell_length_c   7.06913201
_cell_angle_alpha   85.03796670
_cell_angle_beta   85.03796670
_cell_angle_gamma   153.09155501
_symmetry_Int_Tables_number   1
_chemical_formula_structural   Na3YbC2(O3F)2
_chemical_formula_sum   'Na12 Yb4 C8 O24 F8'
_cell_volume   722.00127328
_cell_formula_units_Z   4
loop_
 _symmetry_equiv_pos_site_id
 _symmetry_equiv_pos_as_xyz
  1  'x, y, z'
loop_
 _atom_site_type_symbol
 _atom_site_label
 _atom_site_symmetry_multiplicity
 _atom_site_fract_x
 _atom_site_fract_y
 _atom_site_fract_z
 _atom_site_occupancy
  Na  Na0  1  0.87135300  0.63058100  0.74627700  1
  Na  Na1  1  0.63058100  0.87135300  0.24627700  1
  Na  Na2  1  0.35657600  0.11648500  0.75480200  1
  Na  Na3  1  0.11648500  0.35657600  0.25480200  1
  Na  Na4  1  0.12371500  0.86881500  0.24513100  1
  Na  Na5  1  0.86881500  0.12371500  0.74513100  1
  Na  Na6  1  0.84046600  0.40592800  0.49495900  1
  Na  Na7  1  0.40592800  0.84046600  0.99495900  1
  Na  Na8  1  0.61990500  0.35990000  0.25513900  1
  Na  Na9  1  0.35990000  0.61990500  0.75513900  1
  Na  Na10  1  0.89465600  0.83883000  0.00698500  1
  Na  Na11  1  0.83883000  0.89465600  0.50698500  1
  Yb  Yb12  1  0.34739700  0.89873300  0.50697500  1
  Yb  Yb13  1  0.89873300  0.34739700  0.00697500  1
  Yb  Yb14  1  0.40181300  0.34674100  0.00816900  1
  Yb  Yb15  1  0.34674100  0.40181300  0.50816900  1
  C  C16  1  0.05635000  0.16801400  0.99239500  1
  C  C17  1  0.16801400  0.05635000  0.49239500  1
  C  C18  1  0.04831400  0.65957400  0.98849000  1
  C  C19  1  0.65957400  0.04831400  0.48849000  1
  C  C20  1  0.56592500  0.18029600  0.99010400  1
  C  C21  1  0.18029600  0.56592500  0.49010400  1
  C  C22  1  0.54502800  0.65646400  0.99563500  1
  C  C23  1  0.65646400  0.54502800  0.49563500  1
  O  O24  1  0.44777400  0.02975100  0.15127900  1
  O  O25  1  0.02975100  0.44777400  0.65127900  1
  O  O26  1  0.54329000  0.24168500  0.96775000  1
  O  O27  1  0.24168500  0.54329000  0.46775000  1
  O  O28  1  0.57038300  0.76121800  0.95686800  1
  O  O29  1  0.76121800  0.57038300  0.45686800  1
  O  O30  1  0.40118900  0.49524000  0.16091400  1
  O  O31  1  0.49524000  0.40118900  0.66091400  1
  O  O32  1  0.91395700  0.00286900  0.14634200  1
  O  O33  1  0.00286900  0.91395700  0.64634200  1
  O  O34  1  0.16859300  0.71679600  0.86452600  1
  O  O35  1  0.71679600  0.16859300  0.36452600  1
  O  O36  1  0.89761700  0.49057500  0.14261800  1
  O  O37  1  0.49057500  0.89761700  0.64261800  1
  O  O38  1  0.19239800  0.24442900  0.86838100  1
  O  O39  1  0.24442900  0.19239800  0.36838100  1
  O  O40  1  0.06294400  0.25673700  0.96250600  1
  O  O41  1  0.25673700  0.06294400  0.46250600  1
  O  O42  1  0.65438700  0.70086100  0.87493700  1
  O  O43  1  0.70086100  0.65438700  0.37493700  1
  O  O44  1  0.70546900  0.26662100  0.85568000  1
  O  O45  1  0.26662100  0.70546900  0.35568000  1
  O  O46  1  0.07450400  0.76565100  0.95831300  1
  O  O47  1  0.76565100  0.07450400  0.45831300  1
  F  F48  1  0.52034000  0.16400500  0.52764400  1
  F  F49  1  0.16400500  0.52034000  0.02764400  1
  F  F50  1  0.06614500  0.70919400  0.50836000  1
  F  F51  1  0.70919400  0.06614500  0.00836000  1
  F  F52  1  0.19005200  0.05157800  0.03015700  1
  F  F53  1  0.05157800  0.19005200  0.53015700  1
  F  F54  1  0.67117800  0.52507300  0.02113500  1
  F  F55  1  0.52507300  0.67117800  0.52113500  1
