# generated using pymatgen
data_Na16W3(NO3)4
_symmetry_space_group_name_H-M   'P 1'
_cell_length_a   6.87010700
_cell_length_b   9.03247915
_cell_length_c   10.01976436
_cell_angle_alpha   106.98653335
_cell_angle_beta   89.63469117
_cell_angle_gamma   102.34638844
_symmetry_Int_Tables_number   1
_chemical_formula_structural   Na16W3(NO3)4
_chemical_formula_sum   'Na16 W3 N4 O12'
_cell_volume   579.84156266
_cell_formula_units_Z   1
loop_
 _symmetry_equiv_pos_site_id
 _symmetry_equiv_pos_as_xyz
  1  'x, y, z'
loop_
 _atom_site_type_symbol
 _atom_site_label
 _atom_site_symmetry_multiplicity
 _atom_site_fract_x
 _atom_site_fract_y
 _atom_site_fract_z
 _atom_site_occupancy
  Na  Na0  1  0.15816600  0.60833000  0.39300100  1
  Na  Na1  1  0.63404600  0.54652900  0.87996400  1
  Na  Na2  1  0.37007500  0.36077500  0.04025000  1
  Na  Na3  1  0.81660000  0.36632800  0.63447300  1
  Na  Na4  1  0.74335800  0.98749000  0.48645000  1
  Na  Na5  1  0.25866600  0.01467200  0.98955600  1
  Na  Na6  1  0.75419600  0.03029200  0.99911000  1
  Na  Na7  1  0.26527800  0.02162500  0.51616200  1
  Na  Na8  1  0.80309100  0.38964800  0.06215400  1
  Na  Na9  1  0.34587000  0.43157400  0.62557100  1
  Na  Na10  1  0.64710100  0.54589100  0.37582500  1
  Na  Na11  1  0.15745100  0.57908400  0.89304700  1
  Na  Na12  1  0.96572700  0.81453000  0.23290000  1
  Na  Na13  1  0.46544100  0.81923400  0.75216700  1
  Na  Na14  1  0.53624100  0.18263100  0.26820900  1
  Na  Na15  1  0.03652300  0.21577800  0.78596700  1
  W  W16  1  0.06098000  0.24741300  0.34197500  1
  W  W17  1  0.93742600  0.75413100  0.65576800  1
  W  W18  1  0.44230100  0.75848600  0.16659400  1
  N  N19  1  0.53496500  0.04410100  0.66434800  1
  N  N20  1  0.02468100  0.07543400  0.19117500  1
  N  N21  1  0.96846300  0.92666700  0.80536300  1
  N  N22  1  0.47196000  0.93347700  0.31432000  1
  O  O23  1  0.63687600  0.64592700  0.18425800  1
  O  O24  1  0.14212300  0.64622300  0.65632700  1
  O  O25  1  0.87409100  0.37157300  0.34285500  1
  O  O26  1  0.33128700  0.39330400  0.83070500  1
  O  O27  1  0.54545600  0.19166700  0.05811100  1
  O  O28  1  0.03581100  0.18539200  0.50497900  1
  O  O29  1  0.96055300  0.80950300  0.48698800  1
  O  O30  1  0.45721600  0.80505300  0.99579900  1
  O  O31  1  0.87268700  0.41914400  0.85716400  1
  O  O32  1  0.31813400  0.37911600  0.35962200  1
  O  O33  1  0.68000700  0.62278100  0.64216700  1
  O  O34  1  0.18757800  0.63672700  0.17128200  1
