# generated using pymatgen
data_MnCoSn4
_symmetry_space_group_name_H-M   'P 1'
_cell_length_a   5.37192107
_cell_length_b   5.37192107
_cell_length_c   5.37192107
_cell_angle_alpha   104.74737218
_cell_angle_beta   104.74737218
_cell_angle_gamma   119.39875413
_symmetry_Int_Tables_number   1
_chemical_formula_structural   MnCoSn4
_chemical_formula_sum   'Mn1 Co1 Sn4'
_cell_volume   116.60736693
_cell_formula_units_Z   1
loop_
 _symmetry_equiv_pos_site_id
 _symmetry_equiv_pos_as_xyz
  1  'x, y, z'
loop_
 _atom_site_type_symbol
 _atom_site_label
 _atom_site_symmetry_multiplicity
 _atom_site_fract_x
 _atom_site_fract_y
 _atom_site_fract_z
 _atom_site_occupancy
  Mn  Mn0  1  0.50000000  0.50000000  0.00000000  1
  Co  Co1  1  0.00000000  0.00000000  0.00000000  1
  Sn  Sn2  1  0.91399300  0.41399300  0.82798500  1
  Sn  Sn3  1  0.58600700  0.08600700  0.17201500  1
  Sn  Sn4  1  0.08600700  0.91399300  0.50000000  1
  Sn  Sn5  1  0.41399300  0.58600700  0.50000000  1
