# generated using pymatgen
data_Na2V16Mo2O45
_symmetry_space_group_name_H-M   'P 1'
_cell_length_a   9.69697100
_cell_length_b   9.69706751
_cell_length_c   10.92338421
_cell_angle_alpha   75.89388534
_cell_angle_beta   64.00558166
_cell_angle_gamma   69.85074188
_symmetry_Int_Tables_number   1
_chemical_formula_structural   Na2V16Mo2O45
_chemical_formula_sum   'Na2 V16 Mo2 O45'
_cell_volume   861.48514278
_cell_formula_units_Z   1
loop_
 _symmetry_equiv_pos_site_id
 _symmetry_equiv_pos_as_xyz
  1  'x, y, z'
loop_
 _atom_site_type_symbol
 _atom_site_label
 _atom_site_symmetry_multiplicity
 _atom_site_fract_x
 _atom_site_fract_y
 _atom_site_fract_z
 _atom_site_occupancy
  Na  Na0  1  0.25994900  0.12490300  0.60738600  1
  Na  Na1  1  0.07572000  0.53655600  0.39656800  1
  V  V2  1  0.32179600  0.51794800  0.58920700  1
  V  V3  1  0.65403700  0.18490700  0.58712400  1
  V  V4  1  0.98959900  0.85100100  0.58627000  1
  V  V5  1  0.68129000  0.48456000  0.41130600  1
  V  V6  1  0.01301900  0.15035800  0.41180200  1
  V  V7  1  0.34873800  0.81749500  0.40859200  1
  V  V8  1  0.06826500  0.36773300  0.89735300  1
  V  V9  1  0.40116600  0.03156600  0.89847400  1
  V  V10  1  0.73581000  0.70514000  0.89439000  1
  V  V11  1  0.93591400  0.63238000  0.09873400  1
  V  V12  1  0.26761200  0.30199400  0.10098700  1
  V  V13  1  0.59788800  0.96817900  0.10145000  1
  V  V14  1  0.95859200  0.91765300  0.87628200  1
  V  V15  1  0.62358100  0.24703300  0.87607600  1
  V  V16  1  0.29264300  0.58696200  0.88270500  1
  V  V17  1  0.37177800  0.74051900  0.11138100  1
  Mo  Mo18  1  0.04344300  0.07422800  0.11154100  1
  Mo  Mo19  1  0.70077700  0.41223500  0.11218600  1
  O  O20  1  0.40417000  0.65226700  0.73538800  1
  O  O21  1  0.74087700  0.31482100  0.73354500  1
  O  O22  1  0.07309700  0.98123200  0.72465100  1
  O  O23  1  0.58869400  0.35197000  0.27617400  1
  O  O24  1  0.92650400  0.01537000  0.27471500  1
  O  O25  1  0.26215600  0.68385100  0.26743800  1
  O  O26  1  0.78636900  0.80078600  0.04786700  1
  O  O27  1  0.10463800  0.46622500  0.04835600  1
  O  O28  1  0.44905000  0.12193400  0.05118200  1
  O  O29  1  0.21234300  0.20033300  0.96568600  1
  O  O30  1  0.55915200  0.86352700  0.95003100  1
  O  O31  1  0.87545900  0.53984000  0.95499000  1
  O  O32  1  0.25218400  0.43002200  0.53021000  1
  O  O33  1  0.57801600  0.10178900  0.53241900  1
  O  O34  1  0.92705600  0.75759600  0.52759800  1
  O  O35  1  0.75651000  0.56689600  0.46773600  1
  O  O36  1  0.08157200  0.23812800  0.47189000  1
  O  O37  1  0.40932000  0.90984100  0.46989800  1
  O  O38  1  0.33406900  0.66378200  0.00369500  1
  O  O39  1  0.65786500  0.33168000  0.00550100  1
  O  O40  1  0.99814200  0.99917900  0.00303500  1
  O  O41  1  0.47428300  0.61713500  0.42908100  1
  O  O42  1  0.80563300  0.28221800  0.42770100  1
  O  O43  1  0.13972300  0.94767300  0.42725500  1
  O  O44  1  0.52956600  0.38760600  0.57046300  1
  O  O45  1  0.86059400  0.04977500  0.57026200  1
  O  O46  1  0.19609300  0.71883900  0.56952500  1
  O  O47  1  0.41787900  0.39175500  0.92395600  1
  O  O48  1  0.74574300  0.06450800  0.92486700  1
  O  O49  1  0.08900300  0.72100200  0.92672700  1
  O  O50  1  0.58190500  0.61271100  0.07709700  1
  O  O51  1  0.91365200  0.27812000  0.07800500  1
  O  O52  1  0.25413000  0.93646100  0.07795700  1
  O  O53  1  0.05927700  0.30084700  0.77793000  1
  O  O54  1  0.37286700  0.98615200  0.77833000  1
  O  O55  1  0.71449800  0.64194800  0.78273700  1
  O  O56  1  0.95870100  0.68224600  0.21843900  1
  O  O57  1  0.27346200  0.36855700  0.22243000  1
  O  O58  1  0.61806300  0.02746900  0.21617500  1
  O  O59  1  0.22745600  0.48346300  0.77372400  1
  O  O60  1  0.55753400  0.15201300  0.77458000  1
  O  O61  1  0.88881900  0.81219800  0.77527700  1
  O  O62  1  0.77775000  0.52252700  0.22327100  1
  O  O63  1  0.10864500  0.18444200  0.22966600  1
  O  O64  1  0.44920000  0.85258200  0.22272200  1
