# generated using pymatgen
data_Na2OsO7
_symmetry_space_group_name_H-M   'P 1'
_cell_length_a   9.24361900
_cell_length_b   6.20101900
_cell_length_c   6.22535349
_cell_angle_alpha   84.95875965
_cell_angle_beta   90.00000000
_cell_angle_gamma   90.00000000
_symmetry_Int_Tables_number   1
_chemical_formula_structural   Na2OsO7
_chemical_formula_sum   'Na4 Os2 O14'
_cell_volume   355.45602455
_cell_formula_units_Z   2
loop_
 _symmetry_equiv_pos_site_id
 _symmetry_equiv_pos_as_xyz
  1  'x, y, z'
loop_
 _atom_site_type_symbol
 _atom_site_label
 _atom_site_symmetry_multiplicity
 _atom_site_fract_x
 _atom_site_fract_y
 _atom_site_fract_z
 _atom_site_occupancy
  Na  Na0  1  0.73203200  0.71296300  0.81995800  1
  Na  Na1  1  0.23203200  0.28703700  0.18004200  1
  Na  Na2  1  0.29822800  0.75266200  0.86034700  1
  Na  Na3  1  0.79822800  0.24733800  0.13965300  1
  Os  Os4  1  0.47381800  0.24437200  0.77368500  1
  Os  Os5  1  0.97381800  0.75562800  0.22631500  1
  O  O6  1  0.30172400  0.11555500  0.85329500  1
  O  O7  1  0.80172400  0.88444500  0.14670500  1
  O  O8  1  0.65658200  0.33632200  0.82343000  1
  O  O9  1  0.15658200  0.66367800  0.17657000  1
  O  O10  1  0.43912100  0.35297800  0.50983900  1
  O  O11  1  0.93912100  0.64702200  0.49016100  1
  O  O12  1  0.54407700  0.97380200  0.76043900  1
  O  O13  1  0.04407700  0.02619800  0.23956100  1
  O  O14  1  0.01536900  0.07836900  0.71478400  1
  O  O15  1  0.51536900  0.92163100  0.28521600  1
  O  O16  1  0.91813900  0.55666000  0.04134300  1
  O  O17  1  0.41813900  0.44334000  0.95865700  1
  O  O18  1  0.88891000  0.10724200  0.65384200  1
  O  O19  1  0.38891000  0.89275800  0.34615800  1
