# generated using pymatgen
data_MnCdS2
_symmetry_space_group_name_H-M   'P 1'
_cell_length_a   7.04624548
_cell_length_b   7.04624548
_cell_length_c   7.04624642
_cell_angle_alpha   33.75972405
_cell_angle_beta   33.75972405
_cell_angle_gamma   33.75971942
_symmetry_Int_Tables_number   1
_chemical_formula_structural   MnCdS2
_chemical_formula_sum   'Mn1 Cd1 S2'
_cell_volume   96.26307683
_cell_formula_units_Z   1
loop_
 _symmetry_equiv_pos_site_id
 _symmetry_equiv_pos_as_xyz
  1  'x, y, z'
loop_
 _atom_site_type_symbol
 _atom_site_label
 _atom_site_symmetry_multiplicity
 _atom_site_fract_x
 _atom_site_fract_y
 _atom_site_fract_z
 _atom_site_occupancy
  Mn  Mn0  1  0.49938200  0.49938200  0.49938200  1
  Cd  Cd1  1  0.00091600  0.00091600  0.00091600  1
  S  S2  1  0.12993900  0.12993900  0.12993900  1
  S  S3  1  0.61976300  0.61976300  0.61976300  1
