# generated using pymatgen
data_Na4MgV10(H11O13)4
_symmetry_space_group_name_H-M   'P 1'
_cell_length_a   9.06613400
_cell_length_b   11.45474736
_cell_length_c   11.83863589
_cell_angle_alpha   105.27183782
_cell_angle_beta   96.59492302
_cell_angle_gamma   100.79867291
_symmetry_Int_Tables_number   1
_chemical_formula_structural   Na4MgV10(H11O13)4
_chemical_formula_sum   'Na4 Mg1 V10 H44 O52'
_cell_volume   1147.40398843
_cell_formula_units_Z   1
loop_
 _symmetry_equiv_pos_site_id
 _symmetry_equiv_pos_as_xyz
  1  'x, y, z'
loop_
 _atom_site_type_symbol
 _atom_site_label
 _atom_site_symmetry_multiplicity
 _atom_site_fract_x
 _atom_site_fract_y
 _atom_site_fract_z
 _atom_site_occupancy
  Na  Na0  1  0.71361300  0.59463700  0.29491800  1
  Na  Na1  1  0.28638700  0.40536300  0.70508200  1
  Na  Na2  1  0.50000000  0.50000000  0.50000000  1
  Na  Na3  1  0.50000000  0.50000000  0.00000000  1
  Mg  Mg4  1  0.50000000  0.00000000  0.50000000  1
  V  V5  1  0.03083600  0.97358200  0.22672200  1
  V  V6  1  0.96916400  0.02641800  0.77327800  1
  V  V7  1  0.16807900  0.25718500  0.24562400  1
  V  V8  1  0.83192100  0.74281500  0.75437600  1
  V  V9  1  0.81360300  0.15855000  0.20861100  1
  V  V10  1  0.18639700  0.84145000  0.79138900  1
  V  V11  1  0.96132600  0.23524700  0.00135600  1
  V  V12  1  0.03867400  0.76475300  0.99864400  1
  V  V13  1  0.18414300  0.05207700  0.02075700  1
  V  V14  1  0.81585700  0.94792300  0.97924300  1
  H  H15  1  0.24551800  0.59575900  0.10293800  1
  H  H16  1  0.75448200  0.40424100  0.89706200  1
  H  H17  1  0.74602000  0.74178200  0.11941200  1
  H  H18  1  0.25398000  0.25821800  0.88058800  1
  H  H19  1  0.98891400  0.59130400  0.18431600  1
  H  H20  1  0.01108600  0.40869600  0.81568400  1
  H  H21  1  0.64990900  0.33489200  0.11259200  1
  H  H22  1  0.35009100  0.66510800  0.88740800  1
  H  H23  1  0.79311200  0.45718900  0.46825100  1
  H  H24  1  0.20688800  0.54281100  0.53174900  1
  H  H25  1  0.58270200  0.73889100  0.14833600  1
  H  H26  1  0.41729800  0.26110900  0.85166400  1
  H  H27  1  0.23929400  0.46485300  0.12006500  1
  H  H28  1  0.76070600  0.53514700  0.87993500  1
  H  H29  1  0.94300900  0.82000500  0.41209000  1
  H  H30  1  0.05699100  0.17999500  0.58791000  1
  H  H31  1  0.39857300  0.85748900  0.27984200  1
  H  H32  1  0.60142700  0.14251100  0.72015800  1
  H  H33  1  0.25372500  0.84476300  0.34347000  1
  H  H34  1  0.74627500  0.15523700  0.65653000  1
  H  H35  1  0.36475900  0.86449800  0.10097800  1
  H  H36  1  0.63524100  0.13550200  0.89902200  1
  H  H37  1  0.64119000  0.87476200  0.63128700  1
  H  H38  1  0.35881000  0.12523800  0.36871300  1
  H  H39  1  0.48395900  0.32056500  0.13770200  1
  H  H40  1  0.51604100  0.67943500  0.86229800  1
  H  H41  1  0.41198600  0.60039200  0.29028100  1
  H  H42  1  0.58801400  0.39960800  0.70971900  1
  H  H43  1  0.46484500  0.84534900  0.64123200  1
  H  H44  1  0.53515500  0.15465100  0.35876800  1
  H  H45  1  0.74129500  0.89953100  0.43253900  1
  H  H46  1  0.25870500  0.10046900  0.56746100  1
  H  H47  1  0.87641300  0.80853000  0.52785100  1
  H  H48  1  0.12358700  0.19147000  0.47214900  1
  H  H49  1  0.68971700  0.36670500  0.35373700  1
  H  H50  1  0.31028300  0.63329500  0.64626300  1
  H  H51  1  0.95551900  0.46198700  0.20955700  1
  H  H52  1  0.04448100  0.53801300  0.79044300  1
  H  H53  1  0.54044800  0.91926200  0.12567400  1
  H  H54  1  0.45955200  0.08073800  0.87432600  1
  H  H55  1  0.74669800  0.00412300  0.37082600  1
  H  H56  1  0.25330200  0.99587700  0.62917400  1
  H  H57  1  0.47240900  0.71212700  0.40383900  1
  H  H58  1  0.52759100  0.28787300  0.59616100  1
  O  O59  1  0.10938300  0.14895400  0.91981300  1
  O  O60  1  0.89061700  0.85104600  0.08018700  1
  O  O61  1  0.84912700  0.79212700  0.44173000  1
  O  O62  1  0.15087300  0.20787300  0.55827000  1
  O  O63  1  0.17076200  0.93077000  0.10729500  1
  O  O64  1  0.82923800  0.06923000  0.89270500  1
  O  O65  1  0.29533700  0.17952200  0.13164600  1
  O  O66  1  0.70466300  0.82047800  0.86835400  1
  O  O67  1  0.05721300  0.88052700  0.30875400  1
  O  O68  1  0.94278700  0.11947300  0.69124600  1
  O  O69  1  0.57148000  0.38239900  0.13232000  1
  O  O70  1  0.42852000  0.61760100  0.86768000  1
  O  O71  1  0.48527200  0.62840800  0.36532800  1
  O  O72  1  0.51472800  0.37159200  0.63467200  1
  O  O73  1  0.70814600  0.45219300  0.40671100  1
  O  O74  1  0.29185400  0.54780700  0.59328900  1
  O  O75  1  0.93754800  0.54621400  0.23443300  1
  O  O76  1  0.06245200  0.45378600  0.76556700  1
  O  O77  1  0.86902500  0.03501900  0.27424300  1
  O  O78  1  0.13097500  0.96498100  0.72575700  1
  O  O79  1  0.46080800  0.85869600  0.14417900  1
  O  O80  1  0.53919200  0.14130400  0.85582100  1
  O  O81  1  0.66194300  0.69052700  0.14371600  1
  O  O82  1  0.33805700  0.30947300  0.85628400  1
  O  O83  1  0.93098700  0.32781200  0.91932000  1
  O  O84  1  0.06901300  0.67218800  0.08068000  1
  O  O85  1  0.36407300  0.84999700  0.35522800  1
  O  O86  1  0.63592700  0.15000300  0.64477200  1
  O  O87  1  0.31177900  0.54193300  0.12083000  1
  O  O88  1  0.68822100  0.45806700  0.87917000  1
  O  O89  1  0.98582600  0.27110000  0.29702700  1
  O  O90  1  0.01417400  0.72890000  0.70297300  1
  O  O91  1  0.69724900  0.00811400  0.07355900  1
  O  O92  1  0.30275100  0.99188600  0.92644100  1
  O  O93  1  0.99635500  0.08717200  0.09582600  1
  O  O94  1  0.00364500  0.91282800  0.90417400  1
  O  O95  1  0.11350600  0.33123200  0.12379900  1
  O  O96  1  0.88649400  0.66876700  0.87620100  1
  O  O97  1  0.17274800  0.11954200  0.30701300  1
  O  O98  1  0.82725200  0.88045800  0.69298700  1
  O  O99  1  0.53707300  0.87072500  0.59077200  1
  O  O100  1  0.46292700  0.12927500  0.40922800  1
  O  O101  1  0.29665000  0.36725000  0.34322400  1
  O  O102  1  0.70335000  0.63275000  0.65677600  1
  O  O103  1  0.80943200  0.24408000  0.09261600  1
  O  O104  1  0.19056800  0.75592000  0.90738400  1
  O  O105  1  0.68770000  0.96572900  0.42238900  1
  O  O106  1  0.31230000  0.03427100  0.57761100  1
  O  O107  1  0.67582600  0.19792800  0.28027000  1
  O  O108  1  0.32417400  0.80207200  0.71973000  1
  O  O109  1  0.11041900  0.64673300  0.44815600  1
  O  O110  1  0.88958100  0.35326700  0.55184400  1
