# generated using pymatgen
data_MnZn5(BO5)2
_symmetry_space_group_name_H-M   'P 1'
_cell_length_a   3.09821900
_cell_length_b   9.46768600
_cell_length_c   12.47011700
_cell_angle_alpha   90.00000000
_cell_angle_beta   90.00000000
_cell_angle_gamma   90.00000000
_symmetry_Int_Tables_number   1
_chemical_formula_structural   MnZn5(BO5)2
_chemical_formula_sum   'Mn2 Zn10 B4 O20'
_cell_volume   365.78550116
_cell_formula_units_Z   2
loop_
 _symmetry_equiv_pos_site_id
 _symmetry_equiv_pos_as_xyz
  1  'x, y, z'
loop_
 _atom_site_type_symbol
 _atom_site_label
 _atom_site_symmetry_multiplicity
 _atom_site_fract_x
 _atom_site_fract_y
 _atom_site_fract_z
 _atom_site_occupancy
  Mn  Mn0  1  0.00000000  0.00696900  0.61502700  1
  Mn  Mn1  1  0.00000000  0.99303100  0.11502700  1
  Zn  Zn2  1  0.50000000  0.26057600  0.22118300  1
  Zn  Zn3  1  0.50000000  0.25223300  0.77934900  1
  Zn  Zn4  1  0.50000000  0.74776700  0.27934900  1
  Zn  Zn5  1  0.50000000  0.73942400  0.72118300  1
  Zn  Zn6  1  0.50000000  0.25833300  0.49943700  1
  Zn  Zn7  1  0.50000000  0.74166700  0.99943700  1
  Zn  Zn8  1  0.00000000  0.73791600  0.49580800  1
  Zn  Zn9  1  0.00000000  0.26208400  0.99580800  1
  Zn  Zn10  1  0.00000000  0.48795800  0.38137900  1
  Zn  Zn11  1  0.00000000  0.51204200  0.88137900  1
  B  B12  1  0.00000000  0.52553900  0.13881100  1
  B  B13  1  0.00000000  0.97983900  0.86193400  1
  B  B14  1  0.00000000  0.02016100  0.36193400  1
  B  B15  1  0.00000000  0.47446100  0.63881100  1
  O  O16  1  0.00000000  0.37693600  0.13935300  1
  O  O17  1  0.00000000  0.12473600  0.86047500  1
  O  O18  1  0.00000000  0.87526400  0.36047500  1
  O  O19  1  0.00000000  0.62306400  0.63935300  1
  O  O20  1  0.50000000  0.35401400  0.35771300  1
  O  O21  1  0.50000000  0.13501100  0.64200600  1
  O  O22  1  0.50000000  0.86498900  0.14200600  1
  O  O23  1  0.50000000  0.64598600  0.85771300  1
  O  O24  1  0.00000000  0.59960900  0.23458700  1
  O  O25  1  0.00000000  0.90608200  0.76461900  1
  O  O26  1  0.00000000  0.09391800  0.26461900  1
  O  O27  1  0.00000000  0.40039100  0.73458700  1
  O  O28  1  0.00000000  0.39947300  0.54370100  1
  O  O29  1  0.00000000  0.09542000  0.45888500  1
  O  O30  1  0.00000000  0.90458000  0.95888500  1
  O  O31  1  0.00000000  0.60052700  0.04370100  1
  O  O32  1  0.50000000  0.64000700  0.42111000  1
  O  O33  1  0.50000000  0.87422100  0.58462400  1
  O  O34  1  0.50000000  0.12577900  0.08462400  1
  O  O35  1  0.50000000  0.35999300  0.92111000  1
