# generated using pymatgen
data_MnZn4S5
_symmetry_space_group_name_H-M   'P 1'
_cell_length_a   16.89362275
_cell_length_b   16.89362275
_cell_length_c   6.34926539
_cell_angle_alpha   89.96230459
_cell_angle_beta   89.96230459
_cell_angle_gamma   13.17470214
_symmetry_Int_Tables_number   1
_chemical_formula_structural   MnZn4S5
_chemical_formula_sum   'Mn2 Zn8 S10'
_cell_volume   413.00306729
_cell_formula_units_Z   2
loop_
 _symmetry_equiv_pos_site_id
 _symmetry_equiv_pos_as_xyz
  1  'x, y, z'
loop_
 _atom_site_type_symbol
 _atom_site_label
 _atom_site_symmetry_multiplicity
 _atom_site_fract_x
 _atom_site_fract_y
 _atom_site_fract_z
 _atom_site_occupancy
  Mn  Mn0  1  0.86727600  0.86727600  0.00137500  1
  Mn  Mn1  1  0.26626100  0.26626100  0.00110900  1
  Zn  Zn2  1  0.93357900  0.93357900  0.49971400  1
  Zn  Zn3  1  0.33329600  0.33329600  0.49938000  1
  Zn  Zn4  1  0.73300300  0.73300300  0.49985400  1
  Zn  Zn5  1  0.13330800  0.13330800  0.49984900  1
  Zn  Zn6  1  0.53335300  0.53335300  0.49982200  1
  Zn  Zn7  1  0.46698000  0.46698000  0.99961900  1
  Zn  Zn8  1  0.66630700  0.66630700  0.99946000  1
  Zn  Zn9  1  0.06666200  0.06666200  0.99935300  1
  S  S10  1  0.93453200  0.93453300  0.87276600  1
  S  S11  1  0.33330300  0.33330300  0.86777000  1
  S  S12  1  0.73190600  0.73190600  0.87054000  1
  S  S13  1  0.13317800  0.13317800  0.87440400  1
  S  S14  1  0.53344900  0.53344900  0.87439300  1
  S  S15  1  0.46660100  0.46660100  0.37396300  1
  S  S16  1  0.86671500  0.86671500  0.37919500  1
  S  S17  1  0.26666500  0.26666500  0.37926000  1
  S  S18  1  0.66663500  0.66663500  0.37379700  1
  S  S19  1  0.06663600  0.06663600  0.37437700  1
