# generated using pymatgen
data_Mn5Si2Ge
_symmetry_space_group_name_H-M   'P 1'
_cell_length_a   6.97069668
_cell_length_b   6.97069668
_cell_length_c   4.85411500
_cell_angle_alpha   90.00000000
_cell_angle_beta   90.00000000
_cell_angle_gamma   119.97927680
_symmetry_Int_Tables_number   1
_chemical_formula_structural   Mn5Si2Ge
_chemical_formula_sum   'Mn10 Si4 Ge2'
_cell_volume   204.30722024
_cell_formula_units_Z   2
loop_
 _symmetry_equiv_pos_site_id
 _symmetry_equiv_pos_as_xyz
  1  'x, y, z'
loop_
 _atom_site_type_symbol
 _atom_site_label
 _atom_site_symmetry_multiplicity
 _atom_site_fract_x
 _atom_site_fract_y
 _atom_site_fract_z
 _atom_site_occupancy
  Mn  Mn0  1  0.66300700  0.33399000  0.24634400  1
  Mn  Mn1  1  0.33399000  0.66300700  0.24634400  1
  Mn  Mn2  1  0.33399000  0.66300700  0.75365600  1
  Mn  Mn3  1  0.66300700  0.33399000  0.75365600  1
  Mn  Mn4  1  0.24672400  0.00755900  0.50000000  1
  Mn  Mn5  1  0.00755900  0.24672400  0.50000000  1
  Mn  Mn6  1  0.74886600  0.74886600  0.50000000  1
  Mn  Mn7  1  0.75473300  0.99892100  0.00000000  1
  Mn  Mn8  1  0.99892100  0.75473300  0.00000000  1
  Mn  Mn9  1  0.24869200  0.24869200  0.00000000  1
  Si  Si10  1  0.39904300  0.39904300  0.50000000  1
  Si  Si11  1  0.39363100  0.99907800  0.00000000  1
  Si  Si12  1  0.99907800  0.39363100  0.00000000  1
  Si  Si13  1  0.60381800  0.60381800  0.00000000  1
  Ge  Ge14  1  0.60513000  0.00107700  0.50000000  1
  Ge  Ge15  1  0.00107700  0.60513000  0.50000000  1
