# generated using pymatgen
data_MnVTe2
_symmetry_space_group_name_H-M   'P 1'
_cell_length_a   4.19965259
_cell_length_b   4.19965259
_cell_length_c   5.03329914
_cell_angle_alpha   90.02280624
_cell_angle_beta   89.97719376
_cell_angle_gamma   119.92005972
_symmetry_Int_Tables_number   1
_chemical_formula_structural   MnVTe2
_chemical_formula_sum   'Mn1 V1 Te2'
_cell_volume   76.94126723
_cell_formula_units_Z   1
loop_
 _symmetry_equiv_pos_site_id
 _symmetry_equiv_pos_as_xyz
  1  'x, y, z'
loop_
 _atom_site_type_symbol
 _atom_site_label
 _atom_site_symmetry_multiplicity
 _atom_site_fract_x
 _atom_site_fract_y
 _atom_site_fract_z
 _atom_site_occupancy
  Mn  Mn0  1  0.00000000  0.00000000  0.50000000  1
  V  V1  1  0.00000000  0.00000000  0.00000000  1
  Te  Te2  1  0.66645700  0.33354300  0.73934900  1
  Te  Te3  1  0.33354300  0.66645700  0.26065100  1
