# generated using pymatgen
data_Na4V20(CuO4)15
_symmetry_space_group_name_H-M   'P 1'
_cell_length_a   12.18955368
_cell_length_b   12.18955368
_cell_length_c   12.18955410
_cell_angle_alpha   50.47871540
_cell_angle_beta   50.47871540
_cell_angle_gamma   50.47871892
_symmetry_Int_Tables_number   1
_chemical_formula_structural   Na4V20(CuO4)15
_chemical_formula_sum   'Na4 V20 Cu15 O60'
_cell_volume   992.89476186
_cell_formula_units_Z   1
loop_
 _symmetry_equiv_pos_site_id
 _symmetry_equiv_pos_as_xyz
  1  'x, y, z'
loop_
 _atom_site_type_symbol
 _atom_site_label
 _atom_site_symmetry_multiplicity
 _atom_site_fract_x
 _atom_site_fract_y
 _atom_site_fract_z
 _atom_site_occupancy
  Na  Na0  1  0.80018100  0.80018100  0.80018100  1
  Na  Na1  1  0.60052500  0.60052500  0.60052500  1
  Na  Na2  1  0.39947500  0.39947500  0.39947500  1
  Na  Na3  1  0.19981900  0.19981900  0.19981900  1
  V  V4  1  0.90099200  0.90099200  0.90099200  1
  V  V5  1  0.09900800  0.09900800  0.09900800  1
  V  V6  1  0.30010700  0.30010700  0.30010700  1
  V  V7  1  0.50000000  0.50000000  0.50000000  1
  V  V8  1  0.69989300  0.69989300  0.69989300  1
  V  V9  1  0.59960700  0.10019700  0.59883700  1
  V  V10  1  0.80668400  0.29470400  0.80128600  1
  V  V11  1  0.00000000  0.50000000  0.00000000  1
  V  V12  1  0.19331600  0.70529600  0.19871400  1
  V  V13  1  0.40039300  0.89980300  0.40116300  1
  V  V14  1  0.00000000  0.00000000  0.50000000  1
  V  V15  1  0.19871400  0.19331600  0.70529600  1
  V  V16  1  0.40116300  0.40039300  0.89980300  1
  V  V17  1  0.59883700  0.59960700  0.10019700  1
  V  V18  1  0.80128600  0.80668400  0.29470400  1
  V  V19  1  0.29470400  0.80128600  0.80668400  1
  V  V20  1  0.50000000  0.00000000  0.00000000  1
  V  V21  1  0.70529600  0.19871400  0.19331600  1
  V  V22  1  0.89980300  0.40116400  0.40039300  1
  V  V23  1  0.10019700  0.59883700  0.59960700  1
  Cu  Cu24  1  0.50000000  0.00000000  0.50000000  1
  Cu  Cu25  1  0.69979600  0.19936100  0.70089000  1
  Cu  Cu26  1  0.89900300  0.40057700  0.90089000  1
  Cu  Cu27  1  0.10099700  0.59942300  0.09911000  1
  Cu  Cu28  1  0.30020400  0.80063900  0.29911000  1
  Cu  Cu29  1  0.09911000  0.10099700  0.59942300  1
  Cu  Cu30  1  0.29911000  0.30020400  0.80063900  1
  Cu  Cu31  1  0.50000000  0.50000000  0.00000000  1
  Cu  Cu32  1  0.70089000  0.69979600  0.19936100  1
  Cu  Cu33  1  0.90089000  0.89900300  0.40057700  1
  Cu  Cu34  1  0.40057700  0.90089000  0.89900300  1
  Cu  Cu35  1  0.59942300  0.09911000  0.10099700  1
  Cu  Cu36  1  0.80063900  0.29911000  0.30020400  1
  Cu  Cu37  1  0.00000000  0.50000000  0.50000000  1
  Cu  Cu38  1  0.19936100  0.70089000  0.69979600  1
  O  O39  1  0.19523200  0.37454800  0.68093200  1
  O  O40  1  0.99584100  0.17531400  0.47928100  1
  O  O41  1  0.79366200  0.96936000  0.28564700  1
  O  O42  1  0.59480200  0.77424200  0.08267900  1
  O  O43  1  0.39580200  0.57175400  0.88357100  1
  O  O44  1  0.00415900  0.82468600  0.52071900  1
  O  O45  1  0.80476800  0.62545200  0.31906800  1
  O  O46  1  0.60419800  0.42824600  0.11642900  1
  O  O47  1  0.40519800  0.22575800  0.91732100  1
  O  O48  1  0.20633800  0.03064000  0.71435300  1
  O  O49  1  0.08329900  0.90027600  0.21230300  1
  O  O50  1  0.88283700  0.70174400  0.01113000  1
  O  O51  1  0.68103200  0.50513800  0.81028700  1
  O  O52  1  0.48185700  0.30536800  0.60901600  1
  O  O53  1  0.28371600  0.10594600  0.40649400  1
  O  O54  1  0.11716300  0.29825600  0.98887000  1
  O  O55  1  0.91670100  0.09972400  0.78769700  1
  O  O56  1  0.71628400  0.89405400  0.59350600  1
  O  O57  1  0.51814300  0.69463200  0.39098400  1
  O  O58  1  0.31896800  0.49486200  0.18971300  1
  O  O59  1  0.11642900  0.60419800  0.42824600  1
  O  O60  1  0.91732100  0.40519800  0.22575800  1
  O  O61  1  0.71435300  0.20633800  0.03064000  1
  O  O62  1  0.52071900  0.00415900  0.82468600  1
  O  O63  1  0.31906800  0.80476800  0.62545200  1
  O  O64  1  0.08267900  0.59480200  0.77424200  1
  O  O65  1  0.88357100  0.39580200  0.57175400  1
  O  O66  1  0.68093200  0.19523200  0.37454800  1
  O  O67  1  0.47928100  0.99584100  0.17531400  1
  O  O68  1  0.28564700  0.79366200  0.96936000  1
  O  O69  1  0.39098400  0.51814300  0.69463200  1
  O  O70  1  0.18971300  0.31896800  0.49486200  1
  O  O71  1  0.98887000  0.11716300  0.29825600  1
  O  O72  1  0.78769700  0.91670100  0.09972400  1
  O  O73  1  0.59350600  0.71628400  0.89405400  1
  O  O74  1  0.81028700  0.68103200  0.50513800  1
  O  O75  1  0.60901600  0.48185700  0.30536800  1
  O  O76  1  0.40649400  0.28371600  0.10594600  1
  O  O77  1  0.21230300  0.08329900  0.90027600  1
  O  O78  1  0.01113000  0.88283700  0.70174400  1
  O  O79  1  0.30536800  0.60901600  0.48185700  1
  O  O80  1  0.10594600  0.40649400  0.28371600  1
  O  O81  1  0.90027600  0.21230300  0.08329900  1
  O  O82  1  0.70174400  0.01113000  0.88283700  1
  O  O83  1  0.50513800  0.81028700  0.68103200  1
  O  O84  1  0.89405400  0.59350600  0.71628400  1
  O  O85  1  0.69463200  0.39098400  0.51814300  1
  O  O86  1  0.49486200  0.18971300  0.31896800  1
  O  O87  1  0.29825600  0.98887000  0.11716300  1
  O  O88  1  0.09972400  0.78769700  0.91670100  1
  O  O89  1  0.96936000  0.28564700  0.79366200  1
  O  O90  1  0.77424200  0.08267900  0.59480200  1
  O  O91  1  0.57175400  0.88357100  0.39580200  1
  O  O92  1  0.37454800  0.68093200  0.19523200  1
  O  O93  1  0.17531400  0.47928100  0.99584100  1
  O  O94  1  0.22575800  0.91732100  0.40519800  1
  O  O95  1  0.03064000  0.71435300  0.20633800  1
  O  O96  1  0.82468600  0.52071900  0.00415900  1
  O  O97  1  0.62545200  0.31906800  0.80476800  1
  O  O98  1  0.42824600  0.11642900  0.60419800  1
