# generated using pymatgen
data_Na3Mo15Se19
_symmetry_space_group_name_H-M   'P 1'
_cell_length_a   19.82190800
_cell_length_b   9.81410100
_cell_length_c   9.85890018
_cell_angle_alpha   60.58260209
_cell_angle_beta   90.00000000
_cell_angle_gamma   90.00000000
_symmetry_Int_Tables_number   1
_chemical_formula_structural   Na3Mo15Se19
_chemical_formula_sum   'Na6 Mo30 Se38'
_cell_volume   1670.60919189
_cell_formula_units_Z   2
loop_
 _symmetry_equiv_pos_site_id
 _symmetry_equiv_pos_as_xyz
  1  'x, y, z'
loop_
 _atom_site_type_symbol
 _atom_site_label
 _atom_site_symmetry_multiplicity
 _atom_site_fract_x
 _atom_site_fract_y
 _atom_site_fract_z
 _atom_site_occupancy
  Na  Na0  1  0.62077100  0.66440900  0.66560600  1
  Na  Na1  1  0.12077100  0.33559100  0.33439400  1
  Na  Na2  1  0.37922900  0.33559100  0.33439400  1
  Na  Na3  1  0.87922900  0.66440900  0.66560600  1
  Na  Na4  1  0.75000000  0.95517700  0.82750400  1
  Na  Na5  1  0.25000000  0.04482300  0.17249600  1
  Mo  Mo6  1  0.75000000  0.48728300  0.34363100  1
  Mo  Mo7  1  0.75000000  0.34287900  0.16864700  1
  Mo  Mo8  1  0.75000000  0.17237300  0.47951700  1
  Mo  Mo9  1  0.25000000  0.51271700  0.65636900  1
  Mo  Mo10  1  0.25000000  0.65712100  0.83135300  1
  Mo  Mo11  1  0.25000000  0.82762700  0.52048300  1
  Mo  Mo12  1  0.63439600  0.49655800  0.18931400  1
  Mo  Mo13  1  0.63424400  0.18919400  0.31162000  1
  Mo  Mo14  1  0.63516100  0.31750700  0.49357000  1
  Mo  Mo15  1  0.13439600  0.50344200  0.81068600  1
  Mo  Mo16  1  0.13424400  0.81080600  0.68838000  1
  Mo  Mo17  1  0.13516100  0.68249300  0.50643000  1
  Mo  Mo18  1  0.36560400  0.50344200  0.81068600  1
  Mo  Mo19  1  0.36575600  0.81080600  0.68838000  1
  Mo  Mo20  1  0.36483900  0.68249300  0.50643000  1
  Mo  Mo21  1  0.86560400  0.49655800  0.18931400  1
  Mo  Mo22  1  0.86575600  0.18919400  0.31162000  1
  Mo  Mo23  1  0.86483900  0.31750700  0.49357000  1
  Mo  Mo24  1  0.55709200  0.83212300  0.15209600  1
  Mo  Mo25  1  0.55640400  0.15154100  0.01742100  1
  Mo  Mo26  1  0.55729600  0.01344300  0.84086500  1
  Mo  Mo27  1  0.05709200  0.16787700  0.84790400  1
  Mo  Mo28  1  0.05640400  0.84845900  0.98257900  1
  Mo  Mo29  1  0.05729600  0.98655700  0.15913500  1
  Mo  Mo30  1  0.44290800  0.16787700  0.84790400  1
  Mo  Mo31  1  0.44359600  0.84845900  0.98257900  1
  Mo  Mo32  1  0.44270400  0.98655700  0.15913500  1
  Mo  Mo33  1  0.94290800  0.83212300  0.15209600  1
  Mo  Mo34  1  0.94359600  0.15154100  0.01742100  1
  Mo  Mo35  1  0.94270400  0.01344300  0.84086500  1
  Se  Se36  1  0.75000000  0.64244500  0.04353500  1
  Se  Se37  1  0.75000000  0.04040000  0.30783500  1
  Se  Se38  1  0.75000000  0.31499000  0.64448100  1
  Se  Se39  1  0.25000000  0.35755500  0.95646500  1
  Se  Se40  1  0.25000000  0.95960000  0.69216500  1
  Se  Se41  1  0.25000000  0.68501000  0.35551900  1
  Se  Se42  1  0.55187400  0.70927200  0.96968200  1
  Se  Se43  1  0.54929800  0.96816700  0.31915600  1
  Se  Se44  1  0.55106500  0.31985000  0.71383200  1
  Se  Se45  1  0.05187400  0.29072800  0.03031800  1
  Se  Se46  1  0.04929800  0.03183300  0.68084400  1
  Se  Se47  1  0.05106500  0.68015000  0.28616800  1
  Se  Se48  1  0.44812600  0.29072800  0.03031800  1
  Se  Se49  1  0.45070200  0.03183300  0.68084400  1
  Se  Se50  1  0.44893500  0.68015000  0.28616800  1
  Se  Se51  1  0.94812600  0.70927200  0.96968200  1
  Se  Se52  1  0.95070200  0.96816700  0.31915600  1
  Se  Se53  1  0.94893500  0.31985000  0.71383200  1
  Se  Se54  1  0.65837600  0.00077100  0.01521000  1
  Se  Se55  1  0.15837600  0.99922900  0.98479000  1
  Se  Se56  1  0.34162400  0.99922900  0.98479000  1
  Se  Se57  1  0.84162400  0.00077100  0.01521000  1
  Se  Se58  1  0.64334300  0.62521500  0.36906800  1
  Se  Se59  1  0.64255500  0.36990500  0.00732800  1
  Se  Se60  1  0.64055300  0.00692800  0.61618100  1
  Se  Se61  1  0.14334300  0.37478500  0.63093200  1
  Se  Se62  1  0.14255500  0.63009500  0.99267200  1
  Se  Se63  1  0.14055300  0.99307200  0.38381900  1
  Se  Se64  1  0.35665700  0.37478500  0.63093200  1
  Se  Se65  1  0.35744500  0.63009500  0.99267200  1
  Se  Se66  1  0.35944700  0.99307200  0.38381900  1
  Se  Se67  1  0.85665700  0.62521500  0.36906800  1
  Se  Se68  1  0.85744500  0.36990500  0.00732800  1
  Se  Se69  1  0.85944700  0.00692800  0.61618100  1
  Se  Se70  1  0.03181800  0.66736600  0.66642200  1
  Se  Se71  1  0.53181800  0.33263400  0.33357800  1
  Se  Se72  1  0.96818200  0.33263400  0.33357800  1
  Se  Se73  1  0.46818200  0.66736600  0.66642200  1
