# generated using pymatgen
data_MnAl2Co
_symmetry_space_group_name_H-M   'P 1'
_cell_length_a   2.85388000
_cell_length_b   2.85388000
_cell_length_c   6.04595400
_cell_angle_alpha   90.00000000
_cell_angle_beta   90.00000000
_cell_angle_gamma   90.00000000
_symmetry_Int_Tables_number   1
_chemical_formula_structural   MnAl2Co
_chemical_formula_sum   'Mn1 Al2 Co1'
_cell_volume   49.24206470
_cell_formula_units_Z   1
loop_
 _symmetry_equiv_pos_site_id
 _symmetry_equiv_pos_as_xyz
  1  'x, y, z'
loop_
 _atom_site_type_symbol
 _atom_site_label
 _atom_site_symmetry_multiplicity
 _atom_site_fract_x
 _atom_site_fract_y
 _atom_site_fract_z
 _atom_site_occupancy
  Mn  Mn0  1  0.00000000  0.00000000  0.50000000  1
  Al  Al1  1  0.50000000  0.50000000  0.23410900  1
  Al  Al2  1  0.50000000  0.50000000  0.76589100  1
  Co  Co3  1  0.00000000  0.00000000  0.00000000  1
