# generated using pymatgen
data_Mo2P4O15
_symmetry_space_group_name_H-M   'P 1'
_cell_length_a   6.83281300
_cell_length_b   8.49609600
_cell_length_c   11.10808053
_cell_angle_alpha   73.94245831
_cell_angle_beta   90.00000000
_cell_angle_gamma   90.00000000
_symmetry_Int_Tables_number   1
_chemical_formula_structural   Mo2P4O15
_chemical_formula_sum   'Mo4 P8 O30'
_cell_volume   619.68973065
_cell_formula_units_Z   2
loop_
 _symmetry_equiv_pos_site_id
 _symmetry_equiv_pos_as_xyz
  1  'x, y, z'
loop_
 _atom_site_type_symbol
 _atom_site_label
 _atom_site_symmetry_multiplicity
 _atom_site_fract_x
 _atom_site_fract_y
 _atom_site_fract_z
 _atom_site_occupancy
  Mo  Mo0  1  0.99917500  0.20286800  0.34821500  1
  Mo  Mo1  1  0.49818200  0.79746100  0.15261300  1
  Mo  Mo2  1  0.50181800  0.79746100  0.65261300  1
  Mo  Mo3  1  0.00082500  0.20286800  0.84821500  1
  P  P4  1  0.30995000  0.18540100  0.10093900  1
  P  P5  1  0.80772300  0.81697400  0.39914000  1
  P  P6  1  0.19227700  0.81697400  0.89914000  1
  P  P7  1  0.69005000  0.18540100  0.60093900  1
  P  P8  1  0.63724900  0.41388600  0.12687100  1
  P  P9  1  0.13347700  0.58101200  0.37743500  1
  P  P10  1  0.86652300  0.58101200  0.87743500  1
  P  P11  1  0.36275100  0.41388600  0.62687100  1
  O  O12  1  0.92182700  0.97338700  0.34038000  1
  O  O13  1  0.42111300  0.02707600  0.15996100  1
  O  O14  1  0.57888700  0.02707600  0.65996100  1
  O  O15  1  0.07817300  0.97338700  0.84038000  1
  O  O16  1  0.77784000  0.19482500  0.47391900  1
  O  O17  1  0.27579000  0.80631800  0.02788100  1
  O  O18  1  0.72421000  0.80631800  0.52788100  1
  O  O19  1  0.22216000  0.19482500  0.97391900  1
  O  O20  1  0.18294500  0.15538900  0.45485800  1
  O  O21  1  0.68333200  0.84445600  0.04722000  1
  O  O22  1  0.31666800  0.84445600  0.54722000  1
  O  O23  1  0.81705500  0.15538900  0.95485800  1
  O  O24  1  0.46984100  0.33081200  0.06643100  1
  O  O25  1  0.96302100  0.66959200  0.42981800  1
  O  O26  1  0.03697900  0.66959200  0.92981800  1
  O  O27  1  0.53015900  0.33081200  0.56643100  1
  O  O28  1  0.04355100  0.45474400  0.32183300  1
  O  O29  1  0.54639300  0.54576800  0.17569400  1
  O  O30  1  0.45360700  0.54576800  0.67569400  1
  O  O31  1  0.95644900  0.45474400  0.82183300  1
  O  O32  1  0.16500600  0.22822000  0.19039400  1
  O  O33  1  0.65887200  0.77707000  0.31103800  1
  O  O34  1  0.34112800  0.77707000  0.81103800  1
  O  O35  1  0.83499400  0.22822000  0.69039400  1
  O  O36  1  0.75668200  0.28830200  0.21832100  1
  O  O37  1  0.26876000  0.70105500  0.29389800  1
  O  O38  1  0.73124000  0.70105500  0.79389800  1
  O  O39  1  0.24331800  0.28830200  0.71832100  1
  O  O40  1  0.76714200  0.49138400  0.00714000  1
  O  O41  1  0.23285800  0.49138400  0.50714000  1
