# generated using pymatgen
data_MnCdO2
_symmetry_space_group_name_H-M   'P 1'
_cell_length_a   5.68353554
_cell_length_b   5.68874549
_cell_length_c   6.56278107
_cell_angle_alpha   90.00000712
_cell_angle_beta   90.00000000
_cell_angle_gamma   70.54732904
_symmetry_Int_Tables_number   1
_chemical_formula_structural   MnCdO2
_chemical_formula_sum   'Mn4 Cd4 O8'
_cell_volume   200.07665834
_cell_formula_units_Z   4
loop_
 _symmetry_equiv_pos_site_id
 _symmetry_equiv_pos_as_xyz
  1  'x, y, z'
loop_
 _atom_site_type_symbol
 _atom_site_label
 _atom_site_symmetry_multiplicity
 _atom_site_fract_x
 _atom_site_fract_y
 _atom_site_fract_z
 _atom_site_occupancy
  Mn  Mn0  1  0.00000000  0.50000000  0.75000000  1
  Mn  Mn1  1  0.50000000  0.50000000  0.50000000  1
  Mn  Mn2  1  0.00000000  0.50000000  0.25000000  1
  Mn  Mn3  1  0.50000000  0.50000000  0.00000000  1
  Cd  Cd4  1  0.50000000  0.00000000  0.25000000  1
  Cd  Cd5  1  0.50000000  0.00000000  0.75000000  1
  Cd  Cd6  1  0.00000000  0.00000000  0.00000000  1
  Cd  Cd7  1  0.00000000  0.00000000  0.50000000  1
  O  O8  1  0.24312600  0.27062200  0.50000000  1
  O  O9  1  0.24312600  0.27062200  0.00000000  1
  O  O10  1  0.74312600  0.27062200  0.25000000  1
  O  O11  1  0.74312600  0.27062200  0.75000000  1
  O  O12  1  0.75687400  0.72937800  0.50000000  1
  O  O13  1  0.75687400  0.72937800  0.00000000  1
  O  O14  1  0.25687400  0.72937800  0.25000000  1
  O  O15  1  0.25687400  0.72937800  0.75000000  1
