# generated using pymatgen
data_MnFeO4
_symmetry_space_group_name_H-M   'P 1'
_cell_length_a   5.79723985
_cell_length_b   5.79723985
_cell_length_c   5.79723985
_cell_angle_alpha   120.30381094
_cell_angle_beta   118.90239913
_cell_angle_gamma   90.69306144
_symmetry_Int_Tables_number   1
_chemical_formula_structural   MnFeO4
_chemical_formula_sum   'Mn2 Fe2 O8'
_cell_volume   138.55811919
_cell_formula_units_Z   2
loop_
 _symmetry_equiv_pos_site_id
 _symmetry_equiv_pos_as_xyz
  1  'x, y, z'
loop_
 _atom_site_type_symbol
 _atom_site_label
 _atom_site_symmetry_multiplicity
 _atom_site_fract_x
 _atom_site_fract_y
 _atom_site_fract_z
 _atom_site_occupancy
  Mn  Mn0  1  0.50000000  0.50000000  0.00000000  1
  Mn  Mn1  1  0.00000000  0.50000000  0.50000000  1
  Fe  Fe2  1  0.12109400  0.87109400  0.25000000  1
  Fe  Fe3  1  0.87890600  0.12890600  0.75000000  1
  O  O4  1  0.77116300  0.26677000  0.50439300  1
  O  O5  1  0.26237700  0.26677000  0.99560700  1
  O  O6  1  0.75046100  0.27830500  0.02784400  1
  O  O7  1  0.75046100  0.72261700  0.47215600  1
  O  O8  1  0.22883700  0.73323000  0.49560700  1
  O  O9  1  0.73762300  0.73323000  0.00439300  1
  O  O10  1  0.24953900  0.72169500  0.97215600  1
  O  O11  1  0.24953900  0.27738300  0.52784400  1
