# generated using pymatgen
data_MnCd4S5
_symmetry_space_group_name_H-M   'P 1'
_cell_length_a   17.10643562
_cell_length_b   17.10643562
_cell_length_c   17.10643600
_cell_angle_alpha   13.98420547
_cell_angle_beta   13.98420547
_cell_angle_gamma   13.98420685
_symmetry_Int_Tables_number   1
_chemical_formula_structural   MnCd4S5
_chemical_formula_sum   'Mn1 Cd4 S5'
_cell_volume   254.41876836
_cell_formula_units_Z   1
loop_
 _symmetry_equiv_pos_site_id
 _symmetry_equiv_pos_as_xyz
  1  'x, y, z'
loop_
 _atom_site_type_symbol
 _atom_site_label
 _atom_site_symmetry_multiplicity
 _atom_site_fract_x
 _atom_site_fract_y
 _atom_site_fract_z
 _atom_site_occupancy
  Mn  Mn0  1  0.40044600  0.40044600  0.40044600  1
  Cd  Cd1  1  0.00132300  0.00132300  0.00132300  1
  Cd  Cd2  1  0.60018900  0.60018900  0.60018900  1
  Cd  Cd3  1  0.19973900  0.19973900  0.19973900  1
  Cd  Cd4  1  0.79814400  0.79814400  0.79814400  1
  S  S5  1  0.95080400  0.95080400  0.95080400  1
  S  S6  1  0.55001900  0.55001900  0.55001900  1
  S  S7  1  0.14932100  0.14932100  0.14932100  1
  S  S8  1  0.74724700  0.74724700  0.74724700  1
  S  S9  1  0.35276800  0.35276800  0.35276800  1
