# generated using pymatgen
data_MnB4Mo3
_symmetry_space_group_name_H-M   'P 1'
_cell_length_a   3.06041900
_cell_length_b   4.48307100
_cell_length_c   6.23628217
_cell_angle_alpha   69.68287204
_cell_angle_beta   90.00000000
_cell_angle_gamma   90.00000000
_symmetry_Int_Tables_number   1
_chemical_formula_structural   MnB4Mo3
_chemical_formula_sum   'Mn1 B4 Mo3'
_cell_volume   80.23902248
_cell_formula_units_Z   1
loop_
 _symmetry_equiv_pos_site_id
 _symmetry_equiv_pos_as_xyz
  1  'x, y, z'
loop_
 _atom_site_type_symbol
 _atom_site_label
 _atom_site_symmetry_multiplicity
 _atom_site_fract_x
 _atom_site_fract_y
 _atom_site_fract_z
 _atom_site_occupancy
  Mn  Mn0  1  0.50000000  0.72889600  0.06804100  1
  B  B1  1  0.50000000  0.11583900  0.72545200  1
  B  B2  1  0.50000000  0.11240200  0.21679600  1
  B  B3  1  0.00000000  0.86988200  0.27162300  1
  B  B4  1  0.00000000  0.87552200  0.79253700  1
  Mo  Mo5  1  0.50000000  0.70960500  0.57276000  1
  Mo  Mo6  1  0.00000000  0.29598800  0.93101200  1
  Mo  Mo7  1  0.00000000  0.29186600  0.42177900  1
