# generated using pymatgen
data_Na2H12SO11
_symmetry_space_group_name_H-M   'P 1'
_cell_length_a   7.18066417
_cell_length_b   7.18066417
_cell_length_c   12.34773103
_cell_angle_alpha   73.08836253
_cell_angle_beta   73.08836253
_cell_angle_gamma   89.97478581
_symmetry_Int_Tables_number   1
_chemical_formula_structural   Na2H12SO11
_chemical_formula_sum   'Na4 H24 S2 O22'
_cell_volume   580.32754483
_cell_formula_units_Z   2
loop_
 _symmetry_equiv_pos_site_id
 _symmetry_equiv_pos_as_xyz
  1  'x, y, z'
loop_
 _atom_site_type_symbol
 _atom_site_label
 _atom_site_symmetry_multiplicity
 _atom_site_fract_x
 _atom_site_fract_y
 _atom_site_fract_z
 _atom_site_occupancy
  Na  Na0  1  0.25986800  0.00802500  0.48219300  1
  Na  Na1  1  0.50802500  0.75986800  0.98219300  1
  Na  Na2  1  0.74206200  0.99021800  0.51780700  1
  Na  Na3  1  0.49021800  0.24206200  0.01780700  1
  H  H4  1  0.99867600  0.65481100  0.56749100  1
  H  H5  1  0.99868100  0.27617900  0.56752900  1
  H  H6  1  0.15481100  0.49867600  0.06749100  1
  H  H7  1  0.16389100  0.93824500  0.06526000  1
  H  H8  1  0.43824500  0.66389100  0.56526000  1
  H  H9  1  0.43700500  0.27023000  0.56497800  1
  H  H10  1  0.77617900  0.49868100  0.06752900  1
  H  H11  1  0.77023000  0.93700500  0.06497800  1
  H  H12  1  0.00198300  0.33520800  0.43502200  1
  H  H13  1  0.00350500  0.72915100  0.43474000  1
  H  H14  1  0.83520800  0.50198300  0.93502200  1
  H  H15  1  0.84370700  0.06621000  0.93247100  1
  H  H16  1  0.56621000  0.34370700  0.43247100  1
  H  H17  1  0.56616700  0.72230200  0.43250900  1
  H  H18  1  0.22915100  0.50350500  0.93474000  1
  H  H19  1  0.22230200  0.06616700  0.93250900  1
  H  H20  1  0.14503800  0.76484900  0.74749400  1
  H  H21  1  0.14513000  0.98694500  0.74755000  1
  H  H22  1  0.26484900  0.64503800  0.24749400  1
  H  H23  1  0.48694500  0.64513000  0.24755000  1
  H  H24  1  0.89268000  0.23449500  0.25245000  1
  H  H25  1  0.89253100  0.01234300  0.25250600  1
  H  H26  1  0.73449500  0.39268000  0.75245000  1
  H  H27  1  0.51234300  0.39253100  0.75250600  1
  S  S28  1  0.12414000  0.37414000  0.75000000  1
  S  S29  1  0.87414000  0.62414000  0.25000000  1
  O  O30  1  0.00130800  0.77547900  0.50265400  1
  O  O31  1  0.00042600  0.22074900  0.50277200  1
  O  O32  1  0.27547900  0.50130800  0.00265400  1
  O  O33  1  0.27813300  0.00396200  0.99734600  1
  O  O34  1  0.50396200  0.77813300  0.49734600  1
  O  O35  1  0.50319700  0.22352100  0.49722800  1
  O  O36  1  0.72074900  0.50042600  0.00277200  1
  O  O37  1  0.72352100  0.00319700  0.99722800  1
  O  O38  1  0.36985600  0.11985600  0.25000000  1
  O  O39  1  0.61985600  0.86985600  0.75000000  1
  O  O40  1  0.99205100  0.41194300  0.67306000  1
  O  O41  1  0.91194300  0.49205100  0.17306000  1
  O  O42  1  0.91194300  0.83299000  0.17307600  1
  O  O43  1  0.33299000  0.41194300  0.67307600  1
  O  O44  1  0.00606600  0.58501900  0.32692400  1
  O  O45  1  0.08501900  0.50606600  0.82692400  1
  O  O46  1  0.08500400  0.16511200  0.82694000  1
  O  O47  1  0.66511200  0.58500400  0.32694000  1
  O  O48  1  0.18882800  0.90135700  0.69629500  1
  O  O49  1  0.40135700  0.68882800  0.19629500  1
  O  O50  1  0.59765200  0.38512300  0.80370500  1
  O  O51  1  0.88512300  0.09765200  0.30370500  1
