# generated using pymatgen
data_Mn4Sb3As
_symmetry_space_group_name_H-M   'P 1'
_cell_length_a   3.98385780
_cell_length_b   3.98385780
_cell_length_c   11.24213600
_cell_angle_alpha   90.00000000
_cell_angle_beta   90.00000000
_cell_angle_gamma   119.99999665
_symmetry_Int_Tables_number   1
_chemical_formula_structural   Mn4Sb3As
_chemical_formula_sum   'Mn4 Sb3 As1'
_cell_volume   154.52086739
_cell_formula_units_Z   1
loop_
 _symmetry_equiv_pos_site_id
 _symmetry_equiv_pos_as_xyz
  1  'x, y, z'
loop_
 _atom_site_type_symbol
 _atom_site_label
 _atom_site_symmetry_multiplicity
 _atom_site_fract_x
 _atom_site_fract_y
 _atom_site_fract_z
 _atom_site_occupancy
  Mn  Mn0  1  0.00000000  0.00000000  0.61595800  1
  Mn  Mn1  1  0.00000000  0.00000000  0.12568800  1
  Mn  Mn2  1  0.00000000  0.00000000  0.87431200  1
  Mn  Mn3  1  0.00000000  0.00000000  0.38404200  1
  Sb  Sb4  1  0.66666700  0.33333300  0.00000000  1
  Sb  Sb5  1  0.33333300  0.66666700  0.74678900  1
  Sb  Sb6  1  0.33333300  0.66666700  0.25321100  1
  As  As7  1  0.66666700  0.33333300  0.50000000  1
