# generated using pymatgen
data_Na2Mo3O13
_symmetry_space_group_name_H-M   'P 1'
_cell_length_a   3.59008700
_cell_length_b   8.97980925
_cell_length_c   9.32607147
_cell_angle_alpha   82.98073540
_cell_angle_beta   78.90269598
_cell_angle_gamma   101.53097547
_symmetry_Int_Tables_number   1
_chemical_formula_structural   Na2Mo3O13
_chemical_formula_sum   'Na2 Mo3 O13'
_cell_volume   285.01501952
_cell_formula_units_Z   1
loop_
 _symmetry_equiv_pos_site_id
 _symmetry_equiv_pos_as_xyz
  1  'x, y, z'
loop_
 _atom_site_type_symbol
 _atom_site_label
 _atom_site_symmetry_multiplicity
 _atom_site_fract_x
 _atom_site_fract_y
 _atom_site_fract_z
 _atom_site_occupancy
  Na  Na0  1  0.43521300  0.61819800  0.74777200  1
  Na  Na1  1  0.52168200  0.38601300  0.34264900  1
  Mo  Mo2  1  0.86946300  0.78072700  0.04180100  1
  Mo  Mo3  1  0.08915700  0.21675000  0.03843600  1
  Mo  Mo4  1  0.65493200  0.05976500  0.74990000  1
  O  O5  1  0.42442800  0.84892200  0.00006700  1
  O  O6  1  0.59226300  0.16884800  0.98432200  1
  O  O7  1  0.90290000  0.68874100  0.88294000  1
  O  O8  1  0.04752200  0.29717700  0.20213300  1
  O  O9  1  0.72058900  0.63067900  0.18950200  1
  O  O10  1  0.24061900  0.37856500  0.89732600  1
  O  O11  1  0.11628200  0.05606500  0.82350200  1
  O  O12  1  0.92486100  0.98382400  0.13410200  1
  O  O13  1  0.52126500  0.55583700  0.51330800  1
  O  O14  1  0.07435200  0.63183700  0.48313300  1
  O  O15  1  0.80427800  0.21624000  0.60768500  1
  O  O16  1  0.62068800  0.90222000  0.66084500  1
  O  O17  1  0.36690700  0.00739100  0.27357700  1
