# generated using pymatgen
data_MnCr2Se3S
_symmetry_space_group_name_H-M   'P 1'
_cell_length_a   6.96960725
_cell_length_b   6.96960725
_cell_length_c   6.33193832
_cell_angle_alpha   64.56541973
_cell_angle_beta   64.56541973
_cell_angle_gamma   30.63234518
_symmetry_Int_Tables_number   1
_chemical_formula_structural   MnCr2Se3S
_chemical_formula_sum   'Mn1 Cr2 Se3 S1'
_cell_volume   140.32329743
_cell_formula_units_Z   1
loop_
 _symmetry_equiv_pos_site_id
 _symmetry_equiv_pos_as_xyz
  1  'x, y, z'
loop_
 _atom_site_type_symbol
 _atom_site_label
 _atom_site_symmetry_multiplicity
 _atom_site_fract_x
 _atom_site_fract_y
 _atom_site_fract_z
 _atom_site_occupancy
  Mn  Mn0  1  0.99827600  0.99827600  0.98594800  1
  Cr  Cr1  1  0.74576600  0.74576600  0.23902700  1
  Cr  Cr2  1  0.25951800  0.25951800  0.76119200  1
  Se  Se3  1  0.12847400  0.12847400  0.20037600  1
  Se  Se4  1  0.63723300  0.63723300  0.69394600  1
  Se  Se5  1  0.36922900  0.36922900  0.30075300  1
  S  S6  1  0.86150500  0.86150500  0.81875800  1
