# generated using pymatgen
data_Mn3Al2V3
_symmetry_space_group_name_H-M   'P 1'
_cell_length_a   7.26133910
_cell_length_b   7.26133910
_cell_length_c   7.26133918
_cell_angle_alpha   33.59451040
_cell_angle_beta   33.59451040
_cell_angle_gamma   33.59451248
_symmetry_Int_Tables_number   1
_chemical_formula_structural   Mn3Al2V3
_chemical_formula_sum   'Mn3 Al2 V3'
_cell_volume   104.41417596
_cell_formula_units_Z   1
loop_
 _symmetry_equiv_pos_site_id
 _symmetry_equiv_pos_as_xyz
  1  'x, y, z'
loop_
 _atom_site_type_symbol
 _atom_site_label
 _atom_site_symmetry_multiplicity
 _atom_site_fract_x
 _atom_site_fract_y
 _atom_site_fract_z
 _atom_site_occupancy
  Mn  Mn0  1  0.24977500  0.24977500  0.24977500  1
  Mn  Mn1  1  0.99859300  0.99859300  0.99859300  1
  Mn  Mn2  1  0.50137200  0.50137200  0.50137200  1
  Al  Al3  1  0.12584700  0.12584700  0.12584700  1
  Al  Al4  1  0.62429100  0.62429100  0.62429100  1
  V  V5  1  0.37465700  0.37465700  0.37465700  1
  V  V6  1  0.87534100  0.87534100  0.87534100  1
  V  V7  1  0.75038800  0.75038800  0.75038800  1
