# generated using pymatgen
data_Na3Al3Si3O14
_symmetry_space_group_name_H-M   'P 1'
_cell_length_a   5.27856700
_cell_length_b   15.26840700
_cell_length_c   16.33745200
_cell_angle_alpha   90.00000000
_cell_angle_beta   90.00000000
_cell_angle_gamma   90.00000000
_symmetry_Int_Tables_number   1
_chemical_formula_structural   Na3Al3Si3O14
_chemical_formula_sum   'Na12 Al12 Si12 O56'
_cell_volume   1316.72199765
_cell_formula_units_Z   4
loop_
 _symmetry_equiv_pos_site_id
 _symmetry_equiv_pos_as_xyz
  1  'x, y, z'
loop_
 _atom_site_type_symbol
 _atom_site_label
 _atom_site_symmetry_multiplicity
 _atom_site_fract_x
 _atom_site_fract_y
 _atom_site_fract_z
 _atom_site_occupancy
  Na  Na0  1  0.96367900  0.24554400  0.08018900  1
  Na  Na1  1  0.46367900  0.75445600  0.91981100  1
  Na  Na2  1  0.46367900  0.74554400  0.41981100  1
  Na  Na3  1  0.96367900  0.25445600  0.58018900  1
  Na  Na4  1  0.45822400  0.25526700  0.40677300  1
  Na  Na5  1  0.95822400  0.74473300  0.59322700  1
  Na  Na6  1  0.95822400  0.75526700  0.09322700  1
  Na  Na7  1  0.45822400  0.24473300  0.90677300  1
  Na  Na8  1  0.54356200  0.48852900  0.22114800  1
  Na  Na9  1  0.04356200  0.51147100  0.77885200  1
  Na  Na10  1  0.04356200  0.98852900  0.27885200  1
  Na  Na11  1  0.54356200  0.01147100  0.72114800  1
  Al  Al12  1  0.98058000  0.24581400  0.29518300  1
  Al  Al13  1  0.48058000  0.75418600  0.70481700  1
  Al  Al14  1  0.48058000  0.74581400  0.20481700  1
  Al  Al15  1  0.98058000  0.25418600  0.79518300  1
  Al  Al16  1  0.49034800  0.39158200  0.04716300  1
  Al  Al17  1  0.99034800  0.60841800  0.95283700  1
  Al  Al18  1  0.99034800  0.89158200  0.45283700  1
  Al  Al19  1  0.49034800  0.10841800  0.54716300  1
  Al  Al20  1  0.50409300  0.10474700  0.05049100  1
  Al  Al21  1  0.00409300  0.89525300  0.94950900  1
  Al  Al22  1  0.00409300  0.60474700  0.44950900  1
  Al  Al23  1  0.50409300  0.39525300  0.55049100  1
  Si  Si24  1  0.48374800  0.25341900  0.19180500  1
  Si  Si25  1  0.98374800  0.74658100  0.80819500  1
  Si  Si26  1  0.98374800  0.75341900  0.30819500  1
  Si  Si27  1  0.48374800  0.24658100  0.69180500  1
  Si  Si28  1  0.00788600  0.39157200  0.43847300  1
  Si  Si29  1  0.50788600  0.60842800  0.56152700  1
  Si  Si30  1  0.50788600  0.89157200  0.06152700  1
  Si  Si31  1  0.00788600  0.10842800  0.93847300  1
  Si  Si32  1  0.99127600  0.11137400  0.44105200  1
  Si  Si33  1  0.49127600  0.88862600  0.55894800  1
  Si  Si34  1  0.49127600  0.61137400  0.05894800  1
  Si  Si35  1  0.99127600  0.38862600  0.94105200  1
  O  O36  1  0.15040600  0.48412700  0.14886400  1
  O  O37  1  0.65040600  0.51587300  0.85113600  1
  O  O38  1  0.65040600  0.98412700  0.35113600  1
  O  O39  1  0.15040600  0.01587300  0.64886400  1
  O  O40  1  0.58309200  0.17563900  0.13136900  1
  O  O41  1  0.08309200  0.82436100  0.86863100  1
  O  O42  1  0.08309200  0.67563900  0.36863100  1
  O  O43  1  0.58309200  0.32436100  0.63136900  1
  O  O44  1  0.17805200  0.24593600  0.20814000  1
  O  O45  1  0.67805200  0.75406400  0.79186000  1
  O  O46  1  0.67805200  0.74593600  0.29186000  1
  O  O47  1  0.17805200  0.25406400  0.70814000  1
  O  O48  1  0.07834500  0.33243200  0.35852000  1
  O  O49  1  0.57834500  0.66756800  0.64148000  1
  O  O50  1  0.57834500  0.83243200  0.14148000  1
  O  O51  1  0.07834500  0.16756800  0.85852000  1
  O  O52  1  0.72117400  0.14628000  0.47748400  1
  O  O53  1  0.22117400  0.85372000  0.52251600  1
  O  O54  1  0.22117400  0.64628000  0.02251600  1
  O  O55  1  0.72117400  0.35372000  0.97748400  1
  O  O56  1  0.20831600  0.14798700  0.50410000  1
  O  O57  1  0.70831600  0.85201300  0.49590000  1
  O  O58  1  0.70831600  0.64798700  0.99590000  1
  O  O59  1  0.20831600  0.35201300  0.00410000  1
  O  O60  1  0.04428100  0.14671600  0.34852900  1
  O  O61  1  0.54428100  0.85328400  0.65147100  1
  O  O62  1  0.54428100  0.64671600  0.15147100  1
  O  O63  1  0.04428100  0.35328400  0.84852900  1
  O  O64  1  0.65152400  0.25203100  0.27618600  1
  O  O65  1  0.15152400  0.74796900  0.72381400  1
  O  O66  1  0.15152400  0.75203100  0.22381400  1
  O  O67  1  0.65152400  0.24796900  0.77618600  1
  O  O68  1  0.20838400  0.36293100  0.51058200  1
  O  O69  1  0.70838400  0.63706900  0.48941800  1
  O  O70  1  0.70838400  0.86293100  0.98941800  1
  O  O71  1  0.20838400  0.13706900  0.01058200  1
  O  O72  1  0.54439000  0.34761000  0.14512400  1
  O  O73  1  0.04439000  0.65239000  0.85487600  1
  O  O74  1  0.04439000  0.84761000  0.35487600  1
  O  O75  1  0.54439000  0.15239000  0.64512400  1
  O  O76  1  0.59967900  0.48638200  0.36991600  1
  O  O77  1  0.09967900  0.51361800  0.63008400  1
  O  O78  1  0.09967900  0.98638200  0.13008400  1
  O  O79  1  0.59967900  0.01361800  0.86991600  1
  O  O80  1  0.72267900  0.36544900  0.47163500  1
  O  O81  1  0.22267900  0.63455100  0.52836500  1
  O  O82  1  0.22267900  0.86544900  0.02836500  1
  O  O83  1  0.72267900  0.13455100  0.97163500  1
  O  O84  1  0.00201700  0.00435300  0.43516300  1
  O  O85  1  0.50201700  0.99564700  0.56483700  1
  O  O86  1  0.50201700  0.50435300  0.06483700  1
  O  O87  1  0.00201700  0.49564700  0.93516300  1
  O  O88  1  0.02446200  0.49594800  0.41716800  1
  O  O89  1  0.52446200  0.50405200  0.58283200  1
  O  O90  1  0.52446200  0.99594800  0.08283200  1
  O  O91  1  0.02446200  0.00405200  0.91716800  1
