# generated using pymatgen
data_Na(Mo2O7)2
_symmetry_space_group_name_H-M   'P 1'
_cell_length_a   5.38929520
_cell_length_b   5.38929520
_cell_length_c   10.15599426
_cell_angle_alpha   82.47829208
_cell_angle_beta   82.47829208
_cell_angle_gamma   90.06860506
_symmetry_Int_Tables_number   1
_chemical_formula_structural   Na(Mo2O7)2
_chemical_formula_sum   'Na1 Mo4 O14'
_cell_volume   289.87087150
_cell_formula_units_Z   1
loop_
 _symmetry_equiv_pos_site_id
 _symmetry_equiv_pos_as_xyz
  1  'x, y, z'
loop_
 _atom_site_type_symbol
 _atom_site_label
 _atom_site_symmetry_multiplicity
 _atom_site_fract_x
 _atom_site_fract_y
 _atom_site_fract_z
 _atom_site_occupancy
  Na  Na0  1  0.99733900  0.00266100  0.00000000  1
  Mo  Mo1  1  0.85807300  0.82412100  0.64618900  1
  Mo  Mo2  1  0.35104700  0.31481000  0.65186400  1
  Mo  Mo3  1  0.17587900  0.14192700  0.35381100  1
  Mo  Mo4  1  0.68519000  0.64895300  0.34813600  1
  O  O5  1  0.61045400  0.08019400  0.62163700  1
  O  O6  1  0.11036900  0.57364200  0.62751600  1
  O  O7  1  0.91980600  0.38954600  0.37836300  1
  O  O8  1  0.42635800  0.88963100  0.37248400  1
  O  O9  1  0.42099900  0.38991800  0.38471000  1
  O  O10  1  0.91088500  0.87487200  0.41615800  1
  O  O11  1  0.61008200  0.57900100  0.61529000  1
  O  O12  1  0.12512800  0.08911500  0.58384200  1
  O  O13  1  0.27911900  0.23788100  0.82282600  1
  O  O14  1  0.84894200  0.82505300  0.81729800  1
  O  O15  1  0.76211900  0.72088100  0.17717400  1
  O  O16  1  0.17494700  0.15105800  0.18270200  1
  O  O17  1  0.43173000  0.56827000  0.00000000  1
  O  O18  1  0.59353300  0.40646700  0.00000000  1
