# generated using pymatgen
data_Mn3B4Mo3
_symmetry_space_group_name_H-M   'P 1'
_cell_length_a   5.70171739
_cell_length_b   5.70171739
_cell_length_c   3.09196000
_cell_angle_alpha   90.00000000
_cell_angle_beta   90.00000000
_cell_angle_gamma   91.04621753
_symmetry_Int_Tables_number   1
_chemical_formula_structural   Mn3B4Mo3
_chemical_formula_sum   'Mn3 B4 Mo3'
_cell_volume   100.50156760
_cell_formula_units_Z   1
loop_
 _symmetry_equiv_pos_site_id
 _symmetry_equiv_pos_as_xyz
  1  'x, y, z'
loop_
 _atom_site_type_symbol
 _atom_site_label
 _atom_site_symmetry_multiplicity
 _atom_site_fract_x
 _atom_site_fract_y
 _atom_site_fract_z
 _atom_site_occupancy
  Mn  Mn0  1  0.50018300  0.99695000  0.00000000  1
  Mn  Mn1  1  0.99695000  0.50018300  0.00000000  1
  Mn  Mn2  1  0.67348700  0.67348700  0.50000000  1
  B  B3  1  0.11342800  0.11342800  0.00000000  1
  B  B4  1  0.87232300  0.87232300  0.00000000  1
  B  B5  1  0.62285900  0.40076600  0.00000000  1
  B  B6  1  0.40076600  0.62285900  0.00000000  1
  Mo  Mo7  1  0.32709700  0.32709700  0.50000000  1
  Mo  Mo8  1  0.17434500  0.81856200  0.50000000  1
  Mo  Mo9  1  0.81856200  0.17434500  0.50000000  1
