# generated using pymatgen
data_Na2ZnSe2
_symmetry_space_group_name_H-M   'P 1'
_cell_length_a   7.45616399
_cell_length_b   7.45616399
_cell_length_c   7.45616399
_cell_angle_alpha   130.68650275
_cell_angle_beta   126.11042690
_cell_angle_gamma   76.03889377
_symmetry_Int_Tables_number   1
_chemical_formula_structural   Na2ZnSe2
_chemical_formula_sum   'Na4 Zn2 Se4'
_cell_volume   246.92915051
_cell_formula_units_Z   2
loop_
 _symmetry_equiv_pos_site_id
 _symmetry_equiv_pos_as_xyz
  1  'x, y, z'
loop_
 _atom_site_type_symbol
 _atom_site_label
 _atom_site_symmetry_multiplicity
 _atom_site_fract_x
 _atom_site_fract_y
 _atom_site_fract_z
 _atom_site_occupancy
  Na  Na0  1  0.48476300  0.13966100  0.34510200  1
  Na  Na1  1  0.51523700  0.86033900  0.65489800  1
  Na  Na2  1  0.20544200  0.36033900  0.84510200  1
  Na  Na3  1  0.79455800  0.63966100  0.15489800  1
  Zn  Zn4  1  0.00000000  0.25000000  0.25000000  1
  Zn  Zn5  1  0.00000000  0.75000000  0.75000000  1
  Se  Se6  1  0.32817000  0.61323800  0.71493200  1
  Se  Se7  1  0.67183000  0.38676200  0.28506800  1
  Se  Se8  1  0.10169400  0.88676200  0.21493200  1
  Se  Se9  1  0.89830600  0.11323800  0.78506800  1
