# generated using pymatgen
data_Mo3Os2
_symmetry_space_group_name_H-M   'P 1'
_cell_length_a   4.97792700
_cell_length_b   9.67435461
_cell_length_c   9.67435461
_cell_angle_alpha   90.12336444
_cell_angle_beta   90.00000000
_cell_angle_gamma   90.00000000
_symmetry_Int_Tables_number   1
_chemical_formula_structural   Mo3Os2
_chemical_formula_sum   'Mo18 Os12'
_cell_volume   465.89872398
_cell_formula_units_Z   6
loop_
 _symmetry_equiv_pos_site_id
 _symmetry_equiv_pos_as_xyz
  1  'x, y, z'
loop_
 _atom_site_type_symbol
 _atom_site_label
 _atom_site_symmetry_multiplicity
 _atom_site_fract_x
 _atom_site_fract_y
 _atom_site_fract_z
 _atom_site_occupancy
  Mo  Mo0  1  0.49944500  0.10385300  0.89614700  1
  Mo  Mo1  1  0.49944500  0.89614700  0.10385300  1
  Mo  Mo2  1  0.99913800  0.39696000  0.39696000  1
  Mo  Mo3  1  0.99913800  0.60304000  0.60304000  1
  Mo  Mo4  1  0.49976700  0.36925300  0.96180500  1
  Mo  Mo5  1  0.49976700  0.63074700  0.03819500  1
  Mo  Mo6  1  0.00086600  0.13210400  0.46498600  1
  Mo  Mo7  1  0.00086600  0.86789600  0.53501400  1
  Mo  Mo8  1  0.49976700  0.96180500  0.36925300  1
  Mo  Mo9  1  0.49976700  0.03819500  0.63074700  1
  Mo  Mo10  1  0.00086600  0.46498600  0.13210400  1
  Mo  Mo11  1  0.00086600  0.53501400  0.86789600  1
  Mo  Mo12  1  0.74839000  0.18093300  0.18093300  1
  Mo  Mo13  1  0.74839000  0.81906700  0.81906700  1
  Mo  Mo14  1  0.75087600  0.68097600  0.31902400  1
  Mo  Mo15  1  0.75087600  0.31902400  0.68097600  1
  Mo  Mo16  1  0.25034400  0.81780000  0.81780000  1
  Mo  Mo17  1  0.25034400  0.18220000  0.18220000  1
  Os  Os18  1  0.49852600  0.50000000  0.50000000  1
  Os  Os19  1  0.00154500  0.00000000  0.00000000  1
  Os  Os20  1  0.49833200  0.43395900  0.23593300  1
  Os  Os21  1  0.49833200  0.56604100  0.76406700  1
  Os  Os22  1  0.00168000  0.06835600  0.73635700  1
  Os  Os23  1  0.00168000  0.93164400  0.26364300  1
  Os  Os24  1  0.49833200  0.23593300  0.43395900  1
  Os  Os25  1  0.49833200  0.76406700  0.56604100  1
  Os  Os26  1  0.00168000  0.73635700  0.06835600  1
  Os  Os27  1  0.00168000  0.26364300  0.93164400  1
  Os  Os28  1  0.25048100  0.31890100  0.68109900  1
  Os  Os29  1  0.25048100  0.68109900  0.31890100  1
