# generated using pymatgen
data_Pr2Te(Mo3O23)2
_symmetry_space_group_name_H-M   'P 1'
_cell_length_a   8.93640700
_cell_length_b   9.84079307
_cell_length_c   11.99790771
_cell_angle_alpha   76.60196604
_cell_angle_beta   84.09122084
_cell_angle_gamma   70.81532980
_symmetry_Int_Tables_number   1
_chemical_formula_structural   Pr2Te(Mo3O23)2
_chemical_formula_sum   'Pr2 Te1 Mo6 O46'
_cell_volume   968.98177833
_cell_formula_units_Z   1
loop_
 _symmetry_equiv_pos_site_id
 _symmetry_equiv_pos_as_xyz
  1  'x, y, z'
loop_
 _atom_site_type_symbol
 _atom_site_label
 _atom_site_symmetry_multiplicity
 _atom_site_fract_x
 _atom_site_fract_y
 _atom_site_fract_z
 _atom_site_occupancy
  Pr  Pr0  1  0.75256700  0.24753000  0.66658500  1
  Pr  Pr1  1  0.24743300  0.75247000  0.33341500  1
  Te  Te2  1  0.50000000  0.00000000  0.50000000  1
  Mo  Mo3  1  0.59456300  0.09208300  0.20886300  1
  Mo  Mo4  1  0.40543700  0.90791700  0.79113700  1
  Mo  Mo5  1  0.74261400  0.66951100  0.67263500  1
  Mo  Mo6  1  0.25738600  0.33048900  0.32736500  1
  Mo  Mo7  1  0.79801500  0.77360400  0.38319500  1
  Mo  Mo8  1  0.20198500  0.22639600  0.61680500  1
  O  O9  1  0.87566900  0.19945500  0.37288300  1
  O  O10  1  0.12433100  0.80054500  0.62711700  1
  O  O11  1  0.48141500  0.10598700  0.09647600  1
  O  O12  1  0.51858500  0.89401300  0.90352400  1
  O  O13  1  0.32564900  0.97759000  0.60072100  1
  O  O14  1  0.67435100  0.02241000  0.39927900  1
  O  O15  1  0.75115900  0.48619700  0.66458000  1
  O  O16  1  0.24884100  0.51380300  0.33542000  1
  O  O17  1  0.71934100  0.04005700  0.65176700  1
  O  O18  1  0.28065900  0.95994300  0.34823300  1
  O  O19  1  0.82473700  0.20722800  0.92490800  1
  O  O20  1  0.17526300  0.79277200  0.07509200  1
  O  O21  1  0.86794600  0.72750600  0.54503100  1
  O  O22  1  0.13205400  0.27249400  0.45496900  1
  O  O23  1  0.98191300  0.81257200  0.33126300  1
  O  O24  1  0.01808700  0.18742800  0.66873700  1
  O  O25  1  0.42019400  0.44177100  0.81694500  1
  O  O26  1  0.57980600  0.55822900  0.18305500  1
  O  O27  1  0.85964100  0.64921200  0.78366200  1
  O  O28  1  0.14035900  0.35078800  0.21633800  1
  O  O29  1  0.49846600  0.44742000  0.53961700  1
  O  O30  1  0.50153400  0.55258000  0.46038300  1
  O  O31  1  0.79712800  0.28201900  0.43525200  1
  O  O32  1  0.20287200  0.71798100  0.56474800  1
  O  O33  1  0.52571800  0.30768000  0.81480900  1
  O  O34  1  0.47428200  0.69232000  0.18519100  1
  O  O35  1  0.76041700  0.13771000  0.14913700  1
  O  O36  1  0.23958300  0.86229000  0.85086300  1
  O  O37  1  0.63499600  0.94312400  0.64861600  1
  O  O38  1  0.36500400  0.05687600  0.35138400  1
  O  O39  1  0.67216300  0.87380200  0.25220600  1
  O  O40  1  0.32783700  0.12619800  0.74779400  1
  O  O41  1  0.41873900  0.20693800  0.50740300  1
  O  O42  1  0.58126100  0.79306200  0.49259700  1
  O  O43  1  0.82426900  0.59647900  0.37071500  1
  O  O44  1  0.17573100  0.40352100  0.62928500  1
  O  O45  1  0.83157700  0.09549000  0.89094800  1
  O  O46  1  0.16842300  0.90451000  0.10905200  1
  O  O47  1  0.46705500  0.26943400  0.26356800  1
  O  O48  1  0.53294500  0.73056600  0.73643200  1
  O  O49  1  0.65233000  0.54400000  0.08827500  1
  O  O50  1  0.34767000  0.45600000  0.91172500  1
  O  O51  1  0.84812500  0.77235200  0.01263700  1
  O  O52  1  0.15187500  0.22764800  0.98736300  1
  O  O53  1  0.87706500  0.64510500  0.06496200  1
  O  O54  1  0.12293500  0.35489500  0.93503800  1
