# generated using pymatgen
data_MnCd4O5
_symmetry_space_group_name_H-M   'P 1'
_cell_length_a   3.33398231
_cell_length_b   13.83091967
_cell_length_c   11.57506514
_cell_angle_alpha   98.17697781
_cell_angle_beta   89.99999296
_cell_angle_gamma   90.00003528
_symmetry_Int_Tables_number   1
_chemical_formula_structural   MnCd4O5
_chemical_formula_sum   'Mn4 Cd16 O20'
_cell_volume   528.32349523
_cell_formula_units_Z   4
loop_
 _symmetry_equiv_pos_site_id
 _symmetry_equiv_pos_as_xyz
  1  'x, y, z'
loop_
 _atom_site_type_symbol
 _atom_site_label
 _atom_site_symmetry_multiplicity
 _atom_site_fract_x
 _atom_site_fract_y
 _atom_site_fract_z
 _atom_site_occupancy
  Mn  Mn0  1  0.50001900  0.00008700  0.75041800  1
  Mn  Mn1  1  0.00004100  0.00000100  0.49901200  1
  Mn  Mn2  1  0.49983600  0.00014400  0.25050100  1
  Mn  Mn3  1  0.99995300  0.00010200  0.99964600  1
  Cd  Cd4  1  0.00000800  0.19337300  0.69840900  1
  Cd  Cd5  1  0.99999800  0.19345900  0.19838100  1
  Cd  Cd6  1  0.50000800  0.19378500  0.44870300  1
  Cd  Cd7  1  0.50000700  0.19371800  0.94867100  1
  Cd  Cd8  1  0.50000300  0.80648900  0.05155500  1
  Cd  Cd9  1  0.50000800  0.80653200  0.55161800  1
  Cd  Cd10  1  0.00000500  0.80627100  0.80134500  1
  Cd  Cd11  1  0.99999900  0.80620800  0.30130300  1
  Cd  Cd12  1  0.00000500  0.39784700  0.89957100  1
  Cd  Cd13  1  0.00000600  0.39786000  0.39956700  1
  Cd  Cd14  1  0.50000600  0.39790500  0.64969900  1
  Cd  Cd15  1  0.50000500  0.39790500  0.14967800  1
  Cd  Cd16  1  0.50000500  0.60209400  0.85047300  1
  Cd  Cd17  1  0.50000500  0.60209500  0.35048500  1
  Cd  Cd18  1  0.00000600  0.60205800  0.60037400  1
  Cd  Cd19  1  0.00000300  0.60204500  0.10035700  1
  O  O20  1  0.00000400  0.50004000  0.75013500  1
  O  O21  1  0.00000400  0.50004300  0.25013600  1
  O  O22  1  0.50000400  0.49989700  0.50003500  1
  O  O23  1  0.50000400  0.49989300  0.00003300  1
  O  O24  1  0.50000300  0.91146000  0.90316700  1
  O  O25  1  0.50001200  0.91137300  0.40301200  1
  O  O26  1  0.00000500  0.91211700  0.65353400  1
  O  O27  1  0.99999700  0.91209200  0.15348300  1
  O  O28  1  0.00000400  0.08842800  0.84674200  1
  O  O29  1  0.99999800  0.08845000  0.34659300  1
  O  O30  1  0.50000500  0.08820400  0.59670300  1
  O  O31  1  0.50000100  0.08823600  0.09676800  1
  O  O32  1  0.00000400  0.70464500  0.95099500  1
  O  O33  1  0.00000400  0.70465800  0.45100600  1
  O  O34  1  0.50000400  0.70494100  0.70116700  1
  O  O35  1  0.50000400  0.70491400  0.20106600  1
  O  O36  1  0.50000500  0.29498300  0.79882100  1
  O  O37  1  0.50000400  0.29499000  0.29882300  1
  O  O38  1  0.00000400  0.29533100  0.54901300  1
  O  O39  1  0.00000400  0.29532700  0.04900200  1
