# generated using pymatgen
data_Y2Co3(SiO4)3
_symmetry_space_group_name_H-M   'P 1'
_cell_length_a   10.62768362
_cell_length_b   10.62768362
_cell_length_c   10.62768362
_cell_angle_alpha   109.47122063
_cell_angle_beta   109.47122063
_cell_angle_gamma   109.47122063
_symmetry_Int_Tables_number   1
_chemical_formula_structural   Y2Co3(SiO4)3
_chemical_formula_sum   'Y8 Co12 Si12 O48'
_cell_volume   924.04678680
_cell_formula_units_Z   4
loop_
 _symmetry_equiv_pos_site_id
 _symmetry_equiv_pos_as_xyz
  1  'x, y, z'
loop_
 _atom_site_type_symbol
 _atom_site_label
 _atom_site_symmetry_multiplicity
 _atom_site_fract_x
 _atom_site_fract_y
 _atom_site_fract_z
 _atom_site_occupancy
  Y  Y0  1  0.00000000  0.00000000  0.00000000  1
  Y  Y1  1  0.50000000  0.00000000  0.00000000  1
  Y  Y2  1  0.50000000  0.50000000  0.00000000  1
  Y  Y3  1  0.00000000  0.50000000  0.50000000  1
  Y  Y4  1  0.00000000  0.00000000  0.50000000  1
  Y  Y5  1  0.50000000  0.50000000  0.50000000  1
  Y  Y6  1  0.00000000  0.50000000  0.00000000  1
  Y  Y7  1  0.50000000  0.00000000  0.50000000  1
  Co  Co8  1  0.87500000  0.75000000  0.62500000  1
  Co  Co9  1  0.87500000  0.62500000  0.25000000  1
  Co  Co10  1  0.62500000  0.87500000  0.75000000  1
  Co  Co11  1  0.25000000  0.87500000  0.62500000  1
  Co  Co12  1  0.75000000  0.62500000  0.87500000  1
  Co  Co13  1  0.62500000  0.25000000  0.87500000  1
  Co  Co14  1  0.12500000  0.25000000  0.37500000  1
  Co  Co15  1  0.12500000  0.37500000  0.75000000  1
  Co  Co16  1  0.37500000  0.12500000  0.25000000  1
  Co  Co17  1  0.75000000  0.12500000  0.37500000  1
  Co  Co18  1  0.25000000  0.37500000  0.12500000  1
  Co  Co19  1  0.37500000  0.75000000  0.12500000  1
  Si  Si20  1  0.12500000  0.75000000  0.87500000  1
  Si  Si21  1  0.75000000  0.87500000  0.12500000  1
  Si  Si22  1  0.25000000  0.62500000  0.37500000  1
  Si  Si23  1  0.62500000  0.75000000  0.37500000  1
  Si  Si24  1  0.87500000  0.12500000  0.75000000  1
  Si  Si25  1  0.37500000  0.25000000  0.62500000  1
  Si  Si26  1  0.37500000  0.62500000  0.75000000  1
  Si  Si27  1  0.25000000  0.12500000  0.87500000  1
  Si  Si28  1  0.62500000  0.37500000  0.25000000  1
  Si  Si29  1  0.12500000  0.87500000  0.25000000  1
  Si  Si30  1  0.75000000  0.37500000  0.62500000  1
  Si  Si31  1  0.87500000  0.25000000  0.12500000  1
  O  O32  1  0.59765900  0.89348400  0.37038900  1
  O  O33  1  0.37038900  0.59765900  0.89348400  1
  O  O34  1  0.27273000  0.29582500  0.90234100  1
  O  O35  1  0.47690500  0.60651600  0.20417500  1
  O  O36  1  0.29582500  0.89348400  0.02309500  1
  O  O37  1  0.12961100  0.02309500  0.22727000  1
  O  O38  1  0.37038900  0.27273000  0.47690500  1
  O  O39  1  0.89348400  0.37038900  0.59765900  1
  O  O40  1  0.20417500  0.22727000  0.59765900  1
  O  O41  1  0.47690500  0.37038900  0.27273000  1
  O  O42  1  0.89348400  0.02309500  0.29582500  1
  O  O43  1  0.60651600  0.90234100  0.12961100  1
  O  O44  1  0.90234100  0.12961100  0.60651600  1
  O  O45  1  0.27273000  0.47690500  0.37038900  1
  O  O46  1  0.59765900  0.20417500  0.22727000  1
  O  O47  1  0.22727000  0.59765900  0.20417500  1
  O  O48  1  0.02309500  0.29582500  0.89348400  1
  O  O49  1  0.90234100  0.27273000  0.29582500  1
  O  O50  1  0.02309500  0.22727000  0.12961100  1
  O  O51  1  0.79582500  0.77273000  0.40234100  1
  O  O52  1  0.29582500  0.90234100  0.27273000  1
  O  O53  1  0.60651600  0.20417500  0.47690500  1
  O  O54  1  0.22727000  0.12961100  0.02309500  1
  O  O55  1  0.12961100  0.60651600  0.90234100  1
  O  O56  1  0.40234100  0.10651600  0.62961100  1
  O  O57  1  0.62961100  0.40234100  0.10651600  1
  O  O58  1  0.72727000  0.70417500  0.09765900  1
  O  O59  1  0.52309500  0.39348400  0.79582500  1
  O  O60  1  0.70417500  0.10651600  0.97690500  1
  O  O61  1  0.87038900  0.97690500  0.77273000  1
  O  O62  1  0.62961100  0.72727000  0.52309500  1
  O  O63  1  0.10651600  0.62961100  0.40234100  1
  O  O64  1  0.87038900  0.39348400  0.09765900  1
  O  O65  1  0.77273000  0.87038900  0.97690500  1
  O  O66  1  0.39348400  0.79582500  0.52309500  1
  O  O67  1  0.70417500  0.09765900  0.72727000  1
  O  O68  1  0.79582500  0.52309500  0.39348400  1
  O  O69  1  0.97690500  0.77273000  0.87038900  1
  O  O70  1  0.09765900  0.72727000  0.70417500  1
  O  O71  1  0.97690500  0.70417500  0.10651600  1
  O  O72  1  0.77273000  0.40234100  0.79582500  1
  O  O73  1  0.40234100  0.79582500  0.77273000  1
  O  O74  1  0.72727000  0.52309500  0.62961100  1
  O  O75  1  0.09765900  0.87038900  0.39348400  1
  O  O76  1  0.39348400  0.09765900  0.87038900  1
  O  O77  1  0.10651600  0.97690500  0.70417500  1
  O  O78  1  0.52309500  0.62961100  0.72727000  1
  O  O79  1  0.20417500  0.47690500  0.60651600  1
