# generated using pymatgen
data_Al2Si3(NiO4)3
_symmetry_space_group_name_H-M   'P 1'
_cell_length_a   10.03682740
_cell_length_b   10.03682740
_cell_length_c   10.03682740
_cell_angle_alpha   109.47122063
_cell_angle_beta   109.47122063
_cell_angle_gamma   109.47122063
_symmetry_Int_Tables_number   1
_chemical_formula_structural   Al2Si3(NiO4)3
_chemical_formula_sum   'Al8 Si12 Ni12 O48'
_cell_volume   778.33664203
_cell_formula_units_Z   4
loop_
 _symmetry_equiv_pos_site_id
 _symmetry_equiv_pos_as_xyz
  1  'x, y, z'
loop_
 _atom_site_type_symbol
 _atom_site_label
 _atom_site_symmetry_multiplicity
 _atom_site_fract_x
 _atom_site_fract_y
 _atom_site_fract_z
 _atom_site_occupancy
  Al  Al0  1  0.00000000  0.00000000  0.50000000  1
  Al  Al1  1  0.00000000  0.00000000  0.00000000  1
  Al  Al2  1  0.50000000  0.00000000  0.00000000  1
  Al  Al3  1  0.00000000  0.50000000  0.00000000  1
  Al  Al4  1  0.50000000  0.50000000  0.00000000  1
  Al  Al5  1  0.00000000  0.50000000  0.50000000  1
  Al  Al6  1  0.50000000  0.00000000  0.50000000  1
  Al  Al7  1  0.50000000  0.50000000  0.50000000  1
  Si  Si8  1  0.12500000  0.87500000  0.25000000  1
  Si  Si9  1  0.25000000  0.12500000  0.87500000  1
  Si  Si10  1  0.75000000  0.37500000  0.62500000  1
  Si  Si11  1  0.62500000  0.37500000  0.25000000  1
  Si  Si12  1  0.62500000  0.75000000  0.37500000  1
  Si  Si13  1  0.37500000  0.62500000  0.75000000  1
  Si  Si14  1  0.12500000  0.75000000  0.87500000  1
  Si  Si15  1  0.75000000  0.87500000  0.12500000  1
  Si  Si16  1  0.87500000  0.25000000  0.12500000  1
  Si  Si17  1  0.37500000  0.25000000  0.62500000  1
  Si  Si18  1  0.25000000  0.62500000  0.37500000  1
  Si  Si19  1  0.87500000  0.12500000  0.75000000  1
  Ni  Ni20  1  0.87500000  0.62500000  0.25000000  1
  Ni  Ni21  1  0.62500000  0.25000000  0.87500000  1
  Ni  Ni22  1  0.87500000  0.75000000  0.62500000  1
  Ni  Ni23  1  0.75000000  0.62500000  0.87500000  1
  Ni  Ni24  1  0.25000000  0.87500000  0.62500000  1
  Ni  Ni25  1  0.62500000  0.87500000  0.75000000  1
  Ni  Ni26  1  0.12500000  0.37500000  0.75000000  1
  Ni  Ni27  1  0.37500000  0.75000000  0.12500000  1
  Ni  Ni28  1  0.12500000  0.25000000  0.37500000  1
  Ni  Ni29  1  0.25000000  0.37500000  0.12500000  1
  Ni  Ni30  1  0.75000000  0.12500000  0.37500000  1
  Ni  Ni31  1  0.37500000  0.12500000  0.25000000  1
  O  O32  1  0.48379100  0.37856400  0.29830100  1
  O  O33  1  0.31451000  0.89477300  0.01620900  1
  O  O34  1  0.60522700  0.91973700  0.12143600  1
  O  O35  1  0.58026300  0.18549000  0.20169900  1
  O  O36  1  0.12143600  0.01620900  0.20169900  1
  O  O37  1  0.18549000  0.20169900  0.58026300  1
  O  O38  1  0.18549000  0.48379100  0.60522700  1
  O  O39  1  0.20169900  0.58026300  0.18549000  1
  O  O40  1  0.37856400  0.58026300  0.89477300  1
  O  O41  1  0.91973700  0.29830100  0.31451000  1
  O  O42  1  0.29830100  0.31451000  0.91973700  1
  O  O43  1  0.20169900  0.12143600  0.01620900  1
  O  O44  1  0.48379100  0.60522700  0.18549000  1
  O  O45  1  0.89477300  0.37856400  0.58026300  1
  O  O46  1  0.01620900  0.20169900  0.12143600  1
  O  O47  1  0.60522700  0.18549000  0.48379100  1
  O  O48  1  0.58026300  0.89477300  0.37856400  1
  O  O49  1  0.01620900  0.31451000  0.89477300  1
  O  O50  1  0.91973700  0.12143600  0.60522700  1
  O  O51  1  0.62143600  0.41973700  0.10522700  1
  O  O52  1  0.37856400  0.29830100  0.48379100  1
  O  O53  1  0.29830100  0.48379100  0.37856400  1
  O  O54  1  0.89477300  0.01620900  0.31451000  1
  O  O55  1  0.31451000  0.91973700  0.29830100  1
  O  O56  1  0.51620900  0.62143600  0.70169900  1
  O  O57  1  0.68549000  0.10522700  0.98379100  1
  O  O58  1  0.39477300  0.08026300  0.87856400  1
  O  O59  1  0.41973700  0.81451000  0.79830100  1
  O  O60  1  0.87856400  0.98379100  0.79830100  1
  O  O61  1  0.81451000  0.79830100  0.41973700  1
  O  O62  1  0.81451000  0.51620900  0.39477300  1
  O  O63  1  0.79830100  0.41973700  0.81451000  1
  O  O64  1  0.68549000  0.08026300  0.70169900  1
  O  O65  1  0.10522700  0.98379100  0.68549000  1
  O  O66  1  0.70169900  0.51620900  0.62143600  1
  O  O67  1  0.62143600  0.70169900  0.51620900  1
  O  O68  1  0.87856400  0.39477300  0.08026300  1
  O  O69  1  0.08026300  0.87856400  0.39477300  1
  O  O70  1  0.98379100  0.68549000  0.10522700  1
  O  O71  1  0.41973700  0.10522700  0.62143600  1
  O  O72  1  0.39477300  0.81451000  0.51620900  1
  O  O73  1  0.98379100  0.79830100  0.87856400  1
  O  O74  1  0.10522700  0.62143600  0.41973700  1
  O  O75  1  0.51620900  0.39477300  0.81451000  1
  O  O76  1  0.79830100  0.87856400  0.98379100  1
  O  O77  1  0.70169900  0.68549000  0.08026300  1
  O  O78  1  0.08026300  0.70169900  0.68549000  1
  O  O79  1  0.12143600  0.60522700  0.91973700  1
