# generated using pymatgen
data_Mn3Co3(TeO6)2
_symmetry_space_group_name_H-M   'P 1'
_cell_length_a   6.21954906
_cell_length_b   6.25289804
_cell_length_c   6.23975807
_cell_angle_alpha   89.72077099
_cell_angle_beta   90.32724965
_cell_angle_gamma   89.86684410
_symmetry_Int_Tables_number   1
_chemical_formula_structural   Mn3Co3(TeO6)2
_chemical_formula_sum   'Mn3 Co3 Te2 O12'
_cell_volume   242.65796616
_cell_formula_units_Z   1
loop_
 _symmetry_equiv_pos_site_id
 _symmetry_equiv_pos_as_xyz
  1  'x, y, z'
loop_
 _atom_site_type_symbol
 _atom_site_label
 _atom_site_symmetry_multiplicity
 _atom_site_fract_x
 _atom_site_fract_y
 _atom_site_fract_z
 _atom_site_occupancy
  Mn  Mn0  1  0.56294000  0.25169900  0.04889400  1
  Mn  Mn1  1  0.04914300  0.43718900  0.74798200  1
  Mn  Mn2  1  0.74678300  0.95075300  0.56301300  1
  Co  Co3  1  0.25549100  0.05358600  0.43854000  1
  Co  Co4  1  0.43633900  0.74336400  0.94749100  1
  Co  Co5  1  0.94592500  0.56878400  0.25371000  1
  Te  Te6  1  0.49480000  0.50504100  0.49483600  1
  Te  Te7  1  0.00408700  0.99699500  0.00340200  1
  O  O8  1  0.79649600  0.57026500  0.55750800  1
  O  O9  1  0.55456200  0.20360200  0.43064700  1
  O  O10  1  0.42890600  0.44415600  0.79661900  1
  O  O11  1  0.19733200  0.42733200  0.42496400  1
  O  O12  1  0.42608600  0.80061900  0.57137400  1
  O  O13  1  0.57633800  0.57258800  0.19838700  1
  O  O14  1  0.05240200  0.08470100  0.70458500  1
  O  O15  1  0.70465600  0.94830500  0.91374500  1
  O  O16  1  0.91553700  0.29454300  0.05057400  1
  O  O17  1  0.95995900  0.91289700  0.30249200  1
  O  O18  1  0.30406500  0.03620500  0.08894600  1
  O  O19  1  0.08815300  0.69737500  0.96229100  1
