# generated using pymatgen
data_MgSiO4
_symmetry_space_group_name_H-M   'P 1'
_cell_length_a   2.83632300
_cell_length_b   4.49788100
_cell_length_c   4.62596539
_cell_angle_alpha   86.61131847
_cell_angle_beta   90.00000000
_cell_angle_gamma   90.00000000
_symmetry_Int_Tables_number   1
_chemical_formula_structural   MgSiO4
_chemical_formula_sum   'Mg1 Si1 O4'
_cell_volume   58.91230414
_cell_formula_units_Z   1
loop_
 _symmetry_equiv_pos_site_id
 _symmetry_equiv_pos_as_xyz
  1  'x, y, z'
loop_
 _atom_site_type_symbol
 _atom_site_label
 _atom_site_symmetry_multiplicity
 _atom_site_fract_x
 _atom_site_fract_y
 _atom_site_fract_z
 _atom_site_occupancy
  Mg  Mg0  1  0.50000000  0.50000000  0.50000000  1
  Si  Si1  1  0.00000000  0.00000000  0.00000000  1
  O  O2  1  0.50000000  0.19626300  0.16125200  1
  O  O3  1  0.50000000  0.80373700  0.83874800  1
  O  O4  1  0.00000000  0.25036100  0.71353500  1
  O  O5  1  0.00000000  0.74963900  0.28646500  1
