# generated using pymatgen
data_Mo3As2O15
_symmetry_space_group_name_H-M   'P 1'
_cell_length_a   7.59668881
_cell_length_b   7.59668881
_cell_length_c   13.13146820
_cell_angle_alpha   65.44413619
_cell_angle_beta   65.44413619
_cell_angle_gamma   61.65965952
_symmetry_Int_Tables_number   1
_chemical_formula_structural   Mo3As2O15
_chemical_formula_sum   'Mo6 As4 O30'
_cell_volume   583.66799117
_cell_formula_units_Z   2
loop_
 _symmetry_equiv_pos_site_id
 _symmetry_equiv_pos_as_xyz
  1  'x, y, z'
loop_
 _atom_site_type_symbol
 _atom_site_label
 _atom_site_symmetry_multiplicity
 _atom_site_fract_x
 _atom_site_fract_y
 _atom_site_fract_z
 _atom_site_occupancy
  Mo  Mo0  1  0.86475100  0.77758200  0.84875400  1
  Mo  Mo1  1  0.17109000  0.12335700  0.66673300  1
  Mo  Mo2  1  0.12335600  0.17109000  0.16673300  1
  Mo  Mo3  1  0.77758200  0.86475100  0.34875400  1
  Mo  Mo4  1  0.51389800  0.45997200  0.52598900  1
  Mo  Mo5  1  0.45997200  0.51389800  0.02598900  1
  As  As6  1  0.31216600  0.04275700  0.90372300  1
  As  As7  1  0.97261200  0.68878800  0.58635100  1
  As  As8  1  0.68878800  0.97261200  0.08635100  1
  As  As9  1  0.04275700  0.31216600  0.40372300  1
  O  O10  1  0.21976000  0.70145900  0.53245800  1
  O  O11  1  0.29888700  0.79636800  0.95007000  1
  O  O12  1  0.79636800  0.29888700  0.45007000  1
  O  O13  1  0.70145900  0.21976000  0.03245800  1
  O  O14  1  0.95696700  0.03414500  0.75309100  1
  O  O15  1  0.03414500  0.95696700  0.25309100  1
  O  O16  1  0.53152600  0.44644100  0.65458900  1
  O  O17  1  0.62615900  0.41388200  0.86275000  1
  O  O18  1  0.41388200  0.62615900  0.36275000  1
  O  O19  1  0.44644100  0.53152600  0.15458900  1
  O  O20  1  0.60664000  0.71591900  0.43321300  1
  O  O21  1  0.27720700  0.39750200  0.06294800  1
  O  O22  1  0.39750200  0.27720700  0.56294800  1
  O  O23  1  0.71591900  0.60664000  0.93321300  1
  O  O24  1  0.11267100  0.60114000  0.83262200  1
  O  O25  1  0.37816300  0.89359200  0.67509600  1
  O  O26  1  0.89359200  0.37816300  0.17509600  1
  O  O27  1  0.60114000  0.11267100  0.33262200  1
  O  O28  1  0.15917100  0.14368200  0.51397900  1
  O  O29  1  0.85844000  0.83592200  0.98503500  1
  O  O30  1  0.83592200  0.85844000  0.48503500  1
  O  O31  1  0.14368200  0.15917100  0.01397900  1
  O  O32  1  0.83670500  0.81111500  0.69654200  1
  O  O33  1  0.18531100  0.18865000  0.79597300  1
  O  O34  1  0.18865000  0.18531100  0.29597300  1
  O  O35  1  0.81111500  0.83670500  0.19654200  1
  O  O36  1  0.97025300  0.44645100  0.63128200  1
  O  O37  1  0.55551100  0.03819000  0.86380200  1
  O  O38  1  0.03819000  0.55551100  0.36380200  1
  O  O39  1  0.44645100  0.97025300  0.13128200  1
