# generated using pymatgen
data_Mn3Ge
_symmetry_space_group_name_H-M   'P 1'
_cell_length_a   8.20800128
_cell_length_b   8.20800128
_cell_length_c   8.20800131
_cell_angle_alpha   18.85723148
_cell_angle_beta   18.85723148
_cell_angle_gamma   18.85723305
_symmetry_Int_Tables_number   1
_chemical_formula_structural   Mn3Ge
_chemical_formula_sum   'Mn3 Ge1'
_cell_volume   50.47976317
_cell_formula_units_Z   1
loop_
 _symmetry_equiv_pos_site_id
 _symmetry_equiv_pos_as_xyz
  1  'x, y, z'
loop_
 _atom_site_type_symbol
 _atom_site_label
 _atom_site_symmetry_multiplicity
 _atom_site_fract_x
 _atom_site_fract_y
 _atom_site_fract_z
 _atom_site_occupancy
  Mn  Mn0  1  0.24728600  0.24728600  0.24728600  1
  Mn  Mn1  1  0.50000000  0.50000000  0.50000000  1
  Mn  Mn2  1  0.75271400  0.75271400  0.75271400  1
  Ge  Ge3  1  0.00000000  0.00000000  0.00000000  1
