# generated using pymatgen
data_Na2MgB12(H4O7)4
_symmetry_space_group_name_H-M   'P 1'
_cell_length_a   7.57122900
_cell_length_b   7.83543149
_cell_length_c   19.07274373
_cell_angle_alpha   97.96976195
_cell_angle_beta   90.00000000
_cell_angle_gamma   90.00000000
_symmetry_Int_Tables_number   1
_chemical_formula_structural   Na2MgB12(H4O7)4
_chemical_formula_sum   'Na4 Mg2 B24 H32 O56'
_cell_volume   1120.54008974
_cell_formula_units_Z   2
loop_
 _symmetry_equiv_pos_site_id
 _symmetry_equiv_pos_as_xyz
  1  'x, y, z'
loop_
 _atom_site_type_symbol
 _atom_site_label
 _atom_site_symmetry_multiplicity
 _atom_site_fract_x
 _atom_site_fract_y
 _atom_site_fract_z
 _atom_site_occupancy
  Na  Na0  1  0.17495700  0.29022000  0.66320000  1
  Na  Na1  1  0.67495700  0.70978000  0.83680000  1
  Na  Na2  1  0.82504300  0.70978000  0.33680000  1
  Na  Na3  1  0.32504300  0.29022000  0.16320000  1
  Mg  Mg4  1  0.50000000  0.00000000  0.50000000  1
  Mg  Mg5  1  0.00000000  0.00000000  0.00000000  1
  B  B6  1  0.45791200  0.25440100  0.97339000  1
  B  B7  1  0.95791200  0.74559900  0.52661000  1
  B  B8  1  0.54208800  0.74559900  0.02661000  1
  B  B9  1  0.04208800  0.25440100  0.47339000  1
  B  B10  1  0.34419400  0.98660400  0.75719800  1
  B  B11  1  0.84419400  0.01339600  0.74280200  1
  B  B12  1  0.65580600  0.01339600  0.24280200  1
  B  B13  1  0.15580600  0.98660400  0.25719800  1
  B  B14  1  0.30546300  0.02890500  0.88788700  1
  B  B15  1  0.80546300  0.97109500  0.61211300  1
  B  B16  1  0.69453700  0.97109500  0.11211300  1
  B  B17  1  0.19453700  0.02890500  0.38788700  1
  B  B18  1  0.15540600  0.32481400  0.93496200  1
  B  B19  1  0.65540600  0.67518600  0.56503800  1
  B  B20  1  0.84459400  0.67518600  0.06503800  1
  B  B21  1  0.34459400  0.32481400  0.43496200  1
  B  B22  1  0.09740200  0.18199000  0.80208800  1
  B  B23  1  0.59740200  0.81801000  0.69791200  1
  B  B24  1  0.90259800  0.81801000  0.19791200  1
  B  B25  1  0.40259800  0.18199000  0.30208800  1
  B  B26  1  0.05222700  0.49565300  0.84076100  1
  B  B27  1  0.55222700  0.50434700  0.65923900  1
  B  B28  1  0.94777300  0.50434700  0.15923900  1
  B  B29  1  0.44777300  0.49565300  0.34076100  1
  H  H30  1  0.26662300  0.82941500  0.94455500  1
  H  H31  1  0.76662300  0.17058500  0.55544500  1
  H  H32  1  0.73337700  0.17058500  0.05544500  1
  H  H33  1  0.23337700  0.82941500  0.44455500  1
  H  H34  1  0.34698100  0.98430600  0.62323400  1
  H  H35  1  0.84698100  0.01569400  0.87676600  1
  H  H36  1  0.65301900  0.01569400  0.37676600  1
  H  H37  1  0.15301900  0.98430600  0.12323400  1
  H  H38  1  0.01269200  0.65387300  0.98061300  1
  H  H39  1  0.51269200  0.34612700  0.51938700  1
  H  H40  1  0.98730800  0.34612700  0.01938700  1
  H  H41  1  0.48730800  0.65387300  0.48061300  1
  H  H42  1  0.05492200  0.75080100  0.85586700  1
  H  H43  1  0.55492200  0.24919900  0.64413300  1
  H  H44  1  0.94507800  0.24919900  0.14413300  1
  H  H45  1  0.44507800  0.75080100  0.35586700  1
  H  H46  1  0.17948000  0.98299700  0.57301200  1
  H  H47  1  0.67948000  0.01700300  0.92698800  1
  H  H48  1  0.82052000  0.01700300  0.42698800  1
  H  H49  1  0.32052000  0.98299700  0.07301200  1
  H  H50  1  0.97807100  0.59550000  0.67297800  1
  H  H51  1  0.47807100  0.40450000  0.82702200  1
  H  H52  1  0.02192900  0.40450000  0.32702200  1
  H  H53  1  0.52192900  0.59550000  0.17297800  1
  H  H54  1  0.37546100  0.57681600  0.97201300  1
  H  H55  1  0.87546100  0.42318400  0.52798700  1
  H  H56  1  0.62453900  0.42318400  0.02798700  1
  H  H57  1  0.12453900  0.57681600  0.47201300  1
  H  H58  1  0.16471200  0.66956100  0.68400900  1
  H  H59  1  0.66471200  0.33043900  0.81599100  1
  H  H60  1  0.83528800  0.33043900  0.31599100  1
  H  H61  1  0.33528800  0.66956100  0.18400900  1
  O  O62  1  0.45121900  0.09285400  0.93552600  1
  O  O63  1  0.95121900  0.90714600  0.56447400  1
  O  O64  1  0.54878100  0.90714600  0.06447400  1
  O  O65  1  0.04878100  0.09285400  0.43552600  1
  O  O66  1  0.03224300  0.25502900  0.98274800  1
  O  O67  1  0.53224300  0.74497100  0.51725200  1
  O  O68  1  0.96775700  0.74497100  0.01725200  1
  O  O69  1  0.46775700  0.25502900  0.48274800  1
  O  O70  1  0.19010200  0.18333200  0.87343500  1
  O  O71  1  0.69010200  0.81666800  0.62656500  1
  O  O72  1  0.80989800  0.81666800  0.12656500  1
  O  O73  1  0.30989800  0.18333200  0.37343500  1
  O  O74  1  0.18932500  0.91308200  0.92287500  1
  O  O75  1  0.68932500  0.08691800  0.57712500  1
  O  O76  1  0.81067500  0.08691800  0.07712500  1
  O  O77  1  0.31067500  0.91308200  0.42287500  1
  O  O78  1  0.29775900  0.03644000  0.58210100  1
  O  O79  1  0.79775900  0.96356000  0.91789900  1
  O  O80  1  0.70224100  0.96356000  0.41789900  1
  O  O81  1  0.20224100  0.03644000  0.08210100  1
  O  O82  1  0.43253200  0.91601800  0.69661300  1
  O  O83  1  0.93253200  0.08398200  0.80338700  1
  O  O84  1  0.56746800  0.08398200  0.30338700  1
  O  O85  1  0.06746800  0.91601800  0.19661300  1
  O  O86  1  0.05954400  0.35800500  0.78853300  1
  O  O87  1  0.55954400  0.64199500  0.71146700  1
  O  O88  1  0.94045600  0.64199500  0.21146700  1
  O  O89  1  0.44045600  0.35800500  0.28853300  1
  O  O90  1  0.08551100  0.48057100  0.91036900  1
  O  O91  1  0.58551100  0.51942800  0.58963100  1
  O  O92  1  0.91448900  0.51942800  0.08963100  1
  O  O93  1  0.41448900  0.48057100  0.41036900  1
  O  O94  1  0.37898600  0.94028100  0.82250000  1
  O  O95  1  0.87898600  0.05971900  0.67750000  1
  O  O96  1  0.62101400  0.05971900  0.17750000  1
  O  O97  1  0.12101400  0.94028100  0.32250000  1
  O  O98  1  0.21689400  0.10530800  0.74729900  1
  O  O99  1  0.71689400  0.89469200  0.75270100  1
  O  O100  1  0.78310600  0.89469200  0.25270100  1
  O  O101  1  0.28310600  0.10530800  0.24729900  1
  O  O102  1  0.09681200  0.58294800  0.65329100  1
  O  O103  1  0.59681200  0.41705200  0.84670900  1
  O  O104  1  0.90318800  0.41705200  0.34670900  1
  O  O105  1  0.40318800  0.58294800  0.15329100  1
  O  O106  1  0.32548300  0.37319400  0.96983500  1
  O  O107  1  0.82548300  0.62680600  0.53016500  1
  O  O108  1  0.67451700  0.62680600  0.03016500  1
  O  O109  1  0.17451700  0.37319400  0.46983500  1
  O  O110  1  0.00789700  0.65496000  0.82151700  1
  O  O111  1  0.50789700  0.34504000  0.67848300  1
  O  O112  1  0.99210300  0.34504000  0.17848300  1
  O  O113  1  0.49210300  0.65496000  0.32151700  1
  O  O114  1  0.40013500  0.70389100  0.98184900  1
  O  O115  1  0.90013500  0.29610900  0.51815100  1
  O  O116  1  0.59986500  0.29610900  0.01815100  1
  O  O117  1  0.09986500  0.70389100  0.48184900  1
