# generated using pymatgen
data_MgTi11O20
_symmetry_space_group_name_H-M   'P 1'
_cell_length_a   10.76254421
_cell_length_b   10.76254421
_cell_length_c   5.29577534
_cell_angle_alpha   82.67304726
_cell_angle_beta   82.67304726
_cell_angle_gamma   138.53219685
_symmetry_Int_Tables_number   1
_chemical_formula_structural   MgTi11O20
_chemical_formula_sum   'Mg1 Ti11 O20'
_cell_volume   378.93641175
_cell_formula_units_Z   1
loop_
 _symmetry_equiv_pos_site_id
 _symmetry_equiv_pos_as_xyz
  1  'x, y, z'
loop_
 _atom_site_type_symbol
 _atom_site_label
 _atom_site_symmetry_multiplicity
 _atom_site_fract_x
 _atom_site_fract_y
 _atom_site_fract_z
 _atom_site_occupancy
  Mg  Mg0  1  0.47414900  0.47414900  0.60992500  1
  Ti  Ti1  1  0.21591900  0.40250900  0.26793100  1
  Ti  Ti2  1  0.71082600  0.90188500  0.26887100  1
  Ti  Ti3  1  0.78764300  0.09514800  0.73531100  1
  Ti  Ti4  1  0.28794400  0.59787400  0.73046600  1
  Ti  Ti5  1  0.40250900  0.21591900  0.26793100  1
  Ti  Ti6  1  0.90188500  0.71082600  0.26887100  1
  Ti  Ti7  1  0.59787400  0.28794400  0.73046600  1
  Ti  Ti8  1  0.09514800  0.78764300  0.73531100  1
  Ti  Ti9  1  0.97129500  0.97129500  0.60654200  1
  Ti  Ti10  1  0.52762900  0.02633600  0.38922700  1
  Ti  Ti11  1  0.02633600  0.52762900  0.38922700  1
  O  O12  1  0.25266500  0.25266500  0.45703300  1
  O  O13  1  0.76838500  0.76838500  0.45895600  1
  O  O14  1  0.74139300  0.24180200  0.53235800  1
  O  O15  1  0.24180200  0.74139400  0.53235800  1
  O  O16  1  0.16641000  0.53514400  0.09735900  1
  O  O17  1  0.66489200  0.03717700  0.09641000  1
  O  O18  1  0.83574800  0.96416300  0.89969900  1
  O  O19  1  0.32866900  0.46606200  0.91065200  1
  O  O20  1  0.03717700  0.66489200  0.09641000  1
  O  O21  1  0.53514400  0.16641000  0.09735900  1
  O  O22  1  0.96416300  0.83574800  0.89969900  1
  O  O23  1  0.46606200  0.32866900  0.91065200  1
  O  O24  1  0.05768200  0.37829300  0.62492500  1
  O  O25  1  0.55790100  0.87784200  0.63415700  1
  O  O26  1  0.94032900  0.12364200  0.37131100  1
  O  O27  1  0.43984800  0.62279400  0.37509600  1
  O  O28  1  0.87784200  0.55790100  0.63415700  1
  O  O29  1  0.37829300  0.05768200  0.62492500  1
  O  O30  1  0.12364200  0.94032900  0.37131100  1
  O  O31  1  0.62279400  0.43984800  0.37509600  1
