# generated using pymatgen
data_Mn2CrSe3
_symmetry_space_group_name_H-M   'P 1'
_cell_length_a   6.54500704
_cell_length_b   6.54500704
_cell_length_c   6.54500704
_cell_angle_alpha   146.19893693
_cell_angle_beta   131.12545992
_cell_angle_gamma   60.74586673
_symmetry_Int_Tables_number   1
_chemical_formula_structural   Mn2CrSe3
_chemical_formula_sum   'Mn2 Cr1 Se3'
_cell_volume   116.36444179
_cell_formula_units_Z   1
loop_
 _symmetry_equiv_pos_site_id
 _symmetry_equiv_pos_as_xyz
  1  'x, y, z'
loop_
 _atom_site_type_symbol
 _atom_site_label
 _atom_site_symmetry_multiplicity
 _atom_site_fract_x
 _atom_site_fract_y
 _atom_site_fract_z
 _atom_site_occupancy
  Mn  Mn0  1  0.66681300  0.66681300  0.00000000  1
  Mn  Mn1  1  0.33318700  0.33318700  0.00000000  1
  Cr  Cr2  1  0.00000000  0.00000000  0.00000000  1
  Se  Se3  1  0.83757600  0.33757600  0.50000000  1
  Se  Se4  1  0.50000000  0.00000000  0.50000000  1
  Se  Se5  1  0.16242400  0.66242400  0.50000000  1
