# generated using pymatgen
data_MgScBO4
_symmetry_space_group_name_H-M   'P 1'
_cell_length_a   3.26244100
_cell_length_b   9.52631100
_cell_length_c   9.54241400
_cell_angle_alpha   90.00000000
_cell_angle_beta   90.00000000
_cell_angle_gamma   90.00000000
_symmetry_Int_Tables_number   1
_chemical_formula_structural   MgScBO4
_chemical_formula_sum   'Mg4 Sc4 B4 O16'
_cell_volume   296.56894793
_cell_formula_units_Z   4
loop_
 _symmetry_equiv_pos_site_id
 _symmetry_equiv_pos_as_xyz
  1  'x, y, z'
loop_
 _atom_site_type_symbol
 _atom_site_label
 _atom_site_symmetry_multiplicity
 _atom_site_fract_x
 _atom_site_fract_y
 _atom_site_fract_z
 _atom_site_occupancy
  Mg  Mg0  1  0.50000000  0.44178500  0.09797300  1
  Mg  Mg1  1  0.50000000  0.55821500  0.59797300  1
  Mg  Mg2  1  0.50000000  0.81869800  0.11889800  1
  Mg  Mg3  1  0.50000000  0.18130200  0.61889800  1
  Sc  Sc4  1  0.00000000  0.05667600  0.90285200  1
  Sc  Sc5  1  0.00000000  0.94332400  0.40285200  1
  Sc  Sc6  1  0.00000000  0.66747500  0.89160800  1
  Sc  Sc7  1  0.00000000  0.33252500  0.39160800  1
  B  B8  1  0.50000000  0.12812500  0.17473900  1
  B  B9  1  0.50000000  0.87187500  0.67473900  1
  B  B10  1  0.00000000  0.37392800  0.82614100  1
  B  B11  1  0.00000000  0.62607200  0.32614100  1
  O  O12  1  0.50000000  0.36565700  0.51014100  1
  O  O13  1  0.50000000  0.63434300  0.01014100  1
  O  O14  1  0.00000000  0.13204000  0.48621000  1
  O  O15  1  0.00000000  0.86796000  0.98621000  1
  O  O16  1  0.50000000  0.25913200  0.23416300  1
  O  O17  1  0.50000000  0.74086800  0.73416300  1
  O  O18  1  0.00000000  0.24096000  0.76310500  1
  O  O19  1  0.00000000  0.75904000  0.26310500  1
  O  O20  1  0.50000000  0.11500500  0.02927400  1
  O  O21  1  0.50000000  0.88499500  0.52927400  1
  O  O22  1  0.00000000  0.38976500  0.96949600  1
  O  O23  1  0.00000000  0.61023500  0.46949600  1
  O  O24  1  0.50000000  0.00271400  0.25266000  1
  O  O25  1  0.50000000  0.99728600  0.75266000  1
  O  O26  1  0.00000000  0.49560600  0.74273900  1
  O  O27  1  0.00000000  0.50439400  0.24273900  1
