# generated using pymatgen
data_Mn3Ag(PO4)3
_symmetry_space_group_name_H-M   'P 1'
_cell_length_a   6.81662826
_cell_length_b   8.65749314
_cell_length_c   8.65749314
_cell_angle_alpha   92.07472916
_cell_angle_beta   108.09391166
_cell_angle_gamma   108.09391166
_symmetry_Int_Tables_number   1
_chemical_formula_structural   Mn3Ag(PO4)3
_chemical_formula_sum   'Mn6 Ag2 P6 O24'
_cell_volume   456.63640298
_cell_formula_units_Z   2
loop_
 _symmetry_equiv_pos_site_id
 _symmetry_equiv_pos_as_xyz
  1  'x, y, z'
loop_
 _atom_site_type_symbol
 _atom_site_label
 _atom_site_symmetry_multiplicity
 _atom_site_fract_x
 _atom_site_fract_y
 _atom_site_fract_z
 _atom_site_occupancy
  Mn  Mn0  1  0.25000000  0.28249600  0.71750400  1
  Mn  Mn1  1  0.75000000  0.71750400  0.28249600  1
  Mn  Mn2  1  0.12799600  0.37821800  0.05955600  1
  Mn  Mn3  1  0.37200400  0.94044400  0.62178200  1
  Mn  Mn4  1  0.87200400  0.62178200  0.94044400  1
  Mn  Mn5  1  0.62799600  0.05955600  0.37821800  1
  Ag  Ag6  1  0.75000000  0.01452200  0.98547800  1
  Ag  Ag7  1  0.25000000  0.98547800  0.01452200  1
  P  P8  1  0.38623100  0.65556300  0.88803600  1
  P  P9  1  0.11376900  0.11196400  0.34443700  1
  P  P10  1  0.61376900  0.34443700  0.11196400  1
  P  P11  1  0.88623100  0.88803600  0.65556300  1
  P  P12  1  0.25000000  0.69556300  0.30443700  1
  P  P13  1  0.75000000  0.30443700  0.69556300  1
  O  O14  1  0.24227000  0.51719400  0.27324600  1
  O  O15  1  0.25773000  0.72675400  0.48280600  1
  O  O16  1  0.75773000  0.48280600  0.72675400  1
  O  O17  1  0.74227000  0.27324600  0.51719400  1
  O  O18  1  0.15212200  0.25576500  0.47054800  1
  O  O19  1  0.34787800  0.52945200  0.74423500  1
  O  O20  1  0.84787800  0.74423500  0.52945200  1
  O  O21  1  0.65212200  0.47054800  0.25576500  1
  O  O22  1  0.96070300  0.27451300  0.81199600  1
  O  O23  1  0.53929700  0.18800400  0.72548700  1
  O  O24  1  0.03929700  0.72548700  0.18800400  1
  O  O25  1  0.46070300  0.81199600  0.27451300  1
  O  O26  1  0.38320100  0.31656700  0.97793800  1
  O  O27  1  0.11679900  0.02206200  0.68343300  1
  O  O28  1  0.61679900  0.68343300  0.02206200  1
  O  O29  1  0.88320100  0.97793800  0.31656700  1
  O  O30  1  0.10550400  0.16534100  0.17156600  1
  O  O31  1  0.39449600  0.82843400  0.83465900  1
  O  O32  1  0.89449600  0.83465900  0.82843400  1
  O  O33  1  0.60550400  0.17156600  0.16534100  1
  O  O34  1  0.20110300  0.60118200  0.96514500  1
  O  O35  1  0.29889700  0.03485500  0.39881800  1
  O  O36  1  0.79889700  0.39881800  0.03485500  1
  O  O37  1  0.70110300  0.96514500  0.60118200  1
