# generated using pymatgen
data_Mn3Zn(IO3)8
_symmetry_space_group_name_H-M   'P 1'
_cell_length_a   5.30978200
_cell_length_b   11.22360150
_cell_length_c   11.25580145
_cell_angle_alpha   119.52723071
_cell_angle_beta   89.97497592
_cell_angle_gamma   90.08552815
_symmetry_Int_Tables_number   1
_chemical_formula_structural   Mn3Zn(IO3)8
_chemical_formula_sum   'Mn3 Zn1 I8 O24'
_cell_volume   583.66651188
_cell_formula_units_Z   1
loop_
 _symmetry_equiv_pos_site_id
 _symmetry_equiv_pos_as_xyz
  1  'x, y, z'
loop_
 _atom_site_type_symbol
 _atom_site_label
 _atom_site_symmetry_multiplicity
 _atom_site_fract_x
 _atom_site_fract_y
 _atom_site_fract_z
 _atom_site_occupancy
  Mn  Mn0  1  0.65173200  0.23929600  0.49315300  1
  Mn  Mn1  1  0.14911900  0.26002000  0.00378600  1
  Mn  Mn2  1  0.64747800  0.73995500  0.99632600  1
  Zn  Zn3  1  0.15963600  0.76026100  0.50704600  1
  I  I4  1  0.23514300  0.41996100  0.34895000  1
  I  I5  1  0.73966500  0.58434300  0.65163800  1
  I  I6  1  0.22523500  0.91254400  0.84579600  1
  I  I7  1  0.72669400  0.08654100  0.15141600  1
  I  I8  1  0.74749400  0.08030100  0.68187100  1
  I  I9  1  0.24188000  0.91431400  0.31785100  1
  I  I10  1  0.24703000  0.41697500  0.81451600  1
  I  I11  1  0.74859100  0.58440900  0.18775800  1
  O  O12  1  0.42432800  0.87979500  0.96019000  1
  O  O13  1  0.92419600  0.11876000  0.03636800  1
  O  O14  1  0.38372500  0.80191500  0.68123600  1
  O  O15  1  0.88655200  0.19745600  0.31483400  1
  O  O16  1  0.38651500  0.30724800  0.18343900  1
  O  O17  1  0.88783100  0.69645200  0.81824500  1
  O  O18  1  0.91889300  0.22104200  0.82347800  1
  O  O19  1  0.41833400  0.77675900  0.17637900  1
  O  O20  1  0.94149500  0.93359200  0.65668800  1
  O  O21  1  0.43523100  0.06151000  0.34390600  1
  O  O22  1  0.37389400  0.07594900  0.88433400  1
  O  O23  1  0.87323400  0.92357800  0.11485500  1
  O  O24  1  0.42444700  0.28016700  0.67296200  1
  O  O25  1  0.92888600  0.72102900  0.32912200  1
  O  O26  1  0.36503800  0.39429100  0.95545200  1
  O  O27  1  0.86500200  0.60677900  0.04626800  1
  O  O28  1  0.43405900  0.56603100  0.84026100  1
  O  O29  1  0.93369800  0.43422400  0.15999500  1
  O  O30  1  0.37717000  0.58416200  0.38313200  1
  O  O31  1  0.88176000  0.42126100  0.61845900  1
  O  O32  1  0.44976400  0.38761800  0.45841600  1
  O  O33  1  0.95408800  0.61606800  0.54114600  1
  O  O34  1  0.86329200  0.10398000  0.54126600  1
  O  O35  1  0.35847100  0.89141500  0.45945900  1
