# generated using pymatgen
data_MgZn3O4
_symmetry_space_group_name_H-M   'P 1'
_cell_length_a   6.20954458
_cell_length_b   6.20954458
_cell_length_c   5.68951870
_cell_angle_alpha   62.73422117
_cell_angle_beta   62.73422117
_cell_angle_gamma   30.75183257
_symmetry_Int_Tables_number   1
_chemical_formula_structural   MgZn3O4
_chemical_formula_sum   'Mg1 Zn3 O4'
_cell_volume   98.70307397
_cell_formula_units_Z   1
loop_
 _symmetry_equiv_pos_site_id
 _symmetry_equiv_pos_as_xyz
  1  'x, y, z'
loop_
 _atom_site_type_symbol
 _atom_site_label
 _atom_site_symmetry_multiplicity
 _atom_site_fract_x
 _atom_site_fract_y
 _atom_site_fract_z
 _atom_site_occupancy
  Mg  Mg0  1  0.74915900  0.74915900  0.58207300  1
  Zn  Zn1  1  0.24869900  0.24869900  0.08634300  1
  Zn  Zn2  1  0.50067200  0.50067200  0.16787700  1
  Zn  Zn3  1  0.00107600  0.00107600  0.66393100  1
  O  O4  1  0.93871300  0.93871300  0.39460300  1
  O  O5  1  0.44084500  0.44084500  0.89239200  1
  O  O6  1  0.19167800  0.19167800  0.47773700  1
  O  O7  1  0.69119800  0.69119800  0.97304600  1
