# generated using pymatgen
data_MgSc2O4
_symmetry_space_group_name_H-M   'P 1'
_cell_length_a   3.07576600
_cell_length_b   9.32858500
_cell_length_c   10.89993200
_cell_angle_alpha   90.00000000
_cell_angle_beta   90.00000000
_cell_angle_gamma   90.00000000
_symmetry_Int_Tables_number   1
_chemical_formula_structural   MgSc2O4
_chemical_formula_sum   'Mg4 Sc8 O16'
_cell_volume   312.74678473
_cell_formula_units_Z   4
loop_
 _symmetry_equiv_pos_site_id
 _symmetry_equiv_pos_as_xyz
  1  'x, y, z'
loop_
 _atom_site_type_symbol
 _atom_site_label
 _atom_site_symmetry_multiplicity
 _atom_site_fract_x
 _atom_site_fract_y
 _atom_site_fract_z
 _atom_site_occupancy
  Mg  Mg0  1  0.75000000  0.74308500  0.14584500  1
  Mg  Mg1  1  0.75000000  0.24308500  0.35415500  1
  Mg  Mg2  1  0.25000000  0.25691500  0.85415500  1
  Mg  Mg3  1  0.25000000  0.75691500  0.64584500  1
  Sc  Sc4  1  0.75000000  0.08469900  0.60748200  1
  Sc  Sc5  1  0.75000000  0.58469900  0.89251800  1
  Sc  Sc6  1  0.25000000  0.91530100  0.39251800  1
  Sc  Sc7  1  0.25000000  0.41530100  0.10748200  1
  Sc  Sc8  1  0.75000000  0.06950200  0.11719500  1
  Sc  Sc9  1  0.75000000  0.56950200  0.38280500  1
  Sc  Sc10  1  0.25000000  0.93049800  0.88280500  1
  Sc  Sc11  1  0.25000000  0.43049800  0.61719500  1
  O  O12  1  0.75000000  0.29211900  0.68710100  1
  O  O13  1  0.75000000  0.79211900  0.81289900  1
  O  O14  1  0.25000000  0.70788100  0.31289900  1
  O  O15  1  0.25000000  0.20788100  0.18710100  1
  O  O16  1  0.75000000  0.36773400  0.96945500  1
  O  O17  1  0.75000000  0.86773400  0.53054500  1
  O  O18  1  0.25000000  0.63226600  0.03054500  1
  O  O19  1  0.25000000  0.13226600  0.46945500  1
  O  O20  1  0.75000000  0.97655000  0.28641700  1
  O  O21  1  0.75000000  0.47655000  0.21358300  1
  O  O22  1  0.25000000  0.02345000  0.71358300  1
  O  O23  1  0.25000000  0.52345000  0.78641700  1
  O  O24  1  0.75000000  0.08667600  0.92226500  1
  O  O25  1  0.75000000  0.58667600  0.57773500  1
  O  O26  1  0.25000000  0.91332400  0.07773500  1
  O  O27  1  0.25000000  0.41332400  0.42226500  1
