# generated using pymatgen
data_Mn2FeAg2(PO4)3
_symmetry_space_group_name_H-M   'P 1'
_cell_length_a   8.92901322
_cell_length_b   8.92901322
_cell_length_c   6.60101757
_cell_angle_alpha   73.35174823
_cell_angle_beta   73.35174823
_cell_angle_gamma   92.80117007
_symmetry_Int_Tables_number   1
_chemical_formula_structural   Mn2FeAg2(PO4)3
_chemical_formula_sum   'Mn4 Fe2 Ag4 P6 O24'
_cell_volume   478.14318251
_cell_formula_units_Z   2
loop_
 _symmetry_equiv_pos_site_id
 _symmetry_equiv_pos_as_xyz
  1  'x, y, z'
loop_
 _atom_site_type_symbol
 _atom_site_label
 _atom_site_symmetry_multiplicity
 _atom_site_fract_x
 _atom_site_fract_y
 _atom_site_fract_z
 _atom_site_occupancy
  Mn  Mn0  1  0.26602200  0.73397800  0.50000000  1
  Mn  Mn1  1  0.73100400  0.26899600  0.00000000  1
  Mn  Mn2  1  0.37358700  0.06597300  0.61340900  1
  Mn  Mn3  1  0.93402700  0.62641300  0.38659100  1
  Fe  Fe4  1  0.61920500  0.93603300  0.88113200  1
  Fe  Fe5  1  0.06396700  0.38079500  0.11886800  1
  Ag  Ag6  1  0.49970900  0.50004000  0.25130600  1
  Ag  Ag7  1  0.49996000  0.50029100  0.74869400  1
  Ag  Ag8  1  0.99213900  0.00786100  0.50000000  1
  Ag  Ag9  1  0.01181200  0.98818800  0.00000000  1
  P  P10  1  0.65288100  0.87531100  0.37638800  1
  P  P11  1  0.12468900  0.34711900  0.62361200  1
  P  P12  1  0.34787400  0.12760600  0.12119000  1
  P  P13  1  0.87239400  0.65212600  0.87881000  1
  P  P14  1  0.71669800  0.28330200  0.50000000  1
  P  P15  1  0.28634300  0.71365700  0.00000000  1
  O  O16  1  0.60526600  0.95085500  0.56739900  1
  O  O17  1  0.04914500  0.39473400  0.43260100  1
  O  O18  1  0.40547600  0.04802500  0.93569400  1
  O  O19  1  0.95197500  0.59452400  0.06430600  1
  O  O20  1  0.31848600  0.99908700  0.35076500  1
  O  O21  1  0.00091300  0.68151400  0.64923500  1
  O  O22  1  0.66098100  0.99842800  0.14560100  1
  O  O23  1  0.00157200  0.33901900  0.85439900  1
  O  O24  1  0.25821900  0.82086100  0.78775300  1
  O  O25  1  0.17913900  0.74178100  0.21224700  1
  O  O26  1  0.73774000  0.16181300  0.71501800  1
  O  O27  1  0.83818700  0.26226000  0.28498200  1
  O  O28  1  0.26683600  0.47210600  0.57318000  1
  O  O29  1  0.52789400  0.73316400  0.42682000  1
  O  O30  1  0.73392200  0.52552300  0.92070000  1
  O  O31  1  0.47447700  0.26607800  0.07930000  1
  O  O32  1  0.16520800  0.17651700  0.64754800  1
  O  O33  1  0.82348300  0.83479200  0.35245200  1
  O  O34  1  0.81197700  0.81625700  0.87623500  1
  O  O35  1  0.18374300  0.18802300  0.12376500  1
  O  O36  1  0.55198000  0.25842600  0.47748000  1
  O  O37  1  0.74157400  0.44802000  0.52252000  1
  O  O38  1  0.46203000  0.74253400  0.99606400  1
  O  O39  1  0.25746600  0.53797000  0.00393600  1
