# generated using pymatgen
data_MgMn2O3
_symmetry_space_group_name_H-M   'P 1'
_cell_length_a   3.12325388
_cell_length_b   5.38045750
_cell_length_c   7.68465876
_cell_angle_alpha   89.86318900
_cell_angle_beta   90.00003698
_cell_angle_gamma   89.99996999
_symmetry_Int_Tables_number   1
_chemical_formula_structural   MgMn2O3
_chemical_formula_sum   'Mg2 Mn4 O6'
_cell_volume   129.13674735
_cell_formula_units_Z   2
loop_
 _symmetry_equiv_pos_site_id
 _symmetry_equiv_pos_as_xyz
  1  'x, y, z'
loop_
 _atom_site_type_symbol
 _atom_site_label
 _atom_site_symmetry_multiplicity
 _atom_site_fract_x
 _atom_site_fract_y
 _atom_site_fract_z
 _atom_site_occupancy
  Mg  Mg0  1  0.00000000  0.00000200  0.00000100  1
  Mg  Mg1  1  0.50000000  0.49999700  0.99999800  1
  Mn  Mn2  1  0.00000000  0.66626900  0.32870400  1
  Mn  Mn3  1  0.50000000  0.83373500  0.67129700  1
  Mn  Mn4  1  0.50000000  0.16628300  0.32872200  1
  Mn  Mn5  1  0.99999900  0.33371900  0.67127900  1
  O  O6  1  0.00000000  0.99999600  0.50000000  1
  O  O7  1  0.50000000  0.50000300  0.49999900  1
  O  O8  1  0.50000100  0.16674800  0.84534600  1
  O  O9  1  0.00000100  0.66675100  0.84534400  1
  O  O10  1  0.00000000  0.33325200  0.15465400  1
  O  O11  1  0.50000000  0.83324800  0.15465600  1
