# generated using pymatgen
data_Mg3Fe(SiO4)2
_symmetry_space_group_name_H-M   'P 1'
_cell_length_a   4.80516400
_cell_length_b   6.09809800
_cell_length_c   10.42541800
_cell_angle_alpha   90.00000000
_cell_angle_beta   90.00000000
_cell_angle_gamma   90.00000000
_symmetry_Int_Tables_number   1
_chemical_formula_structural   Mg3Fe(SiO4)2
_chemical_formula_sum   'Mg6 Fe2 Si4 O16'
_cell_volume   305.48936158
_cell_formula_units_Z   2
loop_
 _symmetry_equiv_pos_site_id
 _symmetry_equiv_pos_as_xyz
  1  'x, y, z'
loop_
 _atom_site_type_symbol
 _atom_site_label
 _atom_site_symmetry_multiplicity
 _atom_site_fract_x
 _atom_site_fract_y
 _atom_site_fract_z
 _atom_site_occupancy
  Mg  Mg0  1  0.25662300  0.00000000  0.22233500  1
  Mg  Mg1  1  0.74337700  0.00000000  0.72233500  1
  Mg  Mg2  1  0.24985700  0.74976800  0.50006900  1
  Mg  Mg3  1  0.75014300  0.25023200  0.00006900  1
  Mg  Mg4  1  0.24985700  0.25023200  0.50006900  1
  Mg  Mg5  1  0.75014300  0.74976800  0.00006900  1
  Fe  Fe6  1  0.23561000  0.50000000  0.77856000  1
  Fe  Fe7  1  0.76439000  0.50000000  0.27856000  1
  Si  Si8  1  0.67509000  0.50000000  0.59526000  1
  Si  Si9  1  0.32491000  0.50000000  0.09526000  1
  Si  Si10  1  0.82204800  0.00000000  0.40704200  1
  Si  Si11  1  0.17795200  0.00000000  0.90704200  1
  O  O12  1  0.53148500  0.71924100  0.66214300  1
  O  O13  1  0.46851500  0.28075900  0.16214300  1
  O  O14  1  0.97304900  0.21292500  0.33678300  1
  O  O15  1  0.02695100  0.78707500  0.83678300  1
  O  O16  1  0.97304900  0.78707500  0.33678300  1
  O  O17  1  0.02695100  0.21292500  0.83678300  1
  O  O18  1  0.53148500  0.28075900  0.66214300  1
  O  O19  1  0.46851500  0.71924100  0.16214300  1
  O  O20  1  0.01489800  0.50000000  0.58785000  1
  O  O21  1  0.98510200  0.50000000  0.08785000  1
  O  O22  1  0.48234600  0.00000000  0.40820800  1
  O  O23  1  0.51765400  0.00000000  0.90820800  1
  O  O24  1  0.47664100  0.50000000  0.95062100  1
  O  O25  1  0.52335900  0.50000000  0.45062100  1
  O  O26  1  0.02850800  0.00000000  0.05213400  1
  O  O27  1  0.97149200  0.00000000  0.55213400  1
