# generated using pymatgen
data_Mg5MnSb4
_symmetry_space_group_name_H-M   'P 1'
_cell_length_a   4.56806496
_cell_length_b   4.56806496
_cell_length_c   14.50391300
_cell_angle_alpha   90.00000000
_cell_angle_beta   90.00000000
_cell_angle_gamma   119.99998492
_symmetry_Int_Tables_number   1
_chemical_formula_structural   Mg5MnSb4
_chemical_formula_sum   'Mg5 Mn1 Sb4'
_cell_volume   262.10809006
_cell_formula_units_Z   1
loop_
 _symmetry_equiv_pos_site_id
 _symmetry_equiv_pos_as_xyz
  1  'x, y, z'
loop_
 _atom_site_type_symbol
 _atom_site_label
 _atom_site_symmetry_multiplicity
 _atom_site_fract_x
 _atom_site_fract_y
 _atom_site_fract_z
 _atom_site_occupancy
  Mg  Mg0  1  0.66666700  0.33333300  0.99981700  1
  Mg  Mg1  1  0.66666700  0.33333300  0.50072700  1
  Mg  Mg2  1  0.00000000  0.00000000  0.18432200  1
  Mg  Mg3  1  0.33333300  0.66666700  0.81333800  1
  Mg  Mg4  1  0.33333300  0.66666700  0.31566200  1
  Mn  Mn5  1  0.00000000  0.00000000  0.68612000  1
  Sb  Sb6  1  0.00000000  0.00000000  0.88441300  1
  Sb  Sb7  1  0.00000000  0.00000000  0.38788500  1
  Sb  Sb8  1  0.33333300  0.66666700  0.61523400  1
  Sb  Sb9  1  0.33333300  0.66666700  0.11248300  1
