# generated using pymatgen
data_MgCoSiO4
_symmetry_space_group_name_H-M   'P 1'
_cell_length_a   4.81636600
_cell_length_b   6.09147700
_cell_length_c   10.29633200
_cell_angle_alpha   90.00000000
_cell_angle_beta   90.00000000
_cell_angle_gamma   90.00000000
_symmetry_Int_Tables_number   1
_chemical_formula_structural   MgCoSiO4
_chemical_formula_sum   'Mg4 Co4 Si4 O16'
_cell_volume   302.08184728
_cell_formula_units_Z   4
loop_
 _symmetry_equiv_pos_site_id
 _symmetry_equiv_pos_as_xyz
  1  'x, y, z'
loop_
 _atom_site_type_symbol
 _atom_site_label
 _atom_site_symmetry_multiplicity
 _atom_site_fract_x
 _atom_site_fract_y
 _atom_site_fract_z
 _atom_site_occupancy
  Mg  Mg0  1  0.50000000  0.00000000  0.50000000  1
  Mg  Mg1  1  0.00000000  0.50000000  0.00000000  1
  Mg  Mg2  1  0.50000000  0.50000000  0.50000000  1
  Mg  Mg3  1  0.00000000  0.00000000  0.00000000  1
  Co  Co4  1  0.49882500  0.75000000  0.77513100  1
  Co  Co5  1  0.00117500  0.75000000  0.27513100  1
  Co  Co6  1  0.50117500  0.25000000  0.22486900  1
  Co  Co7  1  0.99882500  0.25000000  0.72486900  1
  Si  Si8  1  0.92704100  0.75000000  0.59408300  1
  Si  Si9  1  0.57295900  0.75000000  0.09408300  1
  Si  Si10  1  0.07295900  0.25000000  0.40591700  1
  Si  Si11  1  0.42704100  0.25000000  0.90591700  1
  O  O12  1  0.26569700  0.75000000  0.59066400  1
  O  O13  1  0.23430300  0.75000000  0.09066400  1
  O  O14  1  0.73430300  0.25000000  0.40933600  1
  O  O15  1  0.76569700  0.25000000  0.90933600  1
  O  O16  1  0.72319000  0.75000000  0.94685500  1
  O  O17  1  0.77681000  0.75000000  0.44685500  1
  O  O18  1  0.27681000  0.25000000  0.05314500  1
  O  O19  1  0.22319000  0.25000000  0.55314500  1
  O  O20  1  0.77621700  0.96728700  0.66161700  1
  O  O21  1  0.72378300  0.53271300  0.16161700  1
  O  O22  1  0.22378300  0.46728700  0.33838300  1
  O  O23  1  0.27621700  0.03271300  0.83838300  1
  O  O24  1  0.22378300  0.03271300  0.33838300  1
  O  O25  1  0.27621700  0.46728700  0.83838300  1
  O  O26  1  0.77621700  0.53271300  0.66161700  1
  O  O27  1  0.72378300  0.96728700  0.16161700  1
