data_image0
_chemical_formula_structural       B8Ca10Ni30
_chemical_formula_sum              "B8 Ca10 Ni30"
_cell_length_a       5.09353
_cell_length_b       5.09367
_cell_length_c       27.934
_cell_angle_alpha    90.0042
_cell_angle_beta     89.9985
_cell_angle_gamma    120.002

_space_group_name_H-M_alt    "P 1"
_space_group_IT_number       1

loop_
  _space_group_symop_operation_xyz
  'x, y, z'

loop_
  _atom_site_type_symbol
  _atom_site_label
  _atom_site_symmetry_multiplicity
  _atom_site_fract_x
  _atom_site_fract_y
  _atom_site_fract_z
  _atom_site_occupancy
  B   B1        1.0  0.33300  0.66700  0.62600  1.0000
  B   B2        1.0  0.66700  0.33300  0.12600  1.0000
  B   B3        1.0  0.66700  0.33300  0.37400  1.0000
  B   B4        1.0  0.33300  0.66700  0.87400  1.0000
  B   B5        1.0  0.00000  0.00000  0.12800  1.0000
  B   B6        1.0  0.00000  0.00001  0.62800  1.0000
  B   B7        1.0  0.00000  0.00002  0.87200  1.0000
  B   B8        1.0  0.00000  0.00000  0.37200  1.0000
  Ca  Ca1       1.0  0.33300  0.66700  0.25000  1.0000
  Ca  Ca2       1.0  0.66700  0.33300  0.75000  1.0000
  Ca  Ca3       1.0  0.33300  0.66700  0.01860  1.0000
  Ca  Ca4       1.0  0.66700  0.33300  0.51900  1.0000
  Ca  Ca5       1.0  0.66700  0.33300  0.98100  1.0000
  Ca  Ca6       1.0  0.33300  0.66700  0.48100  1.0000
  Ca  Ca7       1.0  0.33300  0.66700  0.13100  1.0000
  Ca  Ca8       1.0  0.66700  0.33300  0.63100  1.0000
  Ca  Ca9       1.0  0.66700  0.33300  0.86900  1.0000
  Ca  Ca10      1.0  0.33300  0.66700  0.36900  1.0000
  Ni  Ni1       1.0  0.83600  0.67100  0.07750  1.0000
  Ni  Ni2       1.0  0.16400  0.32900  0.57800  1.0000
  Ni  Ni3       1.0  0.32900  0.16400  0.07750  1.0000
  Ni  Ni4       1.0  0.83600  0.16400  0.07750  1.0000
  Ni  Ni5       1.0  0.16400  0.83600  0.57800  1.0000
  Ni  Ni6       1.0  0.67100  0.83600  0.57800  1.0000
  Ni  Ni7       1.0  0.16400  0.32900  0.92200  1.0000
  Ni  Ni8       1.0  0.16400  0.83600  0.92200  1.0000
  Ni  Ni9       1.0  0.67100  0.83600  0.92200  1.0000
  Ni  Ni10      1.0  0.32900  0.16400  0.42200  1.0000
  Ni  Ni11      1.0  0.83600  0.16400  0.42200  1.0000
  Ni  Ni12      1.0  0.83600  0.67100  0.42200  1.0000
  Ni  Ni13      1.0  0.83300  0.66500  0.17700  1.0000
  Ni  Ni14      1.0  0.16700  0.33500  0.67700  1.0000
  Ni  Ni15      1.0  0.33500  0.16700  0.17700  1.0000
  Ni  Ni16      1.0  0.83300  0.16700  0.17700  1.0000
  Ni  Ni17      1.0  0.16700  0.83300  0.67700  1.0000
  Ni  Ni18      1.0  0.66500  0.83300  0.67700  1.0000
  Ni  Ni19      1.0  0.16700  0.33500  0.82300  1.0000
  Ni  Ni20      1.0  0.16700  0.83300  0.82300  1.0000
  Ni  Ni21      1.0  0.66500  0.83300  0.82300  1.0000
  Ni  Ni22      1.0  0.33500  0.16700  0.32300  1.0000
  Ni  Ni23      1.0  0.83300  0.16700  0.32300  1.0000
  Ni  Ni24      1.0  0.83300  0.66500  0.32300  1.0000
  Ni  Ni25      1.0  0.00000  0.00000  0.00000  1.0000
  Ni  Ni26      1.0  0.00000  0.00000  0.50000  1.0000
  Ni  Ni27      1.0  0.33300  0.66700  0.75000  1.0000
  Ni  Ni28      1.0  0.66700  0.33300  0.25000  1.0000
  Ni  Ni29      1.0  0.00000  0.00000  0.25000  1.0000
  Ni  Ni30      1.0  0.00000  0.00000  0.75000  1.0000
