# generated using pymatgen
data_Mg(IO3)2
_symmetry_space_group_name_H-M   'P 1'
_cell_length_a   5.02378001
_cell_length_b   5.64877284
_cell_length_c   5.64932420
_cell_angle_alpha   120.01450455
_cell_angle_beta   89.99611461
_cell_angle_gamma   89.99603401
_symmetry_Int_Tables_number   1
_chemical_formula_structural   Mg(IO3)2
_chemical_formula_sum   'Mg1 I2 O6'
_cell_volume   138.81882261
_cell_formula_units_Z   1
loop_
 _symmetry_equiv_pos_site_id
 _symmetry_equiv_pos_as_xyz
  1  'x, y, z'
loop_
 _atom_site_type_symbol
 _atom_site_label
 _atom_site_symmetry_multiplicity
 _atom_site_fract_x
 _atom_site_fract_y
 _atom_site_fract_z
 _atom_site_occupancy
  Mg  Mg0  1  0.57230700  0.00003200  0.99999400  1
  I  I1  1  0.52441900  0.33343900  0.66673000  1
  I  I2  1  0.98095900  0.66666100  0.33333900  1
  O  O3  1  0.34856900  0.24931400  0.34900400  1
  O  O4  1  0.34861800  0.65092400  0.90029000  1
  O  O5  1  0.34853900  0.09963000  0.75063100  1
  O  O6  1  0.80786300  0.73815900  0.64687700  1
  O  O7  1  0.80785600  0.35309200  0.09126600  1
  O  O8  1  0.80787000  0.90874800  0.26186700  1
