# generated using pymatgen
data_Na3H5(SeO4)4
_symmetry_space_group_name_H-M   'P 1'
_cell_length_a   5.98735200
_cell_length_b   7.41668727
_cell_length_c   9.06492379
_cell_angle_alpha   104.97647216
_cell_angle_beta   92.62596656
_cell_angle_gamma   105.66526524
_symmetry_Int_Tables_number   1
_chemical_formula_structural   Na3H5(SeO4)4
_chemical_formula_sum   'Na3 H5 Se4 O16'
_cell_volume   371.51963539
_cell_formula_units_Z   1
loop_
 _symmetry_equiv_pos_site_id
 _symmetry_equiv_pos_as_xyz
  1  'x, y, z'
loop_
 _atom_site_type_symbol
 _atom_site_label
 _atom_site_symmetry_multiplicity
 _atom_site_fract_x
 _atom_site_fract_y
 _atom_site_fract_z
 _atom_site_occupancy
  Na  Na0  1  0.80680800  0.63292200  0.08738600  1
  Na  Na1  1  0.19685000  0.37220400  0.92444700  1
  Na  Na2  1  0.98275900  0.99180700  0.49427400  1
  H  H3  1  0.41314700  0.11872200  0.14629300  1
  H  H4  1  0.58529000  0.88239100  0.85664800  1
  H  H5  1  0.85247000  0.61982000  0.61899500  1
  H  H6  1  0.15671600  0.39039000  0.38203500  1
  H  H7  1  0.48824400  0.02894600  0.51364200  1
  Se  Se8  1  0.67054100  0.33662600  0.67928700  1
  Se  Se9  1  0.33628300  0.67877000  0.32920700  1
  Se  Se10  1  0.79758400  0.14380800  0.15713900  1
  Se  Se11  1  0.20106400  0.85505000  0.84127600  1
  O  O12  1  0.88146400  0.32451600  0.07837900  1
  O  O13  1  0.11323600  0.67225200  0.91709600  1
  O  O14  1  0.98107400  0.17055300  0.30945400  1
  O  O15  1  0.01845000  0.82896500  0.68782200  1
  O  O16  1  0.53737700  0.15610100  0.23670100  1
  O  O17  1  0.46306300  0.84549700  0.76439500  1
  O  O18  1  0.43144300  0.15269600  0.57278300  1
  O  O19  1  0.55746400  0.86325200  0.43874300  1
  O  O20  1  0.73886000  0.92419200  0.03206000  1
  O  O21  1  0.25751800  0.07412200  0.96646800  1
  O  O22  1  0.57971500  0.44897800  0.83464200  1
  O  O23  1  0.42467400  0.56447000  0.17221200  1
  O  O24  1  0.73621500  0.48557800  0.55858900  1
  O  O25  1  0.26711200  0.52161700  0.44562900  1
  O  O26  1  0.88408700  0.24104000  0.69863700  1
  O  O27  1  0.10749100  0.75671500  0.30276000  1
