# generated using pymatgen
data_Mg3MnO4
_symmetry_space_group_name_H-M   'P 1'
_cell_length_a   6.11956866
_cell_length_b   9.68148831
_cell_length_c   6.11957574
_cell_angle_alpha   71.57712266
_cell_angle_beta   89.99802711
_cell_angle_gamma   108.42290382
_symmetry_Int_Tables_number   1
_chemical_formula_structural   Mg3MnO4
_chemical_formula_sum   'Mg12 Mn4 O16'
_cell_volume   324.33655416
_cell_formula_units_Z   4
loop_
 _symmetry_equiv_pos_site_id
 _symmetry_equiv_pos_as_xyz
  1  'x, y, z'
loop_
 _atom_site_type_symbol
 _atom_site_label
 _atom_site_symmetry_multiplicity
 _atom_site_fract_x
 _atom_site_fract_y
 _atom_site_fract_z
 _atom_site_occupancy
  Mg  Mg0  1  0.24999300  0.50000100  0.74998700  1
  Mg  Mg1  1  0.00001200  0.99999400  0.50000100  1
  Mg  Mg2  1  0.74998400  0.50000300  0.25000200  1
  Mg  Mg3  1  0.49999600  0.00000200  0.00000400  1
  Mg  Mg4  1  0.12498300  0.74999400  0.87500500  1
  Mg  Mg5  1  0.87499700  0.25000100  0.62501400  1
  Mg  Mg6  1  0.62500400  0.75000400  0.37499600  1
  Mg  Mg7  1  0.37500300  0.25000100  0.12498700  1
  Mg  Mg8  1  0.12500700  0.75000000  0.37498800  1
  Mg  Mg9  1  0.87500000  0.25000300  0.12499000  1
  Mg  Mg10  1  0.62500200  0.74999000  0.87500800  1
  Mg  Mg11  1  0.37499200  0.24999700  0.62500800  1
  Mn  Mn12  1  0.50001200  0.99998900  0.50003700  1
  Mn  Mn13  1  0.25006200  0.50002500  0.24997900  1
  Mn  Mn14  1  0.75002900  0.50001000  0.74999500  1
  Mn  Mn15  1  0.99992800  0.99999200  0.00002200  1
  O  O16  1  0.49998100  0.50000400  0.49998400  1
  O  O17  1  0.25001400  0.99999800  0.25000900  1
  O  O18  1  0.00000800  0.49999300  0.00001200  1
  O  O19  1  0.74999300  0.00000400  0.74998700  1
  O  O20  1  0.49999000  0.50000300  0.00001300  1
  O  O21  1  0.25001400  0.99999800  0.74998500  1
  O  O22  1  0.00001600  0.49999500  0.49998600  1
  O  O23  1  0.74999000  0.00000400  0.25000800  1
  O  O24  1  0.87944300  0.75893800  0.62055700  1
  O  O25  1  0.62943700  0.25892600  0.37056300  1
  O  O26  1  0.37943200  0.75892400  0.12056800  1
  O  O27  1  0.12943900  0.25893800  0.87055500  1
  O  O28  1  0.37056500  0.74107300  0.62943100  1
  O  O29  1  0.12055300  0.24107200  0.37944000  1
  O  O30  1  0.87056200  0.74106400  0.12943600  1
  O  O31  1  0.62056000  0.24106000  0.87944100  1
