# generated using pymatgen
data_Mg6SiSn2
_symmetry_space_group_name_H-M   'P 1'
_cell_length_a   8.15439575
_cell_length_b   8.15439575
_cell_length_c   8.15439575
_cell_angle_alpha   146.33344808
_cell_angle_beta   131.72717574
_cell_angle_gamma   60.14132848
_symmetry_Int_Tables_number   1
_chemical_formula_structural   Mg6SiSn2
_chemical_formula_sum   'Mg6 Si1 Sn2'
_cell_volume   222.26174273
_cell_formula_units_Z   1
loop_
 _symmetry_equiv_pos_site_id
 _symmetry_equiv_pos_as_xyz
  1  'x, y, z'
loop_
 _atom_site_type_symbol
 _atom_site_label
 _atom_site_symmetry_multiplicity
 _atom_site_fract_x
 _atom_site_fract_y
 _atom_site_fract_z
 _atom_site_occupancy
  Mg  Mg0  1  0.23593500  0.50000000  0.73593500  1
  Mg  Mg1  1  0.91807900  0.16057300  0.75750600  1
  Mg  Mg2  1  0.59693400  0.83942700  0.75750600  1
  Mg  Mg3  1  0.76406500  0.50000000  0.26406500  1
  Mg  Mg4  1  0.40306600  0.16057300  0.24249400  1
  Mg  Mg5  1  0.08192100  0.83942700  0.24249400  1
  Si  Si6  1  0.00000000  0.00000000  0.00000000  1
  Sn  Sn7  1  0.66596900  0.66596900  0.00000000  1
  Sn  Sn8  1  0.33403100  0.33403100  0.00000000  1
