# generated using pymatgen
data_Al2V3(SiO4)3
_symmetry_space_group_name_H-M   'P 1'
_cell_length_a   10.18415044
_cell_length_b   10.18415044
_cell_length_c   10.18415044
_cell_angle_alpha   109.47122063
_cell_angle_beta   109.47122063
_cell_angle_gamma   109.47122063
_symmetry_Int_Tables_number   1
_chemical_formula_structural   Al2V3(SiO4)3
_chemical_formula_sum   'Al8 V12 Si12 O48'
_cell_volume   813.11603932
_cell_formula_units_Z   4
loop_
 _symmetry_equiv_pos_site_id
 _symmetry_equiv_pos_as_xyz
  1  'x, y, z'
loop_
 _atom_site_type_symbol
 _atom_site_label
 _atom_site_symmetry_multiplicity
 _atom_site_fract_x
 _atom_site_fract_y
 _atom_site_fract_z
 _atom_site_occupancy
  Al  Al0  1  0.00000000  0.00000000  0.00000000  1
  Al  Al1  1  0.50000000  0.00000000  0.00000000  1
  Al  Al2  1  0.50000000  0.50000000  0.00000000  1
  Al  Al3  1  0.00000000  0.50000000  0.50000000  1
  Al  Al4  1  0.00000000  0.00000000  0.50000000  1
  Al  Al5  1  0.50000000  0.50000000  0.50000000  1
  Al  Al6  1  0.00000000  0.50000000  0.00000000  1
  Al  Al7  1  0.50000000  0.00000000  0.50000000  1
  V  V8  1  0.87500000  0.75000000  0.62500000  1
  V  V9  1  0.87500000  0.62500000  0.25000000  1
  V  V10  1  0.62500000  0.87500000  0.75000000  1
  V  V11  1  0.25000000  0.87500000  0.62500000  1
  V  V12  1  0.75000000  0.62500000  0.87500000  1
  V  V13  1  0.62500000  0.25000000  0.87500000  1
  V  V14  1  0.12500000  0.25000000  0.37500000  1
  V  V15  1  0.12500000  0.37500000  0.75000000  1
  V  V16  1  0.37500000  0.12500000  0.25000000  1
  V  V17  1  0.75000000  0.12500000  0.37500000  1
  V  V18  1  0.25000000  0.37500000  0.12500000  1
  V  V19  1  0.37500000  0.75000000  0.12500000  1
  Si  Si20  1  0.12500000  0.75000000  0.87500000  1
  Si  Si21  1  0.75000000  0.87500000  0.12500000  1
  Si  Si22  1  0.25000000  0.62500000  0.37500000  1
  Si  Si23  1  0.62500000  0.75000000  0.37500000  1
  Si  Si24  1  0.87500000  0.12500000  0.75000000  1
  Si  Si25  1  0.37500000  0.25000000  0.62500000  1
  Si  Si26  1  0.37500000  0.62500000  0.75000000  1
  Si  Si27  1  0.25000000  0.12500000  0.87500000  1
  Si  Si28  1  0.62500000  0.37500000  0.25000000  1
  Si  Si29  1  0.12500000  0.87500000  0.25000000  1
  Si  Si30  1  0.75000000  0.37500000  0.62500000  1
  Si  Si31  1  0.87500000  0.25000000  0.12500000  1
  O  O32  1  0.58138800  0.89408700  0.38175800  1
  O  O33  1  0.38175800  0.58138800  0.89408700  1
  O  O34  1  0.30036900  0.31269900  0.91861200  1
  O  O35  1  0.48767000  0.60591300  0.18730100  1
  O  O36  1  0.31269900  0.89408700  0.01233000  1
  O  O37  1  0.11824200  0.01233000  0.19963100  1
  O  O38  1  0.38175800  0.30036900  0.48767000  1
  O  O39  1  0.89408700  0.38175800  0.58138800  1
  O  O40  1  0.18730100  0.19963100  0.58138800  1
  O  O41  1  0.48767000  0.38175800  0.30036900  1
  O  O42  1  0.89408700  0.01233000  0.31269900  1
  O  O43  1  0.60591300  0.91861200  0.11824200  1
  O  O44  1  0.91861200  0.11824200  0.60591300  1
  O  O45  1  0.30036900  0.48767000  0.38175800  1
  O  O46  1  0.58138800  0.18730100  0.19963100  1
  O  O47  1  0.19963100  0.58138800  0.18730100  1
  O  O48  1  0.01233000  0.31269900  0.89408700  1
  O  O49  1  0.91861200  0.30036900  0.31269900  1
  O  O50  1  0.01233000  0.19963100  0.11824200  1
  O  O51  1  0.81269900  0.80036900  0.41861200  1
  O  O52  1  0.31269900  0.91861200  0.30036900  1
  O  O53  1  0.60591300  0.18730100  0.48767000  1
  O  O54  1  0.19963100  0.11824200  0.01233000  1
  O  O55  1  0.11824200  0.60591300  0.91861200  1
  O  O56  1  0.41861200  0.10591300  0.61824200  1
  O  O57  1  0.61824200  0.41861200  0.10591300  1
  O  O58  1  0.69963100  0.68730100  0.08138800  1
  O  O59  1  0.51233000  0.39408700  0.81269900  1
  O  O60  1  0.68730100  0.10591300  0.98767000  1
  O  O61  1  0.88175800  0.98767000  0.80036900  1
  O  O62  1  0.61824200  0.69963100  0.51233000  1
  O  O63  1  0.10591300  0.61824200  0.41861200  1
  O  O64  1  0.88175800  0.39408700  0.08138800  1
  O  O65  1  0.80036900  0.88175800  0.98767000  1
  O  O66  1  0.39408700  0.81269900  0.51233000  1
  O  O67  1  0.68730100  0.08138800  0.69963100  1
  O  O68  1  0.81269900  0.51233000  0.39408700  1
  O  O69  1  0.98767000  0.80036900  0.88175800  1
  O  O70  1  0.08138800  0.69963100  0.68730100  1
  O  O71  1  0.98767000  0.68730100  0.10591300  1
  O  O72  1  0.80036900  0.41861200  0.81269900  1
  O  O73  1  0.41861200  0.81269900  0.80036900  1
  O  O74  1  0.69963100  0.51233000  0.61824200  1
  O  O75  1  0.08138800  0.88175800  0.39408700  1
  O  O76  1  0.39408700  0.08138800  0.88175800  1
  O  O77  1  0.10591300  0.98767000  0.68730100  1
  O  O78  1  0.51233000  0.61824200  0.69963100  1
  O  O79  1  0.18730100  0.48767000  0.60591300  1
