# generated using pymatgen
data_Mg4FeO5
_symmetry_space_group_name_H-M   'P 1'
_cell_length_a   5.22685241
_cell_length_b   5.22779256
_cell_length_c   15.50444454
_cell_angle_alpha   83.52483188
_cell_angle_beta   83.52623494
_cell_angle_gamma   109.21065948
_symmetry_Int_Tables_number   1
_chemical_formula_structural   Mg4FeO5
_chemical_formula_sum   'Mg16 Fe4 O20'
_cell_volume   392.41146723
_cell_formula_units_Z   4
loop_
 _symmetry_equiv_pos_site_id
 _symmetry_equiv_pos_as_xyz
  1  'x, y, z'
loop_
 _atom_site_type_symbol
 _atom_site_label
 _atom_site_symmetry_multiplicity
 _atom_site_fract_x
 _atom_site_fract_y
 _atom_site_fract_z
 _atom_site_occupancy
  Mg  Mg0  1  0.19897900  0.19897900  0.60193800  1
  Mg  Mg1  1  0.69886300  0.69885300  0.60206400  1
  Mg  Mg2  1  0.44988400  0.94920200  0.10097400  1
  Mg  Mg3  1  0.94921100  0.44987300  0.10098200  1
  Mg  Mg4  1  0.05078200  0.55012900  0.89902100  1
  Mg  Mg5  1  0.55013300  0.05078200  0.89902400  1
  Mg  Mg6  1  0.30114900  0.30115200  0.39791900  1
  Mg  Mg7  1  0.80099800  0.80100200  0.39807900  1
  Mg  Mg8  1  0.14953600  0.64950800  0.70103900  1
  Mg  Mg9  1  0.64954400  0.14956000  0.70098500  1
  Mg  Mg10  1  0.39944900  0.39944200  0.20041400  1
  Mg  Mg11  1  0.89904500  0.89903600  0.20150000  1
  Mg  Mg12  1  0.10094900  0.10094200  0.79850200  1
  Mg  Mg13  1  0.60055700  0.60055200  0.79958600  1
  Mg  Mg14  1  0.35048900  0.85045500  0.29896000  1
  Mg  Mg15  1  0.85043600  0.35045000  0.29901500  1
  Fe  Fe16  1  0.24994000  0.75003000  0.49999800  1
  Fe  Fe17  1  0.49998700  0.50002000  0.99999500  1
  Fe  Fe18  1  0.74991600  0.25002500  0.50000600  1
  Fe  Fe19  1  0.00012800  0.00010100  0.00000600  1
  O  O20  1  0.50037400  0.49960500  0.50000200  1
  O  O21  1  0.99961500  0.00039300  0.49999500  1
  O  O22  1  0.74424000  0.25577600  0.00000400  1
  O  O23  1  0.25576300  0.74421300  0.99999800  1
  O  O24  1  0.35062600  0.84933000  0.80039800  1
  O  O25  1  0.84932200  0.35060600  0.80039800  1
  O  O26  1  0.59985800  0.59971500  0.30044800  1
  O  O27  1  0.09968600  0.09981300  0.30032000  1
  O  O28  1  0.90017500  0.90030000  0.69967800  1
  O  O29  1  0.40028600  0.40014300  0.69955100  1
  O  O30  1  0.15066900  0.64937200  0.19959900  1
  O  O31  1  0.64938700  0.15066600  0.19960200  1
  O  O32  1  0.80715800  0.80714700  0.89570400  1
  O  O33  1  0.29900100  0.29901000  0.89523400  1
  O  O34  1  0.05287500  0.55288400  0.39495300  1
  O  O35  1  0.55220100  0.05219900  0.39495500  1
  O  O36  1  0.44709100  0.94713700  0.60504600  1
  O  O37  1  0.94783700  0.44776100  0.60504100  1
  O  O38  1  0.70100600  0.70098700  0.10476500  1
  O  O39  1  0.19285700  0.19285000  0.10430300  1
