# generated using pymatgen
data_MgFe(SiO2)2
_symmetry_space_group_name_H-M   'P 1'
_cell_length_a   2.90801600
_cell_length_b   8.75199500
_cell_length_c   9.58790300
_cell_angle_alpha   90.00000000
_cell_angle_beta   90.00000000
_cell_angle_gamma   90.00000000
_symmetry_Int_Tables_number   1
_chemical_formula_structural   MgFe(SiO2)2
_chemical_formula_sum   'Mg2 Fe2 Si4 O8'
_cell_volume   244.02115828
_cell_formula_units_Z   2
loop_
 _symmetry_equiv_pos_site_id
 _symmetry_equiv_pos_as_xyz
  1  'x, y, z'
loop_
 _atom_site_type_symbol
 _atom_site_label
 _atom_site_symmetry_multiplicity
 _atom_site_fract_x
 _atom_site_fract_y
 _atom_site_fract_z
 _atom_site_occupancy
  Mg  Mg0  1  0.50000000  0.15893400  0.17139300  1
  Mg  Mg1  1  0.50000000  0.65893400  0.82860700  1
  Fe  Fe2  1  0.00000000  0.64534300  0.31996300  1
  Fe  Fe3  1  0.00000000  0.14534300  0.68003700  1
  Si  Si4  1  0.00000000  0.48375700  0.10083500  1
  Si  Si5  1  0.00000000  0.98375700  0.89916500  1
  Si  Si6  1  0.50000000  0.98465000  0.39681600  1
  Si  Si7  1  0.50000000  0.48465000  0.60318400  1
  O  O8  1  0.00000000  0.79835100  0.86832400  1
  O  O9  1  0.00000000  0.29835100  0.13167600  1
  O  O10  1  0.50000000  0.29962400  0.63337000  1
  O  O11  1  0.50000000  0.79962400  0.36663000  1
  O  O12  1  0.00000000  0.50963300  0.49751700  1
  O  O13  1  0.00000000  0.00963300  0.50248300  1
  O  O14  1  0.50000000  0.51009900  0.99630200  1
  O  O15  1  0.50000000  0.01009900  0.00369800  1
