# generated using pymatgen
data_Lu2Mn3Sb3O14
_symmetry_space_group_name_H-M   'P 1'
_cell_length_a   7.22826578
_cell_length_b   7.22826578
_cell_length_c   7.20227037
_cell_angle_alpha   60.64424065
_cell_angle_beta   60.64424065
_cell_angle_gamma   60.72282640
_symmetry_Int_Tables_number   1
_chemical_formula_structural   Lu2Mn3Sb3O14
_chemical_formula_sum   'Lu2 Mn3 Sb3 O14'
_cell_volume   270.11321902
_cell_formula_units_Z   1
loop_
 _symmetry_equiv_pos_site_id
 _symmetry_equiv_pos_as_xyz
  1  'x, y, z'
loop_
 _atom_site_type_symbol
 _atom_site_label
 _atom_site_symmetry_multiplicity
 _atom_site_fract_x
 _atom_site_fract_y
 _atom_site_fract_z
 _atom_site_occupancy
  Lu  Lu0  1  0.00000000  0.00000000  0.00000000  1
  Lu  Lu1  1  0.00000000  0.00000000  0.50000000  1
  Mn  Mn2  1  0.50000000  0.00000000  0.00000000  1
  Mn  Mn3  1  0.00000000  0.50000000  0.00000000  1
  Mn  Mn4  1  0.50000000  0.50000000  0.50000000  1
  Sb  Sb5  1  0.50000000  0.50000000  0.00000000  1
  Sb  Sb6  1  0.00000000  0.50000000  0.50000000  1
  Sb  Sb7  1  0.50000000  0.00000000  0.50000000  1
  O  O8  1  0.87648000  0.87648000  0.87533600  1
  O  O9  1  0.12352000  0.12352000  0.12466400  1
  O  O10  1  0.57675800  0.57675800  0.17670100  1
  O  O11  1  0.16708100  0.16708100  0.59291600  1
  O  O12  1  0.15640700  0.59505600  0.57724400  1
  O  O13  1  0.58865300  0.16908400  0.16653300  1
  O  O14  1  0.16908400  0.58865300  0.16653300  1
  O  O15  1  0.59505600  0.15640700  0.57724400  1
  O  O16  1  0.42324200  0.42324200  0.82329900  1
  O  O17  1  0.83291900  0.83291900  0.40708400  1
  O  O18  1  0.84359300  0.40494400  0.42275600  1
  O  O19  1  0.41134700  0.83091600  0.83346700  1
  O  O20  1  0.83091600  0.41134700  0.83346700  1
  O  O21  1  0.40494400  0.84359300  0.42275600  1
