# generated using pymatgen
data_LuBO3
_symmetry_space_group_name_H-M   'P 1'
_cell_length_a   3.87326198
_cell_length_b   3.87326198
_cell_length_c   8.44205400
_cell_angle_alpha   90.00000000
_cell_angle_beta   90.00000000
_cell_angle_gamma   116.16794055
_symmetry_Int_Tables_number   1
_chemical_formula_structural   LuBO3
_chemical_formula_sum   'Lu2 B2 O6'
_cell_volume   113.66817286
_cell_formula_units_Z   2
loop_
 _symmetry_equiv_pos_site_id
 _symmetry_equiv_pos_as_xyz
  1  'x, y, z'
loop_
 _atom_site_type_symbol
 _atom_site_label
 _atom_site_symmetry_multiplicity
 _atom_site_fract_x
 _atom_site_fract_y
 _atom_site_fract_z
 _atom_site_occupancy
  Lu  Lu0  1  0.93912700  0.93912700  0.00000000  1
  Lu  Lu1  1  0.93912700  0.93912700  0.50000000  1
  B  B2  1  0.49970500  0.23891000  0.75000000  1
  B  B3  1  0.23891000  0.49970500  0.25000000  1
  O  O4  1  0.67022600  0.32667500  0.89982600  1
  O  O5  1  0.32667500  0.67022600  0.10017400  1
  O  O6  1  0.32667500  0.67022600  0.39982600  1
  O  O7  1  0.67022600  0.32667500  0.60017400  1
  O  O8  1  0.10701300  0.02928600  0.75000000  1
  O  O9  1  0.02928600  0.10701300  0.25000000  1
