# generated using pymatgen
data_LuZr3F15
_symmetry_space_group_name_H-M   'P 1'
_cell_length_a   8.15547057
_cell_length_b   8.15547057
_cell_length_c   8.16464430
_cell_angle_alpha   79.81169449
_cell_angle_beta   79.81169449
_cell_angle_gamma   100.08268753
_symmetry_Int_Tables_number   1
_chemical_formula_structural   LuZr3F15
_chemical_formula_sum   'Lu2 Zr6 F30'
_cell_volume   513.97934092
_cell_formula_units_Z   2
loop_
 _symmetry_equiv_pos_site_id
 _symmetry_equiv_pos_as_xyz
  1  'x, y, z'
loop_
 _atom_site_type_symbol
 _atom_site_label
 _atom_site_symmetry_multiplicity
 _atom_site_fract_x
 _atom_site_fract_y
 _atom_site_fract_z
 _atom_site_occupancy
  Lu  Lu0  1  0.67770600  0.32229400  0.75000000  1
  Lu  Lu1  1  0.32229400  0.67770600  0.25000000  1
  Zr  Zr2  1  0.25022900  0.74977100  0.75000000  1
  Zr  Zr3  1  0.74977100  0.25022900  0.25000000  1
  Zr  Zr4  1  0.82160300  0.74793200  0.32491100  1
  Zr  Zr5  1  0.25206800  0.17839700  0.17508900  1
  Zr  Zr6  1  0.17839700  0.25206800  0.67508900  1
  Zr  Zr7  1  0.74793200  0.82160300  0.82491100  1
  F  F8  1  0.15136200  0.18564200  0.94818100  1
  F  F9  1  0.68693800  0.55941800  0.84856700  1
  F  F10  1  0.04334200  0.65300100  0.31500400  1
  F  F11  1  0.65300100  0.04334200  0.81500400  1
  F  F12  1  0.55941800  0.68693800  0.34856700  1
  F  F13  1  0.18564200  0.15136200  0.44818100  1
  F  F14  1  0.84863800  0.81435800  0.05181900  1
  F  F15  1  0.31306200  0.44058200  0.15143300  1
  F  F16  1  0.95665800  0.34699900  0.68499600  1
  F  F17  1  0.34699900  0.95665800  0.18499600  1
  F  F18  1  0.44058200  0.31306200  0.65143300  1
  F  F19  1  0.81435800  0.84863800  0.55181900  1
  F  F20  1  0.96584300  0.03415700  0.75000000  1
  F  F21  1  0.54070200  0.75177800  0.03021700  1
  F  F22  1  0.24822200  0.45929800  0.46978300  1
  F  F23  1  0.45929800  0.24822200  0.96978300  1
  F  F24  1  0.75177800  0.54070200  0.53021700  1
  F  F25  1  0.03415700  0.96584300  0.25000000  1
  F  F26  1  0.22048500  0.72702100  0.00491900  1
  F  F27  1  0.22646600  0.49176600  0.77961400  1
  F  F28  1  0.99140700  0.72249200  0.77379300  1
  F  F29  1  0.72249200  0.99140700  0.27379300  1
  F  F30  1  0.49176600  0.22646600  0.27961400  1
  F  F31  1  0.72702100  0.22048500  0.50491900  1
  F  F32  1  0.77951500  0.27297900  0.99508100  1
  F  F33  1  0.77353400  0.50823400  0.22038600  1
  F  F34  1  0.00859300  0.27750800  0.22620700  1
  F  F35  1  0.27750800  0.00859300  0.72620700  1
  F  F36  1  0.50823400  0.77353400  0.72038600  1
  F  F37  1  0.27297900  0.77951500  0.49508100  1
