# generated using pymatgen
data_Lu3Mg
_symmetry_space_group_name_H-M   'P 1'
_cell_length_a   3.31534600
_cell_length_b   3.31534600
_cell_length_c   10.93740500
_cell_angle_alpha   90.00000000
_cell_angle_beta   90.00000000
_cell_angle_gamma   108.80829169
_symmetry_Int_Tables_number   1
_chemical_formula_structural   Lu3Mg
_chemical_formula_sum   'Lu3 Mg1'
_cell_volume   113.79933199
_cell_formula_units_Z   1
loop_
 _symmetry_equiv_pos_site_id
 _symmetry_equiv_pos_as_xyz
  1  'x, y, z'
loop_
 _atom_site_type_symbol
 _atom_site_label
 _atom_site_symmetry_multiplicity
 _atom_site_fract_x
 _atom_site_fract_y
 _atom_site_fract_z
 _atom_site_occupancy
  Lu  Lu0  1  0.50000000  0.50000000  0.75058800  1
  Lu  Lu1  1  0.00000000  0.00000000  0.50000000  1
  Lu  Lu2  1  0.50000000  0.50000000  0.24941200  1
  Mg  Mg3  1  0.00000000  0.00000000  0.00000000  1
