# generated using pymatgen
data_Mg2Fe7O12
_symmetry_space_group_name_H-M   'P 1'
_cell_length_a   6.04159775
_cell_length_b   6.04159775
_cell_length_c   13.50776526
_cell_angle_alpha   77.16152753
_cell_angle_beta   77.16152753
_cell_angle_gamma   89.77493708
_symmetry_Int_Tables_number   1
_chemical_formula_structural   Mg2Fe7O12
_chemical_formula_sum   'Mg4 Fe14 O24'
_cell_volume   468.16595430
_cell_formula_units_Z   2
loop_
 _symmetry_equiv_pos_site_id
 _symmetry_equiv_pos_as_xyz
  1  'x, y, z'
loop_
 _atom_site_type_symbol
 _atom_site_label
 _atom_site_symmetry_multiplicity
 _atom_site_fract_x
 _atom_site_fract_y
 _atom_site_fract_z
 _atom_site_occupancy
  Mg  Mg0  1  0.16684200  0.66625100  0.66624800  1
  Mg  Mg1  1  0.83315800  0.33374900  0.33375200  1
  Mg  Mg2  1  0.66625100  0.16684200  0.16624800  1
  Mg  Mg3  1  0.33374900  0.83315800  0.83375200  1
  Fe  Fe4  1  0.62843400  0.37156600  0.75000000  1
  Fe  Fe5  1  0.29865000  0.03778000  0.41526400  1
  Fe  Fe6  1  0.96222000  0.70135000  0.08473600  1
  Fe  Fe7  1  0.37156600  0.62843400  0.25000000  1
  Fe  Fe8  1  0.03778000  0.29865000  0.91526400  1
  Fe  Fe9  1  0.70135000  0.96222000  0.58473600  1
  Fe  Fe10  1  0.50000000  0.00000000  0.00000000  1
  Fe  Fe11  1  0.16792100  0.16493500  0.66683100  1
  Fe  Fe12  1  0.83207900  0.83506500  0.33316900  1
  Fe  Fe13  1  0.50000000  0.50000000  0.00000000  1
  Fe  Fe14  1  0.00000000  0.50000000  0.50000000  1
  Fe  Fe15  1  0.50000000  0.50000000  0.50000000  1
  Fe  Fe16  1  0.16493500  0.16792100  0.16683100  1
  Fe  Fe17  1  0.83506500  0.83207900  0.83316900  1
  O  O18  1  0.25420300  0.25480600  0.50527200  1
  O  O19  1  0.91884600  0.92609300  0.17180700  1
  O  O20  1  0.58471500  0.59270800  0.83904600  1
  O  O21  1  0.25940000  0.73784800  0.50301900  1
  O  O22  1  0.91949800  0.39824600  0.17069000  1
  O  O23  1  0.58753300  0.06664800  0.83372700  1
  O  O24  1  0.40729200  0.41528500  0.66095400  1
  O  O25  1  0.07390700  0.08115400  0.32819300  1
  O  O26  1  0.74519400  0.74579700  0.99472800  1
  O  O27  1  0.93335200  0.41246700  0.66627300  1
  O  O28  1  0.60175400  0.08050200  0.32931000  1
  O  O29  1  0.26215200  0.74060000  0.99698100  1
  O  O30  1  0.74579700  0.74519400  0.49472800  1
  O  O31  1  0.41528500  0.40729200  0.16095400  1
  O  O32  1  0.08115400  0.07390700  0.82819300  1
  O  O33  1  0.74060000  0.26215200  0.49698100  1
  O  O34  1  0.41246700  0.93335200  0.16627300  1
  O  O35  1  0.08050200  0.60175400  0.82931000  1
  O  O36  1  0.59270800  0.58471500  0.33904600  1
  O  O37  1  0.25480600  0.25420300  0.00527200  1
  O  O38  1  0.92609300  0.91884600  0.67180700  1
  O  O39  1  0.06664800  0.58753300  0.33372700  1
  O  O40  1  0.73784800  0.25940000  0.00301900  1
  O  O41  1  0.39824600  0.91949800  0.67069000  1
