# generated using pymatgen
data_LuInO6
_symmetry_space_group_name_H-M   'P 1'
_cell_length_a   6.35142072
_cell_length_b   6.35142072
_cell_length_c   7.38610100
_cell_angle_alpha   55.66590582
_cell_angle_beta   55.66590582
_cell_angle_gamma   71.41351420
_symmetry_Int_Tables_number   1
_chemical_formula_structural   LuInO6
_chemical_formula_sum   'Lu2 In2 O12'
_cell_volume   203.17369232
_cell_formula_units_Z   2
loop_
 _symmetry_equiv_pos_site_id
 _symmetry_equiv_pos_as_xyz
  1  'x, y, z'
loop_
 _atom_site_type_symbol
 _atom_site_label
 _atom_site_symmetry_multiplicity
 _atom_site_fract_x
 _atom_site_fract_y
 _atom_site_fract_z
 _atom_site_occupancy
  Lu  Lu0  1  0.50000000  0.00000000  0.50000000  1
  Lu  Lu1  1  0.00000000  0.50000000  0.50000000  1
  In  In2  1  0.00000000  0.50000000  0.00000000  1
  In  In3  1  0.50000000  0.00000000  0.00000000  1
  O  O4  1  0.69011900  0.69011900  0.40543900  1
  O  O5  1  0.30988100  0.30988100  0.59456100  1
  O  O6  1  0.66867500  0.66867500  0.22750200  1
  O  O7  1  0.33132500  0.33132500  0.77249800  1
  O  O8  1  0.09670200  0.89736500  0.68429000  1
  O  O9  1  0.90329800  0.10263500  0.31571000  1
  O  O10  1  0.89736500  0.09670200  0.68429000  1
  O  O11  1  0.10263500  0.90329800  0.31571000  1
  O  O12  1  0.77991400  0.41778200  0.89711100  1
  O  O13  1  0.22008600  0.58221800  0.10288900  1
  O  O14  1  0.58221800  0.22008600  0.10288900  1
  O  O15  1  0.41778200  0.77991400  0.89711100  1
