# generated using pymatgen
data_Na7V(W3O19)2
_symmetry_space_group_name_H-M   'P 1'
_cell_length_a   7.99926700
_cell_length_b   10.83658803
_cell_length_c   10.96618504
_cell_angle_alpha   117.06391281
_cell_angle_beta   104.04295105
_cell_angle_gamma   87.80350735
_symmetry_Int_Tables_number   1
_chemical_formula_structural   Na7V(W3O19)2
_chemical_formula_sum   'Na7 V1 W6 O38'
_cell_volume   818.34806036
_cell_formula_units_Z   1
loop_
 _symmetry_equiv_pos_site_id
 _symmetry_equiv_pos_as_xyz
  1  'x, y, z'
loop_
 _atom_site_type_symbol
 _atom_site_label
 _atom_site_symmetry_multiplicity
 _atom_site_fract_x
 _atom_site_fract_y
 _atom_site_fract_z
 _atom_site_occupancy
  Na  Na0  1  0.42581900  0.80384200  0.18302100  1
  Na  Na1  1  0.44108200  0.92824700  0.96944700  1
  Na  Na2  1  0.02737700  0.30749900  0.31419400  1
  Na  Na3  1  0.58557800  0.38134500  0.05468800  1
  Na  Na4  1  0.98805700  0.94050800  0.29246000  1
  Na  Na5  1  0.22112200  0.60398800  0.63771100  1
  Na  Na6  1  0.07860900  0.17309800  0.82191200  1
  V  V7  1  0.73340600  0.51593200  0.55853300  1
  W  W8  1  0.67012200  0.59281800  0.87944800  1
  W  W9  1  0.95843500  0.78159900  0.85424200  1
  W  W10  1  0.60904400  0.84210900  0.66034900  1
  W  W11  1  0.44163800  0.32960800  0.59400700  1
  W  W12  1  0.36829800  0.58454300  0.37750400  1
  W  W13  1  0.49121900  0.26724400  0.28715900  1
  O  O14  1  0.64280700  0.64201400  0.48809300  1
  O  O15  1  0.85719100  0.09793200  0.22346800  1
  O  O16  1  0.93954700  0.59297900  0.64624700  1
  O  O17  1  0.38610000  0.21811300  0.84221700  1
  O  O18  1  0.92798300  0.70505100  0.28292400  1
  O  O19  1  0.26180400  0.19931700  0.20669800  1
  O  O20  1  0.76682400  0.71555800  0.28577300  1
  O  O21  1  0.81827100  0.17726000  0.89638600  1
  O  O22  1  0.20714000  0.96858500  0.18773700  1
  O  O23  1  0.15513200  0.51570300  0.35004600  1
  O  O24  1  0.53459900  0.96684900  0.80803800  1
  O  O25  1  0.14043500  0.43643200  0.97461300  1
  O  O26  1  0.68120100  0.70275600  0.75690700  1
  O  O27  1  0.51816000  0.19827500  0.42444600  1
  O  O28  1  0.18365800  0.77569400  0.85700300  1
  O  O29  1  0.26450000  0.50172400  0.97627600  1
  O  O30  1  0.02172000  0.09085000  0.56881300  1
  O  O31  1  0.37587700  0.73524400  0.56617700  1
  O  O32  1  0.45926200  0.44672200  0.47602400  1
  O  O33  1  0.59263400  0.74002600  0.01083200  1
  O  O34  1  0.25265200  0.99029700  0.50211400  1
  O  O35  1  0.47851500  0.22279900  0.68432100  1
  O  O36  1  0.16835600  0.03573200  0.59637500  1
  O  O37  1  0.61139000  0.93021200  0.55828000  1
  O  O38  1  0.45650800  0.41809900  0.23303000  1
  O  O39  1  0.43544200  0.51020400  0.75652200  1
  O  O40  1  0.96666800  0.93270800  0.02485800  1
  O  O41  1  0.91685400  0.64980500  0.92103000  1
  O  O42  1  0.70030300  0.43246400  0.66962200  1
  O  O43  1  0.22105400  0.09097600  0.98025900  1
  O  O44  1  0.21326700  0.31269100  0.52125800  1
  O  O45  1  0.71219400  0.47768300  0.95649900  1
  O  O46  1  0.74873200  0.37332800  0.40138000  1
  O  O47  1  0.34312100  0.67947600  0.27809900  1
  O  O48  1  0.58944000  0.14307300  0.15338800  1
  O  O49  1  0.83232100  0.22145700  0.02407600  1
  O  O50  1  0.86577000  0.87405300  0.74012300  1
  O  O51  1  0.71606400  0.84108200  0.33687200  1
