# generated using pymatgen
data_MnH8C4(NO2)3
_symmetry_space_group_name_H-M   'P 1'
_cell_length_a   8.80542400
_cell_length_b   9.01907400
_cell_length_c   12.37443100
_cell_angle_alpha   90.00000000
_cell_angle_beta   90.00000000
_cell_angle_gamma   90.00000000
_symmetry_Int_Tables_number   1
_chemical_formula_structural   MnH8C4(NO2)3
_chemical_formula_sum   'Mn4 H32 C16 N12 O24'
_cell_volume   982.73734874
_cell_formula_units_Z   4
loop_
 _symmetry_equiv_pos_site_id
 _symmetry_equiv_pos_as_xyz
  1  'x, y, z'
loop_
 _atom_site_type_symbol
 _atom_site_label
 _atom_site_symmetry_multiplicity
 _atom_site_fract_x
 _atom_site_fract_y
 _atom_site_fract_z
 _atom_site_occupancy
  Mn  Mn0  1  0.25235500  0.24851500  0.74963800  1
  Mn  Mn1  1  0.24764500  0.25148500  0.24963800  1
  Mn  Mn2  1  0.74764500  0.74851500  0.24963800  1
  Mn  Mn3  1  0.75235500  0.75148500  0.74963800  1
  H  H4  1  0.90169600  0.07433100  0.77502700  1
  H  H5  1  0.59223300  0.07502500  0.22521300  1
  H  H6  1  0.90776700  0.42497500  0.72521300  1
  H  H7  1  0.59830400  0.42566900  0.27502700  1
  H  H8  1  0.09223300  0.92497500  0.22521300  1
  H  H9  1  0.40169600  0.92566900  0.77502700  1
  H  H10  1  0.09830400  0.57433100  0.27502700  1
  H  H11  1  0.40776700  0.57502500  0.72521300  1
  H  H12  1  0.25197400  0.31727500  0.00113400  1
  H  H13  1  0.24802600  0.18272500  0.50113400  1
  H  H14  1  0.75197400  0.68272500  0.00113400  1
  H  H15  1  0.74802600  0.81727500  0.50113400  1
  H  H16  1  0.17314800  0.92579400  0.92106800  1
  H  H17  1  0.32576400  0.92438100  0.07880200  1
  H  H18  1  0.17423600  0.57561900  0.57880200  1
  H  H19  1  0.32685200  0.57420600  0.42106800  1
  H  H20  1  0.82576400  0.07561900  0.07880200  1
  H  H21  1  0.67314800  0.07420600  0.92106800  1
  H  H22  1  0.82685200  0.42579400  0.42106800  1
  H  H23  1  0.67423600  0.42438100  0.57880200  1
  H  H24  1  0.09397400  0.75280600  0.87786300  1
  H  H25  1  0.40426300  0.74887800  0.12042400  1
  H  H26  1  0.09573700  0.75112200  0.62042400  1
  H  H27  1  0.40602600  0.74719400  0.37786300  1
  H  H28  1  0.90426300  0.25112200  0.12042400  1
  H  H29  1  0.59397400  0.24719400  0.87786300  1
  H  H30  1  0.90602600  0.25280600  0.37786300  1
  H  H31  1  0.59573700  0.24887800  0.62042400  1
  H  H32  1  0.17912300  0.54570800  0.94678200  1
  H  H33  1  0.32087700  0.95429200  0.44678200  1
  H  H34  1  0.67912300  0.45429200  0.94678200  1
  H  H35  1  0.82087700  0.04570800  0.44678200  1
  C  C36  1  0.25039500  0.19499200  0.00050800  1
  C  C37  1  0.24960500  0.30500800  0.50050800  1
  C  C38  1  0.75039500  0.80500800  0.00050800  1
  C  C39  1  0.74960500  0.69499200  0.50050800  1
  C  C40  1  0.25026900  0.73796200  0.99901200  1
  C  C41  1  0.24973100  0.76203800  0.49901200  1
  C  C42  1  0.75026900  0.26203800  0.99901200  1
  C  C43  1  0.74973100  0.23796200  0.49901200  1
  C  C44  1  0.98229600  0.01515800  0.72116200  1
  C  C45  1  0.51598700  0.01354800  0.28080500  1
  C  C46  1  0.98401300  0.48645200  0.78080500  1
  C  C47  1  0.51770400  0.48484200  0.22116200  1
  C  C48  1  0.01598700  0.98645200  0.28080500  1
  C  C49  1  0.48229600  0.98484200  0.72116200  1
  C  C50  1  0.01770400  0.51515800  0.22116200  1
  C  C51  1  0.48401300  0.51354800  0.78080500  1
  N  N52  1  0.26142700  0.58911600  0.99723300  1
  N  N53  1  0.23857300  0.91088400  0.49723300  1
  N  N54  1  0.76142700  0.41088400  0.99723300  1
  N  N55  1  0.73857300  0.08911600  0.49723300  1
  N  N56  1  0.16335300  0.81272800  0.92804700  1
  N  N57  1  0.33437400  0.81127400  0.07196800  1
  N  N58  1  0.16562600  0.68872600  0.57196800  1
  N  N59  1  0.33664700  0.68727200  0.42804700  1
  N  N60  1  0.83437400  0.18872600  0.07196800  1
  N  N61  1  0.66335300  0.18727200  0.92804700  1
  N  N62  1  0.83664700  0.31272800  0.42804700  1
  N  N63  1  0.66562600  0.31127400  0.57196800  1
  O  O64  1  0.94757500  0.88358700  0.69337500  1
  O  O65  1  0.55457300  0.88310400  0.30788100  1
  O  O66  1  0.94542700  0.61689600  0.80788100  1
  O  O67  1  0.55242500  0.61641300  0.19337500  1
  O  O68  1  0.05457300  0.11689600  0.30788100  1
  O  O69  1  0.44757500  0.11641300  0.69337500  1
  O  O70  1  0.05242500  0.38358700  0.19337500  1
  O  O71  1  0.44542700  0.38310400  0.80788100  1
  O  O72  1  0.10217800  0.08141000  0.69272900  1
  O  O73  1  0.39546200  0.07673900  0.31282900  1
  O  O74  1  0.10453800  0.42326100  0.81282900  1
  O  O75  1  0.39782200  0.41859000  0.19272900  1
  O  O76  1  0.89546200  0.92326100  0.31282900  1
  O  O77  1  0.60217800  0.91859000  0.69272900  1
  O  O78  1  0.89782200  0.58141000  0.19272900  1
  O  O79  1  0.60453800  0.57673900  0.81282900  1
  O  O80  1  0.24340400  0.12912000  0.90958800  1
  O  O81  1  0.25643800  0.12845100  0.09131300  1
  O  O82  1  0.24356200  0.37154900  0.59131300  1
  O  O83  1  0.25659600  0.37088000  0.40958800  1
  O  O84  1  0.75643800  0.87154900  0.09131300  1
  O  O85  1  0.74340400  0.87088000  0.90958800  1
  O  O86  1  0.75659600  0.62912000  0.40958800  1
  O  O87  1  0.74356200  0.62845100  0.59131300  1
