# generated using pymatgen
data_LaNd3(GaO3)4
_symmetry_space_group_name_H-M   'P 1'
_cell_length_a   7.82341000
_cell_length_b   5.48592500
_cell_length_c   5.59864177
_cell_angle_alpha   89.93353099
_cell_angle_beta   90.00000000
_cell_angle_gamma   90.00000000
_symmetry_Int_Tables_number   1
_chemical_formula_structural   LaNd3(GaO3)4
_chemical_formula_sum   'La1 Nd3 Ga4 O12'
_cell_volume   240.28593164
_cell_formula_units_Z   1
loop_
 _symmetry_equiv_pos_site_id
 _symmetry_equiv_pos_as_xyz
  1  'x, y, z'
loop_
 _atom_site_type_symbol
 _atom_site_label
 _atom_site_symmetry_multiplicity
 _atom_site_fract_x
 _atom_site_fract_y
 _atom_site_fract_z
 _atom_site_occupancy
  La  La0  1  0.50000000  0.49152900  0.53928600  1
  Nd  Nd1  1  0.50000000  0.01095800  0.04710500  1
  Nd  Nd2  1  0.00000000  0.51116600  0.45017200  1
  Nd  Nd3  1  0.00000000  0.98985300  0.95292500  1
  Ga  Ga4  1  0.24849800  0.00048900  0.50084900  1
  Ga  Ga5  1  0.75100800  0.49957700  0.99779700  1
  Ga  Ga6  1  0.75150200  0.00048900  0.50084900  1
  Ga  Ga7  1  0.24899200  0.49957700  0.99779700  1
  O  O8  1  0.50000000  0.58374100  0.98354900  1
  O  O9  1  0.50000000  0.92468800  0.47828500  1
  O  O10  1  0.00000000  0.41651900  0.02148600  1
  O  O11  1  0.00000000  0.08484000  0.52289300  1
  O  O12  1  0.29235600  0.20458700  0.79607100  1
  O  O13  1  0.70902500  0.28993200  0.29090400  1
  O  O14  1  0.79466400  0.79051900  0.20870600  1
  O  O15  1  0.20386100  0.70824800  0.70782300  1
  O  O16  1  0.20533600  0.79051900  0.20870600  1
  O  O17  1  0.79613900  0.70824800  0.70782300  1
  O  O18  1  0.70764400  0.20458700  0.79607100  1
  O  O19  1  0.29097500  0.28993200  0.29090400  1
