# generated using pymatgen
data_MnZn3(MoO5)9
_symmetry_space_group_name_H-M   'P 1'
_cell_length_a   9.90781900
_cell_length_b   9.94915886
_cell_length_c   10.01782730
_cell_angle_alpha   104.14834772
_cell_angle_beta   103.70911513
_cell_angle_gamma   103.85739636
_symmetry_Int_Tables_number   1
_chemical_formula_structural   MnZn3(MoO5)9
_chemical_formula_sum   'Mn1 Zn3 Mo9 O45'
_cell_volume   882.68256033
_cell_formula_units_Z   1
loop_
 _symmetry_equiv_pos_site_id
 _symmetry_equiv_pos_as_xyz
  1  'x, y, z'
loop_
 _atom_site_type_symbol
 _atom_site_label
 _atom_site_symmetry_multiplicity
 _atom_site_fract_x
 _atom_site_fract_y
 _atom_site_fract_z
 _atom_site_occupancy
  Mn  Mn0  1  0.50570200  0.50461900  0.50428600  1
  Zn  Zn1  1  0.89562300  0.46949000  0.06702300  1
  Zn  Zn2  1  0.48181100  0.06812600  0.90879400  1
  Zn  Zn3  1  0.06612300  0.88894200  0.46063200  1
  Mo  Mo4  1  0.29232900  0.49947000  0.70963700  1
  Mo  Mo5  1  0.49475400  0.71031500  0.29282000  1
  Mo  Mo6  1  0.71140600  0.29317400  0.49498700  1
  Mo  Mo7  1  0.64776500  0.62660200  0.85246100  1
  Mo  Mo8  1  0.62448700  0.85224000  0.64706600  1
  Mo  Mo9  1  0.85572400  0.64950700  0.62706700  1
  Mo  Mo10  1  0.35355200  0.15392300  0.39195500  1
  Mo  Mo11  1  0.39214600  0.35273200  0.15499800  1
  Mo  Mo12  1  0.15295300  0.39037800  0.35151700  1
  O  O13  1  0.78784600  0.57404300  0.95883000  1
  O  O14  1  0.56886500  0.95604800  0.78696300  1
  O  O15  1  0.96449500  0.78984800  0.57635700  1
  O  O16  1  0.22167500  0.05549200  0.45862300  1
  O  O17  1  0.46461300  0.22244000  0.06068400  1
  O  O18  1  0.05600300  0.45822200  0.22098000  1
  O  O19  1  0.47524100  0.47743100  0.82440500  1
  O  O20  1  0.47392500  0.82441700  0.47565600  1
  O  O21  1  0.82980500  0.47766900  0.47873200  1
  O  O22  1  0.53237800  0.17925800  0.52833100  1
  O  O23  1  0.53008700  0.53204200  0.18009200  1
  O  O24  1  0.17817700  0.53130000  0.52923200  1
  O  O25  1  0.62775500  0.77176900  0.97140700  1
  O  O26  1  0.76928200  0.97390300  0.62930800  1
  O  O27  1  0.97527600  0.63155200  0.77274900  1
  O  O28  1  0.35821300  0.02598100  0.24350600  1
  O  O29  1  0.24371800  0.35406300  0.02533500  1
  O  O30  1  0.02390000  0.24244800  0.35557300  1
  O  O31  1  0.81773900  0.58049600  0.21362800  1
  O  O32  1  0.57668300  0.21532200  0.82275200  1
  O  O33  1  0.21418300  0.80463000  0.55974300  1
  O  O34  1  0.01419600  0.44253400  0.92832200  1
  O  O35  1  0.42443200  0.92298500  0.01251500  1
  O  O36  1  0.92654100  0.00957900  0.43866500  1
  O  O37  1  0.76834800  0.76926800  0.76758400  1
  O  O38  1  0.24117100  0.23981800  0.23976100  1
  O  O39  1  0.27985500  0.64577300  0.83597600  1
  O  O40  1  0.64582400  0.83786000  0.28459800  1
  O  O41  1  0.83811500  0.28116600  0.64248600  1
  O  O42  1  0.71367600  0.17112800  0.34176400  1
  O  O43  1  0.34310800  0.71357700  0.16982300  1
  O  O44  1  0.16911000  0.34505200  0.71116600  1
  O  O45  1  0.17781600  0.84441200  0.95933000  1
  O  O46  1  0.81693600  0.95409200  0.22395400  1
  O  O47  1  0.95190200  0.22601100  0.81656800  1
  O  O48  1  0.66651900  0.48918000  0.64328100  1
  O  O49  1  0.48795800  0.64351400  0.66465400  1
  O  O50  1  0.64600500  0.66728400  0.49038800  1
  O  O51  1  0.33825200  0.36413400  0.51432300  1
  O  O52  1  0.52062400  0.34037500  0.36536100  1
  O  O53  1  0.36581100  0.51754600  0.33825400  1
  O  O54  1  0.06137600  0.99196800  0.01205500  1
  O  O55  1  0.79020800  0.26015400  0.94499900  1
  O  O56  1  0.26010400  0.94544500  0.81715000  1
  O  O57  1  0.94174300  0.79324900  0.25459100  1
