# generated using pymatgen
data_LuSc(FeO3)2
_symmetry_space_group_name_H-M   'P 1'
_cell_length_a   5.95047294
_cell_length_b   5.95047294
_cell_length_c   11.68921400
_cell_angle_alpha   90.00000000
_cell_angle_beta   90.00000000
_cell_angle_gamma   120.00001043
_symmetry_Int_Tables_number   1
_chemical_formula_structural   LuSc(FeO3)2
_chemical_formula_sum   'Lu3 Sc3 Fe6 O18'
_cell_volume   358.44197736
_cell_formula_units_Z   3
loop_
 _symmetry_equiv_pos_site_id
 _symmetry_equiv_pos_as_xyz
  1  'x, y, z'
loop_
 _atom_site_type_symbol
 _atom_site_label
 _atom_site_symmetry_multiplicity
 _atom_site_fract_x
 _atom_site_fract_y
 _atom_site_fract_z
 _atom_site_occupancy
  Lu  Lu0  1  0.33333300  0.66666700  0.73319900  1
  Lu  Lu1  1  0.00000000  0.00000000  0.73312600  1
  Lu  Lu2  1  0.00000000  0.00000000  0.23345500  1
  Sc  Sc3  1  0.33333300  0.66666700  0.23405000  1
  Sc  Sc4  1  0.66666700  0.33333300  0.77336600  1
  Sc  Sc5  1  0.66666700  0.33333300  0.27298900  1
  Fe  Fe6  1  0.66543300  0.66434800  0.49886000  1
  Fe  Fe7  1  0.33565200  0.00108500  0.49886000  1
  Fe  Fe8  1  0.99891500  0.33456700  0.49886000  1
  Fe  Fe9  1  0.66505400  0.00082100  0.00088600  1
  Fe  Fe10  1  0.99917900  0.66423300  0.00088600  1
  Fe  Fe11  1  0.33576700  0.33494600  0.00088600  1
  O  O12  1  0.33333300  0.66666700  0.52241000  1
  O  O13  1  0.00000000  0.00000000  0.51909400  1
  O  O14  1  0.00000000  0.00000000  0.02351400  1
  O  O15  1  0.33333300  0.66666700  0.01922200  1
  O  O16  1  0.66715600  0.63244400  0.66702700  1
  O  O17  1  0.36755600  0.03471200  0.66702700  1
  O  O18  1  0.96528800  0.33284400  0.66702700  1
  O  O19  1  0.65644500  0.02365600  0.16935100  1
  O  O20  1  0.97634400  0.63278900  0.16935100  1
  O  O21  1  0.36721100  0.34355500  0.16935100  1
  O  O22  1  0.66666700  0.33333300  0.97456600  1
  O  O23  1  0.66666700  0.33333300  0.47037400  1
  O  O24  1  0.66724300  0.98175200  0.83425000  1
  O  O25  1  0.01824800  0.68549000  0.83425000  1
  O  O26  1  0.31451000  0.33275700  0.83425000  1
  O  O27  1  0.65971000  0.68539100  0.33246600  1
  O  O28  1  0.31460900  0.97431900  0.33246600  1
  O  O29  1  0.02568100  0.34029000  0.33246600  1
