# generated using pymatgen
data_LaMo6(SeS)4
_symmetry_space_group_name_H-M   'P 1'
_cell_length_a   6.69926800
_cell_length_b   6.70536820
_cell_length_c   6.76903752
_cell_angle_alpha   90.24427685
_cell_angle_beta   90.78126210
_cell_angle_gamma   90.10471612
_symmetry_Int_Tables_number   1
_chemical_formula_structural   LaMo6(SeS)4
_chemical_formula_sum   'La1 Mo6 Se4 S4'
_cell_volume   304.04075952
_cell_formula_units_Z   1
loop_
 _symmetry_equiv_pos_site_id
 _symmetry_equiv_pos_as_xyz
  1  'x, y, z'
loop_
 _atom_site_type_symbol
 _atom_site_label
 _atom_site_symmetry_multiplicity
 _atom_site_fract_x
 _atom_site_fract_y
 _atom_site_fract_z
 _atom_site_occupancy
  La  La0  1  0.99628600  0.00903700  0.99849500  1
  Mo  Mo1  1  0.23304300  0.55520100  0.57715000  1
  Mo  Mo2  1  0.56033500  0.41714200  0.76333000  1
  Mo  Mo3  1  0.41931600  0.23075800  0.44164800  1
  Mo  Mo4  1  0.77085800  0.43910900  0.42071600  1
  Mo  Mo5  1  0.44083200  0.57710300  0.23511900  1
  Mo  Mo6  1  0.58368100  0.76938200  0.55574600  1
  Se  Se7  1  0.37842300  0.75429000  0.87585300  1
  Se  Se8  1  0.24123700  0.87698600  0.37389900  1
  Se  Se9  1  0.88187000  0.62522300  0.75636100  1
  Se  Se10  1  0.62281000  0.24232200  0.12132400  1
  S  S11  1  0.24435000  0.24270100  0.75159600  1
  S  S12  1  0.75727900  0.75318500  0.24652800  1
  S  S13  1  0.73924600  0.13090900  0.61997300  1
  S  S14  1  0.13043300  0.37665300  0.26226100  1
