# generated using pymatgen
data_Na2Ca17Al12O36
_symmetry_space_group_name_H-M   'P 1'
_cell_length_a   15.35955100
_cell_length_b   10.87151700
_cell_length_c   10.96490760
_cell_angle_alpha   89.84409022
_cell_angle_beta   90.00000000
_cell_angle_gamma   90.00000000
_symmetry_Int_Tables_number   1
_chemical_formula_structural   Na2Ca17Al12O36
_chemical_formula_sum   'Na4 Ca34 Al24 O72'
_cell_volume   1830.93125265
_cell_formula_units_Z   2
loop_
 _symmetry_equiv_pos_site_id
 _symmetry_equiv_pos_as_xyz
  1  'x, y, z'
loop_
 _atom_site_type_symbol
 _atom_site_label
 _atom_site_symmetry_multiplicity
 _atom_site_fract_x
 _atom_site_fract_y
 _atom_site_fract_z
 _atom_site_occupancy
  Na  Na0  1  0.50072900  0.99948700  0.25056400  1
  Na  Na1  1  0.50065200  0.49897400  0.74977700  1
  Na  Na2  1  0.00065200  0.50102600  0.25022300  1
  Na  Na3  1  0.00072900  0.00051300  0.74943600  1
  Ca  Ca4  1  0.37191600  0.28938100  0.26236700  1
  Ca  Ca5  1  0.63344300  0.22434200  0.76178000  1
  Ca  Ca6  1  0.13344300  0.77565800  0.23822000  1
  Ca  Ca7  1  0.87191600  0.71061900  0.73763300  1
  Ca  Ca8  1  0.62738600  0.71206100  0.23762600  1
  Ca  Ca9  1  0.36432000  0.76567500  0.73800100  1
  Ca  Ca10  1  0.86432000  0.23432500  0.26199900  1
  Ca  Ca11  1  0.12738600  0.28793900  0.76237400  1
  Ca  Ca12  1  0.25932300  0.02621100  0.24292200  1
  Ca  Ca13  1  0.74126400  0.47970200  0.74566400  1
  Ca  Ca14  1  0.24126400  0.52029800  0.25433600  1
  Ca  Ca15  1  0.75932300  0.97378900  0.75707800  1
  Ca  Ca16  1  0.74002100  0.97480100  0.25821400  1
  Ca  Ca17  1  0.25629100  0.51847300  0.75417900  1
  Ca  Ca18  1  0.75629100  0.48152700  0.24582100  1
  Ca  Ca19  1  0.24002100  0.02519900  0.74178600  1
  Ca  Ca20  1  0.00237500  0.24885700  0.52008600  1
  Ca  Ca21  1  0.99632600  0.25881900  0.01336400  1
  Ca  Ca22  1  0.49632600  0.74118100  0.98663600  1
  Ca  Ca23  1  0.50237500  0.75114300  0.47991400  1
  Ca  Ca24  1  0.99727700  0.74932700  0.97935000  1
  Ca  Ca25  1  0.00414100  0.74167500  0.48819600  1
  Ca  Ca26  1  0.50414100  0.25832500  0.51180400  1
  Ca  Ca27  1  0.49727700  0.25067300  0.02065000  1
  Ca  Ca28  1  0.98078400  0.00199600  0.24933800  1
  Ca  Ca29  1  0.48078400  0.99800400  0.75066200  1
  Ca  Ca30  1  0.24574200  0.27279700  0.50465800  1
  Ca  Ca31  1  0.75350300  0.22857600  0.00453500  1
  Ca  Ca32  1  0.25350300  0.77142400  0.99546500  1
  Ca  Ca33  1  0.74574200  0.72720300  0.49534200  1
  Ca  Ca34  1  0.75291500  0.72739200  0.99327400  1
  Ca  Ca35  1  0.24610100  0.77441700  0.49210700  1
  Ca  Ca36  1  0.74610100  0.22558300  0.50789300  1
  Ca  Ca37  1  0.25291500  0.27260800  0.00672600  1
  Al  Al38  1  0.60920200  0.00241900  0.49595100  1
  Al  Al39  1  0.39123700  0.49539200  0.99436000  1
  Al  Al40  1  0.89123700  0.50460800  0.00564000  1
  Al  Al41  1  0.10920200  0.99758100  0.50404900  1
  Al  Al42  1  0.39227000  0.99890100  0.00605300  1
  Al  Al43  1  0.60793200  0.50435800  0.50588600  1
  Al  Al44  1  0.10793200  0.49564200  0.49411400  1
  Al  Al45  1  0.89227000  0.00109900  0.99394700  1
  Al  Al46  1  0.38764900  0.00226400  0.48721800  1
  Al  Al47  1  0.61152500  0.49962000  0.99003500  1
  Al  Al48  1  0.11152500  0.50038000  0.00996500  1
  Al  Al49  1  0.88764900  0.99773600  0.51278200  1
  Al  Al50  1  0.61352900  0.99894800  0.01059400  1
  Al  Al51  1  0.38763600  0.50088100  0.50961800  1
  Al  Al52  1  0.88763600  0.49911900  0.49038200  1
  Al  Al53  1  0.11352900  0.00105200  0.98940600  1
  Al  Al54  1  0.38251100  0.79068200  0.24482100  1
  Al  Al55  1  0.61558500  0.71318500  0.74571200  1
  Al  Al56  1  0.11558500  0.28681500  0.25428800  1
  Al  Al57  1  0.88251100  0.20931800  0.75517900  1
  Al  Al58  1  0.61707600  0.20937200  0.25433600  1
  Al  Al59  1  0.38295200  0.28860600  0.75390200  1
  Al  Al60  1  0.88295200  0.71139400  0.24609800  1
  Al  Al61  1  0.11707600  0.79062800  0.74566400  1
  O  O62  1  0.48512600  0.73271600  0.27738500  1
  O  O63  1  0.51689900  0.79282400  0.77873600  1
  O  O64  1  0.01689900  0.20717600  0.22126400  1
  O  O65  1  0.98512600  0.26728400  0.72261500  1
  O  O66  1  0.51450900  0.26857800  0.22277000  1
  O  O67  1  0.48069400  0.20710300  0.71942500  1
  O  O68  1  0.98069400  0.79289700  0.28057500  1
  O  O69  1  0.01450900  0.73142200  0.77723000  1
  O  O70  1  0.37518200  0.15854700  0.44819100  1
  O  O71  1  0.62737000  0.34307100  0.94688800  1
  O  O72  1  0.12737000  0.65692900  0.05311200  1
  O  O73  1  0.87518200  0.84145300  0.55180900  1
  O  O74  1  0.62423200  0.84226800  0.05040900  1
  O  O75  1  0.37209100  0.65771200  0.55138600  1
  O  O76  1  0.87209100  0.34228800  0.44861400  1
  O  O77  1  0.12423200  0.15773200  0.94959100  1
  O  O78  1  0.36880200  0.91264400  0.35425900  1
  O  O79  1  0.62414400  0.59000500  0.85327100  1
  O  O80  1  0.12414400  0.40999500  0.14672900  1
  O  O81  1  0.86880200  0.08735600  0.64574100  1
  O  O82  1  0.63177400  0.08696900  0.14572200  1
  O  O83  1  0.37442400  0.41246300  0.64766300  1
  O  O84  1  0.87442400  0.58753700  0.35233700  1
  O  O85  1  0.13177400  0.91303100  0.85427800  1
  O  O86  1  0.66248100  0.06629100  0.62308500  1
  O  O87  1  0.32987800  0.43037100  0.11321000  1
  O  O88  1  0.82987800  0.56962900  0.88679000  1
  O  O89  1  0.16248100  0.93370900  0.37691500  1
  O  O90  1  0.34735000  0.93956800  0.86969200  1
  O  O91  1  0.66869200  0.57047300  0.38692000  1
  O  O92  1  0.16869200  0.42952700  0.61308000  1
  O  O93  1  0.84735000  0.06043200  0.13030800  1
  O  O94  1  0.64288700  0.87160600  0.41328800  1
  O  O95  1  0.35770600  0.62934400  0.91076400  1
  O  O96  1  0.85770600  0.37065600  0.08923600  1
  O  O97  1  0.14288700  0.12839400  0.58671200  1
  O  O98  1  0.35747700  0.12908900  0.08775300  1
  O  O99  1  0.64152900  0.36993900  0.58923600  1
  O  O100  1  0.14152900  0.63006100  0.41076400  1
  O  O101  1  0.85747700  0.87091100  0.91224700  1
  O  O102  1  0.39362200  0.86493900  0.09938500  1
  O  O103  1  0.59890600  0.63589000  0.60484100  1
  O  O104  1  0.09890600  0.36411000  0.39515900  1
  O  O105  1  0.89362200  0.13506100  0.90061500  1
  O  O106  1  0.60646700  0.13438500  0.39882400  1
  O  O107  1  0.40042500  0.36401900  0.89538000  1
  O  O108  1  0.90042500  0.63598100  0.10462000  1
  O  O109  1  0.10646700  0.86561500  0.60117600  1
  O  O110  1  0.28048200  0.71851100  0.23619400  1
  O  O111  1  0.71922100  0.77924600  0.73598200  1
  O  O112  1  0.21922100  0.22075400  0.26401800  1
  O  O113  1  0.78048200  0.28148900  0.76380600  1
  O  O114  1  0.71862100  0.28235700  0.26204300  1
  O  O115  1  0.28022500  0.21990500  0.76368400  1
  O  O116  1  0.78022500  0.78009500  0.23631600  1
  O  O117  1  0.21862100  0.71764300  0.73795700  1
  O  O118  1  0.49793000  0.96953400  0.53550300  1
  O  O119  1  0.50143500  0.52963300  0.02868000  1
  O  O120  1  0.00143500  0.47036700  0.97132000  1
  O  O121  1  0.99793000  0.03046600  0.46449700  1
  O  O122  1  0.50343600  0.03458900  0.96382700  1
  O  O123  1  0.49773300  0.46982100  0.47182100  1
  O  O124  1  0.99773300  0.53017900  0.52817900  1
  O  O125  1  0.00343600  0.96541100  0.03617300  1
  O  O126  1  0.32814600  0.93222900  0.60575300  1
  O  O127  1  0.67949500  0.56966300  0.09792800  1
  O  O128  1  0.17949500  0.43033700  0.90207200  1
  O  O129  1  0.82814600  0.06777100  0.39424700  1
  O  O130  1  0.67937300  0.06932200  0.89956100  1
  O  O131  1  0.31937600  0.43135400  0.40179100  1
  O  O132  1  0.81937600  0.56864600  0.59820900  1
  O  O133  1  0.17937300  0.93067800  0.10043900  1
