# generated using pymatgen
data_LaYCo10
_symmetry_space_group_name_H-M   'P 1'
_cell_length_a   3.96209800
_cell_length_b   4.96143800
_cell_length_c   8.64148600
_cell_angle_alpha   90.00000000
_cell_angle_beta   90.00000000
_cell_angle_gamma   90.00000000
_symmetry_Int_Tables_number   1
_chemical_formula_structural   LaYCo10
_chemical_formula_sum   'La1 Y1 Co10'
_cell_volume   169.87177025
_cell_formula_units_Z   1
loop_
 _symmetry_equiv_pos_site_id
 _symmetry_equiv_pos_as_xyz
  1  'x, y, z'
loop_
 _atom_site_type_symbol
 _atom_site_label
 _atom_site_symmetry_multiplicity
 _atom_site_fract_x
 _atom_site_fract_y
 _atom_site_fract_z
 _atom_site_occupancy
  La  La0  1  0.00000000  0.50000000  0.00000000  1
  Y  Y1  1  0.00000000  0.00000000  0.50000000  1
  Co  Co2  1  0.00000000  0.50000000  0.33427500  1
  Co  Co3  1  0.00000000  0.00000000  0.82921400  1
  Co  Co4  1  0.00000000  0.00000000  0.17078600  1
  Co  Co5  1  0.00000000  0.50000000  0.66572500  1
  Co  Co6  1  0.50000000  0.50000000  0.50000000  1
  Co  Co7  1  0.50000000  0.00000000  0.00000000  1
  Co  Co8  1  0.50000000  0.75763700  0.25893100  1
  Co  Co9  1  0.50000000  0.24236300  0.74106900  1
  Co  Co10  1  0.50000000  0.24236300  0.25893100  1
  Co  Co11  1  0.50000000  0.75763700  0.74106900  1
