# generated using pymatgen
data_LaY3Ti4O12
_symmetry_space_group_name_H-M   'P 1'
_cell_length_a   7.75141300
_cell_length_b   5.39855400
_cell_length_c   5.73630600
_cell_angle_alpha   89.99905111
_cell_angle_beta   90.00000000
_cell_angle_gamma   90.00000000
_symmetry_Int_Tables_number   1
_chemical_formula_structural   LaY3Ti4O12
_chemical_formula_sum   'La1 Y3 Ti4 O12'
_cell_volume   240.04387963
_cell_formula_units_Z   1
loop_
 _symmetry_equiv_pos_site_id
 _symmetry_equiv_pos_as_xyz
  1  'x, y, z'
loop_
 _atom_site_type_symbol
 _atom_site_label
 _atom_site_symmetry_multiplicity
 _atom_site_fract_x
 _atom_site_fract_y
 _atom_site_fract_z
 _atom_site_occupancy
  La  La0  1  0.00000000  0.48276200  0.43544000  1
  Y  Y1  1  0.00000000  0.02192600  0.93013600  1
  Y  Y2  1  0.50000000  0.52084200  0.57363500  1
  Y  Y3  1  0.50000000  0.98204400  0.07129300  1
  Ti  Ti4  1  0.25361800  0.00008300  0.50122500  1
  Ti  Ti5  1  0.74745700  0.49916700  0.00025400  1
  Ti  Ti6  1  0.74638200  0.00008300  0.50122500  1
  Ti  Ti7  1  0.25254300  0.49916700  0.00025400  1
  O  O8  1  0.19850400  0.18385900  0.19122900  1
  O  O9  1  0.79719200  0.30106600  0.70692800  1
  O  O10  1  0.69153200  0.80540900  0.80125100  1
  O  O11  1  0.30909800  0.69082800  0.30337600  1
  O  O12  1  0.30846800  0.80540900  0.80125100  1
  O  O13  1  0.69090200  0.69082800  0.30337600  1
  O  O14  1  0.80149600  0.18385900  0.19122900  1
  O  O15  1  0.20280800  0.30106600  0.70692800  1
  O  O16  1  0.00000000  0.61496200  0.02332400  1
  O  O17  1  0.00000000  0.91185800  0.54070500  1
  O  O18  1  0.50000000  0.38582100  0.96017600  1
  O  O19  1  0.50000000  0.11896100  0.45676800  1
