# generated using pymatgen
data_WO3
_symmetry_space_group_name_H-M   'P 1'
_cell_length_a   7.60205500
_cell_length_b   7.70010400
_cell_length_c   7.74714300
_cell_angle_alpha   90.00000000
_cell_angle_beta   90.00000000
_cell_angle_gamma   90.00000000
_symmetry_Int_Tables_number   1
_chemical_formula_structural   WO3
_chemical_formula_sum   'W8 O24'
_cell_volume   453.49152027
_cell_formula_units_Z   8
loop_
 _symmetry_equiv_pos_site_id
 _symmetry_equiv_pos_as_xyz
  1  'x, y, z'
loop_
 _atom_site_type_symbol
 _atom_site_label
 _atom_site_symmetry_multiplicity
 _atom_site_fract_x
 _atom_site_fract_y
 _atom_site_fract_z
 _atom_site_occupancy
  W  W0  1  0.75096100  0.01766000  0.23368100  1
  W  W1  1  0.74903900  0.01766000  0.73368100  1
  W  W2  1  0.24903900  0.98234000  0.76631900  1
  W  W3  1  0.24903900  0.48234000  0.23368100  1
  W  W4  1  0.75096100  0.51766000  0.76631900  1
  W  W5  1  0.74903900  0.51766000  0.26631900  1
  W  W6  1  0.25096100  0.98234000  0.26631900  1
  W  W7  1  0.25096100  0.48234000  0.73368100  1
  O  O8  1  0.72073600  0.75762000  0.25291900  1
  O  O9  1  0.49961100  0.02892100  0.27465000  1
  O  O10  1  0.27926400  0.24238000  0.74708100  1
  O  O11  1  0.77926400  0.25762000  0.24708100  1
  O  O12  1  0.72478300  0.00968700  0.99621400  1
  O  O13  1  0.99961100  0.97107900  0.22535000  1
  O  O14  1  0.00038900  0.02892100  0.77465000  1
  O  O15  1  0.77926400  0.75762000  0.75291900  1
  O  O16  1  0.00038900  0.52892100  0.22535000  1
  O  O17  1  0.49961100  0.52892100  0.72535000  1
  O  O18  1  0.22478300  0.99031300  0.50378600  1
  O  O19  1  0.99961100  0.47107900  0.77465000  1
  O  O20  1  0.50038900  0.97107900  0.72535000  1
  O  O21  1  0.22478300  0.49031300  0.49621400  1
  O  O22  1  0.72073600  0.25762000  0.74708100  1
  O  O23  1  0.27521700  0.49031300  0.99621400  1
  O  O24  1  0.50038900  0.47107900  0.27465000  1
  O  O25  1  0.72478300  0.50968700  0.00378600  1
  O  O26  1  0.22073600  0.74238000  0.75291900  1
  O  O27  1  0.27521700  0.99031300  0.00378600  1
  O  O28  1  0.77521700  0.00968700  0.49621400  1
  O  O29  1  0.27926400  0.74238000  0.25291900  1
  O  O30  1  0.77521700  0.50968700  0.50378600  1
  O  O31  1  0.22073600  0.24238000  0.24708100  1
