# generated using pymatgen
data_LaNdCuO4
_symmetry_space_group_name_H-M   'P 1'
_cell_length_a   7.05219292
_cell_length_b   7.05219292
_cell_length_c   7.05219292
_cell_angle_alpha   148.82050485
_cell_angle_beta   148.82050485
_cell_angle_gamma   44.67558097
_symmetry_Int_Tables_number   1
_chemical_formula_structural   LaNdCuO4
_chemical_formula_sum   'La1 Nd1 Cu1 O4'
_cell_volume   93.72250891
_cell_formula_units_Z   1
loop_
 _symmetry_equiv_pos_site_id
 _symmetry_equiv_pos_as_xyz
  1  'x, y, z'
loop_
 _atom_site_type_symbol
 _atom_site_label
 _atom_site_symmetry_multiplicity
 _atom_site_fract_x
 _atom_site_fract_y
 _atom_site_fract_z
 _atom_site_occupancy
  La  La0  1  0.35962300  0.35962300  0.00000000  1
  Nd  Nd1  1  0.63629300  0.63629300  0.00000000  1
  Cu  Cu2  1  0.00027600  0.00027600  0.00000000  1
  O  O3  1  0.81363900  0.81363900  0.00000000  1
  O  O4  1  0.18378300  0.18378300  0.00000000  1
  O  O5  1  0.00319300  0.50319300  0.50000000  1
  O  O6  1  0.50319300  0.00319300  0.50000000  1
