# generated using pymatgen
data_LiH7(SO4)4
_symmetry_space_group_name_H-M   'P 1'
_cell_length_a   5.06767527
_cell_length_b   7.33441900
_cell_length_c   8.81570715
_cell_angle_alpha   81.85157420
_cell_angle_beta   87.15683483
_cell_angle_gamma   80.99925350
_symmetry_Int_Tables_number   1
_chemical_formula_structural   LiH7(SO4)4
_chemical_formula_sum   'Li1 H7 S4 O16'
_cell_volume   320.23802629
_cell_formula_units_Z   1
loop_
 _symmetry_equiv_pos_site_id
 _symmetry_equiv_pos_as_xyz
  1  'x, y, z'
loop_
 _atom_site_type_symbol
 _atom_site_label
 _atom_site_symmetry_multiplicity
 _atom_site_fract_x
 _atom_site_fract_y
 _atom_site_fract_z
 _atom_site_occupancy
  Li  Li0  1  0.49923100  0.50261400  0.51436600  1
  H  H1  1  0.81031200  0.07165800  0.82424600  1
  H  H2  1  0.18469700  0.92023500  0.16972100  1
  H  H3  1  0.05864800  0.57918700  0.76706600  1
  H  H4  1  0.92898200  0.42429300  0.23912600  1
  H  H5  1  0.63168100  0.97703200  0.32343500  1
  H  H6  1  0.37206200  0.01751400  0.67958700  1
  H  H7  1  0.47183400  0.47822800  0.00381700  1
  S  S8  1  0.97026400  0.75842100  0.33713900  1
  S  S9  1  0.03256500  0.23730000  0.66303200  1
  S  S10  1  0.66867000  0.72352900  0.81595900  1
  S  S11  1  0.31493500  0.27439100  0.18809100  1
  O  O12  1  0.19562400  0.71717600  0.43556700  1
  O  O13  1  0.81000700  0.28180000  0.56216900  1
  O  O14  1  0.98359000  0.69084000  0.81802500  1
  O  O15  1  0.00311800  0.30957300  0.18974900  1
  O  O16  1  0.60243000  0.93062700  0.79491900  1
  O  O17  1  0.38498100  0.07037100  0.20651400  1
  O  O18  1  0.81330900  0.61156000  0.32444900  1
  O  O19  1  0.18720800  0.38444600  0.67974500  1
  O  O20  1  0.58607400  0.63911100  0.69057500  1
  O  O21  1  0.41322500  0.36835900  0.30150000  1
  O  O22  1  0.78701100  0.92691100  0.39358300  1
  O  O23  1  0.21886700  0.07133600  0.60594300  1
  O  O24  1  0.57096200  0.64707200  0.96843200  1
  O  O25  1  0.40400800  0.34421800  0.02552200  1
  O  O26  1  0.05673100  0.82740300  0.16885200  1
  O  O27  1  0.93897300  0.16479500  0.82887100  1
