# generated using pymatgen
data_La2Ti3(BiO6)2
_symmetry_space_group_name_H-M   'P 1'
_cell_length_a   16.90068440
_cell_length_b   16.90008588
_cell_length_c   3.85163982
_cell_angle_alpha   83.46570732
_cell_angle_beta   83.44801663
_cell_angle_gamma   13.08627606
_symmetry_Int_Tables_number   1
_chemical_formula_structural   La2Ti3(BiO6)2
_chemical_formula_sum   'La2 Ti3 Bi2 O12'
_cell_volume   247.44219003
_cell_formula_units_Z   1
loop_
 _symmetry_equiv_pos_site_id
 _symmetry_equiv_pos_as_xyz
  1  'x, y, z'
loop_
 _atom_site_type_symbol
 _atom_site_label
 _atom_site_symmetry_multiplicity
 _atom_site_fract_x
 _atom_site_fract_y
 _atom_site_fract_z
 _atom_site_occupancy
  La  La0  1  0.56233800  0.57010600  0.43766200  1
  La  La1  1  0.42989400  0.43766200  0.57010600  1
  Ti  Ti2  1  0.00515100  0.99484900  0.99484900  1
  Ti  Ti3  1  0.87083600  0.87166500  0.12916400  1
  Ti  Ti4  1  0.12833500  0.12916400  0.87166500  1
  Bi  Bi5  1  0.71155200  0.71170500  0.28844800  1
  Bi  Bi6  1  0.28829500  0.28844800  0.71170500  1
  O  O7  1  0.88450200  0.88330600  0.61601300  1
  O  O8  1  0.38398700  0.38382100  0.11549800  1
  O  O9  1  0.11669400  0.11549800  0.38382100  1
  O  O10  1  0.61617900  0.61601300  0.88330600  1
  O  O11  1  0.94346500  0.93893500  0.05653500  1
  O  O12  1  0.06106500  0.05653500  0.93893500  1
  O  O13  1  0.74993900  0.75006100  0.75006100  1
  O  O14  1  0.24993900  0.25006100  0.25006100  1
  O  O15  1  0.81737200  0.81761400  0.18262800  1
  O  O16  1  0.18238600  0.18262800  0.81761400  1
  O  O17  1  0.04435400  0.95564600  0.48328100  1
  O  O18  1  0.51671900  0.48328100  0.95564600  1
