# generated using pymatgen
data_Fe2(PO3)5
_symmetry_space_group_name_H-M   'P 1'
_cell_length_a   8.41856000
_cell_length_b   5.27542900
_cell_length_c   13.71589665
_cell_angle_alpha   70.96829392
_cell_angle_beta   90.00000000
_cell_angle_gamma   90.00000000
_symmetry_Int_Tables_number   1
_chemical_formula_structural   Fe2(PO3)5
_chemical_formula_sum   'Fe4 P10 O30'
_cell_volume   575.84690545
_cell_formula_units_Z   2
loop_
 _symmetry_equiv_pos_site_id
 _symmetry_equiv_pos_as_xyz
  1  'x, y, z'
loop_
 _atom_site_type_symbol
 _atom_site_label
 _atom_site_symmetry_multiplicity
 _atom_site_fract_x
 _atom_site_fract_y
 _atom_site_fract_z
 _atom_site_occupancy
  Fe  Fe0  1  0.28827100  0.07068400  0.03925200  1
  Fe  Fe1  1  0.28934300  0.92952500  0.46021600  1
  Fe  Fe2  1  0.71065700  0.92952500  0.96021600  1
  Fe  Fe3  1  0.71172900  0.07068400  0.53925200  1
  P  P4  1  0.93273400  0.00458700  0.74645800  1
  P  P5  1  0.50968800  0.52189900  0.35879400  1
  P  P6  1  0.51167800  0.47656300  0.64681800  1
  P  P7  1  0.48832200  0.47656300  0.14681800  1
  P  P8  1  0.82012300  0.33522600  0.09943200  1
  P  P9  1  0.17191900  0.66939400  0.89759700  1
  P  P10  1  0.49031200  0.52189900  0.85879400  1
  P  P11  1  0.17987700  0.33522600  0.59943200  1
  P  P12  1  0.82808100  0.66939400  0.39759700  1
  P  P13  1  0.06726600  0.00458700  0.24645800  1
  O  O14  1  0.20542100  0.11652000  0.55442300  1
  O  O15  1  0.32365400  0.67068900  0.82366700  1
  O  O16  1  0.80573200  0.88133800  0.44766300  1
  O  O17  1  0.96033700  0.74595800  0.31050200  1
  O  O18  1  0.93930500  0.23656100  0.19615700  1
  O  O19  1  0.48277200  0.76590500  0.07647500  1
  O  O20  1  0.83829800  0.09600200  0.82033100  1
  O  O21  1  0.19426800  0.88133800  0.94766300  1
  O  O22  1  0.39940100  0.70365000  0.38754700  1
  O  O23  1  0.61909400  0.27825600  0.62309300  1
  O  O24  1  0.85179000  0.38392200  0.46652400  1
  O  O25  1  0.85532300  0.91932500  0.66178900  1
  O  O26  1  0.79457900  0.11652000  0.05442300  1
  O  O27  1  0.53557800  0.24163500  0.43436400  1
  O  O28  1  0.46442200  0.24163500  0.93436400  1
  O  O29  1  0.03966300  0.74595800  0.81050200  1
  O  O30  1  0.44097100  0.47692100  0.25850800  1
  O  O31  1  0.13548400  0.61046100  0.53303800  1
  O  O32  1  0.67634600  0.67068900  0.32366700  1
  O  O33  1  0.51722800  0.76590500  0.57647500  1
  O  O34  1  0.38090600  0.27825600  0.12309300  1
  O  O35  1  0.06069500  0.23656100  0.69615700  1
  O  O36  1  0.16170200  0.09600200  0.32033100  1
  O  O37  1  0.60059900  0.70365000  0.88754700  1
  O  O38  1  0.33725300  0.35845900  0.66598700  1
  O  O39  1  0.86451600  0.61046100  0.03303800  1
  O  O40  1  0.14467700  0.91932500  0.16178900  1
  O  O41  1  0.66274700  0.35845900  0.16598700  1
  O  O42  1  0.55902900  0.47692100  0.75850800  1
  O  O43  1  0.14821000  0.38392200  0.96652400  1
