# generated using pymatgen
data_La2Ti2ZnO8
_symmetry_space_group_name_H-M   'P 1'
_cell_length_a   3.72331200
_cell_length_b   3.72331200
_cell_length_c   12.78626200
_cell_angle_alpha   90.00000000
_cell_angle_beta   90.00000000
_cell_angle_gamma   90.00000000
_symmetry_Int_Tables_number   1
_chemical_formula_structural   La2Ti2ZnO8
_chemical_formula_sum   'La2 Ti2 Zn1 O8'
_cell_volume   177.25661818
_cell_formula_units_Z   1
loop_
 _symmetry_equiv_pos_site_id
 _symmetry_equiv_pos_as_xyz
  1  'x, y, z'
loop_
 _atom_site_type_symbol
 _atom_site_label
 _atom_site_symmetry_multiplicity
 _atom_site_fract_x
 _atom_site_fract_y
 _atom_site_fract_z
 _atom_site_occupancy
  La  La0  1  0.00000000  0.50000000  0.38618900  1
  La  La1  1  0.50000000  0.00000000  0.61381100  1
  Ti  Ti2  1  0.00000000  0.50000000  0.79026200  1
  Ti  Ti3  1  0.50000000  0.00000000  0.20973800  1
  Zn  Zn4  1  0.50000000  0.50000000  0.00000000  1
  O  O5  1  0.50000000  0.50000000  0.25001900  1
  O  O6  1  0.00000000  0.00000000  0.74649300  1
  O  O7  1  0.50000000  0.50000000  0.74998100  1
  O  O8  1  0.00000000  0.00000000  0.25350700  1
  O  O9  1  0.00000000  0.50000000  0.93194000  1
  O  O10  1  0.50000000  0.00000000  0.06806000  1
  O  O11  1  0.00000000  0.50000000  0.57284400  1
  O  O12  1  0.50000000  0.00000000  0.42715600  1
