# generated using pymatgen
data_Fe(PO3)4
_symmetry_space_group_name_H-M   'P 1'
_cell_length_a   9.20868400
_cell_length_b   9.39897900
_cell_length_c   11.92744700
_cell_angle_alpha   90.00000000
_cell_angle_beta   90.00000000
_cell_angle_gamma   90.00000000
_symmetry_Int_Tables_number   1
_chemical_formula_structural   Fe(PO3)4
_chemical_formula_sum   'Fe4 P16 O48'
_cell_volume   1032.34710664
_cell_formula_units_Z   4
loop_
 _symmetry_equiv_pos_site_id
 _symmetry_equiv_pos_as_xyz
  1  'x, y, z'
loop_
 _atom_site_type_symbol
 _atom_site_label
 _atom_site_symmetry_multiplicity
 _atom_site_fract_x
 _atom_site_fract_y
 _atom_site_fract_z
 _atom_site_occupancy
  Fe  Fe0  1  0.75000000  0.01888000  0.20063500  1
  Fe  Fe1  1  0.25000000  0.48112000  0.70063500  1
  Fe  Fe2  1  0.75000000  0.51888000  0.29936500  1
  Fe  Fe3  1  0.25000000  0.98112000  0.79936500  1
  P  P4  1  0.75000000  0.78792600  0.51311500  1
  P  P5  1  0.05294400  0.77359400  0.62087200  1
  P  P6  1  0.44705600  0.77359400  0.62087200  1
  P  P7  1  0.25000000  0.71207400  0.01311500  1
  P  P8  1  0.75000000  0.09476400  0.55714800  1
  P  P9  1  0.55294400  0.22640600  0.37912800  1
  P  P10  1  0.94705600  0.22640600  0.37912800  1
  P  P11  1  0.25000000  0.21207400  0.48688500  1
  P  P12  1  0.75000000  0.28792600  0.98688500  1
  P  P13  1  0.05294400  0.27359400  0.87912800  1
  P  P14  1  0.25000000  0.90523600  0.44285200  1
  P  P15  1  0.25000000  0.40523600  0.05714800  1
  P  P16  1  0.75000000  0.59476400  0.94285200  1
  P  P17  1  0.55294400  0.72640600  0.12087200  1
  P  P18  1  0.94705600  0.72640600  0.12087200  1
  P  P19  1  0.44705600  0.27359400  0.87912800  1
  O  O20  1  0.41693800  0.88696700  0.70535100  1
  O  O21  1  0.08306200  0.88696700  0.70535100  1
  O  O22  1  0.25000000  0.81249000  0.91848200  1
  O  O23  1  0.25000000  0.02654200  0.12968700  1
  O  O24  1  0.58306200  0.11303300  0.29464900  1
  O  O25  1  0.91693800  0.11303300  0.29464900  1
  O  O26  1  0.75000000  0.18751000  0.08151800  1
  O  O27  1  0.75000000  0.97345800  0.87031300  1
  O  O28  1  0.25000000  0.05264800  0.52933200  1
  O  O29  1  0.09516300  0.12272600  0.85898300  1
  O  O30  1  0.40483700  0.12272600  0.85898300  1
  O  O31  1  0.60997200  0.17562300  0.50272400  1
  O  O32  1  0.89002800  0.17562300  0.50272400  1
  O  O33  1  0.25000000  0.13649000  0.18594900  1
  O  O34  1  0.12074700  0.22615700  0.40141300  1
  O  O35  1  0.37925300  0.22615700  0.40141300  1
  O  O36  1  0.62074700  0.27384300  0.90141300  1
  O  O37  1  0.90483700  0.87727400  0.14101700  1
  O  O38  1  0.75000000  0.36351000  0.68594900  1
  O  O39  1  0.10997200  0.32437700  0.00272400  1
  O  O40  1  0.39002800  0.32437700  0.00272400  1
  O  O41  1  0.59516300  0.37727400  0.35898300  1
  O  O42  1  0.90483700  0.37727400  0.35898300  1
  O  O43  1  0.75000000  0.44735200  0.02933200  1
  O  O44  1  0.25000000  0.52654200  0.37031300  1
  O  O45  1  0.25000000  0.31249000  0.58151800  1
  O  O46  1  0.08306200  0.38696700  0.79464900  1
  O  O47  1  0.41693800  0.38696700  0.79464900  1
  O  O48  1  0.58306200  0.61303300  0.20535100  1
  O  O49  1  0.91693800  0.61303300  0.20535100  1
  O  O50  1  0.75000000  0.68751000  0.41848200  1
  O  O51  1  0.75000000  0.47345800  0.62968700  1
  O  O52  1  0.25000000  0.55264800  0.97066800  1
  O  O53  1  0.09516300  0.62272600  0.64101700  1
  O  O54  1  0.40483700  0.62272600  0.64101700  1
  O  O55  1  0.60997200  0.67562300  0.99727600  1
  O  O56  1  0.89002800  0.67562300  0.99727600  1
  O  O57  1  0.25000000  0.63649000  0.31405100  1
  O  O58  1  0.12074700  0.72615700  0.09858700  1
  O  O59  1  0.37925300  0.72615700  0.09858700  1
  O  O60  1  0.62074700  0.77384300  0.59858700  1
  O  O61  1  0.87925300  0.77384300  0.59858700  1
  O  O62  1  0.75000000  0.86351000  0.81405100  1
  O  O63  1  0.10997200  0.82437700  0.49727600  1
  O  O64  1  0.39002800  0.82437700  0.49727600  1
  O  O65  1  0.59516300  0.87727400  0.14101700  1
  O  O66  1  0.75000000  0.94735200  0.47066800  1
  O  O67  1  0.87925300  0.27384300  0.90141300  1
