# generated using pymatgen
data_LaFe5Bi4O15
_symmetry_space_group_name_H-M   'P 1'
_cell_length_a   5.63425971
_cell_length_b   5.70684314
_cell_length_c   23.25722078
_cell_angle_alpha   96.54604293
_cell_angle_beta   90.05191809
_cell_angle_gamma   119.59714785
_symmetry_Int_Tables_number   1
_chemical_formula_structural   LaFe5Bi4O15
_chemical_formula_sum   'La2 Fe10 Bi8 O30'
_cell_volume   644.57696112
_cell_formula_units_Z   2
loop_
 _symmetry_equiv_pos_site_id
 _symmetry_equiv_pos_as_xyz
  1  'x, y, z'
loop_
 _atom_site_type_symbol
 _atom_site_label
 _atom_site_symmetry_multiplicity
 _atom_site_fract_x
 _atom_site_fract_y
 _atom_site_fract_z
 _atom_site_occupancy
  La  La0  1  0.18974100  0.37957500  0.59960100  1
  La  La1  1  0.58932400  0.17788600  0.79849000  1
  Fe  Fe2  1  0.02236100  0.04445600  0.14578600  1
  Fe  Fe3  1  0.42214100  0.84416900  0.34571900  1
  Fe  Fe4  1  0.82207500  0.64587400  0.54658800  1
  Fe  Fe5  1  0.22464700  0.44963600  0.74678900  1
  Fe  Fe6  1  0.62522500  0.24837500  0.94574300  1
  Fe  Fe7  1  0.12273500  0.24453700  0.44522500  1
  Fe  Fe8  1  0.51585900  0.03161600  0.64524500  1
  Fe  Fe9  1  0.91523300  0.83158500  0.84627700  1
  Fe  Fe10  1  0.32203700  0.64456500  0.04595100  1
  Fe  Fe11  1  0.72206900  0.44452200  0.24579800  1
  Bi  Bi12  1  0.11148700  0.22451200  0.30110500  1
  Bi  Bi13  1  0.51290300  0.02073700  0.50149700  1
  Bi  Bi14  1  0.91027300  0.81957200  0.70231200  1
  Bi  Bi15  1  0.30864200  0.62341500  0.90197400  1
  Bi  Bi16  1  0.71174000  0.42452400  0.10127300  1
  Bi  Bi17  1  0.01239600  0.02439200  0.00108500  1
  Bi  Bi18  1  0.41287700  0.82481000  0.20125600  1
  Bi  Bi19  1  0.81237900  0.62558400  0.40164000  1
  O  O20  1  0.62507200  0.09931300  0.28916500  1
  O  O21  1  0.02691600  0.90391000  0.48984300  1
  O  O22  1  0.43187300  0.71312800  0.69175800  1
  O  O23  1  0.82960100  0.50658900  0.89070800  1
  O  O24  1  0.22482900  0.29857500  0.08909800  1
  O  O25  1  0.31481000  0.17909800  0.20960600  1
  O  O26  1  0.71512400  0.97839500  0.40931100  1
  O  O27  1  0.11672300  0.79651000  0.60880300  1
  O  O28  1  0.51668900  0.59702700  0.80951100  1
  O  O29  1  0.91518200  0.37896600  0.01002200  1
  O  O30  1  0.20242700  0.00730300  0.37936800  1
  O  O31  1  0.62072400  0.82788400  0.57885600  1
  O  O32  1  0.01957000  0.62740800  0.77914900  1
  O  O33  1  0.40196200  0.40742900  0.97966400  1
  O  O34  1  0.80294000  0.20796500  0.17950300  1
  O  O35  1  0.10537400  0.60800600  0.27937500  1
  O  O36  1  0.50199300  0.40970300  0.48039100  1
  O  O37  1  0.90562000  0.21280000  0.67965300  1
  O  O38  1  0.30829300  0.01040400  0.87880300  1
  O  O39  1  0.70524100  0.80795400  0.07947400  1
  O  O40  1  0.56505800  0.57866700  0.30978300  1
  O  O41  1  0.96430500  0.37627300  0.50987200  1
  O  O42  1  0.36485900  0.18276700  0.70894000  1
  O  O43  1  0.76496900  0.98464800  0.90885600  1
  O  O44  1  0.16440100  0.77895500  0.10965200  1
  O  O45  1  0.17409000  0.49955100  0.38890200  1
  O  O46  1  0.57621900  0.30144800  0.58900600  1
  O  O47  1  0.97762400  0.10158000  0.78913900  1
  O  O48  1  0.37500500  0.90000800  0.98922600  1
  O  O49  1  0.77436300  0.69939100  0.18920800  1
