# generated using pymatgen
data_NdO3
_symmetry_space_group_name_H-M   'P 1'
_cell_length_a   4.46494837
_cell_length_b   7.78234338
_cell_length_c   6.14588645
_cell_angle_alpha   66.33839973
_cell_angle_beta   111.29972977
_cell_angle_gamma   125.01060169
_symmetry_Int_Tables_number   1
_chemical_formula_structural   NdO3
_chemical_formula_sum   'Nd2 O6'
_cell_volume   157.66997602
_cell_formula_units_Z   2
loop_
 _symmetry_equiv_pos_site_id
 _symmetry_equiv_pos_as_xyz
  1  'x, y, z'
loop_
 _atom_site_type_symbol
 _atom_site_label
 _atom_site_symmetry_multiplicity
 _atom_site_fract_x
 _atom_site_fract_y
 _atom_site_fract_z
 _atom_site_occupancy
  Nd  Nd0  1  0.35537900  0.70512300  0.30051200  1
  Nd  Nd1  1  0.64462100  0.29487700  0.69948800  1
  O  O2  1  0.91712700  0.68696200  0.46033000  1
  O  O3  1  0.38405900  0.92980700  0.90850400  1
  O  O4  1  0.08287300  0.31303800  0.53967000  1
  O  O5  1  0.31021000  0.44679900  0.72682200  1
  O  O6  1  0.68979000  0.55320100  0.27317800  1
  O  O7  1  0.61594100  0.07019300  0.09149600  1
