# generated using pymatgen
data_LaTi6Bi7O24
_symmetry_space_group_name_H-M   'P 1'
_cell_length_a   5.47316900
_cell_length_b   5.52127527
_cell_length_c   16.91672847
_cell_angle_alpha   99.36612577
_cell_angle_beta   90.04265839
_cell_angle_gamma   90.66891344
_symmetry_Int_Tables_number   1
_chemical_formula_structural   LaTi6Bi7O24
_chemical_formula_sum   'La1 Ti6 Bi7 O24'
_cell_volume   504.35318133
_cell_formula_units_Z   1
loop_
 _symmetry_equiv_pos_site_id
 _symmetry_equiv_pos_as_xyz
  1  'x, y, z'
loop_
 _atom_site_type_symbol
 _atom_site_label
 _atom_site_symmetry_multiplicity
 _atom_site_fract_x
 _atom_site_fract_y
 _atom_site_fract_z
 _atom_site_occupancy
  La  La0  1  0.48456600  0.85581600  0.62730700  1
  Ti  Ti1  1  0.47724700  0.30569900  0.50280500  1
  Ti  Ti2  1  0.97804300  0.80300700  0.49968500  1
  Ti  Ti3  1  0.48678500  0.44260000  0.75616100  1
  Ti  Ti4  1  0.98672400  0.67683500  0.24281400  1
  Ti  Ti5  1  0.49266800  0.17755300  0.24387700  1
  Ti  Ti6  1  0.98826900  0.92771800  0.75622600  1
  Bi  Bi7  1  0.02807300  0.03694500  0.07766300  1
  Bi  Bi8  1  0.52490100  0.96049900  0.92173700  1
  Bi  Bi9  1  0.97638400  0.45935200  0.92325700  1
  Bi  Bi10  1  0.48095200  0.54127900  0.07438100  1
  Bi  Bi11  1  0.98543100  0.32797000  0.63608100  1
  Bi  Bi12  1  0.49050500  0.68545600  0.36781200  1
  Bi  Bi13  1  0.99625900  0.19000500  0.36498200  1
  O  O14  1  0.54517000  0.49830600  0.86100100  1
  O  O15  1  0.03829500  0.63963100  0.13870400  1
  O  O16  1  0.73930500  0.27276300  0.00203100  1
  O  O17  1  0.24030200  0.27005600  0.99753800  1
  O  O18  1  0.22987500  0.58686600  0.48614700  1
  O  O19  1  0.70957100  0.08488600  0.52422100  1
  O  O20  1  0.20428200  0.43947700  0.27670800  1
  O  O21  1  0.71162000  0.16609100  0.72032700  1
  O  O22  1  0.40714900  0.39613600  0.61633300  1
  O  O23  1  0.90489100  0.79229600  0.38352600  1
  O  O24  1  0.43101900  0.12808500  0.13948300  1
  O  O25  1  0.92672100  0.00304200  0.86113100  1
  O  O26  1  0.75287100  0.66511800  0.72176800  1
  O  O27  1  0.25439600  0.94234500  0.28009200  1
  O  O28  1  0.26452400  0.72683400  0.74974100  1
  O  O29  1  0.77730500  0.99319700  0.25198000  1
  O  O30  1  0.53838300  0.29021600  0.38338400  1
  O  O31  1  0.04196800  0.90859900  0.61650400  1
  O  O32  1  0.68623300  0.49440300  0.25330800  1
  O  O33  1  0.20096100  0.22463900  0.74368200  1
  O  O34  1  0.25304900  0.76821200  0.99834200  1
  O  O35  1  0.75226100  0.76968300  0.00094700  1
  O  O36  1  0.71406800  0.59619700  0.51609800  1
  O  O37  1  0.20637300  0.08698800  0.48221400  1
