# generated using pymatgen
data_La2TiMnO6
_symmetry_space_group_name_H-M   'P 1'
_cell_length_a   5.63715075
_cell_length_b   9.88224932
_cell_length_c   9.88213646
_cell_angle_alpha   71.34205467
_cell_angle_beta   89.86768489
_cell_angle_gamma   89.86745712
_symmetry_Int_Tables_number   1
_chemical_formula_structural   La2TiMnO6
_chemical_formula_sum   'La8 Ti4 Mn4 O24'
_cell_volume   521.57733802
_cell_formula_units_Z   4
loop_
 _symmetry_equiv_pos_site_id
 _symmetry_equiv_pos_as_xyz
  1  'x, y, z'
loop_
 _atom_site_type_symbol
 _atom_site_label
 _atom_site_symmetry_multiplicity
 _atom_site_fract_x
 _atom_site_fract_y
 _atom_site_fract_z
 _atom_site_occupancy
  La  La0  1  0.48894800  0.39852700  0.85203400  1
  La  La1  1  0.48895200  0.89852600  0.35202200  1
  La  La2  1  0.01105000  0.14797000  0.10148500  1
  La  La3  1  0.01105500  0.64797900  0.60148300  1
  La  La4  1  0.51104900  0.60147600  0.14797100  1
  La  La5  1  0.51104600  0.10147600  0.64798300  1
  La  La6  1  0.98894400  0.85203300  0.89851700  1
  La  La7  1  0.98895700  0.35202200  0.39852500  1
  Ti  Ti8  1  0.99999800  0.49999900  0.00000100  1
  Ti  Ti9  1  0.00000000  0.00000000  0.49999700  1
  Ti  Ti10  1  0.49999600  0.00000000  0.00000000  1
  Ti  Ti11  1  0.50000200  0.50000000  0.49999800  1
  Mn  Mn12  1  0.00000200  0.75000200  0.25000000  1
  Mn  Mn13  1  0.49999900  0.75000000  0.74999800  1
  Mn  Mn14  1  0.99999900  0.25000100  0.74999800  1
  Mn  Mn15  1  0.50000900  0.24999900  0.25000100  1
  O  O16  1  0.59599100  0.60340100  0.63370300  1
  O  O17  1  0.59598700  0.10340300  0.13370100  1
  O  O18  1  0.90401200  0.36630100  0.89658800  1
  O  O19  1  0.90401200  0.86630300  0.39658900  1
  O  O20  1  0.40401500  0.39659800  0.36629500  1
  O  O21  1  0.40400900  0.89659600  0.86630000  1
  O  O22  1  0.09598700  0.63369800  0.10341000  1
  O  O23  1  0.09599300  0.13369800  0.60341300  1
  O  O24  1  0.69072500  0.83195900  0.11506400  1
  O  O25  1  0.69072900  0.33196000  0.61506200  1
  O  O26  1  0.80927200  0.38493800  0.16803700  1
  O  O27  1  0.80927900  0.88493600  0.66804100  1
  O  O28  1  0.30927100  0.16803900  0.88493700  1
  O  O29  1  0.30928100  0.66804100  0.38493500  1
  O  O30  1  0.19071800  0.61506200  0.83196100  1
  O  O31  1  0.19072300  0.11506000  0.33195800  1
  O  O32  1  0.28159800  0.37864700  0.07212000  1
  O  O33  1  0.28160600  0.87864800  0.57211700  1
  O  O34  1  0.21839900  0.42788100  0.62135700  1
  O  O35  1  0.21839700  0.92788100  0.12135400  1
  O  O36  1  0.71839600  0.62135300  0.92788100  1
  O  O37  1  0.71839700  0.12135300  0.42787700  1
  O  O38  1  0.78160300  0.57211800  0.37864300  1
  O  O39  1  0.78159900  0.07211800  0.87864400  1
