# generated using pymatgen
data_La4CeZr3O14
_symmetry_space_group_name_H-M   'P 1'
_cell_length_a   7.61649562
_cell_length_b   7.61649562
_cell_length_c   7.61649544
_cell_angle_alpha   60.80876742
_cell_angle_beta   60.80876742
_cell_angle_gamma   60.80875774
_symmetry_Int_Tables_number   1
_chemical_formula_structural   La4CeZr3O14
_chemical_formula_sum   'La4 Ce1 Zr3 O14'
_cell_volume   318.12738377
_cell_formula_units_Z   1
loop_
 _symmetry_equiv_pos_site_id
 _symmetry_equiv_pos_as_xyz
  1  'x, y, z'
loop_
 _atom_site_type_symbol
 _atom_site_label
 _atom_site_symmetry_multiplicity
 _atom_site_fract_x
 _atom_site_fract_y
 _atom_site_fract_z
 _atom_site_occupancy
  La  La0  1  0.50000000  0.50000000  0.50000000  1
  La  La1  1  0.00000000  0.50000000  0.50000000  1
  La  La2  1  0.50000000  0.50000000  0.00000000  1
  La  La3  1  0.50000000  0.00000000  0.50000000  1
  Ce  Ce4  1  0.00000000  0.00000000  0.00000000  1
  Zr  Zr5  1  0.50000000  0.00000000  0.00000000  1
  Zr  Zr6  1  0.00000000  0.00000000  0.50000000  1
  Zr  Zr7  1  0.00000000  0.50000000  0.00000000  1
  O  O8  1  0.88005300  0.36821500  0.36821500  1
  O  O9  1  0.37841300  0.87911500  0.87911500  1
  O  O10  1  0.36821500  0.36821500  0.88005300  1
  O  O11  1  0.87911500  0.87911500  0.37841300  1
  O  O12  1  0.87911500  0.37841300  0.87911500  1
  O  O13  1  0.36821500  0.88005300  0.36821500  1
  O  O14  1  0.11994700  0.63178500  0.63178500  1
  O  O15  1  0.62158700  0.12088500  0.12088500  1
  O  O16  1  0.63178500  0.63178500  0.11994700  1
  O  O17  1  0.12088500  0.12088500  0.62158700  1
  O  O18  1  0.12088500  0.62158700  0.12088500  1
  O  O19  1  0.63178500  0.11994700  0.63178500  1
  O  O20  1  0.12900800  0.12900800  0.12900800  1
  O  O21  1  0.87099200  0.87099200  0.87099200  1
