# generated using pymatgen
data_La2Cu3Ni
_symmetry_space_group_name_H-M   'P 1'
_cell_length_a   3.89414200
_cell_length_b   4.31633000
_cell_length_c   7.31589200
_cell_angle_alpha   90.00000000
_cell_angle_beta   90.00000000
_cell_angle_gamma   90.00000000
_symmetry_Int_Tables_number   1
_chemical_formula_structural   La2Cu3Ni
_chemical_formula_sum   'La2 Cu3 Ni1'
_cell_volume   122.96845328
_cell_formula_units_Z   1
loop_
 _symmetry_equiv_pos_site_id
 _symmetry_equiv_pos_as_xyz
  1  'x, y, z'
loop_
 _atom_site_type_symbol
 _atom_site_label
 _atom_site_symmetry_multiplicity
 _atom_site_fract_x
 _atom_site_fract_y
 _atom_site_fract_z
 _atom_site_occupancy
  La  La0  1  0.00000000  0.50000000  0.01021000  1
  La  La1  1  0.00000000  0.00000000  0.49240000  1
  Cu  Cu2  1  0.50000000  0.00000000  0.83298000  1
  Cu  Cu3  1  0.50000000  0.00000000  0.16854700  1
  Cu  Cu4  1  0.50000000  0.50000000  0.66511500  1
  Ni  Ni5  1  0.50000000  0.50000000  0.33074800  1
