# generated using pymatgen
data_La4Ga3FeO12
_symmetry_space_group_name_H-M   'P 1'
_cell_length_a   5.60689502
_cell_length_b   9.54978486
_cell_length_c   9.70967908
_cell_angle_alpha   70.20081375
_cell_angle_beta   90.00835745
_cell_angle_gamma   90.00043398
_symmetry_Int_Tables_number   1
_chemical_formula_structural   La4Ga3FeO12
_chemical_formula_sum   'La8 Ga6 Fe2 O24'
_cell_volume   489.16761314
_cell_formula_units_Z   2
loop_
 _symmetry_equiv_pos_site_id
 _symmetry_equiv_pos_as_xyz
  1  'x, y, z'
loop_
 _atom_site_type_symbol
 _atom_site_label
 _atom_site_symmetry_multiplicity
 _atom_site_fract_x
 _atom_site_fract_y
 _atom_site_fract_z
 _atom_site_occupancy
  La  La0  1  0.49951400  0.12507800  0.12492100  1
  La  La1  1  0.99952500  0.62506600  0.12492800  1
  La  La2  1  0.00048500  0.37492800  0.87508200  1
  La  La3  1  0.50048400  0.87490600  0.87508100  1
  La  La4  1  0.50033800  0.62449300  0.62522200  1
  La  La5  1  0.00033500  0.12449100  0.62522800  1
  La  La6  1  0.99966400  0.87551800  0.37477000  1
  La  La7  1  0.49967800  0.37551800  0.37476900  1
  Ga  Ga8  1  0.50000000  0.50000000  0.00000000  1
  Ga  Ga9  1  0.99999700  0.00000000  0.00000000  1
  Ga  Ga10  1  0.50046200  0.75027000  0.24905800  1
  Ga  Ga11  1  0.00046200  0.25027000  0.24905800  1
  Ga  Ga12  1  0.99953600  0.74973100  0.75094100  1
  Ga  Ga13  1  0.49953600  0.24973000  0.75094200  1
  Fe  Fe14  1  0.50000000  0.00000300  0.49999800  1
  Fe  Fe15  1  0.00000400  0.50000000  0.50000100  1
  O  O16  1  0.42967300  0.62493400  0.12473400  1
  O  O17  1  0.92966700  0.12493800  0.12473500  1
  O  O18  1  0.07033400  0.87506300  0.87526500  1
  O  O19  1  0.57033400  0.37506500  0.87526700  1
  O  O20  1  0.93008400  0.62564600  0.62616900  1
  O  O21  1  0.43008100  0.12564500  0.62616800  1
  O  O22  1  0.56991100  0.87435200  0.37383400  1
  O  O23  1  0.06992100  0.37435200  0.37383300  1
  O  O24  1  0.78699400  0.12576900  0.40877700  1
  O  O25  1  0.28700200  0.62576300  0.40877800  1
  O  O26  1  0.71299500  0.37423800  0.59121800  1
  O  O27  1  0.21300000  0.87423500  0.59121800  1
  O  O28  1  0.78451800  0.62486700  0.91048900  1
  O  O29  1  0.28451500  0.12486900  0.91049200  1
  O  O30  1  0.71547800  0.87513200  0.08951200  1
  O  O31  1  0.21548600  0.37513300  0.08951500  1
  O  O32  1  0.78318000  0.62548100  0.33913800  1
  O  O33  1  0.28317400  0.12548300  0.33914000  1
  O  O34  1  0.71681900  0.87451500  0.66085700  1
  O  O35  1  0.21681500  0.37451700  0.66086400  1
  O  O36  1  0.28497700  0.62484600  0.84004100  1
  O  O37  1  0.78497600  0.12484700  0.84004000  1
  O  O38  1  0.21501800  0.87515100  0.15996300  1
  O  O39  1  0.71502900  0.37515600  0.15995600  1
