# generated using pymatgen
data_La3SmCr4O12
_symmetry_space_group_name_H-M   'P 1'
_cell_length_a   7.85876800
_cell_length_b   5.54427000
_cell_length_c   5.58914885
_cell_angle_alpha   89.89244379
_cell_angle_beta   90.00000000
_cell_angle_gamma   90.00000000
_symmetry_Int_Tables_number   1
_chemical_formula_structural   La3SmCr4O12
_chemical_formula_sum   'La3 Sm1 Cr4 O12'
_cell_volume   243.52511123
_cell_formula_units_Z   1
loop_
 _symmetry_equiv_pos_site_id
 _symmetry_equiv_pos_as_xyz
  1  'x, y, z'
loop_
 _atom_site_type_symbol
 _atom_site_label
 _atom_site_symmetry_multiplicity
 _atom_site_fract_x
 _atom_site_fract_y
 _atom_site_fract_z
 _atom_site_occupancy
  La  La0  1  0.00000000  0.00690900  0.96381200  1
  La  La1  1  0.50000000  0.50682700  0.53340400  1
  La  La2  1  0.50000000  0.99165200  0.03600600  1
  Sm  Sm3  1  0.00000000  0.48878600  0.45206400  1
  Cr  Cr4  1  0.24763200  0.99943500  0.50058300  1
  Cr  Cr5  1  0.75168600  0.50061900  0.99854300  1
  Cr  Cr6  1  0.75236800  0.99943500  0.50058300  1
  Cr  Cr7  1  0.24831400  0.50061900  0.99854300  1
  O  O8  1  0.00000000  0.58035200  0.02837700  1
  O  O9  1  0.00000000  0.90533200  0.51748800  1
  O  O10  1  0.50000000  0.41937000  0.98201300  1
  O  O11  1  0.50000000  0.07935900  0.48357400  1
  O  O12  1  0.20337000  0.21472100  0.21464100  1
  O  O13  1  0.79886900  0.29399900  0.70638200  1
  O  O14  1  0.70788500  0.79195300  0.79147200  1
  O  O15  1  0.29049900  0.70998000  0.29001200  1
  O  O16  1  0.29211500  0.79195300  0.79147200  1
  O  O17  1  0.70950100  0.70998000  0.29001200  1
  O  O18  1  0.79663000  0.21472100  0.21464100  1
  O  O19  1  0.20113100  0.29399900  0.70638200  1
