# generated using pymatgen
data_La4Ni3WO12
_symmetry_space_group_name_H-M   'P 1'
_cell_length_a   5.56482300
_cell_length_b   5.56482300
_cell_length_c   8.08362100
_cell_angle_alpha   90.00000000
_cell_angle_beta   90.00000000
_cell_angle_gamma   90.00000000
_symmetry_Int_Tables_number   1
_chemical_formula_structural   La4Ni3WO12
_chemical_formula_sum   'La4 Ni3 W1 O12'
_cell_volume   250.32755300
_cell_formula_units_Z   1
loop_
 _symmetry_equiv_pos_site_id
 _symmetry_equiv_pos_as_xyz
  1  'x, y, z'
loop_
 _atom_site_type_symbol
 _atom_site_label
 _atom_site_symmetry_multiplicity
 _atom_site_fract_x
 _atom_site_fract_y
 _atom_site_fract_z
 _atom_site_occupancy
  La  La0  1  0.50000000  0.00000000  0.71875000  1
  La  La1  1  0.00000000  0.50000000  0.28125000  1
  La  La2  1  0.50000000  0.00000000  0.28125000  1
  La  La3  1  0.00000000  0.50000000  0.71875000  1
  Ni  Ni4  1  0.00000000  0.00000000  0.00000000  1
  Ni  Ni5  1  0.50000000  0.50000000  0.50000000  1
  Ni  Ni6  1  0.00000000  0.00000000  0.50000000  1
  W  W7  1  0.50000000  0.50000000  0.00000000  1
  O  O8  1  0.00000000  0.00000000  0.75167300  1
  O  O9  1  0.50000000  0.50000000  0.24343900  1
  O  O10  1  0.74788400  0.74788400  0.50000000  1
  O  O11  1  0.25683300  0.25683300  0.00000000  1
  O  O12  1  0.74788400  0.25211600  0.50000000  1
  O  O13  1  0.25683300  0.74316700  0.00000000  1
  O  O14  1  0.00000000  0.00000000  0.24832700  1
  O  O15  1  0.50000000  0.50000000  0.75656100  1
  O  O16  1  0.25211600  0.25211600  0.50000000  1
  O  O17  1  0.74316700  0.74316700  0.00000000  1
  O  O18  1  0.25211600  0.74788400  0.50000000  1
  O  O19  1  0.74316700  0.25683300  0.00000000  1
