# generated using pymatgen
data_La6NbGa11O28
_symmetry_space_group_name_H-M   'P 1'
_cell_length_a   9.78931052
_cell_length_b   9.78931052
_cell_length_c   10.35134958
_cell_angle_alpha   58.07199968
_cell_angle_beta   58.07199968
_cell_angle_gamma   50.22607568
_symmetry_Int_Tables_number   1
_chemical_formula_structural   La6NbGa11O28
_chemical_formula_sum   'La6 Nb1 Ga11 O28'
_cell_volume   618.85252697
_cell_formula_units_Z   1
loop_
 _symmetry_equiv_pos_site_id
 _symmetry_equiv_pos_as_xyz
  1  'x, y, z'
loop_
 _atom_site_type_symbol
 _atom_site_label
 _atom_site_symmetry_multiplicity
 _atom_site_fract_x
 _atom_site_fract_y
 _atom_site_fract_z
 _atom_site_occupancy
  La  La0  1  0.58039000  0.00101200  0.20923100  1
  La  La1  1  0.57074600  0.99899200  0.71522900  1
  La  La2  1  0.42957500  0.57042500  0.50000000  1
  La  La3  1  0.41937300  0.58062700  0.00000000  1
  La  La4  1  0.99898800  0.41961000  0.79076900  1
  La  La5  1  0.00100800  0.42925400  0.28477100  1
  Nb  Nb6  1  0.99988500  0.00011500  0.50000000  1
  Ga  Ga7  1  0.24043000  0.99985800  0.63462800  1
  Ga  Ga8  1  0.24047100  0.00014700  0.12492400  1
  Ga  Ga9  1  0.75898800  0.23998700  0.24502500  1
  Ga  Ga10  1  0.76001300  0.24101200  0.75497500  1
  Ga  Ga11  1  0.00014200  0.75957000  0.36537200  1
  Ga  Ga12  1  0.99985300  0.75952900  0.87507600  1
  Ga  Ga13  1  0.33324200  0.33114900  0.40265200  1
  Ga  Ga14  1  0.33339900  0.33548000  0.89984300  1
  Ga  Ga15  1  0.66885100  0.66675800  0.59734800  1
  Ga  Ga16  1  0.66452000  0.66660100  0.10015700  1
  Ga  Ga17  1  0.00013800  0.99986200  0.00000000  1
  O  O18  1  0.85524500  0.69086300  0.57567100  1
  O  O19  1  0.85272500  0.68779900  0.07892300  1
  O  O20  1  0.45887400  0.85344100  0.69298800  1
  O  O21  1  0.45442400  0.85453100  0.19433900  1
  O  O22  1  0.68849100  0.45919700  0.77526700  1
  O  O23  1  0.69006100  0.45423900  0.27674300  1
  O  O24  1  0.14655900  0.54112600  0.30701200  1
  O  O25  1  0.14546900  0.54557600  0.80566100  1
  O  O26  1  0.30913700  0.14475500  0.42432900  1
  O  O27  1  0.31220100  0.14727500  0.92107700  1
  O  O28  1  0.54080300  0.31150900  0.22473300  1
  O  O29  1  0.54576100  0.30993900  0.72325700  1
  O  O30  1  0.33545000  0.33283200  0.57621200  1
  O  O31  1  0.33124200  0.33383200  0.07751200  1
  O  O32  1  0.66716800  0.66455000  0.42378800  1
  O  O33  1  0.66616800  0.66875800  0.92248800  1
  O  O34  1  0.85450800  0.92584600  0.23007800  1
  O  O35  1  0.85730500  0.92183000  0.72815600  1
  O  O36  1  0.22080200  0.85742300  0.57867900  1
  O  O37  1  0.21972400  0.85433700  0.08319500  1
  O  O38  1  0.92145900  0.22108600  0.54629900  1
  O  O39  1  0.92634600  0.21944900  0.04763200  1
  O  O40  1  0.14257700  0.77919800  0.42132100  1
  O  O41  1  0.14566300  0.78027600  0.91680500  1
  O  O42  1  0.07415400  0.14549200  0.76992200  1
  O  O43  1  0.07817000  0.14269500  0.27184400  1
  O  O44  1  0.77891400  0.07854100  0.45370100  1
  O  O45  1  0.78055100  0.07365400  0.95236800  1
