# generated using pymatgen
data_La2FeSi3
_symmetry_space_group_name_H-M   'P 1'
_cell_length_a   4.04277178
_cell_length_b   4.04277178
_cell_length_c   8.74796900
_cell_angle_alpha   90.00000000
_cell_angle_beta   90.00000000
_cell_angle_gamma   119.99999640
_symmetry_Int_Tables_number   1
_chemical_formula_structural   La2FeSi3
_chemical_formula_sum   'La2 Fe1 Si3'
_cell_volume   123.82157784
_cell_formula_units_Z   1
loop_
 _symmetry_equiv_pos_site_id
 _symmetry_equiv_pos_as_xyz
  1  'x, y, z'
loop_
 _atom_site_type_symbol
 _atom_site_label
 _atom_site_symmetry_multiplicity
 _atom_site_fract_x
 _atom_site_fract_y
 _atom_site_fract_z
 _atom_site_occupancy
  La  La0  1  0.66666700  0.33333300  0.74289000  1
  La  La1  1  0.66666700  0.33333300  0.25711000  1
  Fe  Fe2  1  0.00000000  0.00000000  0.50000000  1
  Si  Si3  1  0.00000000  0.00000000  0.00000000  1
  Si  Si4  1  0.33333300  0.66666700  0.50000000  1
  Si  Si5  1  0.33333300  0.66666700  0.00000000  1
