# generated using pymatgen
data_La3PrMn4O12
_symmetry_space_group_name_H-M   'P 1'
_cell_length_a   7.94971800
_cell_length_b   5.61225300
_cell_length_c   5.62956259
_cell_angle_alpha   89.97373146
_cell_angle_beta   90.00000000
_cell_angle_gamma   90.00000000
_symmetry_Int_Tables_number   1
_chemical_formula_structural   La3PrMn4O12
_chemical_formula_sum   'La3 Pr1 Mn4 O12'
_cell_volume   251.16757382
_cell_formula_units_Z   1
loop_
 _symmetry_equiv_pos_site_id
 _symmetry_equiv_pos_as_xyz
  1  'x, y, z'
loop_
 _atom_site_type_symbol
 _atom_site_label
 _atom_site_symmetry_multiplicity
 _atom_site_fract_x
 _atom_site_fract_y
 _atom_site_fract_z
 _atom_site_occupancy
  La  La0  1  0.00000000  0.00860000  0.96698600  1
  La  La1  1  0.50000000  0.50807300  0.53159700  1
  La  La2  1  0.50000000  0.99058700  0.03227600  1
  Pr  Pr3  1  0.00000000  0.48862700  0.46148000  1
  Mn  Mn4  1  0.24917600  0.99976000  0.50051500  1
  Mn  Mn5  1  0.75043000  0.50027100  0.99929700  1
  Mn  Mn6  1  0.75082400  0.99976000  0.50051500  1
  Mn  Mn7  1  0.24957000  0.50027100  0.99929700  1
  O  O8  1  0.00000000  0.58338300  0.01670700  1
  O  O9  1  0.00000000  0.91244600  0.51370100  1
  O  O10  1  0.50000000  0.41582100  0.98680900  1
  O  O11  1  0.50000000  0.08300800  0.48683400  1
  O  O12  1  0.20301500  0.22500800  0.21821900  1
  O  O13  1  0.79692200  0.27916300  0.71526200  1
  O  O14  1  0.70474200  0.77833500  0.78480600  1
  O  O15  1  0.29430400  0.72219200  0.28370600  1
  O  O16  1  0.29525800  0.77833500  0.78480600  1
  O  O17  1  0.70569600  0.72219200  0.28370600  1
  O  O18  1  0.79698500  0.22500800  0.21821900  1
  O  O19  1  0.20307800  0.27916300  0.71526200  1
