# generated using pymatgen
data_KTa2O6
_symmetry_space_group_name_H-M   'P 1'
_cell_length_a   7.54496093
_cell_length_b   7.54496093
_cell_length_c   7.54496093
_cell_angle_alpha   119.79292368
_cell_angle_beta   119.57848680
_cell_angle_gamma   90.54534139
_symmetry_Int_Tables_number   1
_chemical_formula_structural   KTa2O6
_chemical_formula_sum   'K2 Ta4 O12'
_cell_volume   305.13432542
_cell_formula_units_Z   2
loop_
 _symmetry_equiv_pos_site_id
 _symmetry_equiv_pos_as_xyz
  1  'x, y, z'
loop_
 _atom_site_type_symbol
 _atom_site_label
 _atom_site_symmetry_multiplicity
 _atom_site_fract_x
 _atom_site_fract_y
 _atom_site_fract_z
 _atom_site_occupancy
  K  K0  1  0.00000000  0.00000000  0.00000000  1
  K  K1  1  0.50000000  0.00000000  0.50000000  1
  Ta  Ta2  1  0.50000000  0.50000000  0.00000000  1
  Ta  Ta3  1  0.00000000  0.50000000  0.50000000  1
  Ta  Ta4  1  0.00000000  0.50000000  0.00000000  1
  Ta  Ta5  1  0.00000000  0.00000000  0.50000000  1
  O  O6  1  0.06199500  0.81199500  0.25000000  1
  O  O7  1  0.69112800  0.44112800  0.25000000  1
  O  O8  1  0.05693500  0.81004700  0.62010500  1
  O  O9  1  0.68994200  0.43683000  0.87989500  1
  O  O10  1  0.68994200  0.81004700  0.25311200  1
  O  O11  1  0.05693500  0.43683000  0.24688800  1
  O  O12  1  0.93800500  0.18800500  0.75000000  1
  O  O13  1  0.30887200  0.55887200  0.75000000  1
  O  O14  1  0.94306500  0.18995300  0.37989500  1
  O  O15  1  0.31005800  0.56317000  0.12010500  1
  O  O16  1  0.31005800  0.18995300  0.74688800  1
  O  O17  1  0.94306500  0.56317000  0.75311200  1
