# generated using pymatgen
data_La2VFeO6
_symmetry_space_group_name_H-M   'P 1'
_cell_length_a   5.66366304
_cell_length_b   7.93533000
_cell_length_c   5.58603504
_cell_angle_alpha   90.00413383
_cell_angle_beta   89.98652183
_cell_angle_gamma   90.00016494
_symmetry_Int_Tables_number   1
_chemical_formula_structural   La2VFeO6
_chemical_formula_sum   'La4 V2 Fe2 O12'
_cell_volume   251.05336224
_cell_formula_units_Z   2
loop_
 _symmetry_equiv_pos_site_id
 _symmetry_equiv_pos_as_xyz
  1  'x, y, z'
loop_
 _atom_site_type_symbol
 _atom_site_label
 _atom_site_symmetry_multiplicity
 _atom_site_fract_x
 _atom_site_fract_y
 _atom_site_fract_z
 _atom_site_occupancy
  La  La0  1  0.54137100  0.25017200  0.51040500  1
  La  La1  1  0.04135100  0.24985900  0.98958500  1
  La  La2  1  0.45863100  0.74985300  0.48962000  1
  La  La3  1  0.95861700  0.75014800  0.01039300  1
  V  V4  1  0.00000200  0.00000100  0.49999600  1
  V  V5  1  0.50000100  0.49999600  0.00000100  1
  Fe  Fe6  1  0.00000500  0.49999600  0.50000200  1
  Fe  Fe7  1  0.50000300  0.99999900  0.99999700  1
  O  O8  1  0.98070800  0.25041900  0.41399900  1
  O  O9  1  0.48071300  0.24960900  0.08591700  1
  O  O10  1  0.01929800  0.74957800  0.58600100  1
  O  O11  1  0.51928300  0.75038500  0.91408800  1
  O  O12  1  0.78648700  0.04595800  0.78945400  1
  O  O13  1  0.28650200  0.45399700  0.71038800  1
  O  O14  1  0.21351600  0.95403700  0.21054500  1
  O  O15  1  0.71349900  0.54599900  0.28961500  1
  O  O16  1  0.21424700  0.54496100  0.21065500  1
  O  O17  1  0.71426200  0.95502500  0.28923800  1
  O  O18  1  0.78575300  0.45503000  0.78934100  1
  O  O19  1  0.28575200  0.04497900  0.71076000  1
