# generated using pymatgen
data_La4As2S5O4
_symmetry_space_group_name_H-M   'P 1'
_cell_length_a   4.21978700
_cell_length_b   8.31534005
_cell_length_c   9.69501459
_cell_angle_alpha   101.99036556
_cell_angle_beta   102.11269276
_cell_angle_gamma   91.92773142
_symmetry_Int_Tables_number   1
_chemical_formula_structural   La4As2S5O4
_chemical_formula_sum   'La4 As2 S5 O4'
_cell_volume   324.29499348
_cell_formula_units_Z   1
loop_
 _symmetry_equiv_pos_site_id
 _symmetry_equiv_pos_as_xyz
  1  'x, y, z'
loop_
 _atom_site_type_symbol
 _atom_site_label
 _atom_site_symmetry_multiplicity
 _atom_site_fract_x
 _atom_site_fract_y
 _atom_site_fract_z
 _atom_site_occupancy
  La  La0  1  0.18371000  0.58877100  0.36953100  1
  La  La1  1  0.19082300  0.09213400  0.37178000  1
  La  La2  1  0.81353900  0.40636300  0.63187200  1
  La  La3  1  0.81850400  0.90452400  0.62695300  1
  As  As4  1  0.48981600  0.36002600  0.99962600  1
  As  As5  1  0.75953200  0.79189700  0.00032600  1
  S  S6  1  0.37617400  0.70814500  0.78959800  1
  S  S7  1  0.44143500  0.17087600  0.78894000  1
  S  S8  1  0.65215300  0.27760400  0.21132800  1
  S  S9  1  0.58477700  0.81299200  0.21028500  1
  S  S10  1  0.95354100  0.53242500  0.99985400  1
  O  O11  1  0.75412500  0.62239600  0.49865900  1
  O  O12  1  0.75684400  0.12623600  0.50113200  1
  O  O13  1  0.25622500  0.37641400  0.50376300  1
  O  O14  1  0.25480200  0.87219800  0.49635300  1
