# generated using pymatgen
data_Ho3TaO7
_symmetry_space_group_name_H-M   'P 1'
_cell_length_a   8.10578643
_cell_length_b   8.10578643
_cell_length_c   5.35719000
_cell_angle_alpha   90.00000000
_cell_angle_beta   90.00000000
_cell_angle_gamma   125.43574997
_symmetry_Int_Tables_number   1
_chemical_formula_structural   Ho3TaO7
_chemical_formula_sum   'Ho6 Ta2 O14'
_cell_volume   286.78759586
_cell_formula_units_Z   2
loop_
 _symmetry_equiv_pos_site_id
 _symmetry_equiv_pos_as_xyz
  1  'x, y, z'
loop_
 _atom_site_type_symbol
 _atom_site_label
 _atom_site_symmetry_multiplicity
 _atom_site_fract_x
 _atom_site_fract_y
 _atom_site_fract_z
 _atom_site_occupancy
  Ho  Ho0  1  0.00000000  0.50000000  0.00000000  1
  Ho  Ho1  1  0.50000000  0.00000000  0.00000000  1
  Ho  Ho2  1  0.62020900  0.37979100  0.47137600  1
  Ho  Ho3  1  0.12020900  0.87979100  0.52862400  1
  Ho  Ho4  1  0.87979100  0.12020900  0.47137600  1
  Ho  Ho5  1  0.37979100  0.62020900  0.52862400  1
  Ta  Ta6  1  0.75000000  0.75000000  0.00000000  1
  Ta  Ta7  1  0.25000000  0.25000000  0.00000000  1
  O  O8  1  0.75000000  0.25000000  0.24144100  1
  O  O9  1  0.83769900  0.59768800  0.76372700  1
  O  O10  1  0.25000000  0.75000000  0.75855900  1
  O  O11  1  0.98686500  0.01313500  0.21146600  1
  O  O12  1  0.40231200  0.16230100  0.76372700  1
  O  O13  1  0.09768800  0.33769900  0.76372700  1
  O  O14  1  0.33769900  0.09768800  0.23627300  1
  O  O15  1  0.51313500  0.48686500  0.21146600  1
  O  O16  1  0.48686500  0.51313500  0.78853400  1
  O  O17  1  0.66230100  0.90231200  0.76372700  1
  O  O18  1  0.90231200  0.66230100  0.23627300  1
  O  O19  1  0.59768800  0.83769900  0.23627300  1
  O  O20  1  0.01313500  0.98686500  0.78853400  1
  O  O21  1  0.16230100  0.40231200  0.23627300  1
