# generated using pymatgen
data_La2CuO4
_symmetry_space_group_name_H-M   'P 1'
_cell_length_a   7.11806109
_cell_length_b   7.11497870
_cell_length_c   3.81951655
_cell_angle_alpha   74.47810572
_cell_angle_beta   74.38902103
_cell_angle_gamma   31.13287325
_symmetry_Int_Tables_number   1
_chemical_formula_structural   La2CuO4
_chemical_formula_sum   'La2 Cu1 O4'
_cell_volume   96.05321516
_cell_formula_units_Z   1
loop_
 _symmetry_equiv_pos_site_id
 _symmetry_equiv_pos_as_xyz
  1  'x, y, z'
loop_
 _atom_site_type_symbol
 _atom_site_label
 _atom_site_symmetry_multiplicity
 _atom_site_fract_x
 _atom_site_fract_y
 _atom_site_fract_z
 _atom_site_occupancy
  La  La0  1  0.36196400  0.36037400  0.63962600  1
  La  La1  1  0.63962600  0.63803600  0.36196400  1
  Cu  Cu2  1  0.99844200  0.00155800  0.99844200  1
  O  O3  1  0.00131400  0.99868600  0.49755400  1
  O  O4  1  0.49755400  0.50244600  0.00131400  1
  O  O5  1  0.15945100  0.21235000  0.78765000  1
  O  O6  1  0.78765000  0.84054900  0.15945100  1
