# generated using pymatgen
data_La2U3O11
_symmetry_space_group_name_H-M   'P 1'
_cell_length_a   10.19012682
_cell_length_b   10.19012682
_cell_length_c   10.19012682
_cell_angle_alpha   158.14879087
_cell_angle_beta   148.06830905
_cell_angle_gamma   39.02850160
_symmetry_Int_Tables_number   1
_chemical_formula_structural   La2U3O11
_chemical_formula_sum   'La2 U3 O11'
_cell_volume   207.98353077
_cell_formula_units_Z   1
loop_
 _symmetry_equiv_pos_site_id
 _symmetry_equiv_pos_as_xyz
  1  'x, y, z'
loop_
 _atom_site_type_symbol
 _atom_site_label
 _atom_site_symmetry_multiplicity
 _atom_site_fract_x
 _atom_site_fract_y
 _atom_site_fract_z
 _atom_site_occupancy
  La  La0  1  0.69976900  0.69976900  0.00000000  1
  La  La1  1  0.30023100  0.30023100  0.00000000  1
  U  U2  1  0.90649300  0.90649300  0.00000000  1
  U  U3  1  0.50000000  0.50000000  0.00000000  1
  U  U4  1  0.09350700  0.09350700  0.00000000  1
  O  O5  1  0.82900600  0.59507300  0.23393300  1
  O  O6  1  0.63886000  0.40492700  0.23393300  1
  O  O7  1  0.28415600  0.00000000  0.28415600  1
  O  O8  1  0.41243500  0.18557000  0.22686500  1
  O  O9  1  0.04129400  0.81443000  0.22686500  1
  O  O10  1  0.36114000  0.59507300  0.76606700  1
  O  O11  1  0.17099400  0.40492700  0.76606700  1
  O  O12  1  0.71584400  0.00000000  0.71584400  1
  O  O13  1  0.95870600  0.18557000  0.77313500  1
  O  O14  1  0.58756500  0.81443000  0.77313500  1
  O  O15  1  0.00000000  0.50000000  0.50000000  1
