# generated using pymatgen
data_Na2CaNb4Bi2O15
_symmetry_space_group_name_H-M   'P 1'
_cell_length_a   20.97797737
_cell_length_b   20.97797737
_cell_length_c   5.57239900
_cell_angle_alpha   90.00000000
_cell_angle_beta   90.00000000
_cell_angle_gamma   164.81218205
_symmetry_Int_Tables_number   1
_chemical_formula_structural   Na2CaNb4Bi2O15
_chemical_formula_sum   'Na4 Ca2 Nb8 Bi4 O30'
_cell_volume   642.45718314
_cell_formula_units_Z   2
loop_
 _symmetry_equiv_pos_site_id
 _symmetry_equiv_pos_as_xyz
  1  'x, y, z'
loop_
 _atom_site_type_symbol
 _atom_site_label
 _atom_site_symmetry_multiplicity
 _atom_site_fract_x
 _atom_site_fract_y
 _atom_site_fract_z
 _atom_site_occupancy
  Na  Na0  1  0.13243400  0.33919400  0.53410800  1
  Na  Na1  1  0.33919400  0.13243400  0.53410800  1
  Na  Na2  1  0.86756600  0.66080600  0.03410800  1
  Na  Na3  1  0.66080600  0.86756600  0.03410800  1
  Ca  Ca4  1  0.75391900  0.75391900  0.01780300  1
  Ca  Ca5  1  0.24608100  0.24608100  0.51780300  1
  Nb  Nb6  1  0.70590900  0.80704000  0.54666300  1
  Nb  Nb7  1  0.80704000  0.70590900  0.54666300  1
  Nb  Nb8  1  0.29409100  0.19296000  0.04666300  1
  Nb  Nb9  1  0.19296000  0.29409100  0.04666300  1
  Nb  Nb10  1  0.59147800  0.89218300  0.53794000  1
  Nb  Nb11  1  0.89218300  0.59147800  0.53794000  1
  Nb  Nb12  1  0.40852200  0.10781700  0.03794000  1
  Nb  Nb13  1  0.10781700  0.40852200  0.03794000  1
  Bi  Bi14  1  0.05609600  0.49527700  0.48614200  1
  Bi  Bi15  1  0.49527700  0.05609600  0.48614200  1
  Bi  Bi16  1  0.94390400  0.50472300  0.98614200  1
  Bi  Bi17  1  0.50472300  0.94390400  0.98614200  1
  O  O18  1  0.40706000  0.49069600  0.76858200  1
  O  O19  1  0.49069600  0.40706000  0.76858200  1
  O  O20  1  0.59294000  0.50930400  0.26858200  1
  O  O21  1  0.50930400  0.59294000  0.26858200  1
  O  O22  1  0.64241000  0.83396800  0.55578800  1
  O  O23  1  0.83396800  0.64241000  0.55578800  1
  O  O24  1  0.35759000  0.16603200  0.05578800  1
  O  O25  1  0.16603200  0.35759000  0.05578800  1
  O  O26  1  0.74305000  0.24093700  0.76489900  1
  O  O27  1  0.24093700  0.74305000  0.76489900  1
  O  O28  1  0.25695000  0.75906300  0.26489900  1
  O  O29  1  0.75906300  0.25695000  0.26489900  1
  O  O30  1  0.19204500  0.19204500  0.08639000  1
  O  O31  1  0.80795500  0.80795500  0.58639000  1
  O  O32  1  0.88211000  0.17410800  0.77750100  1
  O  O33  1  0.17410800  0.88211000  0.77750100  1
  O  O34  1  0.11789000  0.82589200  0.27750100  1
  O  O35  1  0.82589200  0.11789000  0.27750100  1
  O  O36  1  0.50972100  0.90089000  0.56686400  1
  O  O37  1  0.90089000  0.50972100  0.56686400  1
  O  O38  1  0.49027900  0.09911000  0.06686400  1
  O  O39  1  0.09911000  0.49027900  0.06686400  1
  O  O40  1  0.39253600  0.67864200  0.84012600  1
  O  O41  1  0.67864200  0.39253600  0.84012600  1
  O  O42  1  0.60746400  0.32135800  0.34012600  1
  O  O43  1  0.32135800  0.60746400  0.34012600  1
  O  O44  1  0.88344400  0.98382800  0.88169200  1
  O  O45  1  0.98382800  0.88344400  0.88169200  1
  O  O46  1  0.11655600  0.01617200  0.38169200  1
  O  O47  1  0.01617200  0.11655600  0.38169200  1
