# generated using pymatgen
data_KNa4Cl5
_symmetry_space_group_name_H-M   'P 1'
_cell_length_a   14.80925581
_cell_length_b   14.80925581
_cell_length_c   14.80925581
_cell_angle_alpha   163.82506794
_cell_angle_beta   163.82506794
_cell_angle_gamma   22.95208136
_symmetry_Int_Tables_number   1
_chemical_formula_structural   KNa4Cl5
_chemical_formula_sum   'K1 Na4 Cl5'
_cell_volume   251.98967920
_cell_formula_units_Z   1
loop_
 _symmetry_equiv_pos_site_id
 _symmetry_equiv_pos_as_xyz
  1  'x, y, z'
loop_
 _atom_site_type_symbol
 _atom_site_label
 _atom_site_symmetry_multiplicity
 _atom_site_fract_x
 _atom_site_fract_y
 _atom_site_fract_z
 _atom_site_occupancy
  K  K0  1  0.00000000  0.00000000  0.00000000  1
  Na  Na1  1  0.39689700  0.39689700  0.00000000  1
  Na  Na2  1  0.79829800  0.79829800  0.00000000  1
  Na  Na3  1  0.20170200  0.20170200  0.00000000  1
  Na  Na4  1  0.60310300  0.60310300  0.00000000  1
  Cl  Cl5  1  0.10541900  0.10541900  0.00000000  1
  Cl  Cl6  1  0.50000000  0.50000000  0.00000000  1
  Cl  Cl7  1  0.89458100  0.89458100  0.00000000  1
  Cl  Cl8  1  0.29932700  0.29932700  0.00000000  1
  Cl  Cl9  1  0.70067300  0.70067300  0.00000000  1
