# generated using pymatgen
data_La2Mn(SeO)2
_symmetry_space_group_name_H-M   'P 1'
_cell_length_a   8.57064026
_cell_length_b   8.57064026
_cell_length_c   17.75060349
_cell_angle_alpha   89.99447056
_cell_angle_beta   89.99447056
_cell_angle_gamma   152.75352271
_symmetry_Int_Tables_number   1
_chemical_formula_structural   La2Mn(SeO)2
_chemical_formula_sum   'La8 Mn4 Se8 O8'
_cell_volume   596.94411309
_cell_formula_units_Z   4
loop_
 _symmetry_equiv_pos_site_id
 _symmetry_equiv_pos_as_xyz
  1  'x, y, z'
loop_
 _atom_site_type_symbol
 _atom_site_label
 _atom_site_symmetry_multiplicity
 _atom_site_fract_x
 _atom_site_fract_y
 _atom_site_fract_z
 _atom_site_occupancy
  La  La0  1  0.42435500  0.57601400  0.91404000  1
  La  La1  1  0.57726600  0.42325600  0.08379200  1
  La  La2  1  0.42325600  0.57726600  0.58379200  1
  La  La3  1  0.57601400  0.42435500  0.41404000  1
  La  La4  1  0.73051900  0.27188000  0.91035100  1
  La  La5  1  0.26882500  0.73300500  0.08831100  1
  La  La6  1  0.73300500  0.26882500  0.58831100  1
  La  La7  1  0.27188000  0.73051900  0.41035100  1
  Mn  Mn8  1  0.08186700  0.91314500  0.72482600  1
  Mn  Mn9  1  0.91314500  0.08186700  0.22482600  1
  Mn  Mn10  1  0.88606900  0.16407900  0.74958800  1
  Mn  Mn11  1  0.16407900  0.88606900  0.24958800  1
  Se  Se12  1  0.48844000  0.50784900  0.75024500  1
  Se  Se13  1  0.50784900  0.48844000  0.25024500  1
  Se  Se14  1  0.07949200  0.92324600  0.93305300  1
  Se  Se15  1  0.92084800  0.08008100  0.07330000  1
  Se  Se16  1  0.08008100  0.92084800  0.57330000  1
  Se  Se17  1  0.92324600  0.07949200  0.43305300  1
  Se  Se18  1  0.24547700  0.76994200  0.75008800  1
  Se  Se19  1  0.76994200  0.24547700  0.25008800  1
  O  O20  1  0.29054500  0.71185500  0.54412600  1
  O  O21  1  0.71088200  0.29158300  0.45530100  1
  O  O22  1  0.29158300  0.71088200  0.95530100  1
  O  O23  1  0.71185500  0.29054500  0.04412600  1
  O  O24  1  0.87088000  0.13241700  0.86465800  1
  O  O25  1  0.13252500  0.87045700  0.13474100  1
  O  O26  1  0.87045700  0.13252500  0.63474100  1
  O  O27  1  0.13241700  0.87088000  0.36465800  1
