# generated using pymatgen
data_Ba6Ti2Nb10Si8O51
_symmetry_space_group_name_H-M   'P 1'
_cell_length_a   12.03307322
_cell_length_b   12.03307322
_cell_length_c   9.12137306
_cell_angle_alpha   67.87368188
_cell_angle_beta   67.87368188
_cell_angle_gamma   81.85743716
_symmetry_Int_Tables_number   1
_chemical_formula_structural   Ba6Ti2Nb10Si8O51
_chemical_formula_sum   'Ba6 Ti2 Nb10 Si8 O51'
_cell_volume   1133.36264824
_cell_formula_units_Z   1
loop_
 _symmetry_equiv_pos_site_id
 _symmetry_equiv_pos_as_xyz
  1  'x, y, z'
loop_
 _atom_site_type_symbol
 _atom_site_label
 _atom_site_symmetry_multiplicity
 _atom_site_fract_x
 _atom_site_fract_y
 _atom_site_fract_z
 _atom_site_occupancy
  Ba  Ba0  1  0.94606700  0.94606700  0.00012900  1
  Ba  Ba1  1  0.55008300  0.55008300  0.40588400  1
  Ba  Ba2  1  0.75294800  0.75294800  0.58964200  1
  Ba  Ba3  1  0.44718400  0.44718400  0.99968800  1
  Ba  Ba4  1  0.04771800  0.04771800  0.40980100  1
  Ba  Ba5  1  0.25247400  0.25247400  0.59531100  1
  Ti  Ti6  1  0.48044500  0.77083600  0.99988900  1
  Ti  Ti7  1  0.77083600  0.48044500  0.99988900  1
  Nb  Nb8  1  0.87401100  0.61870200  0.23573000  1
  Nb  Nb9  1  0.61870200  0.87401100  0.23573000  1
  Nb  Nb10  1  0.24248500  0.49980600  0.75964200  1
  Nb  Nb11  1  0.00747900  0.25537600  0.00023500  1
  Nb  Nb12  1  0.25537600  0.00747900  0.00023500  1
  Nb  Nb13  1  0.37955200  0.12217800  0.24056900  1
  Nb  Nb14  1  0.12217800  0.37955200  0.24056900  1
  Nb  Nb15  1  0.73625200  0.99164100  0.76430800  1
  Nb  Nb16  1  0.99164100  0.73625200  0.76430800  1
  Nb  Nb17  1  0.49980600  0.24248500  0.75964200  1
  Si  Si18  1  0.27622900  0.56803800  0.32613400  1
  Si  Si19  1  0.43898000  0.73091000  0.67362100  1
  Si  Si20  1  0.76811700  0.06469000  0.33130100  1
  Si  Si21  1  0.06469000  0.76811700  0.33130100  1
  Si  Si22  1  0.93403400  0.23050500  0.66890600  1
  Si  Si23  1  0.23050500  0.93403400  0.66890600  1
  Si  Si24  1  0.56803800  0.27622900  0.32613400  1
  Si  Si25  1  0.73091000  0.43898000  0.67362100  1
  O  O26  1  0.40654200  0.61679300  0.17511400  1
  O  O27  1  0.97254200  0.70493700  0.00042900  1
  O  O28  1  0.78858500  0.53377500  0.16855500  1
  O  O29  1  0.53377500  0.78858500  0.16855500  1
  O  O30  1  0.70493700  0.97254200  0.00042900  1
  O  O31  1  0.29953400  0.51424700  0.50595000  1
  O  O32  1  0.74926800  0.74926800  0.23152100  1
  O  O33  1  0.35347900  0.85976600  0.99983400  1
  O  O34  1  0.13771500  0.13771500  0.99952200  1
  O  O35  1  0.95025200  0.73195100  0.30448300  1
  O  O36  1  0.76542600  0.55087700  0.49293600  1
  O  O37  1  0.73195100  0.95025200  0.30448300  1
  O  O38  1  0.55087700  0.76542600  0.49293600  1
  O  O39  1  0.89859500  0.11330200  0.18269600  1
  O  O40  1  0.38803800  0.60212900  0.70174500  1
  O  O41  1  0.11330200  0.89859500  0.18269600  1
  O  O42  1  0.17178700  0.66959800  0.32673000  1
  O  O43  1  0.02855700  0.29495300  0.17629100  1
  O  O44  1  0.47209100  0.20462900  0.99965000  1
  O  O45  1  0.29495300  0.02855700  0.17629100  1
  O  O46  1  0.20462900  0.47209100  0.99965000  1
  O  O47  1  0.01094800  0.79242000  0.51062000  1
  O  O48  1  0.49383100  0.70458100  0.82460000  1
  O  O49  1  0.79242000  0.01094800  0.51062000  1
  O  O50  1  0.24973300  0.24973300  0.23093700  1
  O  O51  1  0.49809400  0.99823600  0.28069400  1
  O  O52  1  0.87273800  0.61748300  0.83312800  1
  O  O53  1  0.61748300  0.87273800  0.83312800  1
  O  O54  1  0.13869600  0.63830800  0.71934800  1
  O  O55  1  0.85976600  0.35347900  0.99983400  1
  O  O56  1  0.86514000  0.86514000  0.76943500  1
  O  O57  1  0.45277500  0.23880900  0.29969200  1
  O  O58  1  0.26795400  0.04937400  0.49042100  1
  O  O59  1  0.04937400  0.26795400  0.49042100  1
  O  O60  1  0.23880900  0.45277500  0.29969200  1
  O  O61  1  0.10291800  0.88478000  0.69410700  1
  O  O62  1  0.88478000  0.10291800  0.69410700  1
  O  O63  1  0.61679300  0.40654200  0.17511400  1
  O  O64  1  0.33514500  0.83298000  0.67320900  1
  O  O65  1  0.66959800  0.17178700  0.32673000  1
  O  O66  1  0.51424700  0.29953400  0.50595000  1
  O  O67  1  0.20447800  0.99015700  0.81739900  1
  O  O68  1  0.99015700  0.20447800  0.81739900  1
  O  O69  1  0.99823600  0.49809400  0.28069400  1
  O  O70  1  0.38311200  0.11722600  0.82199200  1
  O  O71  1  0.11722600  0.38311200  0.82199200  1
  O  O72  1  0.63830800  0.13869600  0.71934800  1
  O  O73  1  0.36497800  0.36497800  0.76821600  1
  O  O74  1  0.60212900  0.38803800  0.70174500  1
  O  O75  1  0.83298000  0.33514500  0.67320900  1
  O  O76  1  0.70458100  0.49383100  0.82460000  1
