# generated using pymatgen
data_KCr5Se8
_symmetry_space_group_name_H-M   'P 1'
_cell_length_a   9.63902862
_cell_length_b   9.63902862
_cell_length_c   9.05542253
_cell_angle_alpha   75.56018778
_cell_angle_beta   75.56018778
_cell_angle_gamma   22.11605266
_symmetry_Int_Tables_number   1
_chemical_formula_structural   KCr5Se8
_chemical_formula_sum   'K1 Cr5 Se8'
_cell_volume   306.35876561
_cell_formula_units_Z   1
loop_
 _symmetry_equiv_pos_site_id
 _symmetry_equiv_pos_as_xyz
  1  'x, y, z'
loop_
 _atom_site_type_symbol
 _atom_site_label
 _atom_site_symmetry_multiplicity
 _atom_site_fract_x
 _atom_site_fract_y
 _atom_site_fract_z
 _atom_site_occupancy
  K  K0  1  0.44921700  0.55078300  0.50000000  1
  Cr  Cr1  1  0.34149900  0.34252100  0.98001500  1
  Cr  Cr2  1  0.65747900  0.65850100  0.01998500  1
  Cr  Cr3  1  0.70420300  0.70458500  0.66438100  1
  Cr  Cr4  1  0.29541500  0.29579700  0.33561900  1
  Cr  Cr5  1  0.99985300  0.00014700  0.00000000  1
  Se  Se6  1  0.16971500  0.17090900  0.50902700  1
  Se  Se7  1  0.82909100  0.83028500  0.49097300  1
  Se  Se8  1  0.91212400  0.91541200  0.82750300  1
  Se  Se9  1  0.08458800  0.08787600  0.17249700  1
  Se  Se10  1  0.23863500  0.23880800  0.84314800  1
  Se  Se11  1  0.76119200  0.76136500  0.15685200  1
  Se  Se12  1  0.57431800  0.57432900  0.84276900  1
  Se  Se13  1  0.42567100  0.42568200  0.15723100  1
