# generated using pymatgen
data_La(Ho2C5)2
_symmetry_space_group_name_H-M   'P 1'
_cell_length_a   10.37237017
_cell_length_b   10.37237017
_cell_length_c   4.09321144
_cell_angle_alpha   88.43001615
_cell_angle_beta   88.43001615
_cell_angle_gamma   29.41267438
_symmetry_Int_Tables_number   1
_chemical_formula_structural   La(Ho2C5)2
_chemical_formula_sum   'La1 Ho4 C10'
_cell_volume   216.17859998
_cell_formula_units_Z   1
loop_
 _symmetry_equiv_pos_site_id
 _symmetry_equiv_pos_as_xyz
  1  'x, y, z'
loop_
 _atom_site_type_symbol
 _atom_site_label
 _atom_site_symmetry_multiplicity
 _atom_site_fract_x
 _atom_site_fract_y
 _atom_site_fract_z
 _atom_site_occupancy
  La  La0  1  0.00000000  0.00000000  0.00000000  1
  Ho  Ho1  1  0.60000200  0.60000200  0.40307400  1
  Ho  Ho2  1  0.20144400  0.20144400  0.79409200  1
  Ho  Ho3  1  0.79855600  0.79855600  0.20590800  1
  Ho  Ho4  1  0.39999800  0.39999800  0.59692600  1
  C  C5  1  0.08671500  0.08671500  0.51964900  1
  C  C6  1  0.67902400  0.67902400  0.92798500  1
  C  C7  1  0.27997400  0.27997400  0.32490500  1
  C  C8  1  0.87182800  0.87182800  0.73123200  1
  C  C9  1  0.47912000  0.47912000  0.12621900  1
  C  C10  1  0.52088000  0.52088000  0.87378100  1
  C  C11  1  0.12817200  0.12817200  0.26876800  1
  C  C12  1  0.72002600  0.72002600  0.67509500  1
  C  C13  1  0.32097600  0.32097600  0.07201500  1
  C  C14  1  0.91328500  0.91328500  0.48035100  1
