# generated using pymatgen
data_KNiSbO4
_symmetry_space_group_name_H-M   'P 1'
_cell_length_a   3.14853900
_cell_length_b   5.28110670
_cell_length_c   6.50725437
_cell_angle_alpha   84.94876086
_cell_angle_beta   76.00203074
_cell_angle_gamma   90.00023104
_symmetry_Int_Tables_number   1
_chemical_formula_structural   KNiSbO4
_chemical_formula_sum   'K1 Ni1 Sb1 O4'
_cell_volume   104.55488621
_cell_formula_units_Z   1
loop_
 _symmetry_equiv_pos_site_id
 _symmetry_equiv_pos_as_xyz
  1  'x, y, z'
loop_
 _atom_site_type_symbol
 _atom_site_label
 _atom_site_symmetry_multiplicity
 _atom_site_fract_x
 _atom_site_fract_y
 _atom_site_fract_z
 _atom_site_occupancy
  K  K0  1  0.74762200  0.58172900  0.50437900  1
  Ni  Ni1  1  0.49711100  0.49773300  0.00578600  1
  Sb  Sb2  1  0.00114900  0.00283000  0.99780000  1
  O  O3  1  0.08077100  0.69914200  0.83835300  1
  O  O4  1  0.58632600  0.17674600  0.82737900  1
  O  O5  1  0.41364600  0.82354700  0.17285500  1
  O  O6  1  0.91922600  0.30022300  0.16174900  1
