# generated using pymatgen
data_La2Al3GaPd4
_symmetry_space_group_name_H-M   'P 1'
_cell_length_a   4.42576100
_cell_length_b   4.42576100
_cell_length_c   10.20785100
_cell_angle_alpha   90.00000000
_cell_angle_beta   90.00000000
_cell_angle_gamma   90.00000000
_symmetry_Int_Tables_number   1
_chemical_formula_structural   La2Al3GaPd4
_chemical_formula_sum   'La2 Al3 Ga1 Pd4'
_cell_volume   199.94485674
_cell_formula_units_Z   1
loop_
 _symmetry_equiv_pos_site_id
 _symmetry_equiv_pos_as_xyz
  1  'x, y, z'
loop_
 _atom_site_type_symbol
 _atom_site_label
 _atom_site_symmetry_multiplicity
 _atom_site_fract_x
 _atom_site_fract_y
 _atom_site_fract_z
 _atom_site_occupancy
  La  La0  1  0.50000000  0.00000000  0.25221900  1
  La  La1  1  0.00000000  0.50000000  0.74778100  1
  Al  Al2  1  0.00000000  0.00000000  0.50000000  1
  Al  Al3  1  0.50000000  0.00000000  0.87872800  1
  Al  Al4  1  0.00000000  0.50000000  0.12127200  1
  Ga  Ga5  1  0.50000000  0.50000000  0.50000000  1
  Pd  Pd6  1  0.50000000  0.50000000  0.00000000  1
  Pd  Pd7  1  0.00000000  0.00000000  0.00000000  1
  Pd  Pd8  1  0.50000000  0.00000000  0.63210700  1
  Pd  Pd9  1  0.00000000  0.50000000  0.36789300  1
