# generated using pymatgen
data_K2O
_symmetry_space_group_name_H-M   'P 1'
_cell_length_a   7.61730504
_cell_length_b   7.61730504
_cell_length_c   7.61730504
_cell_angle_alpha   139.73930879
_cell_angle_beta   139.73930879
_cell_angle_gamma   58.24933564
_symmetry_Int_Tables_number   1
_chemical_formula_structural   K2O
_chemical_formula_sum   'K4 O2'
_cell_volume   182.92430302
_cell_formula_units_Z   2
loop_
 _symmetry_equiv_pos_site_id
 _symmetry_equiv_pos_as_xyz
  1  'x, y, z'
loop_
 _atom_site_type_symbol
 _atom_site_label
 _atom_site_symmetry_multiplicity
 _atom_site_fract_x
 _atom_site_fract_y
 _atom_site_fract_z
 _atom_site_occupancy
  K  K0  1  0.29989600  0.29989600  0.00000000  1
  K  K1  1  0.70010400  0.70010400  0.00000000  1
  K  K2  1  0.45010400  0.95010400  0.50000000  1
  K  K3  1  0.04989600  0.54989600  0.50000000  1
  O  O4  1  0.25000000  0.75000000  0.50000000  1
  O  O5  1  0.50000000  0.50000000  0.00000000  1
