# generated using pymatgen
data_KP4(WO4)8
_symmetry_space_group_name_H-M   'P 1'
_cell_length_a   8.75092950
_cell_length_b   8.75092950
_cell_length_c   10.32985702
_cell_angle_alpha   66.95162513
_cell_angle_beta   66.95162513
_cell_angle_gamma   76.84740418
_symmetry_Int_Tables_number   1
_chemical_formula_structural   KP4(WO4)8
_chemical_formula_sum   'K1 P4 W8 O32'
_cell_volume   667.21557652
_cell_formula_units_Z   1
loop_
 _symmetry_equiv_pos_site_id
 _symmetry_equiv_pos_as_xyz
  1  'x, y, z'
loop_
 _atom_site_type_symbol
 _atom_site_label
 _atom_site_symmetry_multiplicity
 _atom_site_fract_x
 _atom_site_fract_y
 _atom_site_fract_z
 _atom_site_occupancy
  K  K0  1  0.19352900  0.19352900  0.99934600  1
  P  P1  1  0.41610800  0.41610800  0.13012000  1
  P  P2  1  0.91399300  0.91399300  0.12906500  1
  P  P3  1  0.08374300  0.58726400  0.86994600  1
  P  P4  1  0.58726400  0.08374300  0.86994600  1
  W  W5  1  0.99052800  0.99052800  0.40727500  1
  W  W6  1  0.48864000  0.48864000  0.41016900  1
  W  W7  1  0.51266100  0.01205100  0.59088300  1
  W  W8  1  0.01205100  0.51266100  0.59088300  1
  W  W9  1  0.03138400  0.03138400  0.74947400  1
  W  W10  1  0.53114100  0.53114100  0.75247300  1
  W  W11  1  0.47147000  0.96866300  0.24972200  1
  W  W12  1  0.96866300  0.47147000  0.24972200  1
  O  O13  1  0.00747600  0.00747600  0.96095100  1
  O  O14  1  0.50800000  0.50800000  0.96192600  1
  O  O15  1  0.49123100  0.99477300  0.03781000  1
  O  O16  1  0.99477300  0.49123100  0.03781000  1
  O  O17  1  0.03914800  0.77458600  0.83779000  1
  O  O18  1  0.53570200  0.27305200  0.83757500  1
  O  O19  1  0.22777000  0.46115600  0.16199500  1
  O  O20  1  0.72579700  0.96048900  0.16161200  1
  O  O21  1  0.46115600  0.22777000  0.16199500  1
  O  O22  1  0.96048900  0.72579700  0.16161200  1
  O  O23  1  0.27305200  0.53570200  0.83757500  1
  O  O24  1  0.77458600  0.03914800  0.83779000  1
  O  O25  1  0.24130500  0.98734900  0.30458600  1
  O  O26  1  0.73999500  0.48543200  0.30837800  1
  O  O27  1  0.01520400  0.26330300  0.69228500  1
  O  O28  1  0.51198700  0.75794400  0.69204100  1
  O  O29  1  0.26330300  0.01520400  0.69228500  1
  O  O30  1  0.75794400  0.51198700  0.69204100  1
  O  O31  1  0.48543200  0.73999500  0.30837800  1
  O  O32  1  0.98734900  0.24130500  0.30458600  1
  O  O33  1  0.01980400  0.01980400  0.58286600  1
  O  O34  1  0.51832100  0.51832100  0.57615300  1
  O  O35  1  0.48023300  0.98218000  0.42038400  1
  O  O36  1  0.98218000  0.48023300  0.42038400  1
  O  O37  1  0.49772100  0.25221800  0.50000800  1
  O  O38  1  0.99711500  0.74363100  0.50440900  1
  O  O39  1  0.74363100  0.99711500  0.50440900  1
  O  O40  1  0.25221800  0.49772100  0.50000800  1
  O  O41  1  0.47768200  0.47768200  0.22129200  1
  O  O42  1  0.97854100  0.97854100  0.21337000  1
  O  O43  1  0.02322200  0.52050800  0.78328700  1
  O  O44  1  0.52050800  0.02322200  0.78328700  1
