# generated using pymatgen
data_KRbCl2
_symmetry_space_group_name_H-M   'P 1'
_cell_length_a   8.03565465
_cell_length_b   8.03565465
_cell_length_c   8.03565454
_cell_angle_alpha   33.45007610
_cell_angle_beta   33.45007610
_cell_angle_gamma   33.45007432
_symmetry_Int_Tables_number   1
_chemical_formula_structural   KRbCl2
_chemical_formula_sum   'K1 Rb1 Cl2'
_cell_volume   140.39921806
_cell_formula_units_Z   1
loop_
 _symmetry_equiv_pos_site_id
 _symmetry_equiv_pos_as_xyz
  1  'x, y, z'
loop_
 _atom_site_type_symbol
 _atom_site_label
 _atom_site_symmetry_multiplicity
 _atom_site_fract_x
 _atom_site_fract_y
 _atom_site_fract_z
 _atom_site_occupancy
  K  K0  1  0.00000000  0.00000000  0.00000000  1
  Rb  Rb1  1  0.50000000  0.50000000  0.50000000  1
  Cl  Cl2  1  0.25395300  0.25395300  0.25395300  1
  Cl  Cl3  1  0.74604700  0.74604700  0.74604700  1
