data_image0
_chemical_formula_structural       BGe2Ti6
_chemical_formula_sum              "B1 Ge2 Ti6"
_cell_length_a       6.81443
_cell_length_b       6.81443
_cell_length_c       3.35482
_cell_angle_alpha    90
_cell_angle_beta     90
_cell_angle_gamma    119.991

_space_group_name_H-M_alt    "P 1"
_space_group_IT_number       1

loop_
  _space_group_symop_operation_xyz
  'x, y, z'

loop_
  _atom_site_type_symbol
  _atom_site_label
  _atom_site_symmetry_multiplicity
  _atom_site_fract_x
  _atom_site_fract_y
  _atom_site_fract_z
  _atom_site_occupancy
  B   B1        1.0  0.00002  0.00002  0.50000  1.0000
  Ge  Ge1       1.0  0.66700  0.33300  0.00000  1.0000
  Ge  Ge2       1.0  0.33300  0.66700  0.00000  1.0000
  Ti  Ti1       1.0  0.23400  0.00005  0.00000  1.0000
  Ti  Ti2       1.0  0.00005  0.23400  0.00000  1.0000
  Ti  Ti3       1.0  0.76600  0.76600  0.00000  1.0000
  Ti  Ti4       1.0  0.60700  0.00002  0.50000  1.0000
  Ti  Ti5       1.0  0.39300  0.39300  0.50000  1.0000
  Ti  Ti6       1.0  0.00002  0.60700  0.50000  1.0000
