# generated using pymatgen
data_La8Ti2Ga2O19
_symmetry_space_group_name_H-M   'P 1'
_cell_length_a   3.95674100
_cell_length_b   11.18501750
_cell_length_c   11.40566051
_cell_angle_alpha   89.90973137
_cell_angle_beta   90.00000000
_cell_angle_gamma   90.00000000
_symmetry_Int_Tables_number   1
_chemical_formula_structural   La8Ti2Ga2O19
_chemical_formula_sum   'La8 Ti2 Ga2 O19'
_cell_volume   504.77076378
_cell_formula_units_Z   1
loop_
 _symmetry_equiv_pos_site_id
 _symmetry_equiv_pos_as_xyz
  1  'x, y, z'
loop_
 _atom_site_type_symbol
 _atom_site_label
 _atom_site_symmetry_multiplicity
 _atom_site_fract_x
 _atom_site_fract_y
 _atom_site_fract_z
 _atom_site_occupancy
  La  La0  1  0.25000000  0.62122800  0.41685000  1
  La  La1  1  0.25000000  0.13344300  0.06389100  1
  La  La2  1  0.75000000  0.36478000  0.56152800  1
  La  La3  1  0.75000000  0.86215200  0.94188200  1
  La  La4  1  0.75000000  0.90006700  0.27983500  1
  La  La5  1  0.75000000  0.40539300  0.21068500  1
  La  La6  1  0.25000000  0.09828500  0.71796700  1
  La  La7  1  0.25000000  0.58308200  0.79649900  1
  Ti  Ti8  1  0.25000000  0.19416800  0.37189000  1
  Ti  Ti9  1  0.75000000  0.30515100  0.87316800  1
  Ga  Ga10  1  0.25000000  0.69297600  0.12580200  1
  Ga  Ga11  1  0.75000000  0.81636800  0.62693300  1
  O  O12  1  0.75000000  0.76490600  0.47926300  1
  O  O13  1  0.75000000  0.26980700  0.03425600  1
  O  O14  1  0.25000000  0.23395100  0.53726100  1
  O  O15  1  0.25000000  0.72201100  0.95704100  1
  O  O16  1  0.75000000  0.50389000  0.39770200  1
  O  O17  1  0.75000000  0.00841900  0.10070900  1
  O  O18  1  0.25000000  0.50477800  0.60275400  1
  O  O19  1  0.25000000  0.99404400  0.90005300  1
  O  O20  1  0.25000000  0.78153300  0.27715900  1
  O  O21  1  0.25000000  0.28085300  0.22918700  1
  O  O22  1  0.75000000  0.21793300  0.73104200  1
  O  O23  1  0.75000000  0.71467900  0.75095700  1
  O  O24  1  0.25000000  0.53642700  0.18593500  1
  O  O25  1  0.25000000  0.04026800  0.32554300  1
  O  O26  1  0.75000000  0.46182200  0.82971600  1
  O  O27  1  0.75000000  0.96778100  0.67500100  1
  O  O28  1  0.75000000  0.74498000  0.12195400  1
  O  O29  1  0.75000000  0.23753500  0.37869500  1
  O  O30  1  0.25000000  0.26868900  0.87564100  1
