# generated using pymatgen
data_KOsNO3
_symmetry_space_group_name_H-M   'P 1'
_cell_length_a   5.81097300
_cell_length_b   5.81193016
_cell_length_c   7.83849473
_cell_angle_alpha   110.99055045
_cell_angle_beta   111.55788861
_cell_angle_gamma   89.98648426
_symmetry_Int_Tables_number   1
_chemical_formula_structural   KOsNO3
_chemical_formula_sum   'K2 Os2 N2 O6'
_cell_volume   227.22527378
_cell_formula_units_Z   2
loop_
 _symmetry_equiv_pos_site_id
 _symmetry_equiv_pos_as_xyz
  1  'x, y, z'
loop_
 _atom_site_type_symbol
 _atom_site_label
 _atom_site_symmetry_multiplicity
 _atom_site_fract_x
 _atom_site_fract_y
 _atom_site_fract_z
 _atom_site_occupancy
  K  K0  1  0.37447600  0.12477800  0.24951800  1
  K  K1  1  0.62476900  0.87699800  0.74950500  1
  Os  Os2  1  0.87688100  0.62421000  0.25170100  1
  Os  Os3  1  0.12378200  0.37548400  0.75162800  1
  N  N4  1  0.70440600  0.77084700  0.10527500  1
  N  N5  1  0.27000500  0.40213200  0.60520300  1
  O  O6  1  0.90196400  0.32534800  0.09763900  1
  O  O7  1  0.82470300  0.19675000  0.59773200  1
  O  O8  1  0.30715700  0.22056000  0.89839600  1
  O  O9  1  0.09746100  0.67865500  0.89746200  1
  O  O10  1  0.71844600  0.59792300  0.39898200  1
  O  O11  1  0.17594900  0.80631500  0.39695900  1
