# generated using pymatgen
data_La4Cu3MoO12
_symmetry_space_group_name_H-M   'P 1'
_cell_length_a   7.82354393
_cell_length_b   8.30572497
_cell_length_c   7.97475172
_cell_angle_alpha   92.71192015
_cell_angle_beta   90.62047809
_cell_angle_gamma   90.63165493
_symmetry_Int_Tables_number   1
_chemical_formula_structural   La4Cu3MoO12
_chemical_formula_sum   'La8 Cu6 Mo2 O24'
_cell_volume   517.55575907
_cell_formula_units_Z   2
loop_
 _symmetry_equiv_pos_site_id
 _symmetry_equiv_pos_as_xyz
  1  'x, y, z'
loop_
 _atom_site_type_symbol
 _atom_site_label
 _atom_site_symmetry_multiplicity
 _atom_site_fract_x
 _atom_site_fract_y
 _atom_site_fract_z
 _atom_site_occupancy
  La  La0  1  0.74093100  0.78987400  0.71568600  1
  La  La1  1  0.25906900  0.21012600  0.28431400  1
  La  La2  1  0.76279000  0.25356500  0.20249000  1
  La  La3  1  0.23721000  0.74643500  0.79751000  1
  La  La4  1  0.75056000  0.25256400  0.71629300  1
  La  La5  1  0.24944000  0.74743600  0.28370700  1
  La  La6  1  0.74356900  0.80355700  0.23037700  1
  La  La7  1  0.25643100  0.19644300  0.76962300  1
  Cu  Cu8  1  0.50000000  0.00000000  0.50000000  1
  Cu  Cu9  1  0.00000000  0.00000000  0.50000000  1
  Cu  Cu10  1  0.50000000  0.00000000  0.00000000  1
  Cu  Cu11  1  0.00000000  0.00000000  0.00000000  1
  Cu  Cu12  1  0.50000000  0.50000000  0.50000000  1
  Cu  Cu13  1  0.00000000  0.50000000  0.00000000  1
  Mo  Mo14  1  0.00000000  0.50000000  0.50000000  1
  Mo  Mo15  1  0.50000000  0.50000000  0.00000000  1
  O  O16  1  0.73663800  0.53527600  0.07660600  1
  O  O17  1  0.26336200  0.46472400  0.92339400  1
  O  O18  1  0.54383600  0.73532000  0.44943400  1
  O  O19  1  0.04933200  0.28448500  0.57074100  1
  O  O20  1  0.45616400  0.26468000  0.55056600  1
  O  O21  1  0.95066800  0.71551500  0.42925900  1
  O  O22  1  0.74569500  0.96592600  0.97024900  1
  O  O23  1  0.25430500  0.03407400  0.02975100  1
  O  O24  1  0.55628500  0.56110400  0.77470900  1
  O  O25  1  0.04754400  0.42843000  0.27056200  1
  O  O26  1  0.44371500  0.43889600  0.22529100  1
  O  O27  1  0.95245600  0.57157000  0.72943800  1
  O  O28  1  0.46220900  0.95604400  0.75827700  1
  O  O29  1  0.96571500  0.04058900  0.25564100  1
  O  O30  1  0.53779100  0.04395600  0.24172300  1
  O  O31  1  0.03428500  0.95941100  0.74435900  1
  O  O32  1  0.76196400  0.42720500  0.46851500  1
  O  O33  1  0.23803600  0.57279500  0.53148500  1
  O  O34  1  0.75467800  0.01658300  0.53424000  1
  O  O35  1  0.24532200  0.98341700  0.46576000  1
  O  O36  1  0.44962900  0.72444700  0.05795400  1
  O  O37  1  0.94632800  0.27135000  0.95404300  1
  O  O38  1  0.55037100  0.27555300  0.94204600  1
  O  O39  1  0.05367200  0.72865000  0.04595700  1
