# generated using pymatgen
data_La2(MoO4)3
_symmetry_space_group_name_H-M   'P 1'
_cell_length_a   7.10706874
_cell_length_b   7.10706874
_cell_length_c   12.15698822
_cell_angle_alpha   80.20407494
_cell_angle_beta   80.20407494
_cell_angle_gamma   114.66921459
_symmetry_Int_Tables_number   1
_chemical_formula_structural   La2(MoO4)3
_chemical_formula_sum   'La4 Mo6 O24'
_cell_volume   529.56151727
_cell_formula_units_Z   2
loop_
 _symmetry_equiv_pos_site_id
 _symmetry_equiv_pos_as_xyz
  1  'x, y, z'
loop_
 _atom_site_type_symbol
 _atom_site_label
 _atom_site_symmetry_multiplicity
 _atom_site_fract_x
 _atom_site_fract_y
 _atom_site_fract_z
 _atom_site_occupancy
  La  La0  1  0.20693500  0.45519500  0.59018700  1
  La  La1  1  0.54480500  0.79306500  0.90981300  1
  La  La2  1  0.45519500  0.20693500  0.09018700  1
  La  La3  1  0.79306500  0.54480500  0.40981300  1
  Mo  Mo4  1  0.71127800  0.96093900  0.57784800  1
  Mo  Mo5  1  0.03906100  0.28872200  0.92215200  1
  Mo  Mo6  1  0.37431900  0.62568100  0.25000000  1
  Mo  Mo7  1  0.28872200  0.03906100  0.42215200  1
  Mo  Mo8  1  0.62568100  0.37431900  0.75000000  1
  Mo  Mo9  1  0.96093900  0.71127800  0.07784800  1
  O  O10  1  0.07270100  0.46873800  0.78948900  1
  O  O11  1  0.41628400  0.82677300  0.11922200  1
  O  O12  1  0.72434000  0.16403300  0.46349300  1
  O  O13  1  0.53126200  0.92729900  0.71051100  1
  O  O14  1  0.83596700  0.27566000  0.03650700  1
  O  O15  1  0.17322700  0.58371600  0.38077800  1
  O  O16  1  0.70116100  0.62482400  0.78376000  1
  O  O17  1  0.06650800  0.96960600  0.10660200  1
  O  O18  1  0.38717300  0.30380500  0.45568400  1
  O  O19  1  0.37517600  0.29883900  0.71624000  1
  O  O20  1  0.69619500  0.61282700  0.04431600  1
  O  O21  1  0.03039400  0.93349200  0.39339800  1
  O  O22  1  0.58371600  0.17322700  0.88077800  1
  O  O23  1  0.92729900  0.53126200  0.21051100  1
  O  O24  1  0.27566000  0.83596700  0.53650700  1
  O  O25  1  0.16403300  0.72434000  0.96349300  1
  O  O26  1  0.46873800  0.07270100  0.28948900  1
  O  O27  1  0.82677300  0.41628400  0.61922200  1
  O  O28  1  0.93349200  0.03039400  0.89339800  1
  O  O29  1  0.29883900  0.37517600  0.21624000  1
  O  O30  1  0.61282700  0.69619500  0.54431600  1
  O  O31  1  0.30380500  0.38717300  0.95568400  1
  O  O32  1  0.62482400  0.70116100  0.28376000  1
  O  O33  1  0.96960600  0.06650800  0.60660200  1
