# generated using pymatgen
data_Na3Sr4La3Ti10O30
_symmetry_space_group_name_H-M   'P 1'
_cell_length_a   5.55363756
_cell_length_b   27.76353308
_cell_length_c   7.88908000
_cell_angle_alpha   44.73403418
_cell_angle_beta   135.25626974
_cell_angle_gamma   120.30196901
_symmetry_Int_Tables_number   1
_chemical_formula_structural   Na3Sr4La3Ti10O30
_chemical_formula_sum   'Na3 Sr4 La3 Ti10 O30'
_cell_volume   602.65956199
_cell_formula_units_Z   1
loop_
 _symmetry_equiv_pos_site_id
 _symmetry_equiv_pos_as_xyz
  1  'x, y, z'
loop_
 _atom_site_type_symbol
 _atom_site_label
 _atom_site_symmetry_multiplicity
 _atom_site_fract_x
 _atom_site_fract_y
 _atom_site_fract_z
 _atom_site_occupancy
  Na  Na0  1  0.50000000  0.69930400  0.25200300  1
  Na  Na1  1  0.50000000  0.50000000  0.25013700  1
  Na  Na2  1  0.50000000  0.30069600  0.24852500  1
  Sr  Sr3  1  0.50000000  0.89833900  0.75235500  1
  Sr  Sr4  1  0.50000000  0.89974500  0.24967400  1
  Sr  Sr5  1  0.50000000  0.10166100  0.74404800  1
  Sr  Sr6  1  0.50000000  0.10025500  0.24839700  1
  La  La7  1  0.50000000  0.69928300  0.75382200  1
  La  La8  1  0.50000000  0.50000000  0.74978900  1
  La  La9  1  0.50000000  0.30071700  0.75023800  1
  Ti  Ti10  1  0.00274200  0.79744100  0.50788200  1
  Ti  Ti11  1  0.00133200  0.59917900  0.50318700  1
  Ti  Ti12  1  0.99725800  0.79744100  0.00514100  1
  Ti  Ti13  1  0.99866800  0.40082100  0.49774900  1
  Ti  Ti14  1  0.99866800  0.59917900  0.00185500  1
  Ti  Ti15  1  0.00133200  0.40082100  0.99908200  1
  Ti  Ti16  1  0.00274200  0.20255900  0.99508700  1
  Ti  Ti17  1  0.00000000  0.00000000  0.99955900  1
  Ti  Ti18  1  0.99725800  0.20255900  0.49234500  1
  Ti  Ti19  1  0.00000000  0.00000000  0.49955900  1
  O  O20  1  0.00000000  0.00000000  0.74950600  1
  O  O21  1  0.04893600  0.89874300  0.77594700  1
  O  O22  1  0.07686700  0.69847000  0.78659000  1
  O  O23  1  0.01288300  0.79707100  0.26352100  1
  O  O24  1  0.50000000  0.99057700  0.27436400  1
  O  O25  1  0.50000000  0.80963800  0.72464700  1
  O  O26  1  0.08329800  0.50000000  0.78444600  1
  O  O27  1  0.00049300  0.59932100  0.25233000  1
  O  O28  1  0.50000000  0.61561100  0.71819500  1
  O  O29  1  0.50000000  0.78474500  0.29558500  1
  O  O30  1  0.98711700  0.79707100  0.75063800  1
  O  O31  1  0.95106400  0.89874300  0.22701100  1
  O  O32  1  0.07686700  0.30153000  0.77894000  1
  O  O33  1  0.01288300  0.20292900  0.74887500  1
  O  O34  1  0.99950700  0.40067900  0.24844300  1
  O  O35  1  0.50000000  0.58319700  0.29964800  1
  O  O36  1  0.50000000  0.41680300  0.71563400  1
  O  O37  1  0.99950700  0.59932100  0.75183700  1
  O  O38  1  0.92313300  0.69847000  0.20972400  1
  O  O39  1  0.04893600  0.10125700  0.76966300  1
  O  O40  1  0.98711700  0.20292900  0.23599200  1
  O  O41  1  0.50000000  0.38438900  0.29624800  1
  O  O42  1  0.50000000  0.21525500  0.71931000  1
  O  O43  1  0.00049300  0.40067900  0.74893600  1
  O  O44  1  0.91670200  0.50000000  0.20114800  1
  O  O45  1  0.50000000  0.19036200  0.27283500  1
  O  O46  1  0.50000000  0.00942300  0.72724800  1
  O  O47  1  0.92313300  0.30153000  0.20207400  1
  O  O48  1  0.95106400  0.10125700  0.22072700  1
  O  O49  1  0.00000000  0.00000000  0.24950600  1
