# generated using pymatgen
data_KNa3Mg4F12
_symmetry_space_group_name_H-M   'P 1'
_cell_length_a   7.89512200
_cell_length_b   5.54628400
_cell_length_c   5.61108891
_cell_angle_alpha   89.79218182
_cell_angle_beta   90.00000000
_cell_angle_gamma   90.00000000
_symmetry_Int_Tables_number   1
_chemical_formula_structural   KNa3Mg4F12
_chemical_formula_sum   'K1 Na3 Mg4 F12'
_cell_volume   245.70004891
_cell_formula_units_Z   1
loop_
 _symmetry_equiv_pos_site_id
 _symmetry_equiv_pos_as_xyz
  1  'x, y, z'
loop_
 _atom_site_type_symbol
 _atom_site_label
 _atom_site_symmetry_multiplicity
 _atom_site_fract_x
 _atom_site_fract_y
 _atom_site_fract_z
 _atom_site_occupancy
  K  K0  1  0.50000000  0.49559100  0.51995900  1
  Na  Na1  1  0.50000000  0.00723100  0.03483900  1
  Na  Na2  1  0.00000000  0.50147300  0.46311100  1
  Na  Na3  1  0.00000000  0.00102600  0.97168400  1
  Mg  Mg4  1  0.24475400  0.00005900  0.50156500  1
  Mg  Mg5  1  0.75443300  0.49935200  0.99774700  1
  Mg  Mg6  1  0.75524600  0.00005900  0.50156500  1
  Mg  Mg7  1  0.24556700  0.49935200  0.99774700  1
  F  F8  1  0.28830400  0.20339200  0.79551600  1
  F  F9  1  0.73142400  0.28139600  0.28036500  1
  F  F10  1  0.79206500  0.78660500  0.21320600  1
  F  F11  1  0.20963500  0.70739400  0.70868000  1
  F  F12  1  0.20793500  0.78660500  0.21320600  1
  F  F13  1  0.79036500  0.70739400  0.70868000  1
  F  F14  1  0.71169600  0.20339200  0.79551600  1
  F  F15  1  0.26857600  0.28139600  0.28036500  1
  F  F16  1  0.50000000  0.57562200  0.00036300  1
  F  F17  1  0.50000000  0.95882800  0.47112000  1
  F  F18  1  0.00000000  0.42610400  0.01172400  1
  F  F19  1  0.00000000  0.07772900  0.53304300  1
