# generated using pymatgen
data_La2Mn3Sb3O14
_symmetry_space_group_name_H-M   'P 1'
_cell_length_a   7.43792623
_cell_length_b   12.73699789
_cell_length_c   7.44156388
_cell_angle_alpha   73.41923007
_cell_angle_beta   119.96233499
_cell_angle_gamma   89.61798593
_symmetry_Int_Tables_number   1
_chemical_formula_structural   La2Mn3Sb3O14
_chemical_formula_sum   'La4 Mn6 Sb6 O28'
_cell_volume   575.84807941
_cell_formula_units_Z   2
loop_
 _symmetry_equiv_pos_site_id
 _symmetry_equiv_pos_as_xyz
  1  'x, y, z'
loop_
 _atom_site_type_symbol
 _atom_site_label
 _atom_site_symmetry_multiplicity
 _atom_site_fract_x
 _atom_site_fract_y
 _atom_site_fract_z
 _atom_site_occupancy
  La  La0  1  0.25000400  0.24999600  0.00000600  1
  La  La1  1  0.75000300  0.74999200  0.99999500  1
  La  La2  1  0.50002800  0.99999200  0.00003200  1
  La  La3  1  0.00000200  0.49999800  0.99999700  1
  Mn  Mn4  1  0.49998400  0.49999900  0.49997900  1
  Mn  Mn5  1  0.00000600  0.49999400  0.50001100  1
  Mn  Mn6  1  0.99998700  0.99999900  0.99999200  1
  Mn  Mn7  1  0.00003100  0.00001800  0.50000400  1
  Mn  Mn8  1  0.49998300  0.99999800  0.49998600  1
  Mn  Mn9  1  0.50000000  0.49999500  0.00000100  1
  Sb  Sb10  1  0.74999700  0.25000000  0.50000000  1
  Sb  Sb11  1  0.25000000  0.74999900  0.50000300  1
  Sb  Sb12  1  0.74999500  0.25000300  0.99999500  1
  Sb  Sb13  1  0.24999700  0.75000600  0.99999400  1
  Sb  Sb14  1  0.25000400  0.25000000  0.50000500  1
  Sb  Sb15  1  0.74999700  0.75000400  0.49999500  1
  O  O16  1  0.30276800  0.05523800  0.14184800  1
  O  O17  1  0.80273500  0.55523500  0.14181400  1
  O  O18  1  0.19726200  0.44476300  0.85819000  1
  O  O19  1  0.69722800  0.94476100  0.85815200  1
  O  O20  1  0.65942200  0.41173200  0.42922400  1
  O  O21  1  0.15942600  0.91173500  0.42922600  1
  O  O22  1  0.84057700  0.08827100  0.57077000  1
  O  O23  1  0.34057500  0.58826500  0.57077000  1
  O  O24  1  0.45788000  0.21512000  0.82680200  1
  O  O25  1  0.95788400  0.71512000  0.82680200  1
  O  O26  1  0.04211800  0.28487700  0.17320400  1
  O  O27  1  0.54211600  0.78488000  0.17319600  1
  O  O28  1  0.67149200  0.41012400  0.83830000  1
  O  O29  1  0.17149100  0.91012600  0.83829700  1
  O  O30  1  0.25181400  0.41020500  0.41846400  1
  O  O31  1  0.75182500  0.91020800  0.41846900  1
  O  O32  1  0.82850800  0.08987700  0.16170400  1
  O  O33  1  0.32850200  0.58987700  0.16169800  1
  O  O34  1  0.24818500  0.08979800  0.58153600  1
  O  O35  1  0.74818200  0.58979300  0.58153600  1
  O  O36  1  0.46273800  0.21215300  0.42265200  1
  O  O37  1  0.96274200  0.71215200  0.42265400  1
  O  O38  1  0.86516400  0.21221300  0.82496300  1
  O  O39  1  0.36516300  0.71221500  0.82496200  1
  O  O40  1  0.03725900  0.28785000  0.57734700  1
  O  O41  1  0.53725600  0.78784900  0.57734600  1
  O  O42  1  0.63483400  0.28778400  0.17504000  1
  O  O43  1  0.13483500  0.78778900  0.17503800  1
