# generated using pymatgen
data_LuAgS2
_symmetry_space_group_name_H-M   'P 1'
_cell_length_a   7.09650251
_cell_length_b   7.09650251
_cell_length_c   7.09650251
_cell_angle_alpha   135.70397982
_cell_angle_beta   135.70397982
_cell_angle_gamma   64.43832052
_symmetry_Int_Tables_number   1
_chemical_formula_structural   LuAgS2
_chemical_formula_sum   'Lu2 Ag2 S4'
_cell_volume   171.89171694
_cell_formula_units_Z   2
loop_
 _symmetry_equiv_pos_site_id
 _symmetry_equiv_pos_as_xyz
  1  'x, y, z'
loop_
 _atom_site_type_symbol
 _atom_site_label
 _atom_site_symmetry_multiplicity
 _atom_site_fract_x
 _atom_site_fract_y
 _atom_site_fract_z
 _atom_site_occupancy
  Lu  Lu0  1  0.00000000  0.00000000  0.00000000  1
  Lu  Lu1  1  0.75000000  0.25000000  0.50000000  1
  Ag  Ag2  1  0.50000000  0.50000000  0.00000000  1
  Ag  Ag3  1  0.25000000  0.75000000  0.50000000  1
  S  S4  1  0.77611800  0.77611800  0.00000000  1
  S  S5  1  0.22388200  0.22388200  0.00000000  1
  S  S6  1  0.97388200  0.47388200  0.50000000  1
  S  S7  1  0.52611800  0.02611800  0.50000000  1
