# generated using pymatgen
data_La5S7
_symmetry_space_group_name_H-M   'P 1'
_cell_length_a   10.99548554
_cell_length_b   10.99548554
_cell_length_c   5.42147821
_cell_angle_alpha   89.86690439
_cell_angle_beta   89.86690439
_cell_angle_gamma   89.92019840
_symmetry_Int_Tables_number   1
_chemical_formula_structural   La5S7
_chemical_formula_sum   'La10 S14'
_cell_volume   655.45635520
_cell_formula_units_Z   2
loop_
 _symmetry_equiv_pos_site_id
 _symmetry_equiv_pos_as_xyz
  1  'x, y, z'
loop_
 _atom_site_type_symbol
 _atom_site_label
 _atom_site_symmetry_multiplicity
 _atom_site_fract_x
 _atom_site_fract_y
 _atom_site_fract_z
 _atom_site_occupancy
  La  La0  1  0.83234700  0.83234700  0.54272400  1
  La  La1  1  0.16259200  0.16259200  0.54425600  1
  La  La2  1  0.63880400  0.34726500  0.54422000  1
  La  La3  1  0.34726500  0.63880400  0.54422000  1
  La  La4  1  0.16696400  0.81903700  0.04698500  1
  La  La5  1  0.81903700  0.16696400  0.04698500  1
  La  La6  1  0.32914900  0.32914900  0.03307500  1
  La  La7  1  0.66008000  0.66008000  0.03792500  1
  La  La8  1  0.50208500  0.99569200  0.82986000  1
  La  La9  1  0.99569200  0.50208500  0.82986000  1
  S  S10  1  0.05745900  0.26030600  0.01488200  1
  S  S11  1  0.92348800  0.72714800  0.04058200  1
  S  S12  1  0.41757800  0.77195900  0.03774200  1
  S  S13  1  0.56904100  0.22666200  0.03623600  1
  S  S14  1  0.77195900  0.41757800  0.03774200  1
  S  S15  1  0.22666200  0.56904100  0.03623600  1
  S  S16  1  0.26030600  0.05745900  0.01488200  1
  S  S17  1  0.72714800  0.92348800  0.04058200  1
  S  S18  1  0.40900500  0.20497400  0.53537200  1
  S  S19  1  0.57686900  0.77851900  0.54390600  1
  S  S20  1  0.11894000  0.79503700  0.54722500  1
  S  S21  1  0.79503700  0.11894000  0.54722500  1
  S  S22  1  0.20497400  0.40900500  0.53537200  1
  S  S23  1  0.77851900  0.57686900  0.54390600  1
