# generated using pymatgen
data_KNa4Cl5
_symmetry_space_group_name_H-M   'P 1'
_cell_length_a   10.94808033
_cell_length_b   10.94808033
_cell_length_c   10.94808033
_cell_angle_alpha   158.40922427
_cell_angle_beta   148.62995705
_cell_angle_gamma   38.40319400
_symmetry_Int_Tables_number   1
_chemical_formula_structural   KNa4Cl5
_chemical_formula_sum   'K1 Na4 Cl5'
_cell_volume   251.00488955
_cell_formula_units_Z   1
loop_
 _symmetry_equiv_pos_site_id
 _symmetry_equiv_pos_as_xyz
  1  'x, y, z'
loop_
 _atom_site_type_symbol
 _atom_site_label
 _atom_site_symmetry_multiplicity
 _atom_site_fract_x
 _atom_site_fract_y
 _atom_site_fract_z
 _atom_site_occupancy
  K  K0  1  0.00000000  0.00000000  0.00000000  1
  Na  Na1  1  0.60356100  0.60356100  0.00000000  1
  Na  Na2  1  0.20353700  0.20353700  0.00000000  1
  Na  Na3  1  0.79646300  0.79646300  0.00000000  1
  Na  Na4  1  0.39643900  0.39643900  0.00000000  1
  Cl  Cl5  1  0.88877100  0.38877100  0.50000000  1
  Cl  Cl6  1  0.69880800  0.19880800  0.50000000  1
  Cl  Cl7  1  0.30119200  0.80119200  0.50000000  1
  Cl  Cl8  1  0.50000000  0.00000000  0.50000000  1
  Cl  Cl9  1  0.11122900  0.61122900  0.50000000  1
