# generated using pymatgen
data_La2MgNi9
_symmetry_space_group_name_H-M   'P 1'
_cell_length_a   4.99298984
_cell_length_b   4.99298984
_cell_length_c   8.51645158
_cell_angle_alpha   89.99999930
_cell_angle_beta   107.04591294
_cell_angle_gamma   60.00000208
_symmetry_Int_Tables_number   1
_chemical_formula_structural   La2MgNi9
_chemical_formula_sum   'La2 Mg1 Ni9'
_cell_volume   173.01630675
_cell_formula_units_Z   1
loop_
 _symmetry_equiv_pos_site_id
 _symmetry_equiv_pos_as_xyz
  1  'x, y, z'
loop_
 _atom_site_type_symbol
 _atom_site_label
 _atom_site_symmetry_multiplicity
 _atom_site_fract_x
 _atom_site_fract_y
 _atom_site_fract_z
 _atom_site_occupancy
  La  La0  1  0.00828400  0.99585800  0.01242500  1
  La  La1  1  0.71410800  0.14294600  0.57116200  1
  Mg  Mg2  1  0.28192200  0.85903900  0.42288300  1
  Ni  Ni3  1  0.33242400  0.33378800  0.99863500  1
  Ni  Ni4  1  0.66540400  0.66729800  0.99810600  1
  Ni  Ni5  1  0.83062400  0.58468800  0.74962900  1
  Ni  Ni6  1  0.33431700  0.58468800  0.74962900  1
  Ni  Ni7  1  0.33431700  0.08099600  0.74962900  1
  Ni  Ni8  1  0.16520500  0.41739800  0.25065300  1
  Ni  Ni9  1  0.66805100  0.41739800  0.25065300  1
  Ni  Ni10  1  0.66805100  0.91455200  0.25065300  1
  Ni  Ni11  1  0.99729500  0.50135200  0.49594300  1
