# generated using pymatgen
data_KTiNbO5
_symmetry_space_group_name_H-M   'P 1'
_cell_length_a   3.82199100
_cell_length_b   6.54346600
_cell_length_c   18.73839100
_cell_angle_alpha   90.00000000
_cell_angle_beta   90.00000000
_cell_angle_gamma   90.00000000
_symmetry_Int_Tables_number   1
_chemical_formula_structural   KTiNbO5
_chemical_formula_sum   'K4 Ti4 Nb4 O20'
_cell_volume   468.62969774
_cell_formula_units_Z   4
loop_
 _symmetry_equiv_pos_site_id
 _symmetry_equiv_pos_as_xyz
  1  'x, y, z'
loop_
 _atom_site_type_symbol
 _atom_site_label
 _atom_site_symmetry_multiplicity
 _atom_site_fract_x
 _atom_site_fract_y
 _atom_site_fract_z
 _atom_site_occupancy
  K  K0  1  0.25000000  0.78768800  0.19368400  1
  K  K1  1  0.25000000  0.28768800  0.30631600  1
  K  K2  1  0.75000000  0.21231200  0.80631600  1
  K  K3  1  0.75000000  0.71231200  0.69368400  1
  Ti  Ti4  1  0.25000000  0.31716200  0.96529100  1
  Ti  Ti5  1  0.25000000  0.81716200  0.53470900  1
  Ti  Ti6  1  0.75000000  0.68283800  0.03470900  1
  Ti  Ti7  1  0.75000000  0.18283800  0.46529100  1
  Nb  Nb8  1  0.25000000  0.77100500  0.88968000  1
  Nb  Nb9  1  0.25000000  0.27100500  0.61032000  1
  Nb  Nb10  1  0.75000000  0.22899500  0.11032000  1
  Nb  Nb11  1  0.75000000  0.72899500  0.38968000  1
  O  O12  1  0.25000000  0.46659700  0.88013700  1
  O  O13  1  0.25000000  0.96659700  0.61986300  1
  O  O14  1  0.75000000  0.53340300  0.11986300  1
  O  O15  1  0.75000000  0.03340300  0.38013700  1
  O  O16  1  0.25000000  0.83315400  0.79566000  1
  O  O17  1  0.25000000  0.33315400  0.70434000  1
  O  O18  1  0.75000000  0.16684600  0.20434000  1
  O  O19  1  0.75000000  0.66684600  0.29566000  1
  O  O20  1  0.25000000  0.64601300  0.01025100  1
  O  O21  1  0.25000000  0.14601300  0.48974900  1
  O  O22  1  0.75000000  0.35398700  0.98974900  1
  O  O23  1  0.75000000  0.85398700  0.51025100  1
  O  O24  1  0.25000000  0.23361600  0.07828300  1
  O  O25  1  0.25000000  0.73361600  0.42171700  1
  O  O26  1  0.75000000  0.76638400  0.92171700  1
  O  O27  1  0.75000000  0.26638400  0.57828300  1
  O  O28  1  0.25000000  0.06973600  0.92403700  1
  O  O29  1  0.25000000  0.56973600  0.57596300  1
  O  O30  1  0.75000000  0.93026400  0.07596300  1
  O  O31  1  0.75000000  0.43026400  0.42403700  1
