# generated using pymatgen
data_KSO2F
_symmetry_space_group_name_H-M   'P 1'
_cell_length_a   5.87897900
_cell_length_b   4.71828200
_cell_length_c   7.19136108
_cell_angle_alpha   72.93450831
_cell_angle_beta   90.00000000
_cell_angle_gamma   90.00000000
_symmetry_Int_Tables_number   1
_chemical_formula_structural   KSO2F
_chemical_formula_sum   'K2 S2 O4 F2'
_cell_volume   190.69580232
_cell_formula_units_Z   2
loop_
 _symmetry_equiv_pos_site_id
 _symmetry_equiv_pos_as_xyz
  1  'x, y, z'
loop_
 _atom_site_type_symbol
 _atom_site_label
 _atom_site_symmetry_multiplicity
 _atom_site_fract_x
 _atom_site_fract_y
 _atom_site_fract_z
 _atom_site_occupancy
  K  K0  1  0.25078800  0.34484400  0.28906100  1
  K  K1  1  0.75078800  0.65515600  0.71093900  1
  S  S2  1  0.72621000  0.94410300  0.16228100  1
  S  S3  1  0.22621000  0.05589700  0.83771900  1
  O  O4  1  0.04411400  0.17227800  0.69206100  1
  O  O5  1  0.54411400  0.82772200  0.30793900  1
  O  O6  1  0.75348600  0.26852700  0.12027200  1
  O  O7  1  0.25348600  0.73147300  0.87972800  1
  F  F8  1  0.97540200  0.82450100  0.31867400  1
  F  F9  1  0.47540200  0.17549900  0.68132600  1
