# generated using pymatgen
data_K2NaNb(OF2)2
_symmetry_space_group_name_H-M   'P 1'
_cell_length_a   6.08954300
_cell_length_b   6.08954300
_cell_length_c   8.65778200
_cell_angle_alpha   90.00000000
_cell_angle_beta   90.00000000
_cell_angle_gamma   90.00000000
_symmetry_Int_Tables_number   1
_chemical_formula_structural   K2NaNb(OF2)2
_chemical_formula_sum   'K4 Na2 Nb2 O4 F8'
_cell_volume   321.05249494
_cell_formula_units_Z   2
loop_
 _symmetry_equiv_pos_site_id
 _symmetry_equiv_pos_as_xyz
  1  'x, y, z'
loop_
 _atom_site_type_symbol
 _atom_site_label
 _atom_site_symmetry_multiplicity
 _atom_site_fract_x
 _atom_site_fract_y
 _atom_site_fract_z
 _atom_site_occupancy
  K  K0  1  0.00000000  0.50000000  0.75000000  1
  K  K1  1  0.50000000  0.00000000  0.75000000  1
  K  K2  1  0.50000000  0.00000000  0.25000000  1
  K  K3  1  0.00000000  0.50000000  0.25000000  1
  Na  Na4  1  0.50000000  0.50000000  0.00000000  1
  Na  Na5  1  0.00000000  0.00000000  0.50000000  1
  Nb  Nb6  1  0.00000000  0.00000000  0.00000000  1
  Nb  Nb7  1  0.50000000  0.50000000  0.50000000  1
  O  O8  1  0.22064900  0.77935100  0.00000000  1
  O  O9  1  0.27935100  0.27935100  0.50000000  1
  O  O10  1  0.72064900  0.72064900  0.50000000  1
  O  O11  1  0.77935100  0.22064900  0.00000000  1
  F  F12  1  0.73682300  0.26317700  0.50000000  1
  F  F13  1  0.00000000  0.00000000  0.23527600  1
  F  F14  1  0.00000000  0.00000000  0.76472400  1
  F  F15  1  0.23682300  0.23682300  0.00000000  1
  F  F16  1  0.50000000  0.50000000  0.73527600  1
  F  F17  1  0.50000000  0.50000000  0.26472400  1
  F  F18  1  0.76317700  0.76317700  0.00000000  1
  F  F19  1  0.26317700  0.73682300  0.50000000  1
