# generated using pymatgen
data_BaLa7Mg5Nb3O24
_symmetry_space_group_name_H-M   'P 1'
_cell_length_a   9.90075846
_cell_length_b   9.90075846
_cell_length_c   9.89284332
_cell_angle_alpha   80.28095748
_cell_angle_beta   80.28095748
_cell_angle_gamma   33.39726791
_symmetry_Int_Tables_number   1
_chemical_formula_structural   BaLa7Mg5Nb3O24
_chemical_formula_sum   'Ba1 La7 Mg5 Nb3 O24'
_cell_volume   525.43179760
_cell_formula_units_Z   1
loop_
 _symmetry_equiv_pos_site_id
 _symmetry_equiv_pos_as_xyz
  1  'x, y, z'
loop_
 _atom_site_type_symbol
 _atom_site_label
 _atom_site_symmetry_multiplicity
 _atom_site_fract_x
 _atom_site_fract_y
 _atom_site_fract_z
 _atom_site_occupancy
  Ba  Ba0  1  0.68713500  0.68713500  0.43354700  1
  La  La1  1  0.55450000  0.55450000  0.81378200  1
  La  La2  1  0.06538800  0.06538800  0.32304200  1
  La  La3  1  0.82397700  0.82397700  0.04652300  1
  La  La4  1  0.31993600  0.31993600  0.58979500  1
  La  La5  1  0.19362500  0.19362500  0.94097200  1
  La  La6  1  0.93000000  0.93000000  0.69141300  1
  La  La7  1  0.43188300  0.43188300  0.17137200  1
  Mg  Mg8  1  0.00206900  0.00206900  0.99948300  1
  Mg  Mg9  1  0.49879600  0.49879600  0.50104100  1
  Mg  Mg10  1  0.37563000  0.37563000  0.87904400  1
  Mg  Mg11  1  0.25062300  0.25062300  0.24763900  1
  Mg  Mg12  1  0.74921600  0.74921600  0.75226800  1
  Nb  Nb13  1  0.12520200  0.12520200  0.62726800  1
  Nb  Nb14  1  0.62421400  0.62421400  0.11977800  1
  Nb  Nb15  1  0.87459300  0.87459300  0.37611900  1
  O  O16  1  0.30865100  0.83344300  0.52990100  1
  O  O17  1  0.03933100  0.03933100  0.78379500  1
  O  O18  1  0.20678400  0.20678400  0.46571000  1
  O  O19  1  0.83344300  0.30865100  0.52990100  1
  O  O20  1  0.92967200  0.41029100  0.21100500  1
  O  O21  1  0.07003100  0.58504000  0.27290500  1
  O  O22  1  0.82057600  0.33397300  0.01725400  1
  O  O23  1  0.54104100  0.54104100  0.28049500  1
  O  O24  1  0.71016700  0.71016700  0.96550300  1
  O  O25  1  0.58504000  0.07003100  0.27290500  1
  O  O26  1  0.41029100  0.92967200  0.21100500  1
  O  O27  1  0.33397300  0.82057600  0.01725400  1
  O  O28  1  0.57588800  0.07246400  0.77862300  1
  O  O29  1  0.41944200  0.92494200  0.72414800  1
  O  O30  1  0.67705400  0.17722100  0.98034500  1
  O  O31  1  0.29013900  0.29013900  0.04222100  1
  O  O32  1  0.45799800  0.45799800  0.70912400  1
  O  O33  1  0.07246400  0.57588800  0.77862300  1
  O  O34  1  0.92494200  0.41944200  0.72414800  1
  O  O35  1  0.17722100  0.67705400  0.98034500  1
  O  O36  1  0.17223100  0.67468300  0.47412800  1
  O  O37  1  0.79973100  0.79973100  0.54158900  1
  O  O38  1  0.96241900  0.96241900  0.22186300  1
  O  O39  1  0.67468300  0.17223100  0.47412800  1
