# generated using pymatgen
data_La2CrFeO6
_symmetry_space_group_name_H-M   'P 1'
_cell_length_a   5.60191000
_cell_length_b   5.60449902
_cell_length_c   7.91237904
_cell_angle_alpha   89.98888070
_cell_angle_beta   90.00016148
_cell_angle_gamma   89.99995911
_symmetry_Int_Tables_number   1
_chemical_formula_structural   La2CrFeO6
_chemical_formula_sum   'La4 Cr2 Fe2 O12'
_cell_volume   248.41624954
_cell_formula_units_Z   2
loop_
 _symmetry_equiv_pos_site_id
 _symmetry_equiv_pos_as_xyz
  1  'x, y, z'
loop_
 _atom_site_type_symbol
 _atom_site_label
 _atom_site_symmetry_multiplicity
 _atom_site_fract_x
 _atom_site_fract_y
 _atom_site_fract_z
 _atom_site_occupancy
  La  La0  1  0.47144100  0.49218400  0.75003300  1
  La  La1  1  0.97142500  0.00781400  0.74995900  1
  La  La2  1  0.52857400  0.50782900  0.24998400  1
  La  La3  1  0.02857500  0.99219400  0.25004600  1
  Cr  Cr4  1  0.50001000  0.99998900  0.50001200  1
  Cr  Cr5  1  0.99996700  0.49999600  0.99999200  1
  Fe  Fe6  1  0.49999900  0.99999300  0.99999800  1
  Fe  Fe7  1  0.00000400  0.50000800  0.50000200  1
  O  O8  1  0.01569400  0.58176200  0.75038800  1
  O  O9  1  0.51569000  0.91823700  0.74960600  1
  O  O10  1  0.98431000  0.41824000  0.24961000  1
  O  O11  1  0.48431100  0.08176600  0.25038700  1
  O  O12  1  0.21852600  0.21941400  0.95579500  1
  O  O13  1  0.71852100  0.28058700  0.54419600  1
  O  O14  1  0.78086600  0.78101200  0.45591200  1
  O  O15  1  0.28086500  0.71898500  0.04409000  1
  O  O16  1  0.78147600  0.78057700  0.04420300  1
  O  O17  1  0.28148000  0.71941400  0.45579200  1
  O  O18  1  0.21913100  0.21898200  0.54408100  1
  O  O19  1  0.71913300  0.28101800  0.95591100  1
