# generated using pymatgen
data_Li4B8H5O18
_symmetry_space_group_name_H-M   'P 1'
_cell_length_a   8.51939591
_cell_length_b   8.76134571
_cell_length_c   10.87877656
_cell_angle_alpha   87.10132555
_cell_angle_beta   71.86629378
_cell_angle_gamma   62.14313589
_symmetry_Int_Tables_number   1
_chemical_formula_structural   Li4B8H5O18
_chemical_formula_sum   'Li8 B16 H10 O36'
_cell_volume   677.89091508
_cell_formula_units_Z   2
loop_
 _symmetry_equiv_pos_site_id
 _symmetry_equiv_pos_as_xyz
  1  'x, y, z'
loop_
 _atom_site_type_symbol
 _atom_site_label
 _atom_site_symmetry_multiplicity
 _atom_site_fract_x
 _atom_site_fract_y
 _atom_site_fract_z
 _atom_site_occupancy
  Li  Li0  1  0.94234300  0.65115100  0.11644000  1
  Li  Li1  1  0.06863200  0.35478500  0.91071800  1
  Li  Li2  1  0.52647500  0.68352400  0.82417000  1
  Li  Li3  1  0.46956900  0.32156900  0.18368600  1
  Li  Li4  1  0.27256400  0.97233900  0.99401000  1
  Li  Li5  1  0.72764400  0.02977400  0.01479400  1
  Li  Li6  1  0.96087700  0.38798000  0.67875100  1
  Li  Li7  1  0.51387800  0.97971100  0.49692400  1
  B  B8  1  0.73930500  0.44518200  0.07205200  1
  B  B9  1  0.26305800  0.55408800  0.92473000  1
  B  B10  1  0.55540400  0.86436600  0.21308100  1
  B  B11  1  0.44920900  0.12957600  0.78606900  1
  B  B12  1  0.72019000  0.00085500  0.28218200  1
  B  B13  1  0.28106600  0.99644200  0.71503300  1
  B  B14  1  0.86857600  0.16707300  0.17243400  1
  B  B15  1  0.13152200  0.83251700  0.82802100  1
  B  B16  1  0.73000800  0.21670200  0.41328700  1
  B  B17  1  0.25878400  0.78480000  0.58505400  1
  B  B18  1  0.06716000  0.85685700  0.19355500  1
  B  B19  1  0.93324100  0.14207100  0.80814900  1
  B  B20  1  0.41934700  0.69473800  0.14763300  1
  B  B21  1  0.58253900  0.30663600  0.84910900  1
  B  B22  1  0.66373000  0.73107000  0.98527100  1
  B  B23  1  0.34460700  0.26832000  0.01329000  1
  H  H24  1  0.82477500  0.77303200  0.81333500  1
  H  H25  1  0.16859500  0.28884300  0.19517900  1
  H  H26  1  0.85043200  0.43360300  0.28260900  1
  H  H27  1  0.14854500  0.56838600  0.70734400  1
  H  H28  1  0.63727300  0.25530900  0.61427900  1
  H  H29  1  0.34596100  0.73931900  0.38983000  1
  H  H30  1  0.70895300  0.44015700  0.56452200  1
  H  H31  1  0.23761500  0.52602900  0.44139000  1
  H  H32  1  0.84543000  0.59091700  0.34962100  1
  H  H33  1  0.25927100  0.36688600  0.66054300  1
  O  O34  1  0.80240000  0.54607400  0.98999800  1
  O  O35  1  0.20278200  0.44855000  0.00170000  1
  O  O36  1  0.23320900  0.71297800  0.18536300  1
  O  O37  1  0.77198600  0.28721100  0.80614900  1
  O  O38  1  0.72528600  0.53792100  0.61465700  1
  O  O39  1  0.26964700  0.41358600  0.39217500  1
  O  O40  1  0.82181600  0.26037700  0.30245500  1
  O  O41  1  0.16833500  0.74250900  0.69991300  1
  O  O42  1  0.47509700  0.75174800  0.01932300  1
  O  O43  1  0.53354700  0.24736800  0.97516200  1
  O  O44  1  0.71972100  0.12016800  0.18204300  1
  O  O45  1  0.27901300  0.88142200  0.81689500  1
  O  O46  1  0.55466400  0.50488700  0.14573800  1
  O  O47  1  0.44845700  0.49498400  0.85073900  1
  O  O48  1  0.90515400  0.84283900  0.24842800  1
  O  O49  1  0.09379300  0.15905200  0.74997500  1
  O  O50  1  0.67726300  0.09118700  0.41284700  1
  O  O51  1  0.31670800  0.90794400  0.58718800  1
  O  O52  1  0.05549000  0.00995300  0.14428400  1
  O  O53  1  0.94261800  0.99233900  0.85866100  1
  O  O54  1  0.67394200  0.83848200  0.08388200  1
  O  O55  1  0.33596800  0.15415000  0.91518000  1
  O  O56  1  0.43375500  0.79644200  0.24760300  1
  O  O57  1  0.56707800  0.20258900  0.74895800  1
  O  O58  1  0.57159500  0.95143500  0.30612300  1
  O  O59  1  0.42846500  0.04818700  0.69112600  1
  O  O60  1  0.88162600  0.28051600  0.07080400  1
  O  O61  1  0.12078400  0.71838600  0.92777900  1
  O  O62  1  0.88819200  0.52669800  0.26406400  1
  O  O63  1  0.13803300  0.45699800  0.71610500  1
  O  O64  1  0.68647100  0.30578900  0.53279800  1
  O  O65  1  0.28858500  0.69766000  0.47130900  1
  O  O66  1  0.70276000  0.77987200  0.85322800  1
  O  O67  1  0.30178400  0.22551100  0.14473900  1
  O  O68  1  0.15567900  0.34970900  0.45749100  1
  O  O69  1  0.75572100  0.65027500  0.53302300  1
