# generated using pymatgen
data_KTa5Pb2O15
_symmetry_space_group_name_H-M   'P 1'
_cell_length_a   3.97201700
_cell_length_b   12.73049200
_cell_length_c   12.76108200
_cell_angle_alpha   90.00000000
_cell_angle_beta   90.00000000
_cell_angle_gamma   90.00000000
_symmetry_Int_Tables_number   1
_chemical_formula_structural   KTa5Pb2O15
_chemical_formula_sum   'K2 Ta10 Pb4 O30'
_cell_volume   645.27343512
_cell_formula_units_Z   2
loop_
 _symmetry_equiv_pos_site_id
 _symmetry_equiv_pos_as_xyz
  1  'x, y, z'
loop_
 _atom_site_type_symbol
 _atom_site_label
 _atom_site_symmetry_multiplicity
 _atom_site_fract_x
 _atom_site_fract_y
 _atom_site_fract_z
 _atom_site_occupancy
  K  K0  1  0.50000000  0.92319100  0.67579200  1
  K  K1  1  0.50000000  0.07680900  0.17579200  1
  Ta  Ta2  1  0.00000000  0.46430500  0.57544200  1
  Ta  Ta3  1  0.00000000  0.03779800  0.42159100  1
  Ta  Ta4  1  0.00000000  0.53569500  0.07544200  1
  Ta  Ta5  1  0.00000000  0.96220200  0.92159100  1
  Ta  Ta6  1  0.00000000  0.33046200  0.28903700  1
  Ta  Ta7  1  0.00000000  0.17401000  0.70805400  1
  Ta  Ta8  1  0.00000000  0.82599000  0.20805400  1
  Ta  Ta9  1  0.00000000  0.66953800  0.78903700  1
  Ta  Ta10  1  0.00000000  0.75313200  0.50497200  1
  Ta  Ta11  1  0.00000000  0.24686800  0.00497200  1
  Pb  Pb12  1  0.50000000  0.25276500  0.49466300  1
  Pb  Pb13  1  0.50000000  0.74723500  0.99466300  1
  Pb  Pb14  1  0.50000000  0.37952500  0.83052900  1
  Pb  Pb15  1  0.50000000  0.62047500  0.33052900  1
  O  O16  1  0.00000000  0.59250100  0.49387300  1
  O  O17  1  0.00000000  0.90399200  0.50237500  1
  O  O18  1  0.00000000  0.40749900  0.99387300  1
  O  O19  1  0.00000000  0.09600800  0.00237500  1
  O  O20  1  0.00000000  0.25068800  0.15516100  1
  O  O21  1  0.00000000  0.26282500  0.84243700  1
  O  O22  1  0.00000000  0.73717500  0.34243700  1
  O  O23  1  0.00000000  0.74931200  0.65516100  1
  O  O24  1  0.50000000  0.45379900  0.57728300  1
  O  O25  1  0.50000000  0.04683000  0.42554100  1
  O  O26  1  0.50000000  0.54620100  0.07728300  1
  O  O27  1  0.50000000  0.95317000  0.92554100  1
  O  O28  1  0.50000000  0.32510700  0.29787200  1
  O  O29  1  0.50000000  0.18067400  0.71111900  1
  O  O30  1  0.50000000  0.81932600  0.21111900  1
  O  O31  1  0.50000000  0.67489300  0.79787200  1
  O  O32  1  0.00000000  0.53491300  0.71533700  1
  O  O33  1  0.00000000  0.95990100  0.28942100  1
  O  O34  1  0.00000000  0.46508700  0.21533700  1
  O  O35  1  0.00000000  0.04009900  0.78942100  1
  O  O36  1  0.50000000  0.74250700  0.48885000  1
  O  O37  1  0.50000000  0.25749300  0.98885000  1
  O  O38  1  0.00000000  0.31794600  0.64104100  1
  O  O39  1  0.00000000  0.18209600  0.36134100  1
  O  O40  1  0.00000000  0.68205400  0.14104100  1
  O  O41  1  0.00000000  0.81790400  0.86134100  1
  O  O42  1  0.00000000  0.38587300  0.43495300  1
  O  O43  1  0.00000000  0.10897500  0.57031700  1
  O  O44  1  0.00000000  0.89102500  0.07031700  1
  O  O45  1  0.00000000  0.61412700  0.93495300  1
