# generated using pymatgen
data_Mg2V6Cu4O21
_symmetry_space_group_name_H-M   'P 1'
_cell_length_a   5.64795282
_cell_length_b   5.68116628
_cell_length_c   29.06134736
_cell_angle_alpha   93.93608306
_cell_angle_beta   93.55678514
_cell_angle_gamma   92.61930737
_symmetry_Int_Tables_number   1
_chemical_formula_structural   Mg2V6Cu4O21
_chemical_formula_sum   'Mg4 V12 Cu8 O42'
_cell_volume   927.32942925
_cell_formula_units_Z   2
loop_
 _symmetry_equiv_pos_site_id
 _symmetry_equiv_pos_as_xyz
  1  'x, y, z'
loop_
 _atom_site_type_symbol
 _atom_site_label
 _atom_site_symmetry_multiplicity
 _atom_site_fract_x
 _atom_site_fract_y
 _atom_site_fract_z
 _atom_site_occupancy
  Mg  Mg0  1  0.40445900  0.25247400  0.00677800  1
  Mg  Mg1  1  0.06950000  0.91883100  0.34114100  1
  Mg  Mg2  1  0.73619400  0.58586200  0.67388100  1
  Mg  Mg3  1  0.58160400  0.42985300  0.15960300  1
  V  V4  1  0.92686700  0.47493800  0.07001100  1
  V  V5  1  0.58911100  0.14172400  0.40408700  1
  V  V6  1  0.25623200  0.80875600  0.73710700  1
  V  V7  1  0.35924900  0.90585600  0.09660000  1
  V  V8  1  0.02362600  0.56729700  0.42980800  1
  V  V9  1  0.69109100  0.23436800  0.76314100  1
  V  V10  1  0.73835300  0.19218800  0.26245100  1
  V  V11  1  0.40328000  0.86077000  0.59532700  1
  V  V12  1  0.06972900  0.52722100  0.92884100  1
  V  V13  1  0.30634300  0.76230600  0.23760100  1
  V  V14  1  0.97775400  0.42679100  0.57049800  1
  V  V15  1  0.64410200  0.09295500  0.90366900  1
  Cu  Cu16  1  0.26904800  0.12803400  0.49579900  1
  Cu  Cu17  1  0.93836000  0.79273600  0.82899200  1
  Cu  Cu18  1  0.28829000  0.43628100  0.32865100  1
  Cu  Cu19  1  0.95468900  0.10309200  0.66187100  1
  Cu  Cu20  1  0.62106700  0.76856700  0.99507000  1
  Cu  Cu21  1  0.06637300  0.21224200  0.17187800  1
  Cu  Cu22  1  0.73420800  0.87123600  0.50451400  1
  Cu  Cu23  1  0.39886600  0.53970300  0.83787900  1
  O  O24  1  0.53003100  0.71818900  0.12372300  1
  O  O25  1  0.19485200  0.37495200  0.45691300  1
  O  O26  1  0.86062100  0.04138600  0.79043800  1
  O  O27  1  0.11549100  0.30404800  0.04258300  1
  O  O28  1  0.77840000  0.96945100  0.37726100  1
  O  O29  1  0.44554400  0.63693200  0.71018300  1
  O  O30  1  0.13764500  0.95486500  0.20965600  1
  O  O31  1  0.80633100  0.61988000  0.54357500  1
  O  O32  1  0.47340200  0.28672200  0.87669000  1
  O  O33  1  0.54377000  0.36089400  0.29017800  1
  O  O34  1  0.20957000  0.02993200  0.62309300  1
  O  O35  1  0.87646500  0.69655000  0.95671700  1
  O  O36  1  0.34148200  0.16462100  0.13289800  1
  O  O37  1  0.99582900  0.82011600  0.46544700  1
  O  O38  1  0.66216500  0.48685100  0.79888500  1
  O  O39  1  0.66773800  0.49285300  0.03345800  1
  O  O40  1  0.33365200  0.16019800  0.36703200  1
  O  O41  1  0.00018100  0.82699000  0.70001800  1
  O  O42  1  0.32457300  0.51258200  0.20185700  1
  O  O43  1  0.00526100  0.17664700  0.53393100  1
  O  O44  1  0.67212000  0.84317100  0.86715400  1
  O  O45  1  0.98666500  0.17339600  0.29831600  1
  O  O46  1  0.65274400  0.84180800  0.63089500  1
  O  O47  1  0.32011800  0.50905500  0.96419000  1
  O  O48  1  0.86854400  0.35141800  0.12198200  1
  O  O49  1  0.52991900  0.02563300  0.45795500  1
  O  O50  1  0.19590800  0.68981100  0.79044200  1
  O  O51  1  0.48185500  0.96554200  0.04421100  1
  O  O52  1  0.14985400  0.63278200  0.37779800  1
  O  O53  1  0.81598000  0.29999700  0.71099800  1
  O  O54  1  0.80652400  0.31226400  0.20930300  1
  O  O55  1  0.46945900  0.97423900  0.54106400  1
  O  O56  1  0.13766200  0.64321800  0.87515000  1
  O  O57  1  0.18691800  0.69441600  0.29063900  1
  O  O58  1  0.85440100  0.35934900  0.62333900  1
  O  O59  1  0.52118700  0.02523300  0.95656200  1
  O  O60  1  0.06564800  0.76718500  0.08333700  1
  O  O61  1  0.72821000  0.43155600  0.41621400  1
  O  O62  1  0.39527100  0.09849300  0.74956700  1
  O  O63  1  0.60310500  0.89672600  0.24989900  1
  O  O64  1  0.27002900  0.56482500  0.58396400  1
  O  O65  1  0.93648300  0.23114400  0.91728900  1
