# generated using pymatgen
data_KBa(Fe2Se3)2
_symmetry_space_group_name_H-M   'P 1'
_cell_length_a   5.46133800
_cell_length_b   9.21492900
_cell_length_c   12.18637400
_cell_angle_alpha   90.00000000
_cell_angle_beta   90.00000000
_cell_angle_gamma   90.00000000
_symmetry_Int_Tables_number   1
_chemical_formula_structural   KBa(Fe2Se3)2
_chemical_formula_sum   'K2 Ba2 Fe8 Se12'
_cell_volume   613.28953144
_cell_formula_units_Z   2
loop_
 _symmetry_equiv_pos_site_id
 _symmetry_equiv_pos_as_xyz
  1  'x, y, z'
loop_
 _atom_site_type_symbol
 _atom_site_label
 _atom_site_symmetry_multiplicity
 _atom_site_fract_x
 _atom_site_fract_y
 _atom_site_fract_z
 _atom_site_occupancy
  K  K0  1  0.00000000  0.75129000  0.67253100  1
  K  K1  1  0.00000000  0.24871000  0.17253100  1
  Ba  Ba2  1  0.50000000  0.75201000  0.32616700  1
  Ba  Ba3  1  0.50000000  0.24799000  0.82616700  1
  Fe  Fe4  1  0.74834200  0.88963700  0.99755300  1
  Fe  Fe5  1  0.25165800  0.11036300  0.49755300  1
  Fe  Fe6  1  0.25450800  0.61060100  0.00203400  1
  Fe  Fe7  1  0.74549200  0.38939900  0.50203400  1
  Fe  Fe8  1  0.74549200  0.61060100  0.00203400  1
  Fe  Fe9  1  0.25450800  0.38939900  0.50203400  1
  Fe  Fe10  1  0.25165800  0.88963700  0.99755300  1
  Fe  Fe11  1  0.74834200  0.11036300  0.49755300  1
  Se  Se12  1  0.00000000  0.45642900  0.88997500  1
  Se  Se13  1  0.00000000  0.54357100  0.38997500  1
  Se  Se14  1  0.50000000  0.03911300  0.11179700  1
  Se  Se15  1  0.50000000  0.96088700  0.61179700  1
  Se  Se16  1  0.00000000  0.03066100  0.87552100  1
  Se  Se17  1  0.00000000  0.96933900  0.37552100  1
  Se  Se18  1  0.50000000  0.47512700  0.12598800  1
  Se  Se19  1  0.50000000  0.52487300  0.62598800  1
  Se  Se20  1  0.00000000  0.75196200  0.12898700  1
  Se  Se21  1  0.00000000  0.24803800  0.62898700  1
  Se  Se22  1  0.50000000  0.74813200  0.86986000  1
  Se  Se23  1  0.50000000  0.25186800  0.36986000  1
