# generated using pymatgen
data_Sm2Zr8O19
_symmetry_space_group_name_H-M   'P 1'
_cell_length_a   3.66331200
_cell_length_b   3.66331200
_cell_length_c   25.94073600
_cell_angle_alpha   90.00000000
_cell_angle_beta   90.00000000
_cell_angle_gamma   90.00000000
_symmetry_Int_Tables_number   1
_chemical_formula_structural   Sm2Zr8O19
_chemical_formula_sum   'Sm2 Zr8 O19'
_cell_volume   348.12091077
_cell_formula_units_Z   1
loop_
 _symmetry_equiv_pos_site_id
 _symmetry_equiv_pos_as_xyz
  1  'x, y, z'
loop_
 _atom_site_type_symbol
 _atom_site_label
 _atom_site_symmetry_multiplicity
 _atom_site_fract_x
 _atom_site_fract_y
 _atom_site_fract_z
 _atom_site_occupancy
  Sm  Sm0  1  0.00000000  0.50000000  0.94245000  1
  Sm  Sm1  1  0.50000000  0.00000000  0.05755000  1
  Zr  Zr2  1  0.00000000  0.50000000  0.15536500  1
  Zr  Zr3  1  0.50000000  0.00000000  0.25367800  1
  Zr  Zr4  1  0.00000000  0.50000000  0.35243200  1
  Zr  Zr5  1  0.50000000  0.00000000  0.45085800  1
  Zr  Zr6  1  0.00000000  0.50000000  0.54914200  1
  Zr  Zr7  1  0.50000000  0.00000000  0.64756800  1
  Zr  Zr8  1  0.00000000  0.50000000  0.74632200  1
  Zr  Zr9  1  0.50000000  0.00000000  0.84463500  1
  O  O10  1  0.00000000  0.00000000  0.39903000  1
  O  O11  1  0.50000000  0.50000000  0.50000000  1
  O  O12  1  0.00000000  0.00000000  0.60097000  1
  O  O13  1  0.50000000  0.50000000  0.69296500  1
  O  O14  1  0.00000000  0.00000000  0.80089700  1
  O  O15  1  0.50000000  0.50000000  0.88802800  1
  O  O16  1  0.50000000  0.50000000  0.00000000  1
  O  O17  1  0.50000000  0.50000000  0.11197200  1
  O  O18  1  0.00000000  0.00000000  0.19910300  1
  O  O19  1  0.00000000  0.00000000  0.10070400  1
  O  O20  1  0.50000000  0.50000000  0.20964900  1
  O  O21  1  0.50000000  0.50000000  0.30703500  1
  O  O22  1  0.00000000  0.00000000  0.29873100  1
  O  O23  1  0.50000000  0.50000000  0.40382100  1
  O  O24  1  0.00000000  0.00000000  0.50000000  1
  O  O25  1  0.50000000  0.50000000  0.59617900  1
  O  O26  1  0.00000000  0.00000000  0.70126900  1
  O  O27  1  0.50000000  0.50000000  0.79035100  1
  O  O28  1  0.00000000  0.00000000  0.89929600  1
