# generated using pymatgen
data_InGeTe2
_symmetry_space_group_name_H-M   'P 1'
_cell_length_a   7.53144458
_cell_length_b   7.53144458
_cell_length_c   7.53144507
_cell_angle_alpha   33.51095611
_cell_angle_beta   33.51095611
_cell_angle_gamma   33.51096021
_symmetry_Int_Tables_number   1
_chemical_formula_structural   InGeTe2
_chemical_formula_sum   'In1 Ge1 Te2'
_cell_volume   115.97773983
_cell_formula_units_Z   1
loop_
 _symmetry_equiv_pos_site_id
 _symmetry_equiv_pos_as_xyz
  1  'x, y, z'
loop_
 _atom_site_type_symbol
 _atom_site_label
 _atom_site_symmetry_multiplicity
 _atom_site_fract_x
 _atom_site_fract_y
 _atom_site_fract_z
 _atom_site_occupancy
  In  In0  1  0.50000000  0.50000000  0.50000000  1
  Ge  Ge1  1  0.00000000  0.00000000  0.00000000  1
  Te  Te2  1  0.25454000  0.25454000  0.25454000  1
  Te  Te3  1  0.74546000  0.74546000  0.74546000  1
