# generated using pymatgen
data_TbCuTe2
_symmetry_space_group_name_H-M   'P 1'
_cell_length_a   4.36980774
_cell_length_b   4.36988385
_cell_length_c   6.89386800
_cell_angle_alpha   90.00012980
_cell_angle_beta   89.99846884
_cell_angle_gamma   120.00081448
_symmetry_Int_Tables_number   1
_chemical_formula_structural   TbCuTe2
_chemical_formula_sum   'Tb1 Cu1 Te2'
_cell_volume   114.00456828
_cell_formula_units_Z   1
loop_
 _symmetry_equiv_pos_site_id
 _symmetry_equiv_pos_as_xyz
  1  'x, y, z'
loop_
 _atom_site_type_symbol
 _atom_site_label
 _atom_site_symmetry_multiplicity
 _atom_site_fract_x
 _atom_site_fract_y
 _atom_site_fract_z
 _atom_site_occupancy
  Tb  Tb0  1  0.00000300  0.00000200  0.99159500  1
  Cu  Cu1  1  0.33336100  0.66668100  0.35940600  1
  Te  Te2  1  0.33337700  0.66668900  0.74206300  1
  Te  Te3  1  0.66665900  0.33332900  0.26493500  1
