# generated using pymatgen
data_Mn2Fe3Cu10(SnS4)5
_symmetry_space_group_name_H-M   'P 1'
_cell_length_a   5.52822800
_cell_length_b   10.89552100
_cell_length_c   15.13778549
_cell_angle_alpha   68.90727985
_cell_angle_beta   100.52106356
_cell_angle_gamma   90.00000000
_symmetry_Int_Tables_number   1
_chemical_formula_structural   Mn2Fe3Cu10(SnS4)5
_chemical_formula_sum   'Mn2 Fe3 Cu10 Sn5 S20'
_cell_volume   834.25129892
_cell_formula_units_Z   1
loop_
 _symmetry_equiv_pos_site_id
 _symmetry_equiv_pos_as_xyz
  1  'x, y, z'
loop_
 _atom_site_type_symbol
 _atom_site_label
 _atom_site_symmetry_multiplicity
 _atom_site_fract_x
 _atom_site_fract_y
 _atom_site_fract_z
 _atom_site_occupancy
  Mn  Mn0  1  0.79995100  0.20004900  0.59990200  1
  Mn  Mn1  1  0.40004900  0.59995100  0.80009800  1
  Fe  Fe2  1  0.00029100  0.99970900  0.00058200  1
  Fe  Fe3  1  0.60000000  0.40000000  0.20000000  1
  Fe  Fe4  1  0.19970900  0.80029100  0.39941800  1
  Cu  Cu5  1  0.50163000  0.24737700  0.00085700  1
  Cu  Cu6  1  0.29682700  0.45175700  0.59875600  1
  Cu  Cu7  1  0.90317300  0.85051300  0.80124400  1
  Cu  Cu8  1  0.10000000  0.65130000  0.20000000  1
  Cu  Cu9  1  0.69837000  0.04823400  0.39914300  1
  Cu  Cu10  1  0.89807100  0.34824300  0.80124400  1
  Cu  Cu11  1  0.70077300  0.55262300  0.39914300  1
  Cu  Cu12  1  0.30192900  0.94948700  0.59875600  1
  Cu  Cu13  1  0.49922700  0.75176600  0.00085700  1
  Cu  Cu14  1  0.10000000  0.14870000  0.20000000  1
  Sn  Sn15  1  0.40084300  0.09915700  0.80168600  1
  Sn  Sn16  1  0.19887700  0.30112300  0.39775300  1
  Sn  Sn17  1  0.79915700  0.70084300  0.59831400  1
  Sn  Sn18  1  0.00112300  0.49887700  0.00224700  1
  Sn  Sn19  1  0.60000000  0.90000000  0.20000000  1
  S  S20  1  0.20603800  0.41628000  0.89800400  1
  S  S21  1  0.81414400  0.82112300  0.09340200  1
  S  S22  1  0.41340800  0.22145900  0.29297800  1
  S  S23  1  0.01272100  0.62210600  0.49258100  1
  S  S24  1  0.60576000  0.01623500  0.69710300  1
  S  S25  1  0.78659200  0.31443700  0.10702200  1
  S  S26  1  0.38585600  0.71452500  0.30659800  1
  S  S27  1  0.99396200  0.11428300  0.50199600  1
  S  S28  1  0.59424000  0.51333800  0.70289700  1
  S  S29  1  0.18727900  0.91468600  0.90741900  1
  S  S30  1  0.09134300  0.28666200  0.69710300  1
  S  S31  1  0.69196600  0.68571700  0.89800400  1
  S  S32  1  0.27925800  0.08547500  0.09340200  1
  S  S33  1  0.87957000  0.48556300  0.29297800  1
  S  S34  1  0.47986000  0.88531400  0.49258100  1
  S  S35  1  0.72014000  0.17789400  0.90741900  1
  S  S36  1  0.32043000  0.57854100  0.10702200  1
  S  S37  1  0.92074200  0.97887700  0.30659800  1
  S  S38  1  0.50803400  0.38372000  0.50199600  1
  S  S39  1  0.10865700  0.78376500  0.70289700  1
