# generated using pymatgen
data_InSn4
_symmetry_space_group_name_H-M   'P 1'
_cell_length_a   14.57509018
_cell_length_b   14.57509018
_cell_length_c   3.05407900
_cell_angle_alpha   90.00000000
_cell_angle_beta   90.00000000
_cell_angle_gamma   167.44812663
_symmetry_Int_Tables_number   1
_chemical_formula_structural   InSn4
_chemical_formula_sum   'In1 Sn4'
_cell_volume   140.99681737
_cell_formula_units_Z   1
loop_
 _symmetry_equiv_pos_site_id
 _symmetry_equiv_pos_as_xyz
  1  'x, y, z'
loop_
 _atom_site_type_symbol
 _atom_site_label
 _atom_site_symmetry_multiplicity
 _atom_site_fract_x
 _atom_site_fract_y
 _atom_site_fract_z
 _atom_site_occupancy
  In  In0  1  0.00000000  0.00000000  0.00000000  1
  Sn  Sn1  1  0.39952600  0.60047400  0.00000000  1
  Sn  Sn2  1  0.79998600  0.20001400  0.00000000  1
  Sn  Sn3  1  0.20001400  0.79998600  0.00000000  1
  Sn  Sn4  1  0.60047400  0.39952600  0.00000000  1
