# generated using pymatgen
data_KH8WN2(OF)3
_symmetry_space_group_name_H-M   'P 1'
_cell_length_a   6.43521587
_cell_length_b   6.44000888
_cell_length_c   6.44000888
_cell_angle_alpha   88.27667327
_cell_angle_beta   60.96625785
_cell_angle_gamma   119.03374215
_symmetry_Int_Tables_number   1
_chemical_formula_structural   KH8WN2(OF)3
_chemical_formula_sum   'K1 H8 W1 N2 O3 F3'
_cell_volume   191.31706662
_cell_formula_units_Z   1
loop_
 _symmetry_equiv_pos_site_id
 _symmetry_equiv_pos_as_xyz
  1  'x, y, z'
loop_
 _atom_site_type_symbol
 _atom_site_label
 _atom_site_symmetry_multiplicity
 _atom_site_fract_x
 _atom_site_fract_y
 _atom_site_fract_z
 _atom_site_occupancy
  K  K0  1  0.00000000  0.49965800  0.49965800  1
  H  H1  1  0.36768200  0.17861300  0.44164000  1
  H  H2  1  0.61896900  0.16878800  0.19380100  1
  H  H3  1  0.63231800  0.44164000  0.17861300  1
  H  H4  1  0.38103100  0.19380100  0.16878800  1
  H  H5  1  0.61896900  0.81277000  0.54981900  1
  H  H6  1  0.36768200  0.80932200  0.81093200  1
  H  H7  1  0.38103100  0.54981900  0.81277000  1
  H  H8  1  0.63231800  0.81093200  0.80932200  1
  W  W9  1  0.00000000  0.98731700  0.98731700  1
  N  N10  1  0.50000000  0.24590500  0.24590500  1
  N  N11  1  0.50000000  0.74590500  0.74590500  1
  O  O12  1  0.39785700  0.22235800  0.82450100  1
  O  O13  1  0.00000000  0.79079400  0.79079400  1
  O  O14  1  0.60214300  0.82450100  0.22235800  1
  F  F15  1  0.00000000  0.22151100  0.77699000  1
  F  F16  1  0.00000000  0.21937700  0.21937700  1
  F  F17  1  0.00000000  0.77699000  0.22151100  1
