# generated using pymatgen
data_Tb8Cu3Te16
_symmetry_space_group_name_H-M   'P 1'
_cell_length_a   12.54590591
_cell_length_b   9.86348697
_cell_length_c   8.13272139
_cell_angle_alpha   90.14494182
_cell_angle_beta   90.25875977
_cell_angle_gamma   50.52283523
_symmetry_Int_Tables_number   1
_chemical_formula_structural   Tb8Cu3Te16
_chemical_formula_sum   'Tb8 Cu3 Te16'
_cell_volume   776.80605977
_cell_formula_units_Z   1
loop_
 _symmetry_equiv_pos_site_id
 _symmetry_equiv_pos_as_xyz
  1  'x, y, z'
loop_
 _atom_site_type_symbol
 _atom_site_label
 _atom_site_symmetry_multiplicity
 _atom_site_fract_x
 _atom_site_fract_y
 _atom_site_fract_z
 _atom_site_occupancy
  Tb  Tb0  1  0.00245100  0.23883000  0.43955800  1
  Tb  Tb1  1  0.25631300  0.23509500  0.05705700  1
  Tb  Tb2  1  0.50826400  0.23517500  0.44354700  1
  Tb  Tb3  1  0.24041400  0.76408500  0.94500500  1
  Tb  Tb4  1  0.76189100  0.23237700  0.06112300  1
  Tb  Tb5  1  0.49249700  0.76597400  0.55379900  1
  Tb  Tb6  1  0.74878200  0.76078800  0.94184400  1
  Tb  Tb7  1  0.99410300  0.76256600  0.55599000  1
  Cu  Cu8  1  0.08688100  0.40332100  0.69624100  1
  Cu  Cu9  1  0.50806300  0.40027900  0.80513500  1
  Cu  Cu10  1  0.66486000  0.59491700  0.19765400  1
  Te  Te11  1  0.21419200  0.07087100  0.75177400  1
  Te  Te12  1  0.18558000  0.39363000  0.40467800  1
  Te  Te13  1  0.06712400  0.61136500  0.91360900  1
  Te  Te14  1  0.46744200  0.06541300  0.75112500  1
  Te  Te15  1  0.03716500  0.92464200  0.25105000  1
  Te  Te16  1  0.32321000  0.61177800  0.58796000  1
  Te  Te17  1  0.42156100  0.39374300  0.09743700  1
  Te  Te18  1  0.28096800  0.93265200  0.25143000  1
  Te  Te19  1  0.71532400  0.07081600  0.74784500  1
  Te  Te20  1  0.68282900  0.38984400  0.41424500  1
  Te  Te21  1  0.56305200  0.60843700  0.90579600  1
  Te  Te22  1  0.96420100  0.07154200  0.74949800  1
  Te  Te23  1  0.53524300  0.92821200  0.24964200  1
  Te  Te24  1  0.82448400  0.61021500  0.59176200  1
  Te  Te25  1  0.92558400  0.39116500  0.09093100  1
  Te  Te26  1  0.78652300  0.92926600  0.24926600  1
