# generated using pymatgen
data_KFeH5(SO5)2
_symmetry_space_group_name_H-M   'P 1'
_cell_length_a   9.04344070
_cell_length_b   10.54838966
_cell_length_c   11.32154067
_cell_angle_alpha   63.64127207
_cell_angle_beta   70.08638542
_cell_angle_gamma   93.03520803
_symmetry_Int_Tables_number   1
_chemical_formula_structural   KFeH5(SO5)2
_chemical_formula_sum   'K4 Fe4 H20 S8 O40'
_cell_volume   882.73036633
_cell_formula_units_Z   4
loop_
 _symmetry_equiv_pos_site_id
 _symmetry_equiv_pos_as_xyz
  1  'x, y, z'
loop_
 _atom_site_type_symbol
 _atom_site_label
 _atom_site_symmetry_multiplicity
 _atom_site_fract_x
 _atom_site_fract_y
 _atom_site_fract_z
 _atom_site_occupancy
  K  K0  1  0.24948400  0.99722700  0.24723300  1
  K  K1  1  0.74952000  0.99734500  0.74715200  1
  K  K2  1  0.99961800  0.49697400  0.49722800  1
  K  K3  1  0.49958600  0.49711600  0.99711000  1
  Fe  Fe4  1  0.25482900  0.49869600  0.75012700  1
  Fe  Fe5  1  0.50452600  0.99832600  0.50066400  1
  Fe  Fe6  1  0.75480700  0.49870000  0.25025500  1
  Fe  Fe7  1  0.00500000  0.99811700  0.00074900  1
  H  H8  1  0.59801900  0.02862400  0.23051400  1
  H  H9  1  0.09788200  0.02868600  0.73051500  1
  H  H10  1  0.34837500  0.52909600  0.48012200  1
  H  H11  1  0.84813300  0.52900900  0.98026100  1
  H  H12  1  0.65521700  0.47495600  0.51916400  1
  H  H13  1  0.15502100  0.47471100  0.01894600  1
  H  H14  1  0.40521500  0.97469700  0.76916600  1
  H  H15  1  0.90495000  0.97484500  0.26933200  1
  H  H16  1  0.66769200  0.18434700  0.20429000  1
  H  H17  1  0.16786100  0.18425900  0.70441600  1
  H  H18  1  0.41828900  0.68486900  0.45369500  1
  H  H19  1  0.91849500  0.68471300  0.95380700  1
  H  H20  1  0.58664400  0.31565500  0.55145300  1
  H  H21  1  0.08689900  0.31524100  0.05151300  1
  H  H22  1  0.33685600  0.81534200  0.80148700  1
  H  H23  1  0.83650500  0.81541000  0.30182200  1
  H  H24  1  0.64575600  0.25218500  0.86659400  1
  H  H25  1  0.14551500  0.25196900  0.36648500  1
  H  H26  1  0.39471000  0.75212700  0.11705800  1
  H  H27  1  0.89483400  0.75209900  0.61709400  1
  S  S28  1  0.87405200  0.30692900  0.88571100  1
  S  S29  1  0.37385600  0.30684200  0.38542200  1
  S  S30  1  0.62405900  0.80747700  0.13521800  1
  S  S31  1  0.12408200  0.80748800  0.63528300  1
  S  S32  1  0.38227800  0.19371300  0.86517000  1
  S  S33  1  0.88194200  0.19392700  0.36506400  1
  S  S34  1  0.13225000  0.69365600  0.11497900  1
  S  S35  1  0.63239900  0.69384700  0.61478700  1
  O  O36  1  0.57993100  0.09614600  0.26996900  1
  O  O37  1  0.07994900  0.09616100  0.77006000  1
  O  O38  1  0.33060500  0.59663000  0.51955800  1
  O  O39  1  0.83058300  0.59664700  0.01958600  1
  O  O40  1  0.66925500  0.40645000  0.48022100  1
  O  O41  1  0.16924600  0.40618400  0.98007400  1
  O  O42  1  0.41950200  0.90611300  0.73031600  1
  O  O43  1  0.91929000  0.90609500  0.23068600  1
  O  O44  1  0.77518400  0.26052400  0.81630200  1
  O  O45  1  0.27483700  0.26021000  0.31606600  1
  O  O46  1  0.52469800  0.76078700  0.06655700  1
  O  O47  1  0.02476500  0.76082800  0.56655800  1
  O  O48  1  0.48155400  0.24251400  0.92754600  1
  O  O49  1  0.98124000  0.24227900  0.42764800  1
  O  O50  1  0.23178900  0.74211500  0.17756500  1
  O  O51  1  0.73178400  0.74203700  0.67765600  1
  O  O52  1  0.89212900  0.17463700  0.99840700  1
  O  O53  1  0.39200300  0.17467900  0.49828100  1
  O  O54  1  0.64359900  0.67560800  0.24729800  1
  O  O55  1  0.14361600  0.67564600  0.74734800  1
  O  O56  1  0.35660900  0.32191600  0.75154900  1
  O  O57  1  0.85656300  0.32237100  0.25148700  1
  O  O58  1  0.10662200  0.82200900  0.00135700  1
  O  O59  1  0.60692500  0.82229600  0.50122100  1
  O  O60  1  0.78414200  0.38890800  0.94930500  1
  O  O61  1  0.28412000  0.38882800  0.44908800  1
  O  O62  1  0.53394700  0.88860600  0.19982000  1
  O  O63  1  0.03403100  0.88868700  0.69981700  1
  O  O64  1  0.46932000  0.11129100  0.79896300  1
  O  O65  1  0.96881100  0.11170800  0.29856300  1
  O  O66  1  0.21897800  0.61129500  0.04847900  1
  O  O67  1  0.71916200  0.61152300  0.54825500  1
  O  O68  1  0.03156100  0.39490100  0.76309100  1
  O  O69  1  0.53122000  0.39487600  0.26269200  1
  O  O70  1  0.78102200  0.89619500  0.01212900  1
  O  O71  1  0.28102500  0.89617900  0.51213400  1
  O  O72  1  0.22319700  0.10242000  0.98764500  1
  O  O73  1  0.72273800  0.10279200  0.48731500  1
  O  O74  1  0.97312000  0.60283300  0.23745800  1
  O  O75  1  0.47317200  0.60285500  0.73704300  1
