# generated using pymatgen
data_K3PO3F2
_symmetry_space_group_name_H-M   'P 1'
_cell_length_a   7.69987229
_cell_length_b   7.61790654
_cell_length_c   7.41571550
_cell_angle_alpha   61.60048371
_cell_angle_beta   60.49219593
_cell_angle_gamma   57.90732036
_symmetry_Int_Tables_number   1
_chemical_formula_structural   K3PO3F2
_chemical_formula_sum   'K6 P2 O6 F4'
_cell_volume   306.91523327
_cell_formula_units_Z   2
loop_
 _symmetry_equiv_pos_site_id
 _symmetry_equiv_pos_as_xyz
  1  'x, y, z'
loop_
 _atom_site_type_symbol
 _atom_site_label
 _atom_site_symmetry_multiplicity
 _atom_site_fract_x
 _atom_site_fract_y
 _atom_site_fract_z
 _atom_site_occupancy
  K  K0  1  0.80604600  0.19395400  0.19395400  1
  K  K1  1  0.18727600  0.81272400  0.81272400  1
  K  K2  1  0.70328600  0.29671400  0.69482000  1
  K  K3  1  0.30518000  0.69482000  0.29671400  1
  K  K4  1  0.24765800  0.25234200  0.25234200  1
  K  K5  1  0.74765800  0.75234200  0.75234200  1
  P  P6  1  0.76848800  0.74628100  0.23151200  1
  P  P7  1  0.25371900  0.23151200  0.74628100  1
  O  O8  1  0.45359600  0.21741900  0.54640400  1
  O  O9  1  0.94673300  0.71396900  0.29369000  1
  O  O10  1  0.70631000  0.95439100  0.05326700  1
  O  O11  1  0.78258100  0.54640400  0.21741900  1
  O  O12  1  0.04560900  0.29369000  0.71396900  1
  O  O13  1  0.28603100  0.05326700  0.95439100  1
  F  F14  1  0.49475700  0.50524300  0.99168700  1
  F  F15  1  0.00831300  0.99168700  0.50524300  1
  F  F16  1  0.20941900  0.45266100  0.79058100  1
  F  F17  1  0.54733900  0.79058100  0.45266100  1
