# generated using pymatgen
data_KNaSrMg5(SiO3)8
_symmetry_space_group_name_H-M   'P 1'
_cell_length_a   5.28297472
_cell_length_b   10.25497371
_cell_length_c   10.62560383
_cell_angle_alpha   65.10281796
_cell_angle_beta   82.54755470
_cell_angle_gamma   104.27014182
_symmetry_Int_Tables_number   1
_chemical_formula_structural   KNaSrMg5(SiO3)8
_chemical_formula_sum   'K1 Na1 Sr1 Mg5 Si8 O24'
_cell_volume   487.87558439
_cell_formula_units_Z   1
loop_
 _symmetry_equiv_pos_site_id
 _symmetry_equiv_pos_as_xyz
  1  'x, y, z'
loop_
 _atom_site_type_symbol
 _atom_site_label
 _atom_site_symmetry_multiplicity
 _atom_site_fract_x
 _atom_site_fract_y
 _atom_site_fract_z
 _atom_site_occupancy
  K  K0  1  0.50784100  0.48885300  0.00605300  1
  Na  Na1  1  0.77897400  0.27870800  0.44280300  1
  Sr  Sr2  1  0.21538300  0.71530400  0.56956700  1
  Mg  Mg3  1  0.60015200  0.10031000  0.79887200  1
  Mg  Mg4  1  0.40163000  0.90167100  0.19628500  1
  Mg  Mg5  1  0.18450200  0.18450500  0.63065600  1
  Mg  Mg6  1  0.82123800  0.82105400  0.35739200  1
  Mg  Mg7  1  0.99999100  0.00021400  0.99899000  1
  Si  Si8  1  0.11997400  0.81475500  0.83323400  1
  Si  Si9  1  0.94866500  0.64384300  0.16947600  1
  Si  Si10  1  0.88206100  0.18638100  0.16942800  1
  Si  Si11  1  0.04680800  0.35180700  0.83303200  1
  Si  Si12  1  0.70529000  0.88884900  0.65839100  1
  Si  Si13  1  0.35573700  0.54402500  0.34095600  1
  Si  Si14  1  0.30312500  0.11446400  0.34122600  1
  Si  Si15  1  0.63628400  0.45246400  0.65807200  1
  O  O16  1  0.69333800  0.87840000  0.51263200  1
  O  O17  1  0.19747500  0.39557000  0.49090400  1
  O  O18  1  0.31223900  0.11350900  0.49080400  1
  O  O19  1  0.79458800  0.60866800  0.51266500  1
  O  O20  1  0.78542100  0.05184900  0.65691700  1
  O  O21  1  0.43723200  0.70864300  0.34297300  1
  O  O22  1  0.22006100  0.94804700  0.34302600  1
  O  O23  1  0.55768700  0.29086800  0.65688800  1
  O  O24  1  0.18721800  0.98073900  0.82286800  1
  O  O25  1  0.00934400  0.80242900  0.17740700  1
  O  O26  1  0.81326900  0.01991400  0.17753100  1
  O  O27  1  0.98973700  0.19621800  0.82274200  1
  O  O28  1  0.89715200  0.78660900  0.74201300  1
  O  O29  1  0.63389900  0.53028400  0.25678200  1
  O  O30  1  0.10969400  0.21261700  0.25664500  1
  O  O31  1  0.36086900  0.47093400  0.74207100  1
  O  O32  1  0.38511100  0.78114800  0.76922800  1
  O  O33  1  0.15606500  0.55151500  0.22764500  1
  O  O34  1  0.61618700  0.22072900  0.22733200  1
  O  O35  1  0.84493200  0.44917800  0.76958400  1
  O  O36  1  0.55850300  0.93711000  0.99835000  1
  O  O37  1  0.44312300  0.06520200  0.99847100  1
  O  O38  1  0.97849600  0.67646900  0.00007600  1
  O  O39  1  0.02080500  0.32344400  0.00001300  1
