# generated using pymatgen
data_KCa3Mg3Al(SiO3)8
_symmetry_space_group_name_H-M   'P 1'
_cell_length_a   9.00156100
_cell_length_b   5.32344400
_cell_length_c   9.78370807
_cell_angle_alpha   74.71824925
_cell_angle_beta   90.00000000
_cell_angle_gamma   90.00000000
_symmetry_Int_Tables_number   1
_chemical_formula_structural   KCa3Mg3Al(SiO3)8
_chemical_formula_sum   'K1 Ca3 Mg3 Al1 Si8 O24'
_cell_volume   452.25138761
_cell_formula_units_Z   1
loop_
 _symmetry_equiv_pos_site_id
 _symmetry_equiv_pos_as_xyz
  1  'x, y, z'
loop_
 _atom_site_type_symbol
 _atom_site_label
 _atom_site_symmetry_multiplicity
 _atom_site_fract_x
 _atom_site_fract_y
 _atom_site_fract_z
 _atom_site_occupancy
  K  K0  1  0.81114900  0.50000000  0.50000000  1
  Ca  Ca1  1  0.30172800  0.00000000  0.00000000  1
  Ca  Ca2  1  0.19406300  0.00000000  0.50000000  1
  Ca  Ca3  1  0.69570700  0.50000000  0.00000000  1
  Mg  Mg4  1  0.40651800  0.50000000  0.50000000  1
  Mg  Mg5  1  0.90532600  0.00000000  0.00000000  1
  Mg  Mg6  1  0.09147300  0.50000000  0.00000000  1
  Al  Al7  1  0.59828500  0.00000000  0.50000000  1
  Si  Si8  1  0.09266400  0.68660200  0.28498000  1
  Si  Si9  1  0.59331800  0.18439200  0.78186500  1
  Si  Si10  1  0.09266400  0.31339800  0.71502000  1
  Si  Si11  1  0.59331800  0.81560800  0.21813500  1
  Si  Si12  1  0.90339700  0.81580200  0.71419900  1
  Si  Si13  1  0.41017900  0.30716400  0.21584200  1
  Si  Si14  1  0.90339700  0.18419800  0.28580100  1
  Si  Si15  1  0.41017900  0.69283600  0.78415800  1
  O  O16  1  0.01919400  0.38669800  0.34264400  1
  O  O17  1  0.52048700  0.88663600  0.85506900  1
  O  O18  1  0.01919400  0.61330200  0.65735600  1
  O  O19  1  0.52048700  0.11336400  0.14493100  1
  O  O20  1  0.98869100  0.10245200  0.65332400  1
  O  O21  1  0.48135100  0.60834800  0.15839800  1
  O  O22  1  0.98869100  0.89754800  0.34667600  1
  O  O23  1  0.48135100  0.39165200  0.84160200  1
  O  O24  1  0.08961000  0.77523900  0.11310300  1
  O  O25  1  0.57541800  0.24751400  0.61063600  1
  O  O26  1  0.08961000  0.22476100  0.88689700  1
  O  O27  1  0.57541800  0.75248600  0.38936400  1
  O  O28  1  0.90450200  0.72549300  0.88610100  1
  O  O29  1  0.42520700  0.21270800  0.38823200  1
  O  O30  1  0.90450200  0.27450700  0.11389900  1
  O  O31  1  0.42520700  0.78729200  0.61176800  1
  O  O32  1  0.24834600  0.69830600  0.36408800  1
  O  O33  1  0.74904200  0.21281100  0.85617700  1
  O  O34  1  0.24834600  0.30169400  0.63591200  1
  O  O35  1  0.74904200  0.78718900  0.14382300  1
  O  O36  1  0.74326500  0.82658300  0.63728600  1
  O  O37  1  0.25320300  0.29091700  0.14138000  1
  O  O38  1  0.74326500  0.17341700  0.36271400  1
  O  O39  1  0.25320300  0.70908300  0.85862000  1
