# generated using pymatgen
data_KMn2O4
_symmetry_space_group_name_H-M   'P 1'
_cell_length_a   2.95187153
_cell_length_b   6.58822744
_cell_length_c   10.64178251
_cell_angle_alpha   92.68015074
_cell_angle_beta   89.98159175
_cell_angle_gamma   76.73796513
_symmetry_Int_Tables_number   1
_chemical_formula_structural   KMn2O4
_chemical_formula_sum   'K2 Mn4 O8'
_cell_volume   201.20448219
_cell_formula_units_Z   2
loop_
 _symmetry_equiv_pos_site_id
 _symmetry_equiv_pos_as_xyz
  1  'x, y, z'
loop_
 _atom_site_type_symbol
 _atom_site_label
 _atom_site_symmetry_multiplicity
 _atom_site_fract_x
 _atom_site_fract_y
 _atom_site_fract_z
 _atom_site_occupancy
  K  K0  1  0.99269600  0.99251700  0.47650300  1
  K  K1  1  0.98072900  0.03128100  0.92046000  1
  Mn  Mn2  1  0.72525900  0.52572800  0.61976500  1
  Mn  Mn3  1  0.25463800  0.46916500  0.37577500  1
  Mn  Mn4  1  0.22293400  0.53502000  0.87166300  1
  Mn  Mn5  1  0.75405200  0.47299600  0.12322600  1
  O  O6  1  0.79651200  0.38973000  0.77647300  1
  O  O7  1  0.18488400  0.60671100  0.22189300  1
  O  O8  1  0.66528500  0.64280500  0.45163400  1
  O  O9  1  0.31450300  0.35078100  0.54598300  1
  O  O10  1  0.64675900  0.68594200  0.95470100  1
  O  O11  1  0.32787000  0.33000000  0.03327400  1
  O  O12  1  0.13618500  0.69906600  0.67784900  1
  O  O13  1  0.84134300  0.30116000  0.31730100  1
