# generated using pymatgen
data_KMo2P3O13
_symmetry_space_group_name_H-M   'P 1'
_cell_length_a   19.19996700
_cell_length_b   6.50743700
_cell_length_c   9.90894947
_cell_angle_alpha   73.10583975
_cell_angle_beta   90.00000000
_cell_angle_gamma   90.00000000
_symmetry_Int_Tables_number   1
_chemical_formula_structural   KMo2P3O13
_chemical_formula_sum   'K4 Mo8 P12 O52'
_cell_volume   1184.61941692
_cell_formula_units_Z   4
loop_
 _symmetry_equiv_pos_site_id
 _symmetry_equiv_pos_as_xyz
  1  'x, y, z'
loop_
 _atom_site_type_symbol
 _atom_site_label
 _atom_site_symmetry_multiplicity
 _atom_site_fract_x
 _atom_site_fract_y
 _atom_site_fract_z
 _atom_site_occupancy
  K  K0  1  0.66449100  0.45858600  0.36048300  1
  K  K1  1  0.16449100  0.04141400  0.63951700  1
  K  K2  1  0.33550900  0.54141400  0.63951700  1
  K  K3  1  0.83550900  0.95858600  0.36048300  1
  Mo  Mo4  1  0.66107000  0.12002600  0.06003600  1
  Mo  Mo5  1  0.16107000  0.37997400  0.93996400  1
  Mo  Mo6  1  0.33893000  0.87997400  0.93996400  1
  Mo  Mo7  1  0.83893000  0.62002600  0.06003600  1
  Mo  Mo8  1  0.87561400  0.31128900  0.62009400  1
  Mo  Mo9  1  0.37561400  0.18871100  0.37990600  1
  Mo  Mo10  1  0.12438600  0.68871100  0.37990600  1
  Mo  Mo11  1  0.62438600  0.81128900  0.62009400  1
  P  P12  1  0.82628700  0.15968900  0.96615900  1
  P  P13  1  0.32628700  0.34031100  0.03384100  1
  P  P14  1  0.17371300  0.84031100  0.03384100  1
  P  P15  1  0.67371300  0.65968900  0.96615900  1
  P  P16  1  0.09009700  0.23302800  0.29486400  1
  P  P17  1  0.59009700  0.26697200  0.70513600  1
  P  P18  1  0.90990300  0.76697200  0.70513600  1
  P  P19  1  0.40990300  0.73302900  0.29486400  1
  P  P20  1  0.96517600  0.49158000  0.30440700  1
  P  P21  1  0.46517600  0.00842000  0.69559300  1
  P  P22  1  0.03482400  0.50842000  0.69559300  1
  P  P23  1  0.53482400  0.99158000  0.30440700  1
  O  O24  1  0.90533200  0.41465300  0.40880500  1
  O  O25  1  0.40533200  0.08534700  0.59119500  1
  O  O26  1  0.09466800  0.58534700  0.59119500  1
  O  O27  1  0.59466800  0.91465300  0.40880500  1
  O  O28  1  0.56443100  0.08130300  0.15582400  1
  O  O29  1  0.06443100  0.41869700  0.84417600  1
  O  O30  1  0.43556900  0.91869700  0.84417600  1
  O  O31  1  0.93556900  0.58130300  0.15582400  1
  O  O32  1  0.00766900  0.27441200  0.30801900  1
  O  O33  1  0.50766900  0.22558800  0.69198100  1
  O  O34  1  0.99233100  0.72558800  0.69198100  1
  O  O35  1  0.49233100  0.77441200  0.30801900  1
  O  O36  1  0.86873400  0.21180800  0.82929500  1
  O  O37  1  0.36873400  0.28819200  0.17070500  1
  O  O38  1  0.13126600  0.78819200  0.17070500  1
  O  O39  1  0.63126600  0.71180800  0.82929500  1
  O  O40  1  0.65161600  0.81185900  0.05265000  1
  O  O41  1  0.15161600  0.68814100  0.94735000  1
  O  O42  1  0.34838400  0.18814100  0.94735000  1
  O  O43  1  0.84838400  0.31185900  0.05265000  1
  O  O44  1  0.78935000  0.30852000  0.57535900  1
  O  O45  1  0.28935000  0.19148000  0.42464100  1
  O  O46  1  0.21065000  0.69148000  0.42464100  1
  O  O47  1  0.71065000  0.80852000  0.57535900  1
  O  O48  1  0.90008300  0.00264100  0.61744900  1
  O  O49  1  0.40008300  0.49735900  0.38255100  1
  O  O50  1  0.09991700  0.99735900  0.38255100  1
  O  O51  1  0.59991700  0.50264100  0.61744900  1
  O  O52  1  0.71023100  0.05245400  0.21258100  1
  O  O53  1  0.21023100  0.44754600  0.78741900  1
  O  O54  1  0.28976900  0.94754600  0.78741900  1
  O  O55  1  0.78976900  0.55245400  0.21258100  1
  O  O56  1  0.60782000  0.21723800  0.86020200  1
  O  O57  1  0.10782000  0.28276200  0.13979800  1
  O  O58  1  0.39218000  0.78276200  0.13979800  1
  O  O59  1  0.89218000  0.71723800  0.86020200  1
  O  O60  1  0.98506700  0.35274600  0.65663100  1
  O  O61  1  0.48506700  0.14725400  0.34336900  1
  O  O62  1  0.01493300  0.64725400  0.34336900  1
  O  O63  1  0.51493300  0.85274600  0.65663100  1
  O  O64  1  0.87217500  0.62980000  0.62444100  1
  O  O65  1  0.37217500  0.87020000  0.37555900  1
  O  O66  1  0.12782500  0.37020000  0.37555900  1
  O  O67  1  0.62782500  0.12980000  0.62444100  1
  O  O68  1  0.74778400  0.17636500  0.93111400  1
  O  O69  1  0.24778400  0.32363500  0.06888600  1
  O  O70  1  0.25221600  0.82363500  0.06888600  1
  O  O71  1  0.75221600  0.67636500  0.93111400  1
  O  O72  1  0.65299600  0.43370300  0.05996700  1
  O  O73  1  0.15299600  0.06629700  0.94003300  1
  O  O74  1  0.34700400  0.56629700  0.94003300  1
  O  O75  1  0.84700400  0.93370300  0.05996700  1
