# generated using pymatgen
data_KSi2HO5
_symmetry_space_group_name_H-M   'P 1'
_cell_length_a   4.87303200
_cell_length_b   8.33654700
_cell_length_c   12.65011800
_cell_angle_alpha   90.00000000
_cell_angle_beta   90.00000000
_cell_angle_gamma   90.00000000
_symmetry_Int_Tables_number   1
_chemical_formula_structural   KSi2HO5
_chemical_formula_sum   'K4 Si8 H4 O20'
_cell_volume   513.90168646
_cell_formula_units_Z   4
loop_
 _symmetry_equiv_pos_site_id
 _symmetry_equiv_pos_as_xyz
  1  'x, y, z'
loop_
 _atom_site_type_symbol
 _atom_site_label
 _atom_site_symmetry_multiplicity
 _atom_site_fract_x
 _atom_site_fract_y
 _atom_site_fract_z
 _atom_site_occupancy
  K  K0  1  0.96100400  0.25043600  0.54150000  1
  K  K1  1  0.53899600  0.25043600  0.04150000  1
  K  K2  1  0.03899600  0.75043600  0.45850000  1
  K  K3  1  0.46100400  0.75043600  0.95850000  1
  Si  Si4  1  0.46988500  0.56438300  0.69270500  1
  Si  Si5  1  0.03250800  0.94049300  0.18309300  1
  Si  Si6  1  0.53011500  0.06438300  0.30729500  1
  Si  Si7  1  0.96749200  0.44049300  0.81690700  1
  Si  Si8  1  0.53250800  0.44049300  0.31690700  1
  Si  Si9  1  0.96988500  0.06438300  0.80729500  1
  Si  Si10  1  0.46749200  0.94049300  0.68309300  1
  Si  Si11  1  0.03011500  0.56438300  0.19270500  1
  H  H12  1  0.02557200  0.50096200  0.01411400  1
  H  H13  1  0.97442800  0.00096200  0.98588600  1
  H  H14  1  0.52557200  0.00096200  0.48588600  1
  H  H15  1  0.47442800  0.50096200  0.51411400  1
  O  O16  1  0.06917700  0.25198400  0.81094400  1
  O  O17  1  0.43082300  0.25198400  0.31094400  1
  O  O18  1  0.93082300  0.75198400  0.18905600  1
  O  O19  1  0.56917700  0.75198400  0.68905600  1
  O  O20  1  0.24593600  0.54587000  0.78871800  1
  O  O21  1  0.25352800  0.95895500  0.28154600  1
  O  O22  1  0.75406400  0.04587000  0.21128200  1
  O  O23  1  0.74647200  0.45895500  0.71845400  1
  O  O24  1  0.75352800  0.45895500  0.21845400  1
  O  O25  1  0.74593600  0.04587000  0.71128200  1
  O  O26  1  0.24647300  0.95895500  0.78154600  1
  O  O27  1  0.25406400  0.54587000  0.28871800  1
  O  O28  1  0.33547100  0.50684000  0.58143200  1
  O  O29  1  0.15401300  0.99307700  0.07088100  1
  O  O30  1  0.66452900  0.00684000  0.41856800  1
  O  O31  1  0.84598700  0.49307700  0.92911900  1
  O  O32  1  0.65401300  0.49307700  0.42911900  1
  O  O33  1  0.83547100  0.00684000  0.91856800  1
  O  O34  1  0.34598700  0.99307700  0.57088100  1
  O  O35  1  0.16452900  0.50684000  0.08143200  1
