# generated using pymatgen
data_La12Ga23WO56
_symmetry_space_group_name_H-M   'P 1'
_cell_length_a   9.77615000
_cell_length_b   9.78199626
_cell_length_c   13.25586098
_cell_angle_alpha   98.40495372
_cell_angle_beta   98.36616961
_cell_angle_gamma   94.66262200
_symmetry_Int_Tables_number   1
_chemical_formula_structural   La12Ga23WO56
_chemical_formula_sum   'La12 Ga23 W1 O56'
_cell_volume   1233.87128138
_cell_formula_units_Z   1
loop_
 _symmetry_equiv_pos_site_id
 _symmetry_equiv_pos_as_xyz
  1  'x, y, z'
loop_
 _atom_site_type_symbol
 _atom_site_label
 _atom_site_symmetry_multiplicity
 _atom_site_fract_x
 _atom_site_fract_y
 _atom_site_fract_z
 _atom_site_occupancy
  La  La0  1  0.60477500  0.18576900  0.39607700  1
  La  La1  1  0.35559800  0.93556000  0.64749100  1
  La  La2  1  0.85901000  0.42388400  0.13998100  1
  La  La3  1  0.10416400  0.68396400  0.89293900  1
  La  La4  1  0.96891300  0.96889300  0.46942100  1
  La  La5  1  0.70985500  0.71028700  0.70964000  1
  La  La6  1  0.20971600  0.20946700  0.20989100  1
  La  La7  1  0.45896700  0.45898100  0.95822100  1
  La  La8  1  0.68347700  0.10390400  0.89314000  1
  La  La9  1  0.42381700  0.85902200  0.13948500  1
  La  La10  1  0.93564000  0.35584400  0.64700100  1
  La  La11  1  0.18553500  0.60494400  0.39634900  1
  Ga  Ga12  1  0.30242000  0.96708100  0.36913900  1
  Ga  Ga13  1  0.04922100  0.71553400  0.61637000  1
  Ga  Ga14  1  0.54670000  0.21834000  0.11673700  1
  Ga  Ga15  1  0.79952300  0.46352900  0.86654800  1
  Ga  Ga16  1  0.70224700  0.03574300  0.63405100  1
  Ga  Ga17  1  0.45136500  0.78317100  0.88326600  1
  Ga  Ga18  1  0.95073000  0.28070600  0.38133200  1
  Ga  Ga19  1  0.19775900  0.53558200  0.13219400  1
  Ga  Ga20  1  0.56132600  0.80371000  0.44019300  1
  Ga  Ga21  1  0.31571500  0.55358200  0.68435800  1
  Ga  Ga22  1  0.81736700  0.05958200  0.18189400  1
  Ga  Ga23  1  0.06543100  0.30241500  0.93304800  1
  Ga  Ga24  1  0.25852800  0.25682900  0.50624700  1
  Ga  Ga25  1  0.00605600  0.00622500  0.75737400  1
  Ga  Ga26  1  0.49884500  0.50048500  0.25709800  1
  Ga  Ga27  1  0.75703800  0.75687500  0.99938400  1
  Ga  Ga28  1  0.55303600  0.31604700  0.68431300  1
  Ga  Ga29  1  0.30274400  0.06703800  0.93421000  1
  Ga  Ga30  1  0.80401700  0.55957100  0.43933600  1
  Ga  Ga31  1  0.05989200  0.81774800  0.18231200  1
  Ga  Ga32  1  0.00042100  0.99990900  0.99957800  1
  Ga  Ga33  1  0.25035200  0.25002200  0.74998100  1
  Ga  Ga34  1  0.49991600  0.49998400  0.50049600  1
  W  W35  1  0.74996100  0.74989100  0.25017700  1
  O  O36  1  0.53376200  0.31352800  0.54263100  1
  O  O37  1  0.28388900  0.06319200  0.79319800  1
  O  O38  1  0.78937700  0.57295700  0.29383300  1
  O  O39  1  0.02891500  0.81064400  0.04191600  1
  O  O40  1  0.73953200  0.82274500  0.39368200  1
  O  O41  1  0.49283800  0.57033500  0.65025800  1
  O  O42  1  0.99537900  0.06569500  0.15300100  1
  O  O43  1  0.24298800  0.32004800  0.90093900  1
  O  O44  1  0.04397600  0.18738500  0.73473700  1
  O  O45  1  0.79300300  0.94144300  0.99048300  1
  O  O46  1  0.29400100  0.43788900  0.48471300  1
  O  O47  1  0.55221200  0.68539400  0.23128200  1
  O  O48  1  0.93523800  0.85254100  0.28104500  1
  O  O49  1  0.68731400  0.61793300  0.52944400  1
  O  O50  1  0.18965400  0.11127700  0.03259000  1
  O  O51  1  0.43937700  0.36172000  0.78115500  1
  O  O52  1  0.43312200  0.65051300  0.41872800  1
  O  O53  1  0.18258600  0.40350900  0.67407200  1
  O  O54  1  0.68541000  0.90190300  0.18111000  1
  O  O55  1  0.93188800  0.15353200  0.92457900  1
  O  O56  1  0.30562000  0.16245500  0.61559200  1
  O  O57  1  0.05713800  0.91309200  0.86633400  1
  O  O58  1  0.56312800  0.41562400  0.36665200  1
  O  O59  1  0.79834100  0.66536100  0.11878700  1
  O  O60  1  0.20851700  0.87882900  0.45395300  1
  O  O61  1  0.96126300  0.62772300  0.70457000  1
  O  O62  1  0.46214900  0.12532100  0.20408500  1
  O  O63  1  0.71424000  0.38017700  0.95841800  1
  O  O64  1  0.79034800  0.11849600  0.54325100  1
  O  O65  1  0.53944400  0.87165800  0.79544600  1
  O  O66  1  0.03439700  0.37160900  0.29258700  1
  O  O67  1  0.29040100  0.62578700  0.04776500  1
  O  O68  1  0.84575500  0.38456800  0.46486700  1
  O  O69  1  0.09244800  0.64010100  0.21528500  1
  O  O70  1  0.34698400  0.88960600  0.96649800  1
  O  O71  1  0.59569900  0.13887900  0.71565600  1
  O  O72  1  0.82073900  0.12876700  0.32343300  1
  O  O73  1  0.06956500  0.38234300  0.07443000  1
  O  O74  1  0.32146500  0.63206200  0.82563100  1
  O  O75  1  0.57171700  0.88381600  0.57696900  1
  O  O76  1  0.06189800  0.20539200  0.48133200  1
  O  O77  1  0.30700000  0.45729800  0.23165500  1
  O  O78  1  0.56267300  0.70839100  0.98456700  1
  O  O79  1  0.81088700  0.95585200  0.73219700  1
  O  O80  1  0.48117500  0.16988700  0.97638500  1
  O  O81  1  0.73101500  0.41858200  0.72632000  1
  O  O82  1  0.97764800  0.66979800  0.47526100  1
  O  O83  1  0.23288800  0.92013200  0.22746600  1
  O  O84  1  0.73557900  0.19628200  0.11733300  1
  O  O85  1  0.98765300  0.44455000  0.86742200  1
  O  O86  1  0.23679100  0.69463900  0.61633100  1
  O  O87  1  0.48884200  0.94104000  0.36639500  1
  O  O88  1  0.55650700  0.41188500  0.13577300  1
  O  O89  1  0.80603400  0.65707800  0.88243700  1
  O  O90  1  0.05393400  0.90936800  0.63334500  1
  O  O91  1  0.30558000  0.15925800  0.38290400  1
