# generated using pymatgen
data_In(GaO2)3
_symmetry_space_group_name_H-M   'P 1'
_cell_length_a   3.16791500
_cell_length_b   6.12931427
_cell_length_c   6.50298296
_cell_angle_alpha   104.54339046
_cell_angle_beta   75.90241890
_cell_angle_gamma   90.00000000
_symmetry_Int_Tables_number   1
_chemical_formula_structural   In(GaO2)3
_chemical_formula_sum   'In1 Ga3 O6'
_cell_volume   118.29047271
_cell_formula_units_Z   1
loop_
 _symmetry_equiv_pos_site_id
 _symmetry_equiv_pos_as_xyz
  1  'x, y, z'
loop_
 _atom_site_type_symbol
 _atom_site_label
 _atom_site_symmetry_multiplicity
 _atom_site_fract_x
 _atom_site_fract_y
 _atom_site_fract_z
 _atom_site_occupancy
  In  In0  1  0.09538100  0.20330500  0.80923700  1
  Ga  Ga1  1  0.90806300  0.79456300  0.18387500  1
  Ga  Ga2  1  0.66126800  0.68419200  0.67746500  1
  Ga  Ga3  1  0.33975700  0.31580600  0.32048700  1
  O  O4  1  0.17952800  0.44903000  0.64094400  1
  O  O5  1  0.82766000  0.56728000  0.34467900  1
  O  O6  1  0.16702400  0.86795900  0.66595100  1
  O  O7  1  0.83419600  0.10892400  0.33160700  1
  O  O8  1  0.49482000  0.74435900  0.01036000  1
  O  O9  1  0.49230300  0.26458300  0.01539500  1
