# generated using pymatgen
data_K2Co2(SeO3)3
_symmetry_space_group_name_H-M   'P 1'
_cell_length_a   5.57066080
_cell_length_b   5.57066080
_cell_length_c   18.00557900
_cell_angle_alpha   90.00000000
_cell_angle_beta   90.00000000
_cell_angle_gamma   120.00000951
_symmetry_Int_Tables_number   1
_chemical_formula_structural   K2Co2(SeO3)3
_chemical_formula_sum   'K4 Co4 Se6 O18'
_cell_volume   483.89497402
_cell_formula_units_Z   2
loop_
 _symmetry_equiv_pos_site_id
 _symmetry_equiv_pos_as_xyz
  1  'x, y, z'
loop_
 _atom_site_type_symbol
 _atom_site_label
 _atom_site_symmetry_multiplicity
 _atom_site_fract_x
 _atom_site_fract_y
 _atom_site_fract_z
 _atom_site_occupancy
  K  K0  1  0.66666700  0.33333300  0.53005800  1
  K  K1  1  0.33333300  0.66666700  0.46005000  1
  K  K2  1  0.33333300  0.66666700  0.03005800  1
  K  K3  1  0.66666700  0.33333300  0.96005000  1
  Co  Co4  1  0.66666700  0.33333300  0.16921300  1
  Co  Co5  1  0.33333300  0.66666700  0.83601200  1
  Co  Co6  1  0.33333300  0.66666700  0.66921300  1
  Co  Co7  1  0.66666700  0.33333300  0.33601200  1
  Se  Se8  1  0.00000000  0.00000000  0.63853500  1
  Se  Se9  1  0.00000000  0.00000000  0.35976000  1
  Se  Se10  1  0.00000000  0.00000000  0.13853500  1
  Se  Se11  1  0.00000000  0.00000000  0.85976000  1
  Se  Se12  1  0.66666700  0.33333300  0.71455100  1
  Se  Se13  1  0.33333300  0.66666700  0.21455100  1
  O  O14  1  0.83948800  0.16051200  0.09557600  1
  O  O15  1  0.32102500  0.16051200  0.09557600  1
  O  O16  1  0.83948800  0.67897500  0.09557600  1
  O  O17  1  0.15914500  0.84085500  0.90430100  1
  O  O18  1  0.68171000  0.84085500  0.90430100  1
  O  O19  1  0.15914500  0.31829000  0.90430100  1
  O  O20  1  0.16051200  0.83948800  0.59557600  1
  O  O21  1  0.67897500  0.83948800  0.59557600  1
  O  O22  1  0.16051200  0.32102500  0.59557600  1
  O  O23  1  0.84085500  0.15914500  0.40430100  1
  O  O24  1  0.31829000  0.15914500  0.40430100  1
  O  O25  1  0.84085500  0.68171000  0.40430100  1
  O  O26  1  0.50273400  0.49726600  0.75243200  1
  O  O27  1  0.99453100  0.49726600  0.75243200  1
  O  O28  1  0.50273400  0.00546900  0.75243200  1
  O  O29  1  0.49726600  0.50273400  0.25243200  1
  O  O30  1  0.00546900  0.50273400  0.25243200  1
  O  O31  1  0.49726600  0.99453100  0.25243200  1
