# generated using pymatgen
data_InGa(AgS2)2
_symmetry_space_group_name_H-M   'P 1'
_cell_length_a   6.89543160
_cell_length_b   6.89543160
_cell_length_c   6.89543160
_cell_angle_alpha   129.78543049
_cell_angle_beta   129.78543049
_cell_angle_gamma   73.75002291
_symmetry_Int_Tables_number   1
_chemical_formula_structural   InGa(AgS2)2
_chemical_formula_sum   'In1 Ga1 Ag2 S4'
_cell_volume   188.87789337
_cell_formula_units_Z   1
loop_
 _symmetry_equiv_pos_site_id
 _symmetry_equiv_pos_as_xyz
  1  'x, y, z'
loop_
 _atom_site_type_symbol
 _atom_site_label
 _atom_site_symmetry_multiplicity
 _atom_site_fract_x
 _atom_site_fract_y
 _atom_site_fract_z
 _atom_site_occupancy
  In  In0  1  0.50000000  0.50000000  0.00000000  1
  Ga  Ga1  1  0.75000000  0.25000000  0.50000000  1
  Ag  Ag2  1  0.25000000  0.75000000  0.50000000  1
  Ag  Ag3  1  0.00000000  0.00000000  0.00000000  1
  S  S4  1  0.63309000  0.59556200  0.49204900  1
  S  S5  1  0.10351400  0.14104100  0.50795100  1
  S  S6  1  0.85895900  0.36691000  0.96247300  1
  S  S7  1  0.40443800  0.89648600  0.03752700  1
