# generated using pymatgen
data_InNi2Sn
_symmetry_space_group_name_H-M   'P 1'
_cell_length_a   4.43193800
_cell_length_b   5.22245500
_cell_length_c   9.13592200
_cell_angle_alpha   90.00000000
_cell_angle_beta   90.00000000
_cell_angle_gamma   90.00000000
_symmetry_Int_Tables_number   1
_chemical_formula_structural   InNi2Sn
_chemical_formula_sum   'In3 Ni6 Sn3'
_cell_volume   211.45636671
_cell_formula_units_Z   3
loop_
 _symmetry_equiv_pos_site_id
 _symmetry_equiv_pos_as_xyz
  1  'x, y, z'
loop_
 _atom_site_type_symbol
 _atom_site_label
 _atom_site_symmetry_multiplicity
 _atom_site_fract_x
 _atom_site_fract_y
 _atom_site_fract_z
 _atom_site_occupancy
  In  In0  1  0.50000000  0.50000000  0.33290600  1
  In  In1  1  0.50000000  0.00000000  0.83509200  1
  In  In2  1  0.50000000  0.00000000  0.16606500  1
  Ni  Ni3  1  0.00000000  0.50000000  0.50088400  1
  Ni  Ni4  1  0.00000000  0.00000000  0.00024900  1
  Ni  Ni5  1  0.00000000  0.74980500  0.25034200  1
  Ni  Ni6  1  0.00000000  0.25161100  0.74910900  1
  Ni  Ni7  1  0.00000000  0.25019500  0.25034200  1
  Ni  Ni8  1  0.00000000  0.74838900  0.74910900  1
  Sn  Sn9  1  0.50000000  0.50000000  0.66637000  1
  Sn  Sn10  1  0.00000000  0.50000000  0.00170500  1
  Sn  Sn11  1  0.00000000  0.00000000  0.49787500  1
