# generated using pymatgen
data_SrThF6
_symmetry_space_group_name_H-M   'P 1'
_cell_length_a   4.18422016
_cell_length_b   4.18422016
_cell_length_c   7.53618900
_cell_angle_alpha   90.00000000
_cell_angle_beta   90.00000000
_cell_angle_gamma   120.00000253
_symmetry_Int_Tables_number   1
_chemical_formula_structural   SrThF6
_chemical_formula_sum   'Sr1 Th1 F6'
_cell_volume   114.26453523
_cell_formula_units_Z   1
loop_
 _symmetry_equiv_pos_site_id
 _symmetry_equiv_pos_as_xyz
  1  'x, y, z'
loop_
 _atom_site_type_symbol
 _atom_site_label
 _atom_site_symmetry_multiplicity
 _atom_site_fract_x
 _atom_site_fract_y
 _atom_site_fract_z
 _atom_site_occupancy
  Sr  Sr0  1  0.66666700  0.33333300  0.00000000  1
  Th  Th1  1  0.33333300  0.66666700  0.50000000  1
  F  F2  1  0.00000000  0.00000000  0.00000000  1
  F  F3  1  0.00000000  0.00000000  0.50000000  1
  F  F4  1  0.66666700  0.33333300  0.34569400  1
  F  F5  1  0.33333300  0.66666700  0.79367300  1
  F  F6  1  0.33333300  0.66666700  0.20632700  1
  F  F7  1  0.66666700  0.33333300  0.65430600  1
