# generated using pymatgen
data_HoMnAl
_symmetry_space_group_name_H-M   'P 1'
_cell_length_a   5.41722607
_cell_length_b   5.41722607
_cell_length_c   5.41722607
_cell_angle_alpha   119.52359283
_cell_angle_beta   118.93146954
_cell_angle_gamma   91.34399212
_symmetry_Int_Tables_number   1
_chemical_formula_structural   HoMnAl
_chemical_formula_sum   'Ho2 Mn2 Al2'
_cell_volume   113.68780681
_cell_formula_units_Z   2
loop_
 _symmetry_equiv_pos_site_id
 _symmetry_equiv_pos_as_xyz
  1  'x, y, z'
loop_
 _atom_site_type_symbol
 _atom_site_label
 _atom_site_symmetry_multiplicity
 _atom_site_fract_x
 _atom_site_fract_y
 _atom_site_fract_z
 _atom_site_occupancy
  Ho  Ho0  1  0.12991700  0.87991700  0.25000000  1
  Ho  Ho1  1  0.87008300  0.12008300  0.75000000  1
  Mn  Mn2  1  0.50000000  0.00000000  0.00000000  1
  Mn  Mn3  1  0.50000000  0.50000000  0.50000000  1
  Al  Al4  1  0.00000000  0.50000000  0.50000000  1
  Al  Al5  1  0.50000000  0.50000000  0.00000000  1
