# generated using pymatgen
data_K4Ta3NbO12
_symmetry_space_group_name_H-M   'P 1'
_cell_length_a   9.87996803
_cell_length_b   9.87996803
_cell_length_c   9.87996753
_cell_angle_alpha   33.55683996
_cell_angle_beta   33.55683996
_cell_angle_gamma   33.55683611
_symmetry_Int_Tables_number   1
_chemical_formula_structural   K4Ta3NbO12
_chemical_formula_sum   'K4 Ta3 Nb1 O12'
_cell_volume   262.47540132
_cell_formula_units_Z   1
loop_
 _symmetry_equiv_pos_site_id
 _symmetry_equiv_pos_as_xyz
  1  'x, y, z'
loop_
 _atom_site_type_symbol
 _atom_site_label
 _atom_site_symmetry_multiplicity
 _atom_site_fract_x
 _atom_site_fract_y
 _atom_site_fract_z
 _atom_site_occupancy
  K  K0  1  0.37501400  0.37501400  0.37501400  1
  K  K1  1  0.12501400  0.12501400  0.12501400  1
  K  K2  1  0.87498600  0.87498600  0.87498600  1
  K  K3  1  0.62498600  0.62498600  0.62498600  1
  Ta  Ta4  1  0.25018500  0.25018500  0.25018500  1
  Ta  Ta5  1  0.00000000  0.00000000  0.00000000  1
  Ta  Ta6  1  0.74981500  0.74981500  0.74981500  1
  Nb  Nb7  1  0.50000000  0.50000000  0.50000000  1
  O  O8  1  0.12492900  0.62520600  0.12492900  1
  O  O9  1  0.87507100  0.37479400  0.87507100  1
  O  O10  1  0.62555500  0.12334400  0.62555500  1
  O  O11  1  0.37444500  0.87665600  0.37444500  1
  O  O12  1  0.87507100  0.87507100  0.37479400  1
  O  O13  1  0.62555500  0.62555500  0.12334400  1
  O  O14  1  0.37444500  0.37444500  0.87665600  1
  O  O15  1  0.12492900  0.12492900  0.62520600  1
  O  O16  1  0.37479400  0.87507100  0.87507100  1
  O  O17  1  0.12334400  0.62555500  0.62555500  1
  O  O18  1  0.87665600  0.37444500  0.37444500  1
  O  O19  1  0.62520600  0.12492900  0.12492900  1
