# generated using pymatgen
data_K2PdBr3Cl
_symmetry_space_group_name_H-M   'P 1'
_cell_length_a   7.45265222
_cell_length_b   7.45265222
_cell_length_c   4.37687500
_cell_angle_alpha   90.00000000
_cell_angle_beta   90.00000000
_cell_angle_gamma   90.26343930
_symmetry_Int_Tables_number   1
_chemical_formula_structural   K2PdBr3Cl
_chemical_formula_sum   'K2 Pd1 Br3 Cl1'
_cell_volume   243.09793183
_cell_formula_units_Z   1
loop_
 _symmetry_equiv_pos_site_id
 _symmetry_equiv_pos_as_xyz
  1  'x, y, z'
loop_
 _atom_site_type_symbol
 _atom_site_label
 _atom_site_symmetry_multiplicity
 _atom_site_fract_x
 _atom_site_fract_y
 _atom_site_fract_z
 _atom_site_occupancy
  K  K0  1  0.50530500  0.00549800  0.50000000  1
  K  K1  1  0.99450200  0.49469500  0.50000000  1
  Pd  Pd2  1  0.99762700  0.00237300  0.00000000  1
  Br  Br3  1  0.23033400  0.76966600  0.00000000  1
  Br  Br4  1  0.23286300  0.23612300  0.00000000  1
  Br  Br5  1  0.76387700  0.76713700  0.00000000  1
  Cl  Cl6  1  0.77549200  0.22450800  0.00000000  1
