# generated using pymatgen
data_MgAl8Fe3Si8(H2O5)8
_symmetry_space_group_name_H-M   'P 1'
_cell_length_a   12.34688442
_cell_length_b   12.34688442
_cell_length_c   5.17762932
_cell_angle_alpha   89.96949729
_cell_angle_beta   89.96949729
_cell_angle_gamma   111.61669102
_symmetry_Int_Tables_number   1
_chemical_formula_structural   MgAl8Fe3Si8(H2O5)8
_chemical_formula_sum   'Mg1 Al8 Fe3 Si8 H16 O40'
_cell_volume   733.79368820
_cell_formula_units_Z   1
loop_
 _symmetry_equiv_pos_site_id
 _symmetry_equiv_pos_as_xyz
  1  'x, y, z'
loop_
 _atom_site_type_symbol
 _atom_site_label
 _atom_site_symmetry_multiplicity
 _atom_site_fract_x
 _atom_site_fract_y
 _atom_site_fract_z
 _atom_site_occupancy
  Mg  Mg0  1  0.12408600  0.87591400  0.00000000  1
  Al  Al1  1  0.46138100  0.53861900  0.50000000  1
  Al  Al2  1  0.96232500  0.03767500  0.00000000  1
  Al  Al3  1  0.53865500  0.46134500  0.00000000  1
  Al  Al4  1  0.03931200  0.96068800  0.50000000  1
  Al  Al5  1  0.44086900  0.94218800  0.00084500  1
  Al  Al6  1  0.55734000  0.05732300  0.50024700  1
  Al  Al7  1  0.94267700  0.44266000  0.49975300  1
  Al  Al8  1  0.05781200  0.55913100  0.99915500  1
  Fe  Fe9  1  0.37468400  0.62531600  0.00000000  1
  Fe  Fe10  1  0.87486200  0.12513800  0.50000000  1
  Fe  Fe11  1  0.62534000  0.37466000  0.50000000  1
  Si  Si12  1  0.57282800  0.81435300  0.33424400  1
  Si  Si13  1  0.68575400  0.92691200  0.83432900  1
  Si  Si14  1  0.81476900  0.57394600  0.83365800  1
  Si  Si15  1  0.92793500  0.68631300  0.33296300  1
  Si  Si16  1  0.42605400  0.18523100  0.16634200  1
  Si  Si17  1  0.31368700  0.07206500  0.66703700  1
  Si  Si18  1  0.18564700  0.42717200  0.66575600  1
  Si  Si19  1  0.07308800  0.31424600  0.16567100  1
  H  H20  1  0.59794700  0.67674600  0.83700600  1
  H  H21  1  0.82328900  0.90197900  0.33763500  1
  H  H22  1  0.67676400  0.59805900  0.33621200  1
  H  H23  1  0.90204000  0.82313700  0.83474500  1
  H  H24  1  0.40194100  0.32323600  0.66378800  1
  H  H25  1  0.17686300  0.09796000  0.16525500  1
  H  H26  1  0.32325400  0.40205300  0.16299400  1
  H  H27  1  0.09802100  0.17671100  0.66236500  1
  H  H28  1  0.20951000  0.61458800  0.31078100  1
  H  H29  1  0.88561800  0.29035900  0.81174400  1
  H  H30  1  0.61427800  0.20950200  0.81121400  1
  H  H31  1  0.28815900  0.88539600  0.30653600  1
  H  H32  1  0.79049800  0.38572200  0.18878600  1
  H  H33  1  0.11460400  0.71184100  0.69346400  1
  H  H34  1  0.38541200  0.79049000  0.68921900  1
  H  H35  1  0.70964100  0.11438200  0.18825600  1
  O  O36  1  0.40923600  0.79253800  0.86818200  1
  O  O37  1  0.70752600  0.09012400  0.36699600  1
  O  O38  1  0.79253200  0.40978400  0.36755100  1
  O  O39  1  0.08910500  0.71015000  0.87131800  1
  O  O40  1  0.59021600  0.20746800  0.63244900  1
  O  O41  1  0.28985000  0.91089500  0.12868200  1
  O  O42  1  0.20746200  0.59076400  0.13181800  1
  O  O43  1  0.90987600  0.29247400  0.63300400  1
  O  O44  1  0.50378100  0.90532300  0.31882700  1
  O  O45  1  0.59457000  0.99558900  0.81904400  1
  O  O46  1  0.90585900  0.50513400  0.81827800  1
  O  O47  1  0.99552500  0.59423100  0.31880600  1
  O  O48  1  0.49486600  0.09414100  0.18172200  1
  O  O49  1  0.40576900  0.00447500  0.68119400  1
  O  O50  1  0.09467700  0.49621900  0.68117300  1
  O  O51  1  0.00441100  0.40543000  0.18095600  1
  O  O52  1  0.53445100  0.60132200  0.82349900  1
  O  O53  1  0.89930500  0.96466800  0.32365200  1
  O  O54  1  0.60140000  0.53443700  0.32341900  1
  O  O55  1  0.96745400  0.89726400  0.82345500  1
  O  O56  1  0.46556300  0.39860000  0.67658100  1
  O  O57  1  0.10273600  0.03254600  0.17654500  1
  O  O58  1  0.39867800  0.46554900  0.17650100  1
  O  O59  1  0.03533200  0.10069500  0.67634800  1
  O  O60  1  0.65737400  0.83334200  0.07617500  1
  O  O61  1  0.66647000  0.84268200  0.57574500  1
  O  O62  1  0.83521200  0.65952300  0.57635400  1
  O  O63  1  0.84232200  0.66668900  0.07671100  1
  O  O64  1  0.34047700  0.16478800  0.42364600  1
  O  O65  1  0.33331100  0.15767800  0.92328900  1
  O  O66  1  0.16665800  0.34262600  0.92382500  1
  O  O67  1  0.15731800  0.33353000  0.42425500  1
  O  O68  1  0.48065700  0.68161100  0.34965300  1
  O  O69  1  0.81907300  0.01824300  0.84917400  1
  O  O70  1  0.68199500  0.48146200  0.84849000  1
  O  O71  1  0.02210000  0.81877600  0.34062600  1
  O  O72  1  0.51853800  0.31800500  0.15151000  1
  O  O73  1  0.18122400  0.97790000  0.65937400  1
  O  O74  1  0.31838900  0.51934300  0.65034700  1
  O  O75  1  0.98175700  0.18092700  0.15082600  1
