# generated using pymatgen
data_La5Ti4GaO17
_symmetry_space_group_name_H-M   'P 1'
_cell_length_a   3.95392400
_cell_length_b   5.55499300
_cell_length_c   31.43220000
_cell_angle_alpha   90.00000000
_cell_angle_beta   90.00000000
_cell_angle_gamma   90.00000000
_symmetry_Int_Tables_number   1
_chemical_formula_structural   La5Ti4GaO17
_chemical_formula_sum   'La10 Ti8 Ga2 O34'
_cell_volume   690.37747392
_cell_formula_units_Z   2
loop_
 _symmetry_equiv_pos_site_id
 _symmetry_equiv_pos_as_xyz
  1  'x, y, z'
loop_
 _atom_site_type_symbol
 _atom_site_label
 _atom_site_symmetry_multiplicity
 _atom_site_fract_x
 _atom_site_fract_y
 _atom_site_fract_z
 _atom_site_occupancy
  La  La0  1  0.00000000  0.57028200  0.28652400  1
  La  La1  1  0.00000000  0.42971800  0.71347600  1
  La  La2  1  0.50000000  0.07028200  0.21347600  1
  La  La3  1  0.50000000  0.92971800  0.78652400  1
  La  La4  1  0.00000000  0.50000000  0.50000000  1
  La  La5  1  0.50000000  0.00000000  0.00000000  1
  La  La6  1  0.00000000  0.99453700  0.41109900  1
  La  La7  1  0.00000000  0.00546300  0.58890100  1
  La  La8  1  0.50000000  0.49453700  0.08890100  1
  La  La9  1  0.50000000  0.50546300  0.91109900  1
  Ti  Ti10  1  0.50000000  0.03406900  0.32271300  1
  Ti  Ti11  1  0.50000000  0.96593100  0.67728700  1
  Ti  Ti12  1  0.00000000  0.53406900  0.17728700  1
  Ti  Ti13  1  0.00000000  0.46593100  0.82271300  1
  Ti  Ti14  1  0.50000000  0.50452700  0.40837700  1
  Ti  Ti15  1  0.50000000  0.49547300  0.59162300  1
  Ti  Ti16  1  0.00000000  0.00452700  0.09162300  1
  Ti  Ti17  1  0.00000000  0.99547300  0.90837700  1
  Ga  Ga18  1  0.50000000  0.00000000  0.50000000  1
  Ga  Ga19  1  0.00000000  0.50000000  0.00000000  1
  O  O20  1  0.50000000  0.29733400  0.28733400  1
  O  O21  1  0.50000000  0.70266600  0.71266600  1
  O  O22  1  0.00000000  0.79733400  0.21266600  1
  O  O23  1  0.00000000  0.20266600  0.78733400  1
  O  O24  1  0.50000000  0.71037500  0.53641300  1
  O  O25  1  0.50000000  0.28962500  0.46358700  1
  O  O26  1  0.00000000  0.21037500  0.96358700  1
  O  O27  1  0.00000000  0.78962500  0.03641300  1
  O  O28  1  0.00000000  0.49469400  0.41564900  1
  O  O29  1  0.00000000  0.50530600  0.58435100  1
  O  O30  1  0.50000000  0.99469400  0.08435100  1
  O  O31  1  0.50000000  0.00530600  0.91564900  1
  O  O32  1  0.00000000  0.00371500  0.32898600  1
  O  O33  1  0.00000000  0.99628500  0.67101400  1
  O  O34  1  0.50000000  0.50371500  0.17101400  1
  O  O35  1  0.50000000  0.49628500  0.82898600  1
  O  O36  1  0.50000000  0.19616900  0.37910900  1
  O  O37  1  0.50000000  0.80383100  0.62089100  1
  O  O38  1  0.00000000  0.69616900  0.12089100  1
  O  O39  1  0.00000000  0.30383100  0.87910900  1
  O  O40  1  0.50000000  0.78213600  0.44884500  1
  O  O41  1  0.50000000  0.21786400  0.55115500  1
  O  O42  1  0.00000000  0.28213600  0.05115500  1
  O  O43  1  0.00000000  0.71786400  0.94884500  1
  O  O44  1  0.50000000  0.81251600  0.27631700  1
  O  O45  1  0.50000000  0.18748400  0.72368300  1
  O  O46  1  0.00000000  0.31251600  0.22368300  1
  O  O47  1  0.00000000  0.68748400  0.77631700  1
  O  O48  1  0.50000000  0.71550000  0.36348200  1
  O  O49  1  0.50000000  0.28450000  0.63651800  1
  O  O50  1  0.00000000  0.21550000  0.13651800  1
  O  O51  1  0.00000000  0.78450000  0.86348200  1
  O  O52  1  0.00000000  0.00000000  0.50000000  1
  O  O53  1  0.50000000  0.50000000  0.00000000  1
