# generated using pymatgen
data_KRe3(SO)4
_symmetry_space_group_name_H-M   'P 1'
_cell_length_a   8.40558000
_cell_length_b   8.97753248
_cell_length_c   9.41504772
_cell_angle_alpha   80.73938279
_cell_angle_beta   115.66822851
_cell_angle_gamma   112.26374864
_symmetry_Int_Tables_number   1
_chemical_formula_structural   KRe3(SO)4
_chemical_formula_sum   'K2 Re6 S8 O8'
_cell_volume   592.61759544
_cell_formula_units_Z   2
loop_
 _symmetry_equiv_pos_site_id
 _symmetry_equiv_pos_as_xyz
  1  'x, y, z'
loop_
 _atom_site_type_symbol
 _atom_site_label
 _atom_site_symmetry_multiplicity
 _atom_site_fract_x
 _atom_site_fract_y
 _atom_site_fract_z
 _atom_site_occupancy
  K  K0  1  0.26835900  0.54140100  0.92449400  1
  K  K1  1  0.73164100  0.45859900  0.07550600  1
  Re  Re2  1  0.76440500  0.22061700  0.45760500  1
  Re  Re3  1  0.23559500  0.77938300  0.54239500  1
  Re  Re4  1  0.69754900  0.00152300  0.78738600  1
  Re  Re5  1  0.30245100  0.99847700  0.21261400  1
  Re  Re6  1  0.38799300  0.20180300  0.54238800  1
  Re  Re7  1  0.61200700  0.79819700  0.45761200  1
  S  S8  1  0.52946000  0.73478700  0.67907300  1
  S  S9  1  0.47054000  0.26521300  0.32092700  1
  S  S10  1  0.72258700  0.26751600  0.68241400  1
  S  S11  1  0.27741300  0.73248400  0.31758600  1
  S  S12  1  0.86194000  0.01399400  0.62909600  1
  S  S13  1  0.13806000  0.98600600  0.37090400  1
  S  S14  1  0.38742900  0.98960500  0.73173400  1
  S  S15  1  0.61257100  0.01039500  0.26826600  1
  O  O16  1  0.31055000  0.34080700  0.56870600  1
  O  O17  1  0.68945000  0.65919300  0.43129400  1
  O  O18  1  0.62014700  0.67850600  0.09623000  1
  O  O19  1  0.37985300  0.32149400  0.90377000  1
  O  O20  1  0.93430900  0.36482800  0.40673800  1
  O  O21  1  0.06569100  0.63517200  0.59326200  1
  O  O22  1  0.82683000  0.00486700  0.98583000  1
  O  O23  1  0.17317000  0.99513300  0.01417000  1
