# generated using pymatgen
data_Ta3ZnFe3(O6F)2
_symmetry_space_group_name_H-M   'P 1'
_cell_length_a   3.16586400
_cell_length_b   4.76900089
_cell_length_c   19.13805546
_cell_angle_alpha   88.18482338
_cell_angle_beta   90.00000000
_cell_angle_gamma   90.00000000
_symmetry_Int_Tables_number   1
_chemical_formula_structural   Ta3ZnFe3(O6F)2
_chemical_formula_sum   'Ta3 Zn1 Fe3 O12 F2'
_cell_volume   288.80152707
_cell_formula_units_Z   1
loop_
 _symmetry_equiv_pos_site_id
 _symmetry_equiv_pos_as_xyz
  1  'x, y, z'
loop_
 _atom_site_type_symbol
 _atom_site_label
 _atom_site_symmetry_multiplicity
 _atom_site_fract_x
 _atom_site_fract_y
 _atom_site_fract_z
 _atom_site_occupancy
  Ta  Ta0  1  0.50000000  0.45885600  0.12827700  1
  Ta  Ta1  1  0.50000000  0.65294000  0.39538400  1
  Ta  Ta2  1  0.50000000  0.47786700  0.88340700  1
  Zn  Zn3  1  0.00000000  0.95962300  0.24919500  1
  Fe  Fe4  1  0.00000000  0.96471000  0.00913600  1
  Fe  Fe5  1  0.50000000  0.58175300  0.64687300  1
  Fe  Fe6  1  0.00000000  0.06536200  0.74426100  1
  O  O7  1  0.50000000  0.23213800  0.70203700  1
  O  O8  1  0.50000000  0.18413700  0.19946700  1
  O  O9  1  0.50000000  0.76576900  0.04376300  1
  O  O10  1  0.50000000  0.28331800  0.38752000  1
  O  O11  1  0.50000000  0.78555000  0.29978900  1
  O  O12  1  0.50000000  0.18613300  0.94815400  1
  O  O13  1  0.00000000  0.27266900  0.07442800  1
  O  O14  1  0.00000000  0.65971000  0.16378300  1
  O  O15  1  0.00000000  0.32670200  0.82652400  1
  O  O16  1  0.00000000  0.76127800  0.44185100  1
  O  O17  1  0.00000000  0.74984200  0.68085900  1
  O  O18  1  0.00000000  0.68383500  0.92054800  1
  F  F19  1  0.50000000  0.83191600  0.80348500  1
  F  F20  1  0.50000000  0.52989500  0.55475900  1
