# generated using pymatgen
data_InAgSeS
_symmetry_space_group_name_H-M   'P 1'
_cell_length_a   7.30380067
_cell_length_b   7.30380067
_cell_length_c   7.30380067
_cell_angle_alpha   130.96138904
_cell_angle_beta   130.71503560
_cell_angle_gamma   72.07043405
_symmetry_Int_Tables_number   1
_chemical_formula_structural   InAgSeS
_chemical_formula_sum   'In2 Ag2 Se2 S2'
_cell_volume   218.07567773
_cell_formula_units_Z   2
loop_
 _symmetry_equiv_pos_site_id
 _symmetry_equiv_pos_as_xyz
  1  'x, y, z'
loop_
 _atom_site_type_symbol
 _atom_site_label
 _atom_site_symmetry_multiplicity
 _atom_site_fract_x
 _atom_site_fract_y
 _atom_site_fract_z
 _atom_site_occupancy
  In  In0  1  0.13030100  0.88030100  0.25000000  1
  In  In1  1  0.36969900  0.61969900  0.75000000  1
  Ag  Ag2  1  0.63321500  0.38321500  0.25000000  1
  Ag  Ag3  1  0.86678500  0.11678500  0.75000000  1
  Se  Se4  1  0.25000000  0.50346400  0.25346400  1
  Se  Se5  1  0.75000000  0.99653600  0.24653600  1
  S  S6  1  0.48723700  0.25000000  0.73723700  1
  S  S7  1  0.01276300  0.75000000  0.76276300  1
