# generated using pymatgen
data_Sr9ThCl22
_symmetry_space_group_name_H-M   'P 1'
_cell_length_a   18.11783812
_cell_length_b   18.11783812
_cell_length_c   7.04262100
_cell_angle_alpha   90.00000000
_cell_angle_beta   90.00000000
_cell_angle_gamma   157.64786189
_symmetry_Int_Tables_number   1
_chemical_formula_structural   Sr9ThCl22
_chemical_formula_sum   'Sr9 Th1 Cl22'
_cell_volume   879.16628442
_cell_formula_units_Z   1
loop_
 _symmetry_equiv_pos_site_id
 _symmetry_equiv_pos_as_xyz
  1  'x, y, z'
loop_
 _atom_site_type_symbol
 _atom_site_label
 _atom_site_symmetry_multiplicity
 _atom_site_fract_x
 _atom_site_fract_y
 _atom_site_fract_z
 _atom_site_occupancy
  Sr  Sr0  1  0.50000000  0.50000000  0.50000000  1
  Sr  Sr1  1  0.39952200  0.60047800  0.00000000  1
  Sr  Sr2  1  0.29984300  0.70015700  0.50000000  1
  Sr  Sr3  1  0.19999400  0.80000600  0.00000000  1
  Sr  Sr4  1  0.89954300  0.10045700  0.50000000  1
  Sr  Sr5  1  0.80000600  0.19999400  0.00000000  1
  Sr  Sr6  1  0.10045700  0.89954300  0.50000000  1
  Sr  Sr7  1  0.70015700  0.29984300  0.50000000  1
  Sr  Sr8  1  0.60047800  0.39952200  0.00000000  1
  Th  Th9  1  0.00000000  0.00000000  0.00000000  1
  Cl  Cl10  1  0.10059300  0.40130500  0.25099400  1
  Cl  Cl11  1  0.59869500  0.89940700  0.74900600  1
  Cl  Cl12  1  0.50000000  0.00000000  0.24978500  1
  Cl  Cl13  1  0.28643900  0.17906100  0.76734900  1
  Cl  Cl14  1  0.40130500  0.10059300  0.74900600  1
  Cl  Cl15  1  0.00000000  0.50000000  0.75021500  1
  Cl  Cl16  1  0.17906100  0.28643900  0.23265100  1
  Cl  Cl17  1  0.28643900  0.17906100  0.23265100  1
  Cl  Cl18  1  0.82093900  0.71356100  0.23265100  1
  Cl  Cl19  1  0.50000000  0.50000000  0.00000000  1
  Cl  Cl20  1  0.89940700  0.59869500  0.25099400  1
  Cl  Cl21  1  0.17906100  0.28643900  0.76734900  1
  Cl  Cl22  1  0.10059300  0.40130500  0.74900600  1
  Cl  Cl23  1  0.82093900  0.71356100  0.76734900  1
  Cl  Cl24  1  0.71356100  0.82093900  0.76734900  1
  Cl  Cl25  1  0.00000000  0.50000000  0.24978500  1
  Cl  Cl26  1  0.71356100  0.82093900  0.23265100  1
  Cl  Cl27  1  0.00000000  0.00000000  0.50000000  1
  Cl  Cl28  1  0.59869500  0.89940700  0.25099400  1
  Cl  Cl29  1  0.50000000  0.00000000  0.75021500  1
  Cl  Cl30  1  0.40130500  0.10059300  0.25099400  1
  Cl  Cl31  1  0.89940700  0.59869500  0.74900600  1
