# generated using pymatgen
data_K4N2O5
_symmetry_space_group_name_H-M   'P 1'
_cell_length_a   8.82469387
_cell_length_b   8.82469387
_cell_length_c   8.82469387
_cell_angle_alpha   146.10022139
_cell_angle_beta   144.54354710
_cell_angle_gamma   49.86647579
_symmetry_Int_Tables_number   1
_chemical_formula_structural   K4N2O5
_chemical_formula_sum   'K4 N2 O5'
_cell_volume   221.28497474
_cell_formula_units_Z   1
loop_
 _symmetry_equiv_pos_site_id
 _symmetry_equiv_pos_as_xyz
  1  'x, y, z'
loop_
 _atom_site_type_symbol
 _atom_site_label
 _atom_site_symmetry_multiplicity
 _atom_site_fract_x
 _atom_site_fract_y
 _atom_site_fract_z
 _atom_site_occupancy
  K  K0  1  0.50000000  0.00000000  0.50000000  1
  K  K1  1  0.00000000  0.50000000  0.50000000  1
  K  K2  1  0.66490200  0.66490200  0.00000000  1
  K  K3  1  0.33509800  0.33509800  0.00000000  1
  N  N4  1  0.88040000  0.88040000  0.00000000  1
  N  N5  1  0.11960000  0.11960000  0.00000000  1
  O  O6  1  0.50000000  0.50000000  0.00000000  1
  O  O7  1  0.03991700  0.83826800  0.20164900  1
  O  O8  1  0.63661900  0.83826800  0.79835100  1
  O  O9  1  0.96008300  0.16173200  0.79835100  1
  O  O10  1  0.36338100  0.16173200  0.20164900  1
