data_image0
_chemical_formula_structural       As3Pd3Yb3
_chemical_formula_sum              "As3 Pd3 Yb3"
_cell_length_a       6.95204
_cell_length_b       6.95204
_cell_length_c       4.1182
_cell_angle_alpha    90
_cell_angle_beta     90
_cell_angle_gamma    119.99

_space_group_name_H-M_alt    "P 1"
_space_group_IT_number       1

loop_
  _space_group_symop_operation_xyz
  'x, y, z'

loop_
  _atom_site_type_symbol
  _atom_site_label
  _atom_site_symmetry_multiplicity
  _atom_site_fract_x
  _atom_site_fract_y
  _atom_site_fract_z
  _atom_site_occupancy
  As  As1       1.0  0.66700  0.33300  0.00000  1.0000
  As  As2       1.0  0.33300  0.66700  0.00000  1.0000
  As  As3       1.0  0.00000  0.00000  0.50000  1.0000
  Pd  Pd1       1.0  0.24200  0.00001  0.00000  1.0000
  Pd  Pd2       1.0  0.00001  0.24200  0.00000  1.0000
  Pd  Pd3       1.0  0.75800  0.75800  0.00000  1.0000
  Yb  Yb1       1.0  0.58000  0.00001  0.50000  1.0000
  Yb  Yb2       1.0  0.42000  0.42000  0.50000  1.0000
  Yb  Yb3       1.0  0.00001  0.58000  0.50000  1.0000
