# generated using pymatgen
data_SrLaTaNiO6
_symmetry_space_group_name_H-M   'P 1'
_cell_length_a   15.08929084
_cell_length_b   15.08929084
_cell_length_c   8.01329436
_cell_angle_alpha   74.63132644
_cell_angle_beta   74.63132644
_cell_angle_gamma   21.64303978
_symmetry_Int_Tables_number   1
_chemical_formula_structural   SrLaTaNiO6
_chemical_formula_sum   'Sr5 La5 Ta5 Ni5 O30'
_cell_volume   647.96527663
_cell_formula_units_Z   5
loop_
 _symmetry_equiv_pos_site_id
 _symmetry_equiv_pos_as_xyz
  1  'x, y, z'
loop_
 _atom_site_type_symbol
 _atom_site_label
 _atom_site_symmetry_multiplicity
 _atom_site_fract_x
 _atom_site_fract_y
 _atom_site_fract_z
 _atom_site_occupancy
  Sr  Sr0  1  0.50198700  0.50198700  0.25671200  1
  Sr  Sr1  1  0.89914200  0.89914200  0.84094900  1
  Sr  Sr2  1  0.30370400  0.30370400  0.44907600  1
  Sr  Sr3  1  0.89537900  0.89537900  0.36152100  1
  Sr  Sr4  1  0.50318800  0.50318800  0.74095600  1
  La  La5  1  0.69772800  0.69772800  0.04512800  1
  La  La6  1  0.29940000  0.29940000  0.94532900  1
  La  La7  1  0.10556900  0.10556900  0.65670200  1
  La  La8  1  0.69115600  0.69115600  0.57634300  1
  La  La9  1  0.09982200  0.09982200  0.14798600  1
  Ta  Ta10  1  0.99998900  0.99998900  0.00295200  1
  Ta  Ta11  1  0.99974700  0.99974700  0.49985500  1
  Ta  Ta12  1  0.39761300  0.39761300  0.10526400  1
  Ta  Ta13  1  0.79948000  0.79948000  0.70042500  1
  Ta  Ta14  1  0.20227400  0.20227400  0.30289100  1
  Ni  Ni15  1  0.40095400  0.40095400  0.59953200  1
  Ni  Ni16  1  0.79882800  0.79882800  0.19841600  1
  Ni  Ni17  1  0.20048200  0.20048200  0.80155000  1
  Ni  Ni18  1  0.60019500  0.60019500  0.40035900  1
  Ni  Ni19  1  0.59975400  0.59975400  0.90037500  1
  O  O20  1  0.70659300  0.19935200  0.58020600  1
  O  O21  1  0.98403000  0.98403000  0.26239300  1
  O  O22  1  0.01570600  0.01570600  0.73497700  1
  O  O23  1  0.19935200  0.70659300  0.58020600  1
  O  O24  1  0.19992800  0.70156100  0.00921400  1
  O  O25  1  0.10498800  0.59715900  0.18282100  1
  O  O26  1  0.38490300  0.38490300  0.87141200  1
  O  O27  1  0.41359000  0.41359000  0.32680300  1
  O  O28  1  0.70156100  0.19992800  0.00921400  1
  O  O29  1  0.59715900  0.10498800  0.18282100  1
  O  O30  1  0.59954800  0.09535700  0.62069600  1
  O  O31  1  0.50422300  0.99630300  0.80354400  1
  O  O32  1  0.78123100  0.78123100  0.47839800  1
  O  O33  1  0.81390600  0.81390600  0.93056700  1
  O  O34  1  0.09535700  0.59954800  0.62069600  1
  O  O35  1  0.99630300  0.50422300  0.80354400  1
  O  O36  1  0.90922900  0.39655600  0.39765400  1
  O  O37  1  0.00505400  0.49278400  0.19230600  1
  O  O38  1  0.18095700  0.18095700  0.07921900  1
  O  O39  1  0.21804700  0.21804700  0.52305900  1
  O  O40  1  0.49278400  0.00505400  0.19230600  1
  O  O41  1  0.39655600  0.90922900  0.39765400  1
  O  O42  1  0.39523800  0.90567500  0.79989400  1
  O  O43  1  0.28555000  0.81083200  0.99483900  1
  O  O44  1  0.58673800  0.58673800  0.66216800  1
  O  O45  1  0.61855500  0.61855500  0.13257000  1
  O  O46  1  0.90567500  0.39523800  0.79989400  1
  O  O47  1  0.81083200  0.28555000  0.99483900  1
  O  O48  1  0.81490300  0.28511100  0.40188300  1
  O  O49  1  0.28511100  0.81490300  0.40188300  1
