# generated using pymatgen
data_In4Pb
_symmetry_space_group_name_H-M   'P 1'
_cell_length_a   3.31799602
_cell_length_b   3.31799602
_cell_length_c   14.78592671
_cell_angle_alpha   87.20407434
_cell_angle_beta   87.20407434
_cell_angle_gamma   62.37147404
_symmetry_Int_Tables_number   1
_chemical_formula_structural   In4Pb
_chemical_formula_sum   'In4 Pb1'
_cell_volume   143.98377314
_cell_formula_units_Z   1
loop_
 _symmetry_equiv_pos_site_id
 _symmetry_equiv_pos_as_xyz
  1  'x, y, z'
loop_
 _atom_site_type_symbol
 _atom_site_label
 _atom_site_symmetry_multiplicity
 _atom_site_fract_x
 _atom_site_fract_y
 _atom_site_fract_z
 _atom_site_occupancy
  In  In0  1  0.40020600  0.40020600  0.79598900  1
  In  In1  1  0.79839200  0.79839200  0.59823300  1
  In  In2  1  0.20160800  0.20160800  0.40176700  1
  In  In3  1  0.59979400  0.59979400  0.20401100  1
  Pb  Pb4  1  0.00000000  0.00000000  0.00000000  1
