# generated using pymatgen
data_SrLaTaCoO6
_symmetry_space_group_name_H-M   'P 1'
_cell_length_a   5.68314033
_cell_length_b   5.68314033
_cell_length_c   27.91401300
_cell_angle_alpha   90.00000000
_cell_angle_beta   90.00000000
_cell_angle_gamma   120.00000390
_symmetry_Int_Tables_number   1
_chemical_formula_structural   SrLaTaCoO6
_chemical_formula_sum   'Sr6 La6 Ta6 Co6 O36'
_cell_volume   780.78174654
_cell_formula_units_Z   6
loop_
 _symmetry_equiv_pos_site_id
 _symmetry_equiv_pos_as_xyz
  1  'x, y, z'
loop_
 _atom_site_type_symbol
 _atom_site_label
 _atom_site_symmetry_multiplicity
 _atom_site_fract_x
 _atom_site_fract_y
 _atom_site_fract_z
 _atom_site_occupancy
  Sr  Sr0  1  0.66666700  0.33333300  0.03086000  1
  Sr  Sr1  1  0.33333300  0.66666700  0.21191000  1
  Sr  Sr2  1  0.00000000  0.00000000  0.37526000  1
  Sr  Sr3  1  0.00000000  0.00000000  0.12420800  1
  Sr  Sr4  1  0.66666700  0.33333300  0.54214800  1
  Sr  Sr5  1  0.33333300  0.66666700  0.70724000  1
  La  La6  1  0.66666700  0.33333300  0.29261600  1
  La  La7  1  0.33333300  0.66666700  0.45857800  1
  La  La8  1  0.00000000  0.00000000  0.88890900  1
  La  La9  1  0.00000000  0.00000000  0.62436400  1
  La  La10  1  0.66666700  0.33333300  0.79169500  1
  La  La11  1  0.33333300  0.66666700  0.95791500  1
  Ta  Ta12  1  0.66666700  0.33333300  0.16941400  1
  Ta  Ta13  1  0.33333300  0.66666700  0.08141300  1
  Ta  Ta14  1  0.33333300  0.66666700  0.33343100  1
  Ta  Ta15  1  0.66666700  0.33333300  0.66634900  1
  Ta  Ta16  1  0.00000000  0.00000000  0.50029600  1
  Ta  Ta17  1  0.33333300  0.66666700  0.83187200  1
  Co  Co18  1  0.00000000  0.00000000  0.99955300  1
  Co  Co19  1  0.00000000  0.00000000  0.25002000  1
  Co  Co20  1  0.66666700  0.33333300  0.41709300  1
  Co  Co21  1  0.33333300  0.66666700  0.58327400  1
  Co  Co22  1  0.00000000  0.00000000  0.75018700  1
  Co  Co23  1  0.66666700  0.33333300  0.91774400  1
  O  O24  1  0.17103900  0.82896100  0.04200100  1
  O  O25  1  0.00231500  0.50115800  0.12581600  1
  O  O26  1  0.17103900  0.34207700  0.04200100  1
  O  O27  1  0.49884200  0.99768500  0.12581600  1
  O  O28  1  0.65792300  0.82896100  0.04200100  1
  O  O29  1  0.49884200  0.50115800  0.12581600  1
  O  O30  1  0.82825000  0.17175000  0.20889300  1
  O  O31  1  0.66032200  0.83016100  0.29206700  1
  O  O32  1  0.82825000  0.65650000  0.20889300  1
  O  O33  1  0.16983900  0.33967800  0.29206700  1
  O  O34  1  0.34350000  0.17175000  0.20889300  1
  O  O35  1  0.16983900  0.83016100  0.29206700  1
  O  O36  1  0.49772700  0.50227300  0.37434500  1
  O  O37  1  0.32769700  0.16384900  0.45901000  1
  O  O38  1  0.49772700  0.99545400  0.37434500  1
  O  O39  1  0.83615100  0.67230300  0.45901000  1
  O  O40  1  0.00454600  0.50227300  0.37434500  1
  O  O41  1  0.16415000  0.83585000  0.54121400  1
  O  O42  1  0.83615100  0.16384900  0.45901000  1
  O  O43  1  0.99478700  0.49739300  0.62537000  1
  O  O44  1  0.16415000  0.32830000  0.54121400  1
  O  O45  1  0.50260700  0.00521300  0.62537000  1
  O  O46  1  0.67170000  0.83585000  0.54121400  1
  O  O47  1  0.50260700  0.49739300  0.62537000  1
  O  O48  1  0.66162300  0.83081200  0.79215700  1
  O  O49  1  0.83066200  0.16933800  0.70773300  1
  O  O50  1  0.83066200  0.66132400  0.70773300  1
  O  O51  1  0.16918800  0.33837700  0.79215700  1
  O  O52  1  0.33867600  0.16933800  0.70773300  1
  O  O53  1  0.16918800  0.83081200  0.79215700  1
  O  O54  1  0.49778300  0.50221700  0.87387700  1
  O  O55  1  0.32585600  0.16292800  0.95540000  1
  O  O56  1  0.49778300  0.99556600  0.87387700  1
  O  O57  1  0.83707200  0.67414400  0.95540000  1
  O  O58  1  0.00443400  0.50221700  0.87387700  1
  O  O59  1  0.83707200  0.16292800  0.95540000  1
