# generated using pymatgen
data_Ho4MnS7
_symmetry_space_group_name_H-M   'P 1'
_cell_length_a   6.53830184
_cell_length_b   6.53830184
_cell_length_c   11.44315390
_cell_angle_alpha   75.73823177
_cell_angle_beta   75.73823177
_cell_angle_gamma   33.73494846
_symmetry_Int_Tables_number   1
_chemical_formula_structural   Ho4MnS7
_chemical_formula_sum   'Ho4 Mn1 S7'
_cell_volume   262.51539594
_cell_formula_units_Z   1
loop_
 _symmetry_equiv_pos_site_id
 _symmetry_equiv_pos_as_xyz
  1  'x, y, z'
loop_
 _atom_site_type_symbol
 _atom_site_label
 _atom_site_symmetry_multiplicity
 _atom_site_fract_x
 _atom_site_fract_y
 _atom_site_fract_z
 _atom_site_occupancy
  Ho  Ho0  1  0.69301300  0.69301300  0.20400800  1
  Ho  Ho1  1  0.30675900  0.30675900  0.80163800  1
  Ho  Ho2  1  0.99938600  0.99938600  0.00584600  1
  Ho  Ho3  1  0.11401600  0.11401600  0.56672100  1
  Mn  Mn4  1  0.88492500  0.88492500  0.42215200  1
  S  S5  1  0.74386000  0.74386000  0.64016700  1
  S  S6  1  0.26819800  0.26819800  0.35255100  1
  S  S7  1  0.33848100  0.33848100  0.05117900  1
  S  S8  1  0.65976800  0.65976800  0.94872300  1
  S  S9  1  0.03463800  0.03463800  0.22532800  1
  S  S10  1  0.96290000  0.96290000  0.78464900  1
  S  S11  1  0.49405600  0.49405600  0.49703700  1
