# generated using pymatgen
data_In2Ni6C
_symmetry_space_group_name_H-M   'P 1'
_cell_length_a   3.83678900
_cell_length_b   3.83678900
_cell_length_c   7.50576900
_cell_angle_alpha   90.00000000
_cell_angle_beta   90.00000000
_cell_angle_gamma   90.00000000
_symmetry_Int_Tables_number   1
_chemical_formula_structural   In2Ni6C
_chemical_formula_sum   'In2 Ni6 C1'
_cell_volume   110.49204889
_cell_formula_units_Z   1
loop_
 _symmetry_equiv_pos_site_id
 _symmetry_equiv_pos_as_xyz
  1  'x, y, z'
loop_
 _atom_site_type_symbol
 _atom_site_label
 _atom_site_symmetry_multiplicity
 _atom_site_fract_x
 _atom_site_fract_y
 _atom_site_fract_z
 _atom_site_occupancy
  In  In0  1  0.00000000  0.00000000  0.73881900  1
  In  In1  1  0.00000000  0.00000000  0.26118100  1
  Ni  Ni2  1  0.50000000  0.50000000  0.74672100  1
  Ni  Ni3  1  0.50000000  0.50000000  0.25327900  1
  Ni  Ni4  1  0.50000000  0.00000000  0.00000000  1
  Ni  Ni5  1  0.50000000  0.00000000  0.50000000  1
  Ni  Ni6  1  0.00000000  0.50000000  0.00000000  1
  Ni  Ni7  1  0.00000000  0.50000000  0.50000000  1
  C  C8  1  0.50000000  0.50000000  0.00000000  1
