# generated using pymatgen
data_InGaAg2(TeSe)2
_symmetry_space_group_name_H-M   'P 1'
_cell_length_a   6.30548315
_cell_length_b   6.35333702
_cell_length_c   7.54030158
_cell_angle_alpha   65.05294423
_cell_angle_beta   65.25306389
_cell_angle_gamma   89.93305013
_symmetry_Int_Tables_number   1
_chemical_formula_structural   InGaAg2(TeSe)2
_chemical_formula_sum   'In1 Ga1 Ag2 Te2 Se2'
_cell_volume   243.02675463
_cell_formula_units_Z   1
loop_
 _symmetry_equiv_pos_site_id
 _symmetry_equiv_pos_as_xyz
  1  'x, y, z'
loop_
 _atom_site_type_symbol
 _atom_site_label
 _atom_site_symmetry_multiplicity
 _atom_site_fract_x
 _atom_site_fract_y
 _atom_site_fract_z
 _atom_site_occupancy
  In  In0  1  0.50917800  0.50917800  0.98164300  1
  Ga  Ga1  1  0.24063400  0.74063400  0.51873100  1
  Ag  Ag2  1  0.74573600  0.24573600  0.50852800  1
  Ag  Ag3  1  0.00494100  0.00494100  0.99011900  1
  Te  Te4  1  0.12586400  0.10731600  0.26156500  1
  Te  Te5  1  0.61257100  0.63111900  0.26156500  1
  Se  Se6  1  0.36720200  0.86191200  0.73892400  1
  Se  Se7  1  0.89387400  0.39916400  0.73892400  1
