# generated using pymatgen
data_Ho2FeSi4
_symmetry_space_group_name_H-M   'P 1'
_cell_length_a   3.97778000
_cell_length_b   4.01022200
_cell_length_c   8.24802076
_cell_angle_alpha   75.93029977
_cell_angle_beta   90.00000000
_cell_angle_gamma   90.00000000
_symmetry_Int_Tables_number   1
_chemical_formula_structural   Ho2FeSi4
_chemical_formula_sum   'Ho2 Fe1 Si4'
_cell_volume   127.62359468
_cell_formula_units_Z   1
loop_
 _symmetry_equiv_pos_site_id
 _symmetry_equiv_pos_as_xyz
  1  'x, y, z'
loop_
 _atom_site_type_symbol
 _atom_site_label
 _atom_site_symmetry_multiplicity
 _atom_site_fract_x
 _atom_site_fract_y
 _atom_site_fract_z
 _atom_site_occupancy
  Ho  Ho0  1  0.25000000  0.60576700  0.78846500  1
  Ho  Ho1  1  0.75000000  0.38885900  0.22228200  1
  Fe  Fe2  1  0.25000000  0.25021900  0.49956300  1
  Si  Si3  1  0.25000000  0.96090600  0.07818900  1
  Si  Si4  1  0.75000000  0.04333200  0.91333600  1
  Si  Si5  1  0.25000000  0.80809500  0.38381000  1
  Si  Si6  1  0.75000000  0.19282200  0.61435500  1
