# generated using pymatgen
data_K2MnH8(SO6)2
_symmetry_space_group_name_H-M   'P 1'
_cell_length_a   7.78954800
_cell_length_b   7.79287988
_cell_length_c   10.05709261
_cell_angle_alpha   86.09688518
_cell_angle_beta   86.02571216
_cell_angle_gamma   77.72038618
_symmetry_Int_Tables_number   1
_chemical_formula_structural   K2MnH8(SO6)2
_chemical_formula_sum   'K4 Mn2 H16 S4 O24'
_cell_volume   594.20272180
_cell_formula_units_Z   2
loop_
 _symmetry_equiv_pos_site_id
 _symmetry_equiv_pos_as_xyz
  1  'x, y, z'
loop_
 _atom_site_type_symbol
 _atom_site_label
 _atom_site_symmetry_multiplicity
 _atom_site_fract_x
 _atom_site_fract_y
 _atom_site_fract_z
 _atom_site_occupancy
  K  K0  1  0.09346600  0.56816900  0.25167900  1
  K  K1  1  0.56584900  0.09703700  0.24451800  1
  K  K2  1  0.90691700  0.43149200  0.75059800  1
  K  K3  1  0.43618800  0.90320400  0.75159700  1
  Mn  Mn4  1  0.00033600  0.99933100  0.99914800  1
  Mn  Mn5  1  0.49808800  0.49929200  0.49923500  1
  H  H6  1  0.91399700  0.94473700  0.72489000  1
  H  H7  1  0.07315800  0.06736200  0.27372800  1
  H  H8  1  0.93584900  0.94376900  0.28222100  1
  H  H9  1  0.06269600  0.05551900  0.71727800  1
  H  H10  1  0.17837200  0.66279600  0.61165500  1
  H  H11  1  0.66881500  0.17542000  0.61508300  1
  H  H12  1  0.82123600  0.33356100  0.38619500  1
  H  H13  1  0.33402000  0.82030000  0.38526300  1
  H  H14  1  0.27697300  0.55350200  0.73231900  1
  H  H15  1  0.55228100  0.27574100  0.73208400  1
  H  H16  1  0.72221500  0.44735400  0.26778000  1
  H  H17  1  0.44830300  0.72171800  0.26766700  1
  H  H18  1  0.23089300  0.65692100  0.96157700  1
  H  H19  1  0.65655200  0.23153100  0.96155500  1
  H  H20  1  0.76925400  0.34331300  0.03846500  1
  H  H21  1  0.34359000  0.76851200  0.03873100  1
  S  S22  1  0.79611200  0.78423200  0.52305500  1
  S  S23  1  0.21083300  0.20430900  0.47108200  1
  S  S24  1  0.29453400  0.29548100  0.95427100  1
  S  S25  1  0.70547300  0.70454400  0.04507900  1
  O  O26  1  0.21788400  0.46933400  0.88485400  1
  O  O27  1  0.46943700  0.21870100  0.88533900  1
  O  O28  1  0.78196100  0.53056300  0.11468700  1
  O  O29  1  0.53082400  0.78141200  0.11358600  1
  O  O30  1  0.31761100  0.31929600  0.09531700  1
  O  O31  1  0.68298100  0.68042200  0.90386000  1
  O  O32  1  0.99545100  0.98653200  0.77987200  1
  O  O33  1  0.00814800  0.00679100  0.21909500  1
  O  O34  1  0.82641400  0.82597400  0.05966200  1
  O  O35  1  0.17382400  0.17389500  0.93955800  1
  O  O36  1  0.22827300  0.77193200  0.00018300  1
  O  O37  1  0.77228400  0.22842200  0.99925900  1
  O  O38  1  0.33204900  0.32795400  0.43324900  1
  O  O39  1  0.66427900  0.67282700  0.56501500  1
  O  O40  1  0.29687000  0.62404000  0.64819900  1
  O  O41  1  0.62299100  0.29475400  0.64766100  1
  O  O42  1  0.70215400  0.37687800  0.35183700  1
  O  O43  1  0.37614100  0.70093400  0.35075300  1
  O  O44  1  0.97418000  0.68317800  0.55437600  1
  O  O45  1  0.75024900  0.94574400  0.60170600  1
  O  O46  1  0.03643000  0.28172400  0.41746800  1
  O  O47  1  0.28531600  0.03573600  0.40677400  1
  O  O48  1  0.79101400  0.83167000  0.37699100  1
  O  O49  1  0.19493600  0.17544000  0.61904800  1
