# generated using pymatgen
data_In2CuAgSe4
_symmetry_space_group_name_H-M   'P 1'
_cell_length_a   7.33068403
_cell_length_b   7.33068403
_cell_length_c   7.33068403
_cell_angle_alpha   131.30871689
_cell_angle_beta   131.30871689
_cell_angle_gamma   71.32304943
_symmetry_Int_Tables_number   1
_chemical_formula_structural   In2CuAgSe4
_chemical_formula_sum   'In2 Cu1 Ag1 Se4'
_cell_volume   217.57269426
_cell_formula_units_Z   1
loop_
 _symmetry_equiv_pos_site_id
 _symmetry_equiv_pos_as_xyz
  1  'x, y, z'
loop_
 _atom_site_type_symbol
 _atom_site_label
 _atom_site_symmetry_multiplicity
 _atom_site_fract_x
 _atom_site_fract_y
 _atom_site_fract_z
 _atom_site_occupancy
  In  In0  1  0.75000000  0.25000000  0.50000000  1
  In  In1  1  0.50000000  0.50000000  0.00000000  1
  Cu  Cu2  1  0.00000000  0.00000000  0.00000000  1
  Ag  Ag3  1  0.25000000  0.75000000  0.50000000  1
  Se  Se4  1  0.11700900  0.11817800  0.47145700  1
  Se  Se5  1  0.64672100  0.64555200  0.52854300  1
  Se  Se6  1  0.35444800  0.88299100  0.00117000  1
  Se  Se7  1  0.88182200  0.35327900  0.99883000  1
