# generated using pymatgen
data_SrLa7ZnCu3O16
_symmetry_space_group_name_H-M   'P 1'
_cell_length_a   10.81007083
_cell_length_b   5.46383995
_cell_length_c   7.06609711
_cell_angle_alpha   89.52853010
_cell_angle_beta   67.49876753
_cell_angle_gamma   89.96294536
_symmetry_Int_Tables_number   1
_chemical_formula_structural   SrLa7ZnCu3O16
_chemical_formula_sum   'Sr1 La7 Zn1 Cu3 O16'
_cell_volume   385.56827342
_cell_formula_units_Z   1
loop_
 _symmetry_equiv_pos_site_id
 _symmetry_equiv_pos_as_xyz
  1  'x, y, z'
loop_
 _atom_site_type_symbol
 _atom_site_label
 _atom_site_symmetry_multiplicity
 _atom_site_fract_x
 _atom_site_fract_y
 _atom_site_fract_z
 _atom_site_occupancy
  Sr  Sr0  1  0.92988700  0.49848000  0.27876500  1
  La  La1  1  0.17497500  0.98222300  0.27802100  1
  La  La2  1  0.06686000  0.49258800  0.72535500  1
  La  La3  1  0.42913200  0.50644700  0.28054100  1
  La  La4  1  0.32005100  0.01462700  0.71873200  1
  La  La5  1  0.68466000  0.98277000  0.27788600  1
  La  La6  1  0.57299400  0.49298800  0.72065900  1
  La  La7  1  0.82189200  0.01671300  0.71876300  1
  Zn  Zn8  1  0.49789600  0.99938600  0.00709800  1
  Cu  Cu9  1  0.99862400  0.99839100  0.00604800  1
  Cu  Cu10  1  0.24879100  0.49930200  0.99738500  1
  Cu  Cu11  1  0.75204800  0.49879100  0.99792800  1
  O  O12  1  0.13516800  0.75169300  0.97854600  1
  O  O13  1  0.16570600  0.55172500  0.37738800  1
  O  O14  1  0.08787400  0.03542500  0.63682900  1
  O  O15  1  0.37628100  0.74369000  0.98056400  1
  O  O16  1  0.12770200  0.25057600  0.00018600  1
  O  O17  1  0.41016400  0.96812500  0.35495300  1
  O  O18  1  0.34522700  0.45035900  0.62459000  1
  O  O19  1  0.63413800  0.75033300  0.98916900  1
  O  O20  1  0.36468500  0.24899300  0.01334500  1
  O  O21  1  0.64779500  0.54967600  0.37769100  1
  O  O22  1  0.59059700  0.03397800  0.64240600  1
  O  O23  1  0.87655300  0.74703900  0.98504700  1
  O  O24  1  0.62300800  0.25442500  0.02209800  1
  O  O25  1  0.91355300  0.98178900  0.35703500  1
  O  O26  1  0.83618100  0.45451500  0.64437600  1
  O  O27  1  0.86755600  0.24495300  0.00859600  1
