# generated using pymatgen
data_Ho8Sb3O8
_symmetry_space_group_name_H-M   'P 1'
_cell_length_a   6.89146868
_cell_length_b   6.89146868
_cell_length_c   15.01359570
_cell_angle_alpha   73.58383395
_cell_angle_beta   73.58383395
_cell_angle_gamma   31.68448159
_symmetry_Int_Tables_number   1
_chemical_formula_structural   Ho8Sb3O8
_chemical_formula_sum   'Ho8 Sb3 O8'
_cell_volume   357.98813441
_cell_formula_units_Z   1
loop_
 _symmetry_equiv_pos_site_id
 _symmetry_equiv_pos_as_xyz
  1  'x, y, z'
loop_
 _atom_site_type_symbol
 _atom_site_label
 _atom_site_symmetry_multiplicity
 _atom_site_fract_x
 _atom_site_fract_y
 _atom_site_fract_z
 _atom_site_occupancy
  Ho  Ho0  1  0.45481900  0.45434300  0.83094900  1
  Ho  Ho1  1  0.54565700  0.54518100  0.16905100  1
  Ho  Ho2  1  0.64340300  0.64341500  0.56911200  1
  Ho  Ho3  1  0.35658500  0.35659700  0.43088800  1
  Ho  Ho4  1  0.87773100  0.87786200  0.65250400  1
  Ho  Ho5  1  0.12213800  0.12226900  0.34749600  1
  Ho  Ho6  1  0.71975700  0.72055800  0.91155000  1
  Ho  Ho7  1  0.27944200  0.28024300  0.08845000  1
  Sb  Sb8  1  0.17227600  0.17049200  0.73331700  1
  Sb  Sb9  1  0.82950800  0.82772400  0.26668300  1
  Sb  Sb10  1  0.95300600  0.04699400  0.00000000  1
  O  O11  1  0.29458900  0.29803000  0.93373300  1
  O  O12  1  0.70197000  0.70541100  0.06626700  1
  O  O13  1  0.88201100  0.88382000  0.79813000  1
  O  O14  1  0.11618000  0.11798900  0.20187000  1
  O  O15  1  0.16502600  0.16463600  0.48595200  1
  O  O16  1  0.83536400  0.83497400  0.51404800  1
  O  O17  1  0.46981300  0.46967600  0.63083500  1
  O  O18  1  0.53032400  0.53018700  0.36916500  1
