# generated using pymatgen
data_K6Ba2CaU6O24
_symmetry_space_group_name_H-M   'P 1'
_cell_length_a   7.60002482
_cell_length_b   7.60002482
_cell_length_c   12.30367779
_cell_angle_alpha   90.00000000
_cell_angle_beta   90.00000000
_cell_angle_gamma   109.96279885
_symmetry_Int_Tables_number   1
_chemical_formula_structural   K6Ba2CaU6O24
_chemical_formula_sum   'K6 Ba2 Ca1 U6 O24'
_cell_volume   667.96439759
_cell_formula_units_Z   1
loop_
 _symmetry_equiv_pos_site_id
 _symmetry_equiv_pos_as_xyz
  1  'x, y, z'
loop_
 _atom_site_type_symbol
 _atom_site_label
 _atom_site_symmetry_multiplicity
 _atom_site_fract_x
 _atom_site_fract_y
 _atom_site_fract_z
 _atom_site_occupancy
  K  K0  1  0.50000000  0.00000000  0.00000000  1
  K  K1  1  0.00000000  0.50000000  0.00000000  1
  K  K2  1  0.73483400  0.73483400  0.25791700  1
  K  K3  1  0.26516600  0.26516600  0.74208300  1
  K  K4  1  0.26516600  0.26516600  0.25791700  1
  K  K5  1  0.73483400  0.73483400  0.74208300  1
  Ba  Ba6  1  0.00000000  0.50000000  0.50000000  1
  Ba  Ba7  1  0.50000000  0.00000000  0.50000000  1
  Ca  Ca8  1  0.00000000  0.00000000  0.00000000  1
  U  U9  1  0.24722400  0.75277600  0.24548400  1
  U  U10  1  0.75277600  0.24722400  0.75451600  1
  U  U11  1  0.00000000  0.00000000  0.50000000  1
  U  U12  1  0.50000000  0.50000000  0.00000000  1
  U  U13  1  0.75277600  0.24722400  0.24548400  1
  U  U14  1  0.24722400  0.75277600  0.75451600  1
  O  O15  1  0.37503700  0.62496300  0.12419400  1
  O  O16  1  0.87016800  0.12983200  0.62108100  1
  O  O17  1  0.62496300  0.37503700  0.12419400  1
  O  O18  1  0.12983200  0.87016800  0.62108100  1
  O  O19  1  0.00000000  0.50000000  0.25454700  1
  O  O20  1  0.50000000  0.00000000  0.74545300  1
  O  O21  1  0.87016800  0.12983200  0.37891900  1
  O  O22  1  0.37503700  0.62496300  0.87580600  1
  O  O23  1  0.12983200  0.87016800  0.37891900  1
  O  O24  1  0.62496300  0.37503700  0.87580600  1
  O  O25  1  0.50000000  0.00000000  0.25454700  1
  O  O26  1  0.00000000  0.50000000  0.74545300  1
  O  O27  1  0.86420800  0.13579200  0.13365200  1
  O  O28  1  0.34996000  0.65004000  0.63841500  1
  O  O29  1  0.34996000  0.65004000  0.36158500  1
  O  O30  1  0.86420800  0.13579200  0.86634800  1
  O  O31  1  0.72504100  0.72504100  0.00000000  1
  O  O32  1  0.21855800  0.21855800  0.50000000  1
  O  O33  1  0.65004000  0.34996000  0.36158500  1
  O  O34  1  0.13579200  0.86420800  0.86634800  1
  O  O35  1  0.13579200  0.86420800  0.13365200  1
  O  O36  1  0.65004000  0.34996000  0.63841500  1
  O  O37  1  0.78144200  0.78144200  0.50000000  1
  O  O38  1  0.27495900  0.27495900  0.00000000  1
