# generated using pymatgen
data_In3CuSe5
_symmetry_space_group_name_H-M   'P 1'
_cell_length_a   5.89087300
_cell_length_b   7.21042881
_cell_length_c   7.25117712
_cell_angle_alpha   80.34588337
_cell_angle_beta   66.39437564
_cell_angle_gamma   66.10623662
_symmetry_Int_Tables_number   1
_chemical_formula_structural   In3CuSe5
_chemical_formula_sum   'In3 Cu1 Se5'
_cell_volume   258.03372549
_cell_formula_units_Z   1
loop_
 _symmetry_equiv_pos_site_id
 _symmetry_equiv_pos_as_xyz
  1  'x, y, z'
loop_
 _atom_site_type_symbol
 _atom_site_label
 _atom_site_symmetry_multiplicity
 _atom_site_fract_x
 _atom_site_fract_y
 _atom_site_fract_z
 _atom_site_occupancy
  In  In0  1  0.80651100  0.81204500  0.58916600  1
  In  In1  1  0.62335000  0.59862600  0.20129200  1
  In  In2  1  0.39765400  0.38303100  0.80615600  1
  Cu  Cu3  1  0.97848500  0.00897800  0.00242600  1
  Se  Se4  1  0.05678800  0.27019200  0.11709200  1
  Se  Se5  1  0.88201100  0.10408800  0.69692800  1
  Se  Se6  1  0.63540800  0.92901400  0.29122500  1
  Se  Se7  1  0.42132300  0.71823100  0.90606500  1
  Se  Se8  1  0.24847100  0.47579600  0.48965000  1
