# generated using pymatgen
data_In3Cu(AsSe)2
_symmetry_space_group_name_H-M   'P 1'
_cell_length_a   4.28129500
_cell_length_b   4.28129500
_cell_length_c   11.89428100
_cell_angle_alpha   90.00000000
_cell_angle_beta   90.00000000
_cell_angle_gamma   90.00000000
_symmetry_Int_Tables_number   1
_chemical_formula_structural   In3Cu(AsSe)2
_chemical_formula_sum   'In3 Cu1 As2 Se2'
_cell_volume   218.01606750
_cell_formula_units_Z   1
loop_
 _symmetry_equiv_pos_site_id
 _symmetry_equiv_pos_as_xyz
  1  'x, y, z'
loop_
 _atom_site_type_symbol
 _atom_site_label
 _atom_site_symmetry_multiplicity
 _atom_site_fract_x
 _atom_site_fract_y
 _atom_site_fract_z
 _atom_site_occupancy
  In  In0  1  0.50000000  0.50000000  0.76146400  1
  In  In1  1  0.00000000  0.00000000  0.50000000  1
  In  In2  1  0.50000000  0.50000000  0.23853600  1
  Cu  Cu3  1  0.00000000  0.00000000  0.00000000  1
  As  As4  1  0.00000000  0.50000000  0.62997700  1
  As  As5  1  0.50000000  0.00000000  0.37002300  1
  Se  Se6  1  0.00000000  0.50000000  0.10342300  1
  Se  Se7  1  0.50000000  0.00000000  0.89657700  1
