# generated using pymatgen
data_Ho4ReGe8
_symmetry_space_group_name_H-M   'P 1'
_cell_length_a   4.05227200
_cell_length_b   4.24084200
_cell_length_c   15.89244600
_cell_angle_alpha   90.00000000
_cell_angle_beta   90.00000000
_cell_angle_gamma   90.00000000
_symmetry_Int_Tables_number   1
_chemical_formula_structural   Ho4ReGe8
_chemical_formula_sum   'Ho4 Re1 Ge8'
_cell_volume   273.11240433
_cell_formula_units_Z   1
loop_
 _symmetry_equiv_pos_site_id
 _symmetry_equiv_pos_as_xyz
  1  'x, y, z'
loop_
 _atom_site_type_symbol
 _atom_site_label
 _atom_site_symmetry_multiplicity
 _atom_site_fract_x
 _atom_site_fract_y
 _atom_site_fract_z
 _atom_site_occupancy
  Ho  Ho0  1  0.25000000  0.00000000  0.09391800  1
  Ho  Ho1  1  0.25000000  0.50000000  0.60944400  1
  Ho  Ho2  1  0.75000000  0.50000000  0.40188800  1
  Ho  Ho3  1  0.75000000  0.00000000  0.89544900  1
  Re  Re4  1  0.25000000  0.00000000  0.30917500  1
  Ge  Ge5  1  0.25000000  0.00000000  0.46423700  1
  Ge  Ge6  1  0.25000000  0.50000000  0.94329000  1
  Ge  Ge7  1  0.75000000  0.50000000  0.05525100  1
  Ge  Ge8  1  0.75000000  0.00000000  0.56751200  1
  Ge  Ge9  1  0.25000000  0.50000000  0.23038300  1
  Ge  Ge10  1  0.25000000  0.00000000  0.74846100  1
  Ge  Ge11  1  0.75000000  0.00000000  0.22672100  1
  Ge  Ge12  1  0.75000000  0.50000000  0.75427000  1
