# generated using pymatgen
data_KNaV6(PbO3)8
_symmetry_space_group_name_H-M   'P 1'
_cell_length_a   10.29150048
_cell_length_b   10.29150048
_cell_length_c   7.49063400
_cell_angle_alpha   90.00000000
_cell_angle_beta   90.00000000
_cell_angle_gamma   120.00000310
_symmetry_Int_Tables_number   1
_chemical_formula_structural   KNaV6(PbO3)8
_chemical_formula_sum   'K1 Na1 V6 Pb8 O24'
_cell_volume   687.07887063
_cell_formula_units_Z   1
loop_
 _symmetry_equiv_pos_site_id
 _symmetry_equiv_pos_as_xyz
  1  'x, y, z'
loop_
 _atom_site_type_symbol
 _atom_site_label
 _atom_site_symmetry_multiplicity
 _atom_site_fract_x
 _atom_site_fract_y
 _atom_site_fract_z
 _atom_site_occupancy
  K  K0  1  0.33333300  0.66666700  0.48750100  1
  Na  Na1  1  0.00000000  0.00000000  0.01155400  1
  V  V2  1  0.27458300  0.31565400  0.75394300  1
  V  V3  1  0.04107100  0.72541700  0.75394300  1
  V  V4  1  0.68434600  0.95892900  0.75394300  1
  V  V5  1  0.05725000  0.34736700  0.24990500  1
  V  V6  1  0.29011800  0.94275000  0.24990500  1
  V  V7  1  0.65263300  0.70988200  0.24990500  1
  Pb  Pb8  1  0.66541200  0.07661900  0.24855800  1
  Pb  Pb9  1  0.41120800  0.33458800  0.24855800  1
  Pb  Pb10  1  0.92338100  0.58879200  0.24855800  1
  Pb  Pb11  1  0.66997500  0.59124400  0.75094600  1
  Pb  Pb12  1  0.92126900  0.33002500  0.75094600  1
  Pb  Pb13  1  0.40875600  0.07873100  0.75094600  1
  Pb  Pb14  1  0.33333300  0.66666700  0.97513700  1
  Pb  Pb15  1  0.00000000  0.00000000  0.47522900  1
  O  O16  1  0.17394600  0.74586900  0.24627200  1
  O  O17  1  0.57192300  0.82605400  0.24627200  1
  O  O18  1  0.25413100  0.42807700  0.24627200  1
  O  O19  1  0.15775300  0.92285500  0.75147500  1
  O  O20  1  0.76510300  0.84224700  0.75147500  1
  O  O21  1  0.07714500  0.23489700  0.75147500  1
  O  O22  1  0.40999900  0.99487600  0.43141500  1
  O  O23  1  0.58487700  0.59000100  0.43141500  1
  O  O24  1  0.00512400  0.41512300  0.43141500  1
  O  O25  1  0.91908200  0.67222400  0.93370900  1
  O  O26  1  0.75314200  0.08091800  0.93370900  1
  O  O27  1  0.32777600  0.24685800  0.93370900  1
  O  O28  1  0.92557900  0.67288400  0.56768300  1
  O  O29  1  0.74730400  0.07442100  0.56768300  1
  O  O30  1  0.32711600  0.25269600  0.56768300  1
  O  O31  1  0.40927700  0.99524500  0.06670100  1
  O  O32  1  0.58596800  0.59072300  0.06670100  1
  O  O33  1  0.00475500  0.41403200  0.06670100  1
  O  O34  1  0.14269700  0.63115200  0.76320700  1
  O  O35  1  0.48845500  0.85730300  0.76320700  1
  O  O36  1  0.36884800  0.51154500  0.76320700  1
  O  O37  1  0.18680800  0.03599600  0.25296700  1
  O  O38  1  0.84918800  0.81319200  0.25296700  1
  O  O39  1  0.96400400  0.15081200  0.25296700  1
