# generated using pymatgen
data_Hg2CNCl5
_symmetry_space_group_name_H-M   'P 1'
_cell_length_a   9.79918231
_cell_length_b   9.79918231
_cell_length_c   11.03381709
_cell_angle_alpha   56.11805844
_cell_angle_beta   56.11805844
_cell_angle_gamma   42.78748893
_symmetry_Int_Tables_number   1
_chemical_formula_structural   Hg2CNCl5
_chemical_formula_sum   'Hg4 C2 N2 Cl10'
_cell_volume   576.44402350
_cell_formula_units_Z   2
loop_
 _symmetry_equiv_pos_site_id
 _symmetry_equiv_pos_as_xyz
  1  'x, y, z'
loop_
 _atom_site_type_symbol
 _atom_site_label
 _atom_site_symmetry_multiplicity
 _atom_site_fract_x
 _atom_site_fract_y
 _atom_site_fract_z
 _atom_site_occupancy
  Hg  Hg0  1  0.90982700  0.90982700  0.43507100  1
  Hg  Hg1  1  0.09017300  0.09017300  0.56492900  1
  Hg  Hg2  1  0.40980800  0.40980800  0.24529200  1
  Hg  Hg3  1  0.59019200  0.59019200  0.75470800  1
  C  C4  1  0.24812400  0.24812400  0.87523100  1
  C  C5  1  0.75187600  0.75187600  0.12476900  1
  N  N6  1  0.22610900  0.22610900  0.79437400  1
  N  N7  1  0.77389100  0.77389100  0.20562600  1
  Cl  Cl8  1  0.97152000  0.97152000  0.17919500  1
  Cl  Cl9  1  0.02848000  0.02848000  0.82080500  1
  Cl  Cl10  1  0.47179900  0.47179900  0.37829600  1
  Cl  Cl11  1  0.52820100  0.52820100  0.62170400  1
  Cl  Cl12  1  0.00000000  0.50000000  0.50000000  1
  Cl  Cl13  1  0.50000000  0.00000000  0.50000000  1
  Cl  Cl14  1  0.87436400  0.87436400  0.67633900  1
  Cl  Cl15  1  0.12563600  0.12563600  0.32366100  1
  Cl  Cl16  1  0.37431700  0.37431700  0.07429600  1
  Cl  Cl17  1  0.62568300  0.62568300  0.92570400  1
