# generated using pymatgen
data_K2SrTi10O22
_symmetry_space_group_name_H-M   'P 1'
_cell_length_a   8.00560677
_cell_length_b   8.00560677
_cell_length_c   15.70051809
_cell_angle_alpha   77.33396954
_cell_angle_beta   77.33396954
_cell_angle_gamma   27.56374163
_symmetry_Int_Tables_number   1
_chemical_formula_structural   K2SrTi10O22
_chemical_formula_sum   'K2 Sr1 Ti10 O22'
_cell_volume   453.60171675
_cell_formula_units_Z   1
loop_
 _symmetry_equiv_pos_site_id
 _symmetry_equiv_pos_as_xyz
  1  'x, y, z'
loop_
 _atom_site_type_symbol
 _atom_site_label
 _atom_site_symmetry_multiplicity
 _atom_site_fract_x
 _atom_site_fract_y
 _atom_site_fract_z
 _atom_site_occupancy
  K  K0  1  0.51594800  0.51594800  0.45386300  1
  K  K1  1  0.44252000  0.44252000  0.15867300  1
  Sr  Sr2  1  0.55729100  0.55729100  0.83655700  1
  Ti  Ti3  1  0.86076800  0.86076800  0.35786200  1
  Ti  Ti4  1  0.13781100  0.13781100  0.63506500  1
  Ti  Ti5  1  0.79921100  0.79921100  0.56474200  1
  Ti  Ti6  1  0.20377400  0.20377400  0.43259900  1
  Ti  Ti7  1  0.83536400  0.83536400  0.96243200  1
  Ti  Ti8  1  0.16571100  0.16571100  0.03720800  1
  Ti  Ti9  1  0.90154100  0.90154100  0.75190000  1
  Ti  Ti10  1  0.09827200  0.09827200  0.24231800  1
  Ti  Ti11  1  0.75630900  0.75630900  0.16374500  1
  Ti  Ti12  1  0.24499100  0.24499100  0.83655100  1
  O  O13  1  0.69928700  0.69928700  0.04010400  1
  O  O14  1  0.30075300  0.30075300  0.95659700  1
  O  O15  1  0.73236300  0.73236300  0.44214000  1
  O  O16  1  0.26609200  0.26609200  0.55853000  1
  O  O17  1  0.93943400  0.93943400  0.88057700  1
  O  O18  1  0.06741500  0.06741500  0.12289700  1
  O  O19  1  0.66481700  0.66481700  0.63661100  1
  O  O20  1  0.33459100  0.33459100  0.36596500  1
  O  O21  1  0.85780300  0.85780300  0.65143100  1
  O  O22  1  0.14193100  0.14193100  0.34994000  1
  O  O23  1  0.86189200  0.86189200  0.06979200  1
  O  O24  1  0.13391900  0.13391900  0.92882500  1
  O  O25  1  0.81380400  0.81380400  0.24880500  1
  O  O26  1  0.18004600  0.18004600  0.75740900  1
  O  O27  1  0.97952900  0.97952900  0.29639600  1
  O  O28  1  0.02252700  0.02252700  0.71150700  1
  O  O29  1  0.89287100  0.89287100  0.47024200  1
  O  O30  1  0.10494400  0.10494400  0.52904100  1
  O  O31  1  0.77264400  0.77264400  0.84486600  1
  O  O32  1  0.22821700  0.22821700  0.15320200  1
  O  O33  1  0.62523000  0.62523000  0.22988700  1
  O  O34  1  0.37708000  0.37708000  0.77242000  1
