# generated using pymatgen
data_K2Bi8Se13
_symmetry_space_group_name_H-M   'P 1'
_cell_length_a   4.24684700
_cell_length_b   17.78375100
_cell_length_c   18.83415328
_cell_angle_alpha   87.38050251
_cell_angle_beta   90.00000000
_cell_angle_gamma   90.00000000
_symmetry_Int_Tables_number   1
_chemical_formula_structural   K2Bi8Se13
_chemical_formula_sum   'K4 Bi16 Se26'
_cell_volume   1420.96061960
_cell_formula_units_Z   2
loop_
 _symmetry_equiv_pos_site_id
 _symmetry_equiv_pos_as_xyz
  1  'x, y, z'
loop_
 _atom_site_type_symbol
 _atom_site_label
 _atom_site_symmetry_multiplicity
 _atom_site_fract_x
 _atom_site_fract_y
 _atom_site_fract_z
 _atom_site_occupancy
  K  K0  1  0.25000000  0.48956800  0.85188500  1
  K  K1  1  0.75000000  0.51043200  0.14811500  1
  K  K2  1  0.25000000  0.75078800  0.77047700  1
  K  K3  1  0.75000000  0.24921200  0.22952300  1
  Bi  Bi4  1  0.75000000  0.66759000  0.96714600  1
  Bi  Bi5  1  0.25000000  0.33241000  0.03285400  1
  Bi  Bi6  1  0.75000000  0.98498700  0.25427400  1
  Bi  Bi7  1  0.25000000  0.01501300  0.74572600  1
  Bi  Bi8  1  0.25000000  0.10666900  0.48264000  1
  Bi  Bi9  1  0.75000000  0.89333100  0.51736000  1
  Bi  Bi10  1  0.25000000  0.07942700  0.07046000  1
  Bi  Bi11  1  0.75000000  0.92057300  0.92954000  1
  Bi  Bi12  1  0.25000000  0.50825600  0.39973400  1
  Bi  Bi13  1  0.75000000  0.49174400  0.60026600  1
  Bi  Bi14  1  0.75000000  0.30699400  0.45080500  1
  Bi  Bi15  1  0.25000000  0.69300600  0.54919500  1
  Bi  Bi16  1  0.25000000  0.82610700  0.12942700  1
  Bi  Bi17  1  0.75000000  0.17389300  0.87057300  1
  Bi  Bi18  1  0.75000000  0.72247800  0.32019900  1
  Bi  Bi19  1  0.25000000  0.27752200  0.67980100  1
  Se  Se20  1  0.75000000  0.63124100  0.83362600  1
  Se  Se21  1  0.25000000  0.36875900  0.16637400  1
  Se  Se22  1  0.25000000  0.09451400  0.21962900  1
  Se  Se23  1  0.75000000  0.90548600  0.78037100  1
  Se  Se24  1  0.25000000  0.04809100  0.90228100  1
  Se  Se25  1  0.75000000  0.95190900  0.09771900  1
  Se  Se26  1  0.25000000  0.22932800  0.37781100  1
  Se  Se27  1  0.75000000  0.77067200  0.62218900  1
  Se  Se28  1  0.25000000  0.86329800  0.27181100  1
  Se  Se29  1  0.75000000  0.13670200  0.72818900  1
  Se  Se30  1  0.75000000  0.43459400  0.33016300  1
  Se  Se31  1  0.25000000  0.56540600  0.66983700  1
  Se  Se32  1  0.25000000  0.57501000  0.01367400  1
  Se  Se33  1  0.75000000  0.42499000  0.98632600  1
  Se  Se34  1  0.75000000  0.02799800  0.40554000  1
  Se  Se35  1  0.25000000  0.97200200  0.59446000  1
  Se  Se36  1  0.25000000  0.62175500  0.28665700  1
  Se  Se37  1  0.75000000  0.37824500  0.71334300  1
  Se  Se38  1  0.75000000  0.72176300  0.16557900  1
  Se  Se39  1  0.25000000  0.27823700  0.83442100  1
  Se  Se40  1  0.25000000  0.38719600  0.53366800  1
  Se  Se41  1  0.75000000  0.61280400  0.46633200  1
  Se  Se42  1  0.75000000  0.19103500  0.56011600  1
  Se  Se43  1  0.25000000  0.80896500  0.43988400  1
  Se  Se44  1  0.75000000  0.18550900  0.04542300  1
  Se  Se45  1  0.25000000  0.81449100  0.95457700  1
