# generated using pymatgen
data_InCuSnS4
_symmetry_space_group_name_H-M   'P 1'
_cell_length_a   7.48182752
_cell_length_b   7.48182752
_cell_length_c   7.48182752
_cell_angle_alpha   119.88173374
_cell_angle_beta   119.86939929
_cell_angle_gamma   90.21566091
_symmetry_Int_Tables_number   1
_chemical_formula_structural   InCuSnS4
_chemical_formula_sum   'In2 Cu2 Sn2 S8'
_cell_volume   296.70222180
_cell_formula_units_Z   2
loop_
 _symmetry_equiv_pos_site_id
 _symmetry_equiv_pos_as_xyz
  1  'x, y, z'
loop_
 _atom_site_type_symbol
 _atom_site_label
 _atom_site_symmetry_multiplicity
 _atom_site_fract_x
 _atom_site_fract_y
 _atom_site_fract_z
 _atom_site_occupancy
  In  In0  1  0.00000000  0.50000000  0.50000000  1
  In  In1  1  0.50000000  0.50000000  0.00000000  1
  Cu  Cu2  1  0.12839900  0.87839900  0.25000000  1
  Cu  Cu3  1  0.87160100  0.12160100  0.75000000  1
  Sn  Sn4  1  0.50000000  0.00000000  0.00000000  1
  Sn  Sn5  1  0.50000000  0.50000000  0.50000000  1
  S  S6  1  0.25301000  0.24840600  0.00460300  1
  S  S7  1  0.74380300  0.24840600  0.49539700  1
  S  S8  1  0.74397400  0.74003600  0.49606100  1
  S  S9  1  0.74397400  0.24791300  0.00393900  1
  S  S10  1  0.74699000  0.75159400  0.99539700  1
  S  S11  1  0.25619700  0.75159400  0.50460300  1
  S  S12  1  0.25602600  0.25996400  0.50393900  1
  S  S13  1  0.25602600  0.75208700  0.99606100  1
