# generated using pymatgen
data_K6Mo6C5Se8N5
_symmetry_space_group_name_H-M   'P 1'
_cell_length_a   9.56609711
_cell_length_b   9.56609711
_cell_length_c   9.56609711
_cell_angle_alpha   104.69940530
_cell_angle_beta   104.69940530
_cell_angle_gamma   119.50530805
_symmetry_Int_Tables_number   1
_chemical_formula_structural   K6Mo6C5Se8N5
_chemical_formula_sum   'K6 Mo6 C5 Se8 N5'
_cell_volume   658.14433429
_cell_formula_units_Z   1
loop_
 _symmetry_equiv_pos_site_id
 _symmetry_equiv_pos_as_xyz
  1  'x, y, z'
loop_
 _atom_site_type_symbol
 _atom_site_label
 _atom_site_symmetry_multiplicity
 _atom_site_fract_x
 _atom_site_fract_y
 _atom_site_fract_z
 _atom_site_occupancy
  K  K0  1  0.27398500  0.63192400  0.90664900  1
  K  K1  1  0.72527500  0.36733600  0.09335100  1
  K  K2  1  0.63192400  0.72527500  0.35793900  1
  K  K3  1  0.36733600  0.27398500  0.64206100  1
  K  K4  1  0.74990900  0.24990900  0.50000000  1
  K  K5  1  0.24990900  0.74990900  0.50000000  1
  Mo  Mo6  1  0.15369500  0.94674800  0.10049600  1
  Mo  Mo7  1  0.84625300  0.05320000  0.89950400  1
  Mo  Mo8  1  0.94674800  0.84625300  0.79305300  1
  Mo  Mo9  1  0.05320000  0.15369500  0.20694700  1
  Mo  Mo10  1  0.79189400  0.79189400  0.00000000  1
  Mo  Mo11  1  0.20469800  0.20469800  0.00000000  1
  C  C12  1  0.56549200  0.56549200  0.00000000  1
  C  C13  1  0.10549300  0.33204200  0.43810300  1
  C  C14  1  0.89393900  0.66739100  0.56189700  1
  C  C15  1  0.33204200  0.89393900  0.22654900  1
  C  C16  1  0.66739100  0.10549300  0.77345100  1
  Se  Se17  1  0.39078100  0.28704700  0.29463200  1
  Se  Se18  1  0.99241500  0.09614800  0.70536800  1
  Se  Se19  1  0.28704700  0.99241500  0.89626600  1
  Se  Se20  1  0.09614800  0.39078100  0.10373400  1
  Se  Se21  1  0.60900000  0.71268800  0.70542600  1
  Se  Se22  1  0.00726100  0.90357400  0.29457400  1
  Se  Se23  1  0.71268800  0.00726100  0.10368800  1
  Se  Se24  1  0.90357400  0.60900000  0.89631200  1
  N  N25  1  0.13194700  0.43037000  0.56218700  1
  N  N26  1  0.86818300  0.56976100  0.43781300  1
  N  N27  1  0.43037000  0.86818300  0.29842200  1
  N  N28  1  0.56976100  0.13194700  0.70157800  1
  N  N29  1  0.44164200  0.44164200  0.00000000  1
