# generated using pymatgen
data_Ho4FeS7
_symmetry_space_group_name_H-M   'P 1'
_cell_length_a   6.46141902
_cell_length_b   6.46141902
_cell_length_c   11.38245653
_cell_angle_alpha   76.05669684
_cell_angle_beta   76.05669684
_cell_angle_gamma   33.89610463
_symmetry_Int_Tables_number   1
_chemical_formula_structural   Ho4FeS7
_chemical_formula_sum   'Ho4 Fe1 S7'
_cell_volume   256.47678963
_cell_formula_units_Z   1
loop_
 _symmetry_equiv_pos_site_id
 _symmetry_equiv_pos_as_xyz
  1  'x, y, z'
loop_
 _atom_site_type_symbol
 _atom_site_label
 _atom_site_symmetry_multiplicity
 _atom_site_fract_x
 _atom_site_fract_y
 _atom_site_fract_z
 _atom_site_occupancy
  Ho  Ho0  1  0.69366100  0.69366100  0.20793700  1
  Ho  Ho1  1  0.30625300  0.30625300  0.80004300  1
  Ho  Ho2  1  0.99914800  0.99914800  0.00681400  1
  Ho  Ho3  1  0.11238600  0.11238600  0.56354300  1
  Fe  Fe4  1  0.88822800  0.88822800  0.42446400  1
  S  S5  1  0.74541600  0.74541600  0.63715400  1
  S  S6  1  0.27103200  0.27103200  0.35326200  1
  S  S7  1  0.33729700  0.33729700  0.05228700  1
  S  S8  1  0.66023300  0.66023300  0.94836300  1
  S  S9  1  0.03142100  0.03142100  0.22837600  1
  S  S10  1  0.96455000  0.96455000  0.78417400  1
  S  S11  1  0.49037600  0.49037600  0.49358200  1
