data_image0
_chemical_formula_structural       Na6Sn2Zn
_chemical_formula_sum              "Na6 Sn2 Zn1"
_cell_length_a       5.45625
_cell_length_b       5.71853
_cell_length_c       9.34999
_cell_angle_alpha    96.7754
_cell_angle_beta     90
_cell_angle_gamma    118.494

_space_group_name_H-M_alt    "P 1"
_space_group_IT_number       1

loop_
  _space_group_symop_operation_xyz
  'x, y, z'

loop_
  _atom_site_type_symbol
  _atom_site_label
  _atom_site_symmetry_multiplicity
  _atom_site_fract_x
  _atom_site_fract_y
  _atom_site_fract_z
  _atom_site_occupancy
  Na  Na1       1.0  0.70700  0.41400  0.07020  1.0000
  Na  Na2       1.0  0.47000  0.94100  0.27500  1.0000
  Na  Na3       1.0  0.82600  0.65300  0.40900  1.0000
  Na  Na4       1.0  0.17400  0.34700  0.59100  1.0000
  Na  Na5       1.0  0.53000  0.05950  0.72500  1.0000
  Na  Na6       1.0  0.29300  0.58600  0.93000  1.0000
  Sn  Sn1       1.0  0.14600  0.29100  0.25100  1.0000
  Sn  Sn2       1.0  0.85400  0.70900  0.74900  1.0000
  Zn  Zn1       1.0  0.00000  0.00000  0.00000  1.0000
