# generated using pymatgen
data_La12Ga23MoO56
_symmetry_space_group_name_H-M   'P 1'
_cell_length_a   9.79194400
_cell_length_b   9.79479151
_cell_length_c   13.27799302
_cell_angle_alpha   98.44555104
_cell_angle_beta   98.41057147
_cell_angle_gamma   94.62990225
_symmetry_Int_Tables_number   1
_chemical_formula_structural   La12Ga23MoO56
_chemical_formula_sum   'La12 Ga23 Mo1 O56'
_cell_volume   1239.32012731
_cell_formula_units_Z   1
loop_
 _symmetry_equiv_pos_site_id
 _symmetry_equiv_pos_as_xyz
  1  'x, y, z'
loop_
 _atom_site_type_symbol
 _atom_site_label
 _atom_site_symmetry_multiplicity
 _atom_site_fract_x
 _atom_site_fract_y
 _atom_site_fract_z
 _atom_site_occupancy
  La  La0  1  0.35568800  0.93617100  0.64827500  1
  La  La1  1  0.10356100  0.68455400  0.89266800  1
  La  La2  1  0.60520800  0.18551300  0.39604700  1
  La  La3  1  0.85838500  0.42564700  0.14041800  1
  La  La4  1  0.96830500  0.96801800  0.46839200  1
  La  La5  1  0.70948800  0.71008400  0.70919000  1
  La  La6  1  0.20953600  0.20893300  0.20986300  1
  La  La7  1  0.45861600  0.45904000  0.95830600  1
  La  La8  1  0.93659100  0.35638500  0.64714000  1
  La  La9  1  0.68366100  0.10343100  0.89335700  1
  La  La10  1  0.18526800  0.60466100  0.39612000  1
  La  La11  1  0.42557500  0.85876100  0.13995500  1
  Ga  Ga12  1  0.30233300  0.96699800  0.36918500  1
  Ga  Ga13  1  0.04917200  0.71560100  0.61636400  1
  Ga  Ga14  1  0.54682500  0.21832600  0.11679000  1
  Ga  Ga15  1  0.79967300  0.46361100  0.86653800  1
  Ga  Ga16  1  0.70249600  0.03567800  0.63416700  1
  Ga  Ga17  1  0.45139900  0.78322600  0.88328000  1
  Ga  Ga18  1  0.95066000  0.28062400  0.38123000  1
  Ga  Ga19  1  0.19773400  0.53573100  0.13222300  1
  Ga  Ga20  1  0.56195200  0.80363600  0.44043800  1
  Ga  Ga21  1  0.31545800  0.55400700  0.68444300  1
  Ga  Ga22  1  0.81689900  0.05910600  0.18148600  1
  Ga  Ga23  1  0.06521600  0.30256900  0.93311000  1
  Ga  Ga24  1  0.00590700  0.00606900  0.75740800  1
  Ga  Ga25  1  0.75751500  0.75669500  0.99961200  1
  Ga  Ga26  1  0.25882000  0.25665200  0.50609300  1
  Ga  Ga27  1  0.49839000  0.50108300  0.25737000  1
  Ga  Ga28  1  0.55356100  0.31588300  0.68416500  1
  Ga  Ga29  1  0.30292000  0.06736000  0.93441200  1
  Ga  Ga30  1  0.80348400  0.55886300  0.43887400  1
  Ga  Ga31  1  0.05968700  0.81831600  0.18255500  1
  Ga  Ga32  1  0.00041700  0.99979000  0.99966500  1
  Ga  Ga33  1  0.25042600  0.24996600  0.74992700  1
  Ga  Ga34  1  0.49966700  0.49993100  0.50018200  1
  Mo  Mo35  1  0.74998400  0.74985900  0.25042800  1
  O  O36  1  0.20850600  0.87893500  0.45400300  1
  O  O37  1  0.96122900  0.62775700  0.70439400  1
  O  O38  1  0.46220200  0.12533200  0.20393400  1
  O  O39  1  0.71438000  0.38030300  0.95826800  1
  O  O40  1  0.79056100  0.11800000  0.54331200  1
  O  O41  1  0.53978300  0.87153300  0.79572000  1
  O  O42  1  0.03382800  0.37135000  0.29230100  1
  O  O43  1  0.29026600  0.62606900  0.04788200  1
  O  O44  1  0.59608400  0.13898600  0.71610100  1
  O  O45  1  0.34727900  0.88992000  0.96652600  1
  O  O46  1  0.84590800  0.38441100  0.46544200  1
  O  O47  1  0.09219500  0.64035500  0.21565600  1
  O  O48  1  0.57108200  0.88371500  0.57726300  1
  O  O49  1  0.32103000  0.63220800  0.82575400  1
  O  O50  1  0.82013100  0.12852000  0.32333700  1
  O  O51  1  0.06920100  0.38274700  0.07438000  1
  O  O52  1  0.81063200  0.95514200  0.73248000  1
  O  O53  1  0.56290700  0.70781800  0.98440900  1
  O  O54  1  0.06215600  0.20501500  0.48081800  1
  O  O55  1  0.30659400  0.45661700  0.23170400  1
  O  O56  1  0.23323400  0.91993100  0.22723600  1
  O  O57  1  0.97755500  0.66894300  0.47502100  1
  O  O58  1  0.48158400  0.17007400  0.97614000  1
  O  O59  1  0.73159500  0.41832900  0.72598100  1
  O  O60  1  0.48940400  0.94157200  0.36708700  1
  O  O61  1  0.23706600  0.69513700  0.61646700  1
  O  O62  1  0.73597600  0.19677900  0.11748200  1
  O  O63  1  0.98794700  0.44504100  0.86720500  1
  O  O64  1  0.30602600  0.15936900  0.38254700  1
  O  O65  1  0.05363600  0.90933200  0.63329500  1
  O  O66  1  0.55544800  0.41218500  0.13554200  1
  O  O67  1  0.80575500  0.65745300  0.88191000  1
  O  O68  1  0.78948800  0.57317100  0.29361000  1
  O  O69  1  0.02765400  0.80999300  0.04195600  1
  O  O70  1  0.28397300  0.06376600  0.79326800  1
  O  O71  1  0.53343600  0.31373900  0.54278600  1
  O  O72  1  0.99516900  0.06424600  0.15341900  1
  O  O73  1  0.24300900  0.31967200  0.90088200  1
  O  O74  1  0.49260900  0.57036500  0.64998400  1
  O  O75  1  0.73991500  0.82294300  0.39356900  1
  O  O76  1  0.29433000  0.43804400  0.48432200  1
  O  O77  1  0.55246700  0.68572300  0.23116700  1
  O  O78  1  0.79279600  0.94146800  0.99152900  1
  O  O79  1  0.04388700  0.18696100  0.73498600  1
  O  O80  1  0.18967100  0.11057900  0.03255500  1
  O  O81  1  0.43934900  0.36192600  0.78109100  1
  O  O82  1  0.68702200  0.61886100  0.52879100  1
  O  O83  1  0.93490400  0.85261100  0.28131200  1
  O  O84  1  0.68509600  0.90153700  0.18120200  1
  O  O85  1  0.93221100  0.15337300  0.92458500  1
  O  O86  1  0.18297000  0.40389600  0.67424400  1
  O  O87  1  0.43364300  0.65030600  0.41771100  1
  O  O88  1  0.56448100  0.41632200  0.36657100  1
  O  O89  1  0.79839200  0.66537900  0.11901400  1
  O  O90  1  0.05672300  0.91295500  0.86668300  1
  O  O91  1  0.30515100  0.16250600  0.61549100  1
