# generated using pymatgen
data_K6Bi6O19
_symmetry_space_group_name_H-M   'P 1'
_cell_length_a   8.78633831
_cell_length_b   8.78633831
_cell_length_c   10.23883672
_cell_angle_alpha   55.48838275
_cell_angle_beta   55.48838275
_cell_angle_gamma   71.28626389
_symmetry_Int_Tables_number   1
_chemical_formula_structural   K6Bi6O19
_chemical_formula_sum   'K6 Bi6 O19'
_cell_volume   536.70150214
_cell_formula_units_Z   1
loop_
 _symmetry_equiv_pos_site_id
 _symmetry_equiv_pos_as_xyz
  1  'x, y, z'
loop_
 _atom_site_type_symbol
 _atom_site_label
 _atom_site_symmetry_multiplicity
 _atom_site_fract_x
 _atom_site_fract_y
 _atom_site_fract_z
 _atom_site_occupancy
  K  K0  1  0.70870800  0.02846800  0.26398800  1
  K  K1  1  0.97153200  0.29129200  0.73601200  1
  K  K2  1  0.36961600  0.01386600  0.99511400  1
  K  K3  1  0.98613400  0.63038400  0.00488600  1
  K  K4  1  0.33046400  0.00029800  0.66510000  1
  K  K5  1  0.99970200  0.66953600  0.33490000  1
  Bi  Bi6  1  0.33772800  0.66227200  0.50000000  1
  Bi  Bi7  1  0.65661400  0.34338600  0.50000000  1
  Bi  Bi8  1  0.49874500  0.50639100  0.15764400  1
  Bi  Bi9  1  0.49360900  0.50125500  0.84235600  1
  Bi  Bi10  1  0.15642200  0.16229900  0.33916100  1
  Bi  Bi11  1  0.83770100  0.84357800  0.66083900  1
  O  O12  1  0.04044700  0.95955300  0.00000000  1
  O  O13  1  0.35532200  0.64467800  0.00000000  1
  O  O14  1  0.63416900  0.36583100  0.00000000  1
  O  O15  1  0.00616900  0.00270900  0.63461500  1
  O  O16  1  0.99729100  0.99383100  0.36538500  1
  O  O17  1  0.63735300  0.64080200  0.36695200  1
  O  O18  1  0.35919800  0.36264700  0.63304800  1
  O  O19  1  0.28429400  0.29498000  0.37600100  1
  O  O20  1  0.70502000  0.71570600  0.62399900  1
  O  O21  1  0.69968200  0.72852600  0.94877400  1
  O  O22  1  0.27147400  0.30031800  0.05122600  1
  O  O23  1  0.37618600  0.95596600  0.33650800  1
  O  O24  1  0.62255400  0.05226500  0.65430900  1
  O  O25  1  0.94773500  0.37744600  0.34569100  1
  O  O26  1  0.04403400  0.62381400  0.66349200  1
  O  O27  1  0.33094700  0.66660100  0.28930700  1
  O  O28  1  0.65616700  0.33341300  0.71850400  1
  O  O29  1  0.33339900  0.66905300  0.71069300  1
  O  O30  1  0.66658700  0.34383300  0.28149600  1
