# generated using pymatgen
data_K3TaNbCu3S8
_symmetry_space_group_name_H-M   'P 1'
_cell_length_a   12.24606874
_cell_length_b   12.24606874
_cell_length_c   14.48548198
_cell_angle_alpha   60.50630743
_cell_angle_beta   60.50630743
_cell_angle_gamma   26.37237339
_symmetry_Int_Tables_number   1
_chemical_formula_structural   K3TaNbCu3S8
_chemical_formula_sum   'K6 Ta2 Nb2 Cu6 S16'
_cell_volume   832.50027377
_cell_formula_units_Z   2
loop_
 _symmetry_equiv_pos_site_id
 _symmetry_equiv_pos_as_xyz
  1  'x, y, z'
loop_
 _atom_site_type_symbol
 _atom_site_label
 _atom_site_symmetry_multiplicity
 _atom_site_fract_x
 _atom_site_fract_y
 _atom_site_fract_z
 _atom_site_occupancy
  K  K0  1  0.50003500  0.49991300  0.25005800  1
  K  K1  1  0.50008700  0.49996500  0.74994200  1
  K  K2  1  0.15046300  0.23290400  0.15528000  1
  K  K3  1  0.76709600  0.84953700  0.84472000  1
  K  K4  1  0.84940900  0.76717900  0.34476800  1
  K  K5  1  0.23282100  0.15059100  0.65523200  1
  Ta  Ta6  1  0.09010400  0.65827500  0.02971700  1
  Ta  Ta7  1  0.34172500  0.90989600  0.97028300  1
  Nb  Nb8  1  0.91021400  0.34174900  0.47017800  1
  Nb  Nb9  1  0.65825100  0.08978600  0.52982200  1
  Cu  Cu10  1  0.59295000  0.16078600  0.03167800  1
  Cu  Cu11  1  0.83921400  0.40705000  0.96832200  1
  Cu  Cu12  1  0.40702500  0.83919000  0.46845000  1
  Cu  Cu13  1  0.16081000  0.59297500  0.53155000  1
  Cu  Cu14  1  0.21923900  0.78076100  0.00000000  1
  Cu  Cu15  1  0.78088700  0.21911300  0.50000000  1
  S  S16  1  0.75897200  0.82129200  0.13993500  1
  S  S17  1  0.17870800  0.24102800  0.86006500  1
  S  S18  1  0.24334000  0.17647100  0.35990400  1
  S  S19  1  0.82352900  0.75666000  0.64009500  1
  S  S20  1  0.35774700  0.46027300  0.12308500  1
  S  S21  1  0.53972700  0.64225300  0.87691500  1
  S  S22  1  0.64046600  0.54073200  0.37714700  1
  S  S23  1  0.45926800  0.35953400  0.62285300  1
  S  S24  1  0.94037100  0.98073000  0.91124100  1
  S  S25  1  0.01927000  0.05962900  0.08875900  1
  S  S26  1  0.06054100  0.01773200  0.58867200  1
  S  S27  1  0.98226800  0.93945900  0.41132800  1
  S  S28  1  0.31051000  0.37667600  0.93710000  1
  S  S29  1  0.62332400  0.68949000  0.06290000  1
  S  S30  1  0.68722200  0.62559300  0.56311100  1
  S  S31  1  0.37440700  0.31277800  0.43688900  1
