# generated using pymatgen
data_Ho2CrSbO7
_symmetry_space_group_name_H-M   'P 1'
_cell_length_a   7.27079914
_cell_length_b   7.27079914
_cell_length_c   7.27079914
_cell_angle_alpha   120.24375960
_cell_angle_beta   119.56359845
_cell_angle_gamma   90.16792028
_symmetry_Int_Tables_number   1
_chemical_formula_structural   Ho2CrSbO7
_chemical_formula_sum   'Ho4 Cr2 Sb2 O14'
_cell_volume   272.17121538
_cell_formula_units_Z   2
loop_
 _symmetry_equiv_pos_site_id
 _symmetry_equiv_pos_as_xyz
  1  'x, y, z'
loop_
 _atom_site_type_symbol
 _atom_site_label
 _atom_site_symmetry_multiplicity
 _atom_site_fract_x
 _atom_site_fract_y
 _atom_site_fract_z
 _atom_site_occupancy
  Ho  Ho0  1  0.50000000  0.00000000  0.00000000  1
  Ho  Ho1  1  0.50000000  0.50000000  0.50000000  1
  Ho  Ho2  1  0.50000000  0.00000000  0.50000000  1
  Ho  Ho3  1  0.00000000  0.00000000  0.00000000  1
  Cr  Cr4  1  0.00000000  0.50000000  0.00000000  1
  Cr  Cr5  1  0.00000000  0.00000000  0.50000000  1
  Sb  Sb6  1  0.00000000  0.50000000  0.50000000  1
  Sb  Sb7  1  0.50000000  0.50000000  0.00000000  1
  O  O8  1  0.62192600  0.87192600  0.75000000  1
  O  O9  1  0.37807400  0.12807400  0.25000000  1
  O  O10  1  0.90875400  0.15875400  0.75000000  1
  O  O11  1  0.33388000  0.58388000  0.75000000  1
  O  O12  1  0.91220500  0.58115200  0.74412900  1
  O  O13  1  0.33702200  0.16807600  0.75587100  1
  O  O14  1  0.91220500  0.16807600  0.33105300  1
  O  O15  1  0.33702200  0.58115200  0.16894700  1
  O  O16  1  0.09124600  0.84124600  0.25000000  1
  O  O17  1  0.66612000  0.41612000  0.25000000  1
  O  O18  1  0.08779500  0.41884800  0.25587100  1
  O  O19  1  0.66297800  0.83192400  0.24412900  1
  O  O20  1  0.08779500  0.83192400  0.66894700  1
  O  O21  1  0.66297800  0.41884800  0.83105300  1
