# generated using pymatgen
data_HgPb4
_symmetry_space_group_name_H-M   'P 1'
_cell_length_a   14.61690391
_cell_length_b   14.61690391
_cell_length_c   14.61690303
_cell_angle_alpha   13.83556246
_cell_angle_beta   13.83556246
_cell_angle_gamma   13.83556313
_symmetry_Int_Tables_number   1
_chemical_formula_structural   HgPb4
_chemical_formula_sum   'Hg1 Pb4'
_cell_volume   155.41482852
_cell_formula_units_Z   1
loop_
 _symmetry_equiv_pos_site_id
 _symmetry_equiv_pos_as_xyz
  1  'x, y, z'
loop_
 _atom_site_type_symbol
 _atom_site_label
 _atom_site_symmetry_multiplicity
 _atom_site_fract_x
 _atom_site_fract_y
 _atom_site_fract_z
 _atom_site_occupancy
  Hg  Hg0  1  0.00000000  0.00000000  0.00000000  1
  Pb  Pb1  1  0.60334700  0.60334700  0.60334700  1
  Pb  Pb2  1  0.20107400  0.20107400  0.20107400  1
  Pb  Pb3  1  0.79892600  0.79892600  0.79892600  1
  Pb  Pb4  1  0.39665300  0.39665300  0.39665300  1
