# generated using pymatgen
data_K8Rb2Hg15(GeS4)10
_symmetry_space_group_name_H-M   'P 1'
_cell_length_a   6.54909000
_cell_length_b   9.92379598
_cell_length_c   32.58673904
_cell_angle_alpha   93.11376477
_cell_angle_beta   94.15886346
_cell_angle_gamma   93.90214195
_symmetry_Int_Tables_number   1
_chemical_formula_structural   K8Rb2Hg15(GeS4)10
_chemical_formula_sum   'K8 Rb2 Hg15 Ge10 S40'
_cell_volume   2103.65850833
_cell_formula_units_Z   1
loop_
 _symmetry_equiv_pos_site_id
 _symmetry_equiv_pos_as_xyz
  1  'x, y, z'
loop_
 _atom_site_type_symbol
 _atom_site_label
 _atom_site_symmetry_multiplicity
 _atom_site_fract_x
 _atom_site_fract_y
 _atom_site_fract_z
 _atom_site_occupancy
  K  K0  1  0.06607400  0.77245900  0.12715700  1
  K  K1  1  0.26609700  0.77244500  0.32715500  1
  K  K2  1  0.46610600  0.77246400  0.52716200  1
  K  K3  1  0.66608400  0.77246800  0.72716400  1
  K  K4  1  0.86608300  0.77247000  0.92716400  1
  K  K5  1  0.37638900  0.22746200  0.01221300  1
  K  K6  1  0.97638800  0.22746000  0.61221500  1
  K  K7  1  0.17639300  0.22745000  0.81221100  1
  Rb  Rb8  1  0.57662000  0.22713700  0.21216700  1
  Rb  Rb9  1  0.77663400  0.22713500  0.41217400  1
  Hg  Hg10  1  0.48717600  0.50007900  0.12812400  1
  Hg  Hg11  1  0.68719800  0.50009200  0.32813900  1
  Hg  Hg12  1  0.88730800  0.50001200  0.52819500  1
  Hg  Hg13  1  0.08728900  0.50000600  0.72818000  1
  Hg  Hg14  1  0.28728800  0.50000300  0.92817900  1
  Hg  Hg15  1  0.87436500  0.50000800  0.03140700  1
  Hg  Hg16  1  0.07453500  0.50010300  0.23142100  1
  Hg  Hg17  1  0.27456500  0.50012200  0.43142300  1
  Hg  Hg18  1  0.47439400  0.50002600  0.63140800  1
  Hg  Hg19  1  0.67438900  0.50002900  0.83140800  1
  Hg  Hg20  1  0.61851700  0.99998000  0.09534600  1
  Hg  Hg21  1  0.81854000  0.99980900  0.29538400  1
  Hg  Hg22  1  0.01848600  0.99985000  0.49541100  1
  Hg  Hg23  1  0.21846100  0.00001900  0.69537400  1
  Hg  Hg24  1  0.41846200  0.00001800  0.89537400  1
  Ge  Ge25  1  0.44949300  0.72652600  0.02077400  1
  Ge  Ge26  1  0.64951600  0.72662800  0.22080400  1
  Ge  Ge27  1  0.84951800  0.72663200  0.42080900  1
  Ge  Ge28  1  0.04949700  0.72652800  0.62077800  1
  Ge  Ge29  1  0.24949500  0.72652100  0.82077600  1
  Ge  Ge30  1  0.01029000  0.27353200  0.11418000  1
  Ge  Ge31  1  0.21040900  0.27357400  0.31422500  1
  Ge  Ge32  1  0.41046200  0.27358600  0.51429700  1
  Ge  Ge33  1  0.61034000  0.27353200  0.71425300  1
  Ge  Ge34  1  0.81035000  0.27352400  0.91425300  1
  S  S35  1  0.55261700  0.73930200  0.15307300  1
  S  S36  1  0.75261800  0.73931400  0.35306900  1
  S  S37  1  0.95259800  0.73930500  0.55305700  1
  S  S38  1  0.15259800  0.73929100  0.75305800  1
  S  S39  1  0.35259700  0.73929300  0.95306000  1
  S  S40  1  0.35378800  0.26095700  0.11961200  1
  S  S41  1  0.55378500  0.26103300  0.31987700  1
  S  S42  1  0.75485700  0.26074900  0.52035700  1
  S  S43  1  0.95485800  0.26068200  0.72009300  1
  S  S44  1  0.15485600  0.26068200  0.92009300  1
  S  S45  1  0.31167900  0.54283400  0.04536200  1
  S  S46  1  0.51135200  0.54384400  0.24548000  1
  S  S47  1  0.71132100  0.54383100  0.44547300  1
  S  S48  1  0.91164800  0.54282100  0.64535500  1
  S  S49  1  0.11164800  0.54281800  0.84535600  1
  S  S50  1  0.92010400  0.45721600  0.14671800  1
  S  S51  1  0.12009700  0.45722200  0.34671500  1
  S  S52  1  0.31999300  0.45718300  0.54672900  1
  S  S53  1  0.51999700  0.45716900  0.74673200  1
  S  S54  1  0.71999700  0.45717400  0.94673200  1
  S  S55  1  0.79381800  0.74207900  0.03260500  1
  S  S56  1  0.99378900  0.74207700  0.23260000  1
  S  S57  1  0.19378600  0.74207000  0.43259700  1
  S  S58  1  0.39381500  0.74207400  0.63260200  1
  S  S59  1  0.59381200  0.74207300  0.83260300  1
  S  S60  1  0.88462300  0.25799000  0.04774600  1
  S  S61  1  0.08472100  0.25819400  0.24794800  1
  S  S62  1  0.28491800  0.25818700  0.44796800  1
  S  S63  1  0.48482700  0.25798200  0.64776600  1
  S  S64  1  0.68482800  0.25798100  0.84776500  1
  S  S65  1  0.33136100  0.91974500  0.04933100  1
  S  S66  1  0.53132400  0.91867300  0.24950200  1
  S  S67  1  0.73133700  0.91866600  0.44949800  1
  S  S68  1  0.93137600  0.91973800  0.64932700  1
  S  S69  1  0.13137500  0.91973900  0.84932900  1
  S  S70  1  0.89784900  0.07982600  0.14337700  1
  S  S71  1  0.09790300  0.07983700  0.34337800  1
  S  S72  1  0.29693900  0.08022500  0.54358400  1
  S  S73  1  0.49689100  0.08021600  0.74358300  1
  S  S74  1  0.69689100  0.08021500  0.94358300  1
