# generated using pymatgen
data_K4Ni7(AsO4)6
_symmetry_space_group_name_H-M   'P 1'
_cell_length_a   9.22913949
_cell_length_b   9.22913949
_cell_length_c   6.85747521
_cell_angle_alpha   81.38154452
_cell_angle_beta   81.38154452
_cell_angle_gamma   105.87004726
_symmetry_Int_Tables_number   1
_chemical_formula_structural   K4Ni7(AsO4)6
_chemical_formula_sum   'K4 Ni7 As6 O24'
_cell_volume   544.19363301
_cell_formula_units_Z   1
loop_
 _symmetry_equiv_pos_site_id
 _symmetry_equiv_pos_as_xyz
  1  'x, y, z'
loop_
 _atom_site_type_symbol
 _atom_site_label
 _atom_site_symmetry_multiplicity
 _atom_site_fract_x
 _atom_site_fract_y
 _atom_site_fract_z
 _atom_site_occupancy
  K  K0  1  0.27161800  0.50038100  0.52001700  1
  K  K1  1  0.50038100  0.27161800  0.52001700  1
  K  K2  1  0.69737000  0.69737000  0.53348900  1
  K  K3  1  0.06265300  0.06265300  0.48010600  1
  Ni  Ni4  1  0.00058200  0.00058200  0.99834800  1
  Ni  Ni5  1  0.97630700  0.36387000  0.17630500  1
  Ni  Ni6  1  0.36387000  0.97630700  0.17630500  1
  Ni  Ni7  1  0.01927000  0.63838100  0.82527500  1
  Ni  Ni8  1  0.63838100  0.01927000  0.82527500  1
  Ni  Ni9  1  0.62471500  0.37665100  0.99966600  1
  Ni  Ni10  1  0.37665100  0.62471500  0.99966600  1
  As  As11  1  0.69368200  0.69368200  0.02990800  1
  As  As12  1  0.30509500  0.30509500  0.97836600  1
  As  As13  1  0.71832500  0.09842800  0.27229400  1
  As  As14  1  0.09842800  0.71832500  0.27229400  1
  As  As15  1  0.28388900  0.89622900  0.72579000  1
  As  As16  1  0.89622900  0.28388900  0.72579000  1
  O  O17  1  0.70071000  0.27180900  0.77450100  1
  O  O18  1  0.27180900  0.70071000  0.77450100  1
  O  O19  1  0.29507800  0.72903600  0.22340900  1
  O  O20  1  0.72903600  0.29507800  0.22340900  1
  O  O21  1  0.99139500  0.33529800  0.48167900  1
  O  O22  1  0.33529800  0.99139500  0.48167900  1
  O  O23  1  0.01030100  0.66366000  0.51876900  1
  O  O24  1  0.66366000  0.01030100  0.51876900  1
  O  O25  1  0.78309900  0.59355600  0.88022300  1
  O  O26  1  0.59355600  0.78309900  0.88022300  1
  O  O27  1  0.21527800  0.40685800  0.12433800  1
  O  O28  1  0.40685800  0.21527800  0.12433800  1
  O  O29  1  0.19198500  0.19198500  0.85099100  1
  O  O30  1  0.81189900  0.81189900  0.14454800  1
  O  O31  1  0.91370900  0.12272500  0.19401600  1
  O  O32  1  0.12272500  0.91370900  0.19401600  1
  O  O33  1  0.08846600  0.87666300  0.80376900  1
  O  O34  1  0.87666300  0.08846600  0.80376900  1
  O  O35  1  0.45326700  0.45326700  0.81445500  1
  O  O36  1  0.54450200  0.54450200  0.18842800  1
  O  O37  1  0.99624700  0.40655300  0.86115400  1
  O  O38  1  0.40655300  0.99624700  0.86115400  1
  O  O39  1  0.00402200  0.59483800  0.13472600  1
  O  O40  1  0.59483800  0.00402200  0.13472600  1
