# generated using pymatgen
data_Ho(MnGa)6
_symmetry_space_group_name_H-M   'P 1'
_cell_length_a   8.94153162
_cell_length_b   6.82489245
_cell_length_c   6.71026713
_cell_angle_alpha   82.68894060
_cell_angle_beta   49.20696465
_cell_angle_gamma   48.10409475
_symmetry_Int_Tables_number   1
_chemical_formula_structural   Ho(MnGa)6
_chemical_formula_sum   'Ho1 Mn6 Ga6'
_cell_volume   192.97413513
_cell_formula_units_Z   1
loop_
 _symmetry_equiv_pos_site_id
 _symmetry_equiv_pos_as_xyz
  1  'x, y, z'
loop_
 _atom_site_type_symbol
 _atom_site_label
 _atom_site_symmetry_multiplicity
 _atom_site_fract_x
 _atom_site_fract_y
 _atom_site_fract_z
 _atom_site_occupancy
  Ho  Ho0  1  0.00000000  0.00000000  0.00000000  1
  Mn  Mn1  1  0.00000000  0.00000000  0.50000000  1
  Mn  Mn2  1  0.50000000  0.50000000  0.00000000  1
  Mn  Mn3  1  0.99588900  0.35409500  0.64590500  1
  Mn  Mn4  1  0.00411100  0.64590500  0.35409500  1
  Mn  Mn5  1  0.64590500  0.00411100  0.99588900  1
  Mn  Mn6  1  0.35409500  0.99588900  0.00411100  1
  Ga  Ga7  1  0.50950400  0.26010200  0.73989800  1
  Ga  Ga8  1  0.49049600  0.73989800  0.26010200  1
  Ga  Ga9  1  0.73989800  0.49049600  0.50950400  1
  Ga  Ga10  1  0.26010200  0.50950400  0.49049600  1
  Ga  Ga11  1  0.50000000  0.00000000  0.50000000  1
  Ga  Ga12  1  0.00000000  0.50000000  0.00000000  1
