# generated using pymatgen
data_Na34Cd6Ga92Cu7
_symmetry_space_group_name_H-M   'P 1'
_cell_length_a   15.39642002
_cell_length_b   15.39642017
_cell_length_c   15.39643349
_cell_angle_alpha   65.74149482
_cell_angle_beta   65.74149336
_cell_angle_gamma   65.74147919
_symmetry_Int_Tables_number   1
_chemical_formula_structural   Na34Cd6Ga92Cu7
_chemical_formula_sum   'Na34 Cd6 Ga92 Cu7'
_cell_volume   2902.16306022
_cell_formula_units_Z   1
loop_
 _symmetry_equiv_pos_site_id
 _symmetry_equiv_pos_as_xyz
  1  'x, y, z'
loop_
 _atom_site_type_symbol
 _atom_site_label
 _atom_site_symmetry_multiplicity
 _atom_site_fract_x
 _atom_site_fract_y
 _atom_site_fract_z
 _atom_site_occupancy
  Na  Na0  1  0.13881734  0.13881734  0.13883897  1
  Na  Na1  1  0.86013730  0.86013730  0.86011969  1
  Na  Na2  1  0.38745606  0.75771788  0.38745330  1
  Na  Na3  1  0.75771788  0.38745606  0.38745330  1
  Na  Na4  1  0.38745232  0.38745232  0.75773827  1
  Na  Na5  1  0.61174095  0.24465556  0.61174176  1
  Na  Na6  1  0.24465556  0.61174095  0.61174176  1
  Na  Na7  1  0.61175165  0.61175165  0.24465121  1
  Na  Na8  1  0.39060858  0.99799566  0.39060483  1
  Na  Na9  1  0.99799566  0.39060858  0.39060483  1
  Na  Na10  1  0.39063627  0.39063627  0.99798923  1
  Na  Na11  1  0.60900598  0.00257491  0.60899684  1
  Na  Na12  1  0.00257491  0.60900598  0.60899684  1
  Na  Na13  1  0.60899708  0.60899708  0.00257500  1
  Na  Na14  1  0.87856516  0.21511669  0.21511298  1
  Na  Na15  1  0.21512393  0.21512393  0.87856703  1
  Na  Na16  1  0.21511669  0.87856516  0.21511298  1
  Na  Na17  1  0.12004167  0.78440701  0.78440003  1
  Na  Na18  1  0.78439357  0.78439357  0.12003723  1
  Na  Na19  1  0.78440701  0.12004167  0.78440003  1
  Na  Na20  1  0.33780813  0.00244438  0.79789678  1
  Na  Na21  1  0.00244070  0.79790606  0.33780345  1
  Na  Na22  1  0.79790351  0.33781193  0.00243479  1
  Na  Na23  1  0.00244438  0.33780813  0.79789678  1
  Na  Na24  1  0.33781193  0.79790351  0.00243479  1
  Na  Na25  1  0.79790606  0.00244070  0.33780345  1
  Na  Na26  1  0.66261012  0.99749339  0.20309923  1
  Na  Na27  1  0.99748908  0.20310495  0.66260597  1
  Na  Na28  1  0.20310256  0.66260684  0.99749226  1
  Na  Na29  1  0.99749339  0.66261012  0.20309923  1
  Na  Na30  1  0.66260684  0.20310256  0.99749226  1
  Na  Na31  1  0.20310495  0.99748908  0.66260597  1
  Na  Na32  1  0.24130017  0.24130017  0.24122973  1
  Na  Na33  1  0.75860224  0.75860224  0.75869119  1
  Cd  Cd34  1  0.35358798  0.00015761  0.18684678  1
  Cd  Cd35  1  0.00015671  0.18685420  0.35358538  1
  Cd  Cd36  1  0.18684844  0.35358711  0.00015841  1
  Cd  Cd37  1  0.00015761  0.35358798  0.18684678  1
  Cd  Cd38  1  0.35358711  0.18684844  0.00015841  1
  Cd  Cd39  1  0.18685420  0.00015671  0.35358538  1
  Ga  Ga40  1  0.83271211  0.99520052  0.99519451  1
  Ga  Ga41  1  0.99520213  0.99520213  0.83270463  1
  Ga  Ga42  1  0.99520052  0.83271211  0.99519451  1
  Ga  Ga43  1  0.16756985  0.00346520  0.00346194  1
  Ga  Ga44  1  0.00346380  0.00346380  0.16756671  1
  Ga  Ga45  1  0.00346520  0.16756985  0.00346194  1
  Ga  Ga46  1  0.20502007  0.67915352  0.20501230  1
  Ga  Ga47  1  0.67915352  0.20502007  0.20501230  1
  Ga  Ga48  1  0.20502049  0.20502049  0.67914600  1
  Ga  Ga49  1  0.79616327  0.32231412  0.79615772  1
  Ga  Ga50  1  0.32231412  0.79616327  0.79615772  1
  Ga  Ga51  1  0.79616311  0.79616311  0.32230838  1
  Ga  Ga52  1  0.49519184  0.10240934  0.10240457  1
  Ga  Ga53  1  0.10241237  0.10241237  0.49518218  1
  Ga  Ga54  1  0.10240934  0.49519184  0.10240457  1
  Ga  Ga55  1  0.51566164  0.89402507  0.89401914  1
  Ga  Ga56  1  0.89402304  0.89402304  0.51566115  1
  Ga  Ga57  1  0.89402507  0.51566164  0.89401914  1
  Ga  Ga58  1  0.49141360  0.22683146  0.49141588  1
  Ga  Ga59  1  0.22683146  0.49141360  0.49141588  1
  Ga  Ga60  1  0.49143316  0.49143316  0.22682547  1
  Ga  Ga61  1  0.50732345  0.77322143  0.50732459  1
  Ga  Ga62  1  0.77322143  0.50732345  0.50732459  1
  Ga  Ga63  1  0.50731704  0.50731704  0.77324031  1
  Ga  Ga64  1  0.38186803  0.20890766  0.38185972  1
  Ga  Ga65  1  0.20890766  0.38186803  0.38185972  1
  Ga  Ga66  1  0.38186774  0.38186774  0.20888918  1
  Ga  Ga67  1  0.61606571  0.79254027  0.61605997  1
  Ga  Ga68  1  0.79254027  0.61606571  0.61605997  1
  Ga  Ga69  1  0.61606119  0.61606119  0.79254792  1
  Ga  Ga70  1  0.49820789  0.20188818  0.20188968  1
  Ga  Ga71  1  0.20189348  0.20189348  0.49819711  1
  Ga  Ga72  1  0.20188818  0.49820789  0.20188968  1
  Ga  Ga73  1  0.50269633  0.79798955  0.79798121  1
  Ga  Ga74  1  0.79798529  0.79798529  0.50269424  1
  Ga  Ga75  1  0.79798955  0.50269633  0.79798121  1
  Ga  Ga76  1  0.84023245  0.09983796  0.09983246  1
  Ga  Ga77  1  0.09983951  0.09983951  0.84022726  1
  Ga  Ga78  1  0.09983796  0.84023245  0.09983246  1
  Ga  Ga79  1  0.15784455  0.89858674  0.89858258  1
  Ga  Ga80  1  0.89858535  0.89858535  0.15783643  1
  Ga  Ga81  1  0.89858674  0.15784455  0.89858258  1
  Ga  Ga82  1  0.38361883  0.38361883  0.38360740  1
  Ga  Ga83  1  0.61567216  0.61567216  0.61570103  1
  Ga  Ga84  1  0.38396532  0.67530983  0.21483615  1
  Ga  Ga85  1  0.67531660  0.21481801  0.38396341  1
  Ga  Ga86  1  0.21485143  0.38397009  0.67530000  1
  Ga  Ga87  1  0.67530983  0.38396532  0.21483615  1
  Ga  Ga88  1  0.38397009  0.21485143  0.67530000  1
  Ga  Ga89  1  0.21481801  0.67531660  0.38396341  1
  Ga  Ga90  1  0.61851167  0.32465730  0.78417390  1
  Ga  Ga91  1  0.32466483  0.78416692  0.61850774  1
  Ga  Ga92  1  0.78417629  0.61851188  0.32465979  1
  Ga  Ga93  1  0.32465730  0.61851167  0.78417390  1
  Ga  Ga94  1  0.61851188  0.78417629  0.32465979  1
  Ga  Ga95  1  0.78416692  0.32466483  0.61850774  1
  Ga  Ga96  1  0.37558494  0.57528443  0.09866602  1
  Ga  Ga97  1  0.57528641  0.09866408  0.37558163  1
  Ga  Ga98  1  0.09866976  0.37558172  0.57528162  1
  Ga  Ga99  1  0.57528443  0.37558494  0.09866602  1
  Ga  Ga100  1  0.37558172  0.09866976  0.57528162  1
  Ga  Ga101  1  0.09866408  0.57528641  0.37558163  1
  Ga  Ga102  1  0.62420315  0.42543045  0.90256906  1
  Ga  Ga103  1  0.42543550  0.90257044  0.62419122  1
  Ga  Ga104  1  0.90256893  0.62419766  0.42543165  1
  Ga  Ga105  1  0.42543045  0.62420315  0.90256906  1
  Ga  Ga106  1  0.62419766  0.90256893  0.42543165  1
  Ga  Ga107  1  0.90257044  0.42543550  0.62419122  1
  Ga  Ga108  1  0.45574496  0.82809148  0.10666711  1
  Ga  Ga109  1  0.82809776  0.10666666  0.45574223  1
  Ga  Ga110  1  0.10667584  0.45574183  0.82808253  1
  Ga  Ga111  1  0.82809148  0.45574496  0.10666711  1
  Ga  Ga112  1  0.45574183  0.10667584  0.82808253  1
  Ga  Ga113  1  0.10666666  0.82809776  0.45574223  1
  Ga  Ga114  1  0.55277778  0.16780406  0.88954444  1
  Ga  Ga115  1  0.16780940  0.88954243  0.55277604  1
  Ga  Ga116  1  0.88954516  0.55277893  0.16780309  1
  Ga  Ga117  1  0.16780406  0.55277778  0.88954444  1
  Ga  Ga118  1  0.55277893  0.88954516  0.16780309  1
  Ga  Ga119  1  0.88954243  0.16780940  0.55277604  1
  Ga  Ga120  1  0.66554446  0.99292222  0.99291503  1
  Ga  Ga121  1  0.99292296  0.99292296  0.66553721  1
  Ga  Ga122  1  0.99292222  0.66554446  0.99291503  1
  Ga  Ga123  1  0.33790905  0.00418467  0.00418062  1
  Ga  Ga124  1  0.00418291  0.00418291  0.33790827  1
  Ga  Ga125  1  0.00418467  0.33790905  0.00418062  1
  Ga  Ga126  1  0.65041192  0.99391924  0.81556315  1
  Ga  Ga127  1  0.99391867  0.81557114  0.65040486  1
  Ga  Ga128  1  0.81557253  0.65041127  0.99391008  1
  Ga  Ga129  1  0.99391924  0.65041192  0.81556315  1
  Ga  Ga130  1  0.65041127  0.81557253  0.99391008  1
  Ga  Ga131  1  0.81557114  0.99391867  0.65040486  1
  Cu  Cu132  1  0.39165768  0.55073143  0.39169671  1
  Cu  Cu133  1  0.55073143  0.39165768  0.39169671  1
  Cu  Cu134  1  0.39159277  0.39159277  0.55109671  1
  Cu  Cu135  1  0.60841282  0.44820424  0.60843513  1
  Cu  Cu136  1  0.44820424  0.60841282  0.60843513  1
  Cu  Cu137  1  0.60843979  0.60843979  0.44824516  1
  Cu  Cu138  1  0.49990408  0.49990408  0.49981517  1
