# generated using pymatgen
data_In11S16
_symmetry_space_group_name_H-M   'P 1'
_cell_length_a   7.79560300
_cell_length_b   7.79560300
_cell_length_c   11.03479300
_cell_angle_alpha   90.00000000
_cell_angle_beta   90.00000000
_cell_angle_gamma   90.00000000
_symmetry_Int_Tables_number   1
_chemical_formula_structural   In11S16
_chemical_formula_sum   'In11 S16'
_cell_volume   670.60010770
_cell_formula_units_Z   1
loop_
 _symmetry_equiv_pos_site_id
 _symmetry_equiv_pos_as_xyz
  1  'x, y, z'
loop_
 _atom_site_type_symbol
 _atom_site_label
 _atom_site_symmetry_multiplicity
 _atom_site_fract_x
 _atom_site_fract_y
 _atom_site_fract_z
 _atom_site_occupancy
  In  In0  1  0.74902700  0.50000000  0.86803800  1
  In  In1  1  0.26595300  0.00000000  0.37571700  1
  In  In2  1  0.25097300  0.50000000  0.86803800  1
  In  In3  1  0.73404700  0.00000000  0.37571700  1
  In  In4  1  0.50000000  0.25097300  0.13196200  1
  In  In5  1  0.00000000  0.73404700  0.62428300  1
  In  In6  1  0.50000000  0.74902700  0.13196200  1
  In  In7  1  0.00000000  0.26595300  0.62428300  1
  In  In8  1  0.00000000  0.00000000  0.00000000  1
  In  In9  1  0.50000000  0.00000000  0.74632200  1
  In  In10  1  0.00000000  0.50000000  0.25367800  1
  S  S11  1  0.73624900  0.00000000  0.12862400  1
  S  S12  1  0.23535600  0.50000000  0.63772400  1
  S  S13  1  0.26375100  0.00000000  0.12862400  1
  S  S14  1  0.76464400  0.50000000  0.63772400  1
  S  S15  1  0.50000000  0.76464400  0.36227600  1
  S  S16  1  0.00000000  0.26375100  0.87137600  1
  S  S17  1  0.50000000  0.23535600  0.36227600  1
  S  S18  1  0.00000000  0.73624900  0.87137600  1
  S  S19  1  0.26590400  0.50000000  0.11132800  1
  S  S20  1  0.77515800  0.00000000  0.61780400  1
  S  S21  1  0.73409600  0.50000000  0.11132800  1
  S  S22  1  0.22484200  0.00000000  0.61780400  1
  S  S23  1  0.50000000  0.73409600  0.88867200  1
  S  S24  1  0.00000000  0.22484200  0.38219600  1
  S  S25  1  0.50000000  0.26590400  0.88867200  1
  S  S26  1  0.00000000  0.77515800  0.38219600  1
