# generated using pymatgen
data_In2CuAg(SnS4)2
_symmetry_space_group_name_H-M   'P 1'
_cell_length_a   7.60934693
_cell_length_b   7.60934693
_cell_length_c   7.60934693
_cell_angle_alpha   119.98317484
_cell_angle_beta   119.83935562
_cell_angle_gamma   90.15380697
_symmetry_Int_Tables_number   1
_chemical_formula_structural   In2CuAg(SnS4)2
_chemical_formula_sum   'In2 Cu1 Ag1 Sn2 S8'
_cell_volume   311.96559980
_cell_formula_units_Z   1
loop_
 _symmetry_equiv_pos_site_id
 _symmetry_equiv_pos_as_xyz
  1  'x, y, z'
loop_
 _atom_site_type_symbol
 _atom_site_label
 _atom_site_symmetry_multiplicity
 _atom_site_fract_x
 _atom_site_fract_y
 _atom_site_fract_z
 _atom_site_occupancy
  In  In0  1  0.74858700  0.49955100  0.24903600  1
  In  In1  1  0.25051500  0.49955100  0.75096400  1
  Cu  Cu2  1  0.62226400  0.12226400  0.50000000  1
  Ag  Ag3  1  0.87701100  0.87701100  0.00000000  1
  Sn  Sn4  1  0.25026500  0.50012100  0.24985600  1
  Sn  Sn5  1  0.25026500  0.00040900  0.75014400  1
  S  S6  1  0.47658900  0.74469200  0.73189700  1
  S  S7  1  0.01279500  0.74469200  0.26810300  1
  S  S8  1  0.01160300  0.74589300  0.73429100  1
  S  S9  1  0.01160300  0.27731200  0.26570900  1
  S  S10  1  0.00709000  0.25028400  0.75680600  1
  S  S11  1  0.49347800  0.25028400  0.24319400  1
  S  S12  1  0.49396800  0.24939000  0.75542200  1
  S  S13  1  0.49396800  0.73854500  0.24457800  1
