# generated using pymatgen
data_HfTeSe
_symmetry_space_group_name_H-M   'P 1'
_cell_length_a   3.90069168
_cell_length_b   3.90069168
_cell_length_c   6.73578600
_cell_angle_alpha   90.00000000
_cell_angle_beta   90.00000000
_cell_angle_gamma   119.99999465
_symmetry_Int_Tables_number   1
_chemical_formula_structural   HfTeSe
_chemical_formula_sum   'Hf1 Te1 Se1'
_cell_volume   88.75691221
_cell_formula_units_Z   1
loop_
 _symmetry_equiv_pos_site_id
 _symmetry_equiv_pos_as_xyz
  1  'x, y, z'
loop_
 _atom_site_type_symbol
 _atom_site_label
 _atom_site_symmetry_multiplicity
 _atom_site_fract_x
 _atom_site_fract_y
 _atom_site_fract_z
 _atom_site_occupancy
  Hf  Hf0  1  0.00000000  0.00000000  0.98176600  1
  Te  Te1  1  0.66666700  0.33333300  0.25534400  1
  Se  Se2  1  0.33333300  0.66666700  0.76289000  1
