# generated using pymatgen
data_Hf2V3Ge
_symmetry_space_group_name_H-M   'P 1'
_cell_length_a   5.15472046
_cell_length_b   5.15472046
_cell_length_c   8.56999500
_cell_angle_alpha   90.00000000
_cell_angle_beta   90.00000000
_cell_angle_gamma   120.00000590
_symmetry_Int_Tables_number   1
_chemical_formula_structural   Hf2V3Ge
_chemical_formula_sum   'Hf4 V6 Ge2'
_cell_volume   197.20658447
_cell_formula_units_Z   2
loop_
 _symmetry_equiv_pos_site_id
 _symmetry_equiv_pos_as_xyz
  1  'x, y, z'
loop_
 _atom_site_type_symbol
 _atom_site_label
 _atom_site_symmetry_multiplicity
 _atom_site_fract_x
 _atom_site_fract_y
 _atom_site_fract_z
 _atom_site_occupancy
  Hf  Hf0  1  0.33333300  0.66666700  0.43897500  1
  Hf  Hf1  1  0.66666700  0.33333300  0.56102500  1
  Hf  Hf2  1  0.66666700  0.33333300  0.93897500  1
  Hf  Hf3  1  0.33333300  0.66666700  0.06102500  1
  V  V4  1  0.82206400  0.17793600  0.25000000  1
  V  V5  1  0.82206400  0.64412800  0.25000000  1
  V  V6  1  0.35587200  0.17793600  0.25000000  1
  V  V7  1  0.17793600  0.82206400  0.75000000  1
  V  V8  1  0.17793600  0.35587200  0.75000000  1
  V  V9  1  0.64412800  0.82206400  0.75000000  1
  Ge  Ge10  1  0.00000000  0.00000000  0.50000000  1
  Ge  Ge11  1  0.00000000  0.00000000  0.00000000  1
