# generated using pymatgen
data_GeTe4Pb3
_symmetry_space_group_name_H-M   'P 1'
_cell_length_a   4.56376300
_cell_length_b   4.56376300
_cell_length_c   12.91662400
_cell_angle_alpha   90.00000000
_cell_angle_beta   90.00000000
_cell_angle_gamma   90.00000000
_symmetry_Int_Tables_number   1
_chemical_formula_structural   GeTe4Pb3
_chemical_formula_sum   'Ge1 Te4 Pb3'
_cell_volume   269.02657564
_cell_formula_units_Z   1
loop_
 _symmetry_equiv_pos_site_id
 _symmetry_equiv_pos_as_xyz
  1  'x, y, z'
loop_
 _atom_site_type_symbol
 _atom_site_label
 _atom_site_symmetry_multiplicity
 _atom_site_fract_x
 _atom_site_fract_y
 _atom_site_fract_z
 _atom_site_occupancy
  Ge  Ge0  1  0.00000000  0.00000000  0.00000000  1
  Te  Te1  1  0.00000000  0.00000000  0.23734000  1
  Te  Te2  1  0.50000000  0.50000000  0.00000000  1
  Te  Te3  1  0.00000000  0.00000000  0.76266000  1
  Te  Te4  1  0.50000000  0.50000000  0.50000000  1
  Pb  Pb5  1  0.50000000  0.50000000  0.75304600  1
  Pb  Pb6  1  0.00000000  0.00000000  0.50000000  1
  Pb  Pb7  1  0.50000000  0.50000000  0.24695400  1
