# generated using pymatgen
data_K3Er4(CuTe2)5
_symmetry_space_group_name_H-M   'P 1'
_cell_length_a   4.32884600
_cell_length_b   16.55066900
_cell_length_c   17.66836000
_cell_angle_alpha   90.00000000
_cell_angle_beta   90.00000000
_cell_angle_gamma   90.00000000
_symmetry_Int_Tables_number   1
_chemical_formula_structural   K3Er4(CuTe2)5
_chemical_formula_sum   'K6 Er8 Cu10 Te20'
_cell_volume   1265.85490497
_cell_formula_units_Z   2
loop_
 _symmetry_equiv_pos_site_id
 _symmetry_equiv_pos_as_xyz
  1  'x, y, z'
loop_
 _atom_site_type_symbol
 _atom_site_label
 _atom_site_symmetry_multiplicity
 _atom_site_fract_x
 _atom_site_fract_y
 _atom_site_fract_z
 _atom_site_occupancy
  K  K0  1  0.50000000  0.07999400  0.33596800  1
  K  K1  1  0.50000000  0.42117400  0.66214200  1
  K  K2  1  0.00000000  0.57882600  0.16214200  1
  K  K3  1  0.00000000  0.92000600  0.83596800  1
  K  K4  1  0.50000000  0.24964800  0.49892300  1
  K  K5  1  0.00000000  0.75035200  0.99892300  1
  Er  Er6  1  0.50000000  0.53619800  0.44771800  1
  Er  Er7  1  0.50000000  0.95905300  0.55456700  1
  Er  Er8  1  0.00000000  0.04094700  0.05456700  1
  Er  Er9  1  0.00000000  0.46380200  0.94771800  1
  Er  Er10  1  0.50000000  0.31482600  0.21405500  1
  Er  Er11  1  0.50000000  0.18229800  0.78607300  1
  Er  Er12  1  0.00000000  0.81770200  0.28607300  1
  Er  Er13  1  0.00000000  0.68517400  0.71405500  1
  Cu  Cu14  1  0.50000000  0.59190300  0.84556700  1
  Cu  Cu15  1  0.50000000  0.91047800  0.15454200  1
  Cu  Cu16  1  0.00000000  0.08952200  0.65454200  1
  Cu  Cu17  1  0.00000000  0.40809700  0.34556700  1
  Cu  Cu18  1  0.50000000  0.31236200  0.04261800  1
  Cu  Cu19  1  0.50000000  0.18531500  0.95916200  1
  Cu  Cu20  1  0.00000000  0.81468500  0.45916200  1
  Cu  Cu21  1  0.00000000  0.68763800  0.54261800  1
  Cu  Cu22  1  0.50000000  0.65636300  0.30914100  1
  Cu  Cu23  1  0.00000000  0.34363700  0.80914100  1
  Te  Te24  1  0.50000000  0.57731800  0.99495200  1
  Te  Te25  1  0.50000000  0.92240800  0.00619100  1
  Te  Te26  1  0.00000000  0.07759200  0.50619100  1
  Te  Te27  1  0.00000000  0.42268200  0.49495200  1
  Te  Te28  1  0.50000000  0.88070300  0.39738500  1
  Te  Te29  1  0.50000000  0.61900700  0.60087900  1
  Te  Te30  1  0.00000000  0.38099300  0.10087900  1
  Te  Te31  1  0.00000000  0.11929700  0.89738500  1
  Te  Te32  1  0.50000000  0.48201300  0.28623300  1
  Te  Te33  1  0.50000000  0.02171400  0.71387500  1
  Te  Te34  1  0.00000000  0.97828600  0.21387500  1
  Te  Te35  1  0.00000000  0.51798700  0.78623300  1
  Te  Te36  1  0.50000000  0.33454300  0.89438300  1
  Te  Te37  1  0.50000000  0.16334900  0.10541600  1
  Te  Te38  1  0.00000000  0.83665100  0.60541600  1
  Te  Te39  1  0.00000000  0.66545700  0.39438300  1
  Te  Te40  1  0.50000000  0.74611700  0.18574200  1
  Te  Te41  1  0.50000000  0.74834200  0.81456800  1
  Te  Te42  1  0.00000000  0.25165800  0.31456800  1
  Te  Te43  1  0.00000000  0.25388300  0.68574200  1
