# generated using pymatgen
data_Sr2La2MnZnO8
_symmetry_space_group_name_H-M   'P 1'
_cell_length_a   3.90164770
_cell_length_b   15.57714247
_cell_length_c   6.92097221
_cell_angle_alpha   106.65736036
_cell_angle_beta   106.32711024
_cell_angle_gamma   89.95764597
_symmetry_Int_Tables_number   1
_chemical_formula_structural   Sr2La2MnZnO8
_chemical_formula_sum   'Sr4 La4 Mn2 Zn2 O16'
_cell_volume   385.26889804
_cell_formula_units_Z   2
loop_
 _symmetry_equiv_pos_site_id
 _symmetry_equiv_pos_as_xyz
  1  'x, y, z'
loop_
 _atom_site_type_symbol
 _atom_site_label
 _atom_site_symmetry_multiplicity
 _atom_site_fract_x
 _atom_site_fract_y
 _atom_site_fract_z
 _atom_site_occupancy
  Sr  Sr0  1  0.36016900  0.59073900  0.71519400  1
  Sr  Sr1  1  0.35648800  0.83757600  0.71265800  1
  Sr  Sr2  1  0.64325500  0.41250400  0.28736000  1
  Sr  Sr3  1  0.63960500  0.65908100  0.28455800  1
  La  La4  1  0.35603800  0.08839700  0.72200500  1
  La  La5  1  0.36430800  0.33965500  0.72380700  1
  La  La6  1  0.64375200  0.16154900  0.27796100  1
  La  La7  1  0.63567700  0.91045000  0.27647700  1
  Mn  Mn8  1  0.00168800  0.50198900  0.00171600  1
  Mn  Mn9  1  0.99824000  0.74795700  0.99813300  1
  Zn  Zn10  1  0.99275800  0.99685400  0.99035800  1
  Zn  Zn11  1  0.00737800  0.25315400  0.01005100  1
  O  O12  1  0.17223300  0.04336400  0.36092800  1
  O  O13  1  0.18330600  0.28714700  0.35968700  1
  O  O14  1  0.16191800  0.54006800  0.31498500  1
  O  O15  1  0.15882900  0.79572300  0.31795700  1
  O  O16  1  0.50222500  0.00019300  0.00959600  1
  O  O17  1  0.49767100  0.24981800  0.99032900  1
  O  O18  1  0.49772400  0.49857500  0.99298800  1
  O  O19  1  0.50257300  0.75147200  0.00722700  1
  O  O20  1  0.82780100  0.20644000  0.63877800  1
  O  O21  1  0.84110500  0.45452500  0.68222500  1
  O  O22  1  0.83838100  0.70974300  0.68478900  1
  O  O23  1  0.81674900  0.96286100  0.64032100  1
  O  O24  1  0.99997600  0.12507500  0.00008100  1
  O  O25  1  0.99745000  0.37954900  0.99588500  1
  O  O26  1  0.00035300  0.62506100  0.00032700  1
  O  O27  1  0.00235300  0.87048200  0.00361700  1
