# generated using pymatgen
data_HoScGe
_symmetry_space_group_name_H-M   'P 1'
_cell_length_a   6.18698001
_cell_length_b   8.68830372
_cell_length_c   9.17511736
_cell_angle_alpha   121.88576804
_cell_angle_beta   90.00147557
_cell_angle_gamma   90.00367305
_symmetry_Int_Tables_number   1
_chemical_formula_structural   HoScGe
_chemical_formula_sum   'Ho6 Sc6 Ge6'
_cell_volume   418.77974555
_cell_formula_units_Z   6
loop_
 _symmetry_equiv_pos_site_id
 _symmetry_equiv_pos_as_xyz
  1  'x, y, z'
loop_
 _atom_site_type_symbol
 _atom_site_label
 _atom_site_symmetry_multiplicity
 _atom_site_fract_x
 _atom_site_fract_y
 _atom_site_fract_z
 _atom_site_occupancy
  Ho  Ho0  1  0.75006800  0.26796800  0.97535300  1
  Ho  Ho1  1  0.74997400  0.73206500  0.70736600  1
  Ho  Ho2  1  0.75002200  0.99999200  0.30287000  1
  Ho  Ho3  1  0.24992900  0.74304000  0.00386900  1
  Ho  Ho4  1  0.25000100  0.25736200  0.26094500  1
  Ho  Ho5  1  0.25001900  0.00005100  0.74763500  1
  Sc  Sc6  1  0.50166500  0.31328600  0.65780900  1
  Sc  Sc7  1  0.50161300  0.68640600  0.34439200  1
  Sc  Sc8  1  0.99835700  0.68643800  0.34437000  1
  Sc  Sc9  1  0.99836300  0.31332500  0.65779800  1
  Sc  Sc10  1  0.74989200  0.63271100  0.99513300  1
  Sc  Sc11  1  0.74999100  0.36707300  0.36250500  1
  Ge  Ge12  1  0.54412100  0.00011200  0.02010500  1
  Ge  Ge13  1  0.95587100  0.00010000  0.02009200  1
  Ge  Ge14  1  0.75000400  0.99996300  0.61501500  1
  Ge  Ge15  1  0.25012900  0.40185000  0.98973100  1
  Ge  Ge16  1  0.24999400  0.59831100  0.58821500  1
  Ge  Ge17  1  0.24999000  0.99994800  0.40679600  1
