# generated using pymatgen
data_K3Rb5(Mo3O10)4
_symmetry_space_group_name_H-M   'P 1'
_cell_length_a   8.42291966
_cell_length_b   11.18530207
_cell_length_c   11.54105167
_cell_angle_alpha   95.05812692
_cell_angle_beta   82.30469349
_cell_angle_gamma   101.69663086
_symmetry_Int_Tables_number   1
_chemical_formula_structural   K3Rb5(Mo3O10)4
_chemical_formula_sum   'K3 Rb5 Mo12 O40'
_cell_volume   1053.06066199
_cell_formula_units_Z   1
loop_
 _symmetry_equiv_pos_site_id
 _symmetry_equiv_pos_as_xyz
  1  'x, y, z'
loop_
 _atom_site_type_symbol
 _atom_site_label
 _atom_site_symmetry_multiplicity
 _atom_site_fract_x
 _atom_site_fract_y
 _atom_site_fract_z
 _atom_site_occupancy
  K  K0  1  0.33328900  0.31053200  0.46355800  1
  K  K1  1  0.16674100  0.18949800  0.03644600  1
  K  K2  1  0.66671000  0.68946900  0.53643700  1
  Rb  Rb3  1  0.68139700  0.44698300  0.13999900  1
  Rb  Rb4  1  0.18145000  0.94702600  0.63994800  1
  Rb  Rb5  1  0.31856900  0.55297100  0.86001500  1
  Rb  Rb6  1  0.81858100  0.05298900  0.36003300  1
  Rb  Rb7  1  0.83320500  0.81024400  0.96320800  1
  Mo  Mo8  1  0.34838100  0.91039400  0.94159900  1
  Mo  Mo9  1  0.84779700  0.41031200  0.44152900  1
  Mo  Mo10  1  0.65203400  0.08993800  0.05855600  1
  Mo  Mo11  1  0.15220900  0.58968600  0.55847400  1
  Mo  Mo12  1  0.12925000  0.46316100  0.22747500  1
  Mo  Mo13  1  0.62916400  0.96323500  0.72737900  1
  Mo  Mo14  1  0.87073500  0.53655300  0.77235500  1
  Mo  Mo15  1  0.37071900  0.03681800  0.27252300  1
  Mo  Mo16  1  0.54250700  0.24418100  0.79033800  1
  Mo  Mo17  1  0.04277300  0.74411000  0.29075100  1
  Mo  Mo18  1  0.45718400  0.75580400  0.20986700  1
  Mo  Mo19  1  0.95743900  0.25578300  0.70965200  1
  O  O20  1  0.23859300  0.63856200  0.23332500  1
  O  O21  1  0.73869400  0.13861900  0.73328300  1
  O  O22  1  0.76130700  0.36131300  0.76668700  1
  O  O23  1  0.26136600  0.86142800  0.26673800  1
  O  O24  1  0.44385400  0.32867700  0.90306300  1
  O  O25  1  0.94382100  0.82871900  0.40316300  1
  O  O26  1  0.55514800  0.67076900  0.09740400  1
  O  O27  1  0.05614300  0.17132600  0.59694500  1
  O  O28  1  0.29798900  0.39269200  0.22308200  1
  O  O29  1  0.79796600  0.89284200  0.72272100  1
  O  O30  1  0.70197700  0.60700700  0.77672400  1
  O  O31  1  0.20200200  0.10729800  0.27692400  1
  O  O32  1  0.09046900  0.44529500  0.08196000  1
  O  O33  1  0.59039100  0.94530700  0.58190000  1
  O  O34  1  0.90960800  0.55425000  0.91785000  1
  O  O35  1  0.40953000  0.05470600  0.41803600  1
  O  O36  1  0.94365000  0.57911000  0.31133800  1
  O  O37  1  0.44367100  0.07927700  0.81124600  1
  O  O38  1  0.05632700  0.42079000  0.68867900  1
  O  O39  1  0.55638800  0.92075400  0.18862200  1
  O  O40  1  0.96436600  0.77083700  0.16641400  1
  O  O41  1  0.46397900  0.27093800  0.66585600  1
  O  O42  1  0.03601100  0.22906000  0.83413300  1
  O  O43  1  0.53603500  0.72907900  0.33419800  1
  O  O44  1  0.11876000  0.46622900  0.43525800  1
  O  O45  1  0.61803200  0.96691400  0.93507900  1
  O  O46  1  0.88125400  0.53376800  0.56474300  1
  O  O47  1  0.38121300  0.03384700  0.06489600  1
  O  O48  1  0.31561400  0.77857200  0.02036000  1
  O  O49  1  0.81568800  0.27862900  0.52035000  1
  O  O50  1  0.68435300  0.22148900  0.97963000  1
  O  O51  1  0.18432500  0.72138400  0.47964400  1
  O  O52  1  0.65399600  0.42249800  0.40875600  1
  O  O53  1  0.15538700  0.92322200  0.90834800  1
  O  O54  1  0.34600000  0.57749900  0.59124300  1
  O  O55  1  0.84587600  0.07763800  0.09126000  1
  O  O56  1  0.94140400  0.34451000  0.28754900  1
  O  O57  1  0.44152500  0.84447500  0.78750500  1
  O  O58  1  0.05858600  0.65545800  0.71244200  1
  O  O59  1  0.55857100  0.15552500  0.21250100  1
