# generated using pymatgen
data_Ge5Te4Se
_symmetry_space_group_name_H-M   'P 1'
_cell_length_a   15.39442332
_cell_length_b   15.39442332
_cell_length_c   15.39442332
_cell_angle_alpha   164.30776994
_cell_angle_beta   164.30776994
_cell_angle_gamma   22.26265210
_symmetry_Int_Tables_number   1
_chemical_formula_structural   Ge5Te4Se
_chemical_formula_sum   'Ge5 Te4 Se1'
_cell_volume   266.83931077
_cell_formula_units_Z   1
loop_
 _symmetry_equiv_pos_site_id
 _symmetry_equiv_pos_as_xyz
  1  'x, y, z'
loop_
 _atom_site_type_symbol
 _atom_site_label
 _atom_site_symmetry_multiplicity
 _atom_site_fract_x
 _atom_site_fract_y
 _atom_site_fract_z
 _atom_site_occupancy
  Ge  Ge0  1  0.80000400  0.80000400  0.00000000  1
  Ge  Ge1  1  0.19999600  0.19999600  0.00000000  1
  Ge  Ge2  1  0.59884500  0.59884500  0.00000000  1
  Ge  Ge3  1  0.00000000  0.00000000  0.00000000  1
  Ge  Ge4  1  0.40115500  0.40115500  0.00000000  1
  Te  Te5  1  0.90016100  0.90016100  0.00000000  1
  Te  Te6  1  0.30014600  0.30014600  0.00000000  1
  Te  Te7  1  0.69985400  0.69985400  0.00000000  1
  Te  Te8  1  0.09983900  0.09983900  0.00000000  1
  Se  Se9  1  0.50000000  0.50000000  0.00000000  1
