# generated using pymatgen
data_Ge3Te2Se
_symmetry_space_group_name_H-M   'P 1'
_cell_length_a   4.16410996
_cell_length_b   4.16410996
_cell_length_c   10.22414800
_cell_angle_alpha   90.00000000
_cell_angle_beta   90.00000000
_cell_angle_gamma   119.99999939
_symmetry_Int_Tables_number   1
_chemical_formula_structural   Ge3Te2Se
_chemical_formula_sum   'Ge3 Te2 Se1'
_cell_volume   153.53314306
_cell_formula_units_Z   1
loop_
 _symmetry_equiv_pos_site_id
 _symmetry_equiv_pos_as_xyz
  1  'x, y, z'
loop_
 _atom_site_type_symbol
 _atom_site_label
 _atom_site_symmetry_multiplicity
 _atom_site_fract_x
 _atom_site_fract_y
 _atom_site_fract_z
 _atom_site_occupancy
  Ge  Ge0  1  0.00000000  0.00000000  0.50000000  1
  Ge  Ge1  1  0.33333300  0.66666700  0.15613400  1
  Ge  Ge2  1  0.66666700  0.33333300  0.84386600  1
  Te  Te3  1  0.33333300  0.66666700  0.67014100  1
  Te  Te4  1  0.66666700  0.33333300  0.32985900  1
  Se  Se5  1  0.00000000  0.00000000  0.00000000  1
