# generated using pymatgen
data_Ge2Sb2Te5
_symmetry_space_group_name_H-M   'P 1'
_cell_length_a   7.49494323
_cell_length_b   7.49494323
_cell_length_c   9.67222807
_cell_angle_alpha   49.87555369
_cell_angle_beta   49.87555369
_cell_angle_gamma   48.29368468
_symmetry_Int_Tables_number   1
_chemical_formula_structural   Ge2Sb2Te5
_chemical_formula_sum   'Ge2 Sb2 Te5'
_cell_volume   287.17272559
_cell_formula_units_Z   1
loop_
 _symmetry_equiv_pos_site_id
 _symmetry_equiv_pos_as_xyz
  1  'x, y, z'
loop_
 _atom_site_type_symbol
 _atom_site_label
 _atom_site_symmetry_multiplicity
 _atom_site_fract_x
 _atom_site_fract_y
 _atom_site_fract_z
 _atom_site_occupancy
  Ge  Ge0  1  0.50265700  0.50265700  0.01104400  1
  Ge  Ge1  1  0.71571300  0.71571300  0.18783000  1
  Sb  Sb2  1  0.88813000  0.88813000  0.41735200  1
  Sb  Sb3  1  0.09829200  0.09829200  0.58787300  1
  Te  Te4  1  0.60004100  0.60004100  0.59711800  1
  Te  Te5  1  0.79348100  0.79348100  0.80980300  1
  Te  Te6  1  0.99167600  0.99167600  0.00643500  1
  Te  Te7  1  0.20471200  0.20471200  0.19611200  1
  Te  Te8  1  0.40529800  0.40529800  0.38643300  1
