# generated using pymatgen
data_HoMnGa
_symmetry_space_group_name_H-M   'P 1'
_cell_length_a   8.18765310
_cell_length_b   8.18765310
_cell_length_c   8.18765310
_cell_angle_alpha   128.36768332
_cell_angle_beta   122.08931965
_cell_angle_gamma   81.26026484
_symmetry_Int_Tables_number   1
_chemical_formula_structural   HoMnGa
_chemical_formula_sum   'Ho6 Mn6 Ga6'
_cell_volume   351.29548727
_cell_formula_units_Z   6
loop_
 _symmetry_equiv_pos_site_id
 _symmetry_equiv_pos_as_xyz
  1  'x, y, z'
loop_
 _atom_site_type_symbol
 _atom_site_label
 _atom_site_symmetry_multiplicity
 _atom_site_fract_x
 _atom_site_fract_y
 _atom_site_fract_z
 _atom_site_occupancy
  Ho  Ho0  1  0.95642700  0.52657300  0.07014600  1
  Ho  Ho1  1  0.04357300  0.11371900  0.57014600  1
  Ho  Ho2  1  0.75027900  0.95173400  0.70145500  1
  Ho  Ho3  1  0.24972100  0.95117600  0.20145500  1
  Ho  Ho4  1  0.54678100  0.12026700  0.07348600  1
  Ho  Ho5  1  0.45321900  0.52670500  0.57348600  1
  Mn  Mn6  1  0.33637600  0.86272200  0.52941300  1
  Mn  Mn7  1  0.66362400  0.19303700  0.52634600  1
  Mn  Mn8  1  0.83330900  0.86272200  0.02634600  1
  Mn  Mn9  1  0.16669100  0.19303700  0.02941300  1
  Mn  Mn10  1  0.50000000  0.28946300  0.78946300  1
  Mn  Mn11  1  0.00000000  0.28946300  0.28946300  1
  Ga  Ga12  1  0.75308700  0.52921700  0.27613000  1
  Ga  Ga13  1  0.24691300  0.52304300  0.77613000  1
  Ga  Ga14  1  0.13133800  0.78226000  0.65664000  1
  Ga  Ga15  1  0.86866200  0.52530100  0.65092200  1
  Ga  Ga16  1  0.62562000  0.78226000  0.15092200  1
  Ga  Ga17  1  0.37438000  0.52530100  0.15664000  1
