# generated using pymatgen
data_Sr2La14Mg4Ga12O43
_symmetry_space_group_name_H-M   'P 1'
_cell_length_a   5.56411014
_cell_length_b   5.58067283
_cell_length_c   44.34236611
_cell_angle_alpha   60.69811112
_cell_angle_beta   60.87332539
_cell_angle_gamma   60.40197047
_symmetry_Int_Tables_number   1
_chemical_formula_structural   Sr2La14Mg4Ga12O43
_chemical_formula_sum   'Sr2 La14 Mg4 Ga12 O43'
_cell_volume   988.03803164
_cell_formula_units_Z   1
loop_
 _symmetry_equiv_pos_site_id
 _symmetry_equiv_pos_as_xyz
  1  'x, y, z'
loop_
 _atom_site_type_symbol
 _atom_site_label
 _atom_site_symmetry_multiplicity
 _atom_site_fract_x
 _atom_site_fract_y
 _atom_site_fract_z
 _atom_site_occupancy
  Sr  Sr0  1  0.27210500  0.75977100  0.09038600  1
  Sr  Sr1  1  0.24919600  0.72591700  0.22764300  1
  La  La2  1  0.75879200  0.27254200  0.02615800  1
  La  La3  1  0.73571500  0.28643300  0.15492200  1
  La  La4  1  0.25620700  0.74448600  0.34286100  1
  La  La5  1  0.74020800  0.24174500  0.28669100  1
  La  La6  1  0.24102900  0.75117600  0.46882200  1
  La  La7  1  0.73918100  0.26076100  0.40576600  1
  La  La8  1  0.24921100  0.74821100  0.59351000  1
  La  La9  1  0.74591000  0.25341600  0.53075100  1
  La  La10  1  0.25092300  0.74908400  0.71823400  1
  La  La11  1  0.75122400  0.25367900  0.65526900  1
  La  La12  1  0.25309300  0.74904900  0.84265400  1
  La  La13  1  0.75157200  0.25425900  0.78003300  1
  La  La14  1  0.26010100  0.74669900  0.96659600  1
  La  La15  1  0.75169500  0.25813700  0.90413700  1
  Mg  Mg16  1  0.55726900  0.95878200  0.12467000  1
  Mg  Mg17  1  0.54863600  0.97012800  0.25294100  1
  Mg  Mg18  1  0.96134700  0.54973900  0.06109500  1
  Mg  Mg19  1  0.94160200  0.57812200  0.18800700  1
  Ga  Ga20  1  0.50901200  0.99436100  0.99863700  1
  Ga  Ga21  1  0.49363800  0.00293200  0.49988400  1
  Ga  Ga22  1  0.48398600  0.99896600  0.37610000  1
  Ga  Ga23  1  0.02157200  0.47008500  0.31539000  1
  Ga  Ga24  1  0.50038200  0.00061000  0.62464800  1
  Ga  Ga25  1  0.98495000  0.50530200  0.43762200  1
  Ga  Ga26  1  0.99843000  0.50122300  0.56219900  1
  Ga  Ga27  1  0.50289600  0.00415400  0.87353300  1
  Ga  Ga28  1  0.50160300  0.00167800  0.74930700  1
  Ga  Ga29  1  0.00076100  0.50147800  0.68701900  1
  Ga  Ga30  1  0.00266300  0.50223800  0.81151900  1
  Ga  Ga31  1  0.00582200  0.50488400  0.93551100  1
  O  O32  1  0.30913500  0.68315200  0.03101800  1
  O  O33  1  0.72198200  0.28416300  0.10222200  1
  O  O34  1  0.29511000  0.69425700  0.16398100  1
  O  O35  1  0.83228200  0.70437300  0.01950400  1
  O  O36  1  0.24849300  0.17597300  0.28854500  1
  O  O37  1  0.68664700  0.88001300  0.08034700  1
  O  O38  1  0.80443800  0.25302900  0.22682600  1
  O  O39  1  0.30650500  0.68188800  0.28344400  1
  O  O40  1  0.87374800  0.64747700  0.14525700  1
  O  O41  1  0.22195800  0.18016200  0.41572100  1
  O  O42  1  0.63885600  0.91352500  0.20681300  1
  O  O43  1  0.17374800  0.26123400  0.47715900  1
  O  O44  1  0.67565000  0.29798300  0.34934800  1
  O  O45  1  0.30244200  0.68153000  0.40658400  1
  O  O46  1  0.81432300  0.66977500  0.27968700  1
  O  O47  1  0.24577500  0.17681400  0.54055000  1
  O  O48  1  0.73580700  0.80908500  0.33753900  1
  O  O49  1  0.18234400  0.25943300  0.60197600  1
  O  O50  1  0.67102800  0.32088400  0.47103700  1
  O  O51  1  0.31369800  0.68415200  0.53054600  1
  O  O52  1  0.80669300  0.73337800  0.39859800  1
  O  O53  1  0.25076200  0.17756200  0.66514400  1
  O  O54  1  0.73728300  0.83361800  0.45917600  1
  O  O55  1  0.18254500  0.26030100  0.72679900  1
  O  O56  1  0.68202300  0.31764200  0.59496100  1
  O  O57  1  0.31764100  0.68362200  0.65537500  1
  O  O58  1  0.81446500  0.74139200  0.52264400  1
  O  O59  1  0.25185200  0.17801800  0.78971100  1
  O  O60  1  0.74818600  0.82406000  0.58443400  1
  O  O61  1  0.18630800  0.26341300  0.85092800  1
  O  O62  1  0.68353700  0.31850100  0.71965600  1
  O  O63  1  0.31895000  0.68514000  0.77986800  1
  O  O64  1  0.81890800  0.74160600  0.64747200  1
  O  O65  1  0.25783500  0.17894800  0.91385800  1
  O  O66  1  0.75002900  0.82552300  0.70909300  1
  O  O67  1  0.19629500  0.27572600  0.97449500  1
  O  O68  1  0.68756200  0.31771200  0.84433600  1
  O  O69  1  0.31651000  0.69107500  0.90395200  1
  O  O70  1  0.81972800  0.74225700  0.77213200  1
  O  O71  1  0.75049200  0.82605900  0.83358100  1
  O  O72  1  0.69989100  0.31111800  0.96978900  1
  O  O73  1  0.82059100  0.73415500  0.89647400  1
  O  O74  1  0.73921400  0.83122400  0.95728100  1
