# generated using pymatgen
data_In3Cu3SiSe8
_symmetry_space_group_name_H-M   'P 1'
_cell_length_a   5.88229000
_cell_length_b   5.88229000
_cell_length_c   11.08495200
_cell_angle_alpha   90.00000000
_cell_angle_beta   90.00000000
_cell_angle_gamma   90.00000000
_symmetry_Int_Tables_number   1
_chemical_formula_structural   In3Cu3SiSe8
_chemical_formula_sum   'In3 Cu3 Si1 Se8'
_cell_volume   383.55414475
_cell_formula_units_Z   1
loop_
 _symmetry_equiv_pos_site_id
 _symmetry_equiv_pos_as_xyz
  1  'x, y, z'
loop_
 _atom_site_type_symbol
 _atom_site_label
 _atom_site_symmetry_multiplicity
 _atom_site_fract_x
 _atom_site_fract_y
 _atom_site_fract_z
 _atom_site_occupancy
  In  In0  1  0.50000000  0.00000000  0.26613500  1
  In  In1  1  0.00000000  0.50000000  0.73386500  1
  In  In2  1  0.50000000  0.50000000  0.00000000  1
  Cu  Cu3  1  0.00000000  0.50000000  0.26407700  1
  Cu  Cu4  1  0.50000000  0.00000000  0.73592300  1
  Cu  Cu5  1  0.00000000  0.00000000  0.00000000  1
  Si  Si6  1  0.00000000  0.00000000  0.50000000  1
  Se  Se7  1  0.77328500  0.26011600  0.39824900  1
  Se  Se8  1  0.25065300  0.77809900  0.86744000  1
  Se  Se9  1  0.22671500  0.73988400  0.39824900  1
  Se  Se10  1  0.74934700  0.22190100  0.86744000  1
  Se  Se11  1  0.22190100  0.25065300  0.13256000  1
  Se  Se12  1  0.73988400  0.77328500  0.60175100  1
  Se  Se13  1  0.77809900  0.74934700  0.13256000  1
  Se  Se14  1  0.26011600  0.22671500  0.60175100  1
