# generated using pymatgen
data_GdY(WO4)3
_symmetry_space_group_name_H-M   'P 1'
_cell_length_a   6.98111806
_cell_length_b   6.98111806
_cell_length_c   11.46443414
_cell_angle_alpha   79.15298992
_cell_angle_beta   79.15298992
_cell_angle_gamma   111.73754675
_symmetry_Int_Tables_number   1
_chemical_formula_structural   GdY(WO4)3
_chemical_formula_sum   'Gd2 Y2 W6 O24'
_cell_volume   488.93765223
_cell_formula_units_Z   2
loop_
 _symmetry_equiv_pos_site_id
 _symmetry_equiv_pos_as_xyz
  1  'x, y, z'
loop_
 _atom_site_type_symbol
 _atom_site_label
 _atom_site_symmetry_multiplicity
 _atom_site_fract_x
 _atom_site_fract_y
 _atom_site_fract_z
 _atom_site_occupancy
  Gd  Gd0  1  0.21243600  0.45896400  0.84423500  1
  Gd  Gd1  1  0.54103600  0.78756400  0.15576500  1
  Y  Y2  1  0.78750200  0.54193300  0.65608900  1
  Y  Y3  1  0.45806700  0.21249800  0.34391100  1
  W  W4  1  0.03849000  0.25012800  0.20463100  1
  W  W5  1  0.74987200  0.96151000  0.79536900  1
  W  W6  1  0.95947100  0.74774900  0.29823100  1
  W  W7  1  0.25225100  0.04052900  0.70176900  1
  W  W8  1  0.63343600  0.36656400  0.00000000  1
  W  W9  1  0.36644700  0.63355300  0.50000000  1
  O  O10  1  0.04248800  0.39600000  0.05289200  1
  O  O11  1  0.60400000  0.95751200  0.94710800  1
  O  O12  1  0.95420600  0.60202700  0.45017000  1
  O  O13  1  0.39797300  0.04579400  0.54983000  1
  O  O14  1  0.89306700  0.97087200  0.17896800  1
  O  O15  1  0.02912800  0.10693300  0.82103200  1
  O  O16  1  0.10747200  0.02765700  0.32321400  1
  O  O17  1  0.97234300  0.89252800  0.67678600  1
  O  O18  1  0.26937300  0.83470200  0.81224500  1
  O  O19  1  0.16529800  0.73062700  0.18775500  1
  O  O20  1  0.73516100  0.16923600  0.68496600  1
  O  O21  1  0.83076400  0.26483900  0.31503400  1
  O  O22  1  0.83753100  0.41857000  0.85541700  1
  O  O23  1  0.58143000  0.16246900  0.14458300  1
  O  O24  1  0.15910300  0.58181200  0.64284600  1
  O  O25  1  0.41818800  0.84089700  0.35715400  1
  O  O26  1  0.37454100  0.29190500  0.97149200  1
  O  O27  1  0.70809500  0.62545900  0.02850800  1
  O  O28  1  0.62410100  0.70655700  0.53041700  1
  O  O29  1  0.29344300  0.37589900  0.46958300  1
  O  O30  1  0.58302700  0.68540500  0.78570000  1
  O  O31  1  0.31459500  0.41697300  0.21430000  1
  O  O32  1  0.42069600  0.31503300  0.71271800  1
  O  O33  1  0.68496700  0.57930400  0.28728200  1
