# generated using pymatgen
data_H3CNO2
_symmetry_space_group_name_H-M   'P 1'
_cell_length_a   3.68914926
_cell_length_b   5.53899479
_cell_length_c   13.61673700
_cell_angle_alpha   90.00000000
_cell_angle_beta   90.00000000
_cell_angle_gamma   108.85436430
_symmetry_Int_Tables_number   1
_chemical_formula_structural   H3CNO2
_chemical_formula_sum   'H12 C4 N4 O8'
_cell_volume   263.31696024
_cell_formula_units_Z   4
loop_
 _symmetry_equiv_pos_site_id
 _symmetry_equiv_pos_as_xyz
  1  'x, y, z'
loop_
 _atom_site_type_symbol
 _atom_site_label
 _atom_site_symmetry_multiplicity
 _atom_site_fract_x
 _atom_site_fract_y
 _atom_site_fract_z
 _atom_site_occupancy
  H  H0  1  0.16298700  0.76595300  0.74754200  1
  H  H1  1  0.83701300  0.23404700  0.24754200  1
  H  H2  1  0.79615200  0.01403500  0.68985200  1
  H  H3  1  0.20384800  0.98596500  0.18985200  1
  H  H4  1  0.21792600  0.99475000  0.31196400  1
  H  H5  1  0.78207400  0.00524900  0.81196400  1
  H  H6  1  0.74754100  0.58215000  0.68827600  1
  H  H7  1  0.25245900  0.41785000  0.18827600  1
  H  H8  1  0.24130600  0.41177300  0.31260400  1
  H  H9  1  0.75869400  0.58822700  0.81260400  1
  H  H10  1  0.99349800  0.98254500  0.50028800  1
  H  H11  1  0.00650200  0.01745500  0.00028800  1
  C  C12  1  0.37943700  0.36005200  0.52516200  1
  C  C13  1  0.62056300  0.63994800  0.02516200  1
  C  C14  1  0.60777200  0.61808800  0.47606500  1
  C  C15  1  0.39222800  0.38191200  0.97606500  1
  N  N16  1  0.68915300  0.90002000  0.74946300  1
  N  N17  1  0.31084700  0.09998000  0.24946300  1
  N  N18  1  0.85864700  0.69818200  0.74927800  1
  N  N19  1  0.14135300  0.30181800  0.24927800  1
  O  O20  1  0.16062000  0.19811000  0.46488000  1
  O  O21  1  0.83938000  0.80189000  0.96488000  1
  O  O22  1  0.83741500  0.78011900  0.53524500  1
  O  O23  1  0.16258500  0.21988100  0.03524500  1
  O  O24  1  0.41655000  0.32743100  0.61505800  1
  O  O25  1  0.58345000  0.67256900  0.11505800  1
  O  O26  1  0.56186400  0.65384100  0.38732300  1
  O  O27  1  0.43813600  0.34615900  0.88732300  1
