# generated using pymatgen
data_Ho2Fe17C
_symmetry_space_group_name_H-M   'P 1'
_cell_length_a   8.24986500
_cell_length_b   8.51404110
_cell_length_c   8.53877109
_cell_angle_alpha   119.90410991
_cell_angle_beta   90.00000000
_cell_angle_gamma   90.00000000
_symmetry_Int_Tables_number   1
_chemical_formula_structural   Ho2Fe17C
_chemical_formula_sum   'Ho4 Fe34 C2'
_cell_volume   519.90909426
_cell_formula_units_Z   2
loop_
 _symmetry_equiv_pos_site_id
 _symmetry_equiv_pos_as_xyz
  1  'x, y, z'
loop_
 _atom_site_type_symbol
 _atom_site_label
 _atom_site_symmetry_multiplicity
 _atom_site_fract_x
 _atom_site_fract_y
 _atom_site_fract_z
 _atom_site_occupancy
  Ho  Ho0  1  0.75000000  0.33110800  0.66221800  1
  Ho  Ho1  1  0.25000000  0.66681000  0.33362100  1
  Ho  Ho2  1  0.75000000  0.00307800  0.00621400  1
  Ho  Ho3  1  0.25000000  0.99953400  0.99906100  1
  Fe  Fe4  1  0.75000000  0.94984800  0.62048800  1
  Fe  Fe5  1  0.75000000  0.67179800  0.05068100  1
  Fe  Fe6  1  0.75000000  0.37153900  0.32913700  1
  Fe  Fe7  1  0.75000000  0.67060000  0.62043700  1
  Fe  Fe8  1  0.75000000  0.37892500  0.05075100  1
  Fe  Fe9  1  0.75000000  0.95760800  0.32912700  1
  Fe  Fe10  1  0.25000000  0.04049000  0.36898500  1
  Fe  Fe11  1  0.25000000  0.32783000  0.95918000  1
  Fe  Fe12  1  0.25000000  0.62967500  0.67156900  1
  Fe  Fe13  1  0.25000000  0.32849600  0.36898200  1
  Fe  Fe14  1  0.25000000  0.63134300  0.95916800  1
  Fe  Fe15  1  0.25000000  0.04188300  0.67156900  1
  Fe  Fe16  1  0.39320100  0.33289100  0.66579500  1
  Fe  Fe17  1  0.60539500  0.66688100  0.33373500  1
  Fe  Fe18  1  0.89460500  0.66688100  0.33373500  1
  Fe  Fe19  1  0.10679900  0.33289100  0.66579500  1
  Fe  Fe20  1  0.51876100  0.66623000  0.83274900  1
  Fe  Fe21  1  0.51821200  0.16602500  0.33204100  1
  Fe  Fe22  1  0.51874300  0.16651300  0.83275200  1
  Fe  Fe23  1  0.48124700  0.33444300  0.16822400  1
  Fe  Fe24  1  0.48019600  0.83218700  0.66437900  1
  Fe  Fe25  1  0.48125100  0.83377500  0.16821000  1
  Fe  Fe26  1  0.01875300  0.33444300  0.16822400  1
  Fe  Fe27  1  0.01980400  0.83218700  0.66437900  1
  Fe  Fe28  1  0.01874900  0.83377500  0.16821000  1
  Fe  Fe29  1  0.98123900  0.66623000  0.83274900  1
  Fe  Fe30  1  0.98178800  0.16602500  0.33204100  1
  Fe  Fe31  1  0.98125700  0.16651300  0.83275200  1
  Fe  Fe32  1  0.49805200  0.99795700  0.49833600  1
  Fe  Fe33  1  0.49636700  0.50165700  0.00330000  1
  Fe  Fe34  1  0.49806000  0.50038400  0.49834400  1
  Fe  Fe35  1  0.00194800  0.99795700  0.49833600  1
  Fe  Fe36  1  0.00363300  0.50165700  0.00330000  1
  Fe  Fe37  1  0.00194000  0.50038400  0.49834400  1
  C  C38  1  0.75000000  0.16524700  0.83451400  1
  C  C39  1  0.75000000  0.66930100  0.83456500  1
