# generated using pymatgen
data_Hf3Ti2(PbO3)5
_symmetry_space_group_name_H-M   'P 1'
_cell_length_a   9.19198509
_cell_length_b   9.19198509
_cell_length_c   7.10533416
_cell_angle_alpha   76.09271700
_cell_angle_beta   76.09271700
_cell_angle_gamma   36.75697210
_symmetry_Int_Tables_number   1
_chemical_formula_structural   Hf3Ti2(PbO3)5
_chemical_formula_sum   'Hf3 Ti2 Pb5 O15'
_cell_volume   347.54810350
_cell_formula_units_Z   1
loop_
 _symmetry_equiv_pos_site_id
 _symmetry_equiv_pos_as_xyz
  1  'x, y, z'
loop_
 _atom_site_type_symbol
 _atom_site_label
 _atom_site_symmetry_multiplicity
 _atom_site_fract_x
 _atom_site_fract_y
 _atom_site_fract_z
 _atom_site_occupancy
  Hf  Hf0  1  0.00047800  0.00047800  0.99642500  1
  Hf  Hf1  1  0.60229900  0.60229900  0.59937200  1
  Hf  Hf2  1  0.20406000  0.20406000  0.19506300  1
  Ti  Ti3  1  0.80601100  0.80601100  0.78741700  1
  Ti  Ti4  1  0.40537900  0.40537900  0.38436500  1
  Pb  Pb5  1  0.81481200  0.81481200  0.27607400  1
  Pb  Pb6  1  0.01735200  0.01735200  0.47191500  1
  Pb  Pb7  1  0.62490600  0.62490600  0.06798800  1
  Pb  Pb8  1  0.22416900  0.22416900  0.67626100  1
  Pb  Pb9  1  0.41230100  0.41230100  0.86079400  1
  O  O10  1  0.69645500  0.69645500  0.71666900  1
  O  O11  1  0.29629300  0.29629300  0.32715800  1
  O  O12  1  0.88906200  0.88906200  0.92031200  1
  O  O13  1  0.48740700  0.48740700  0.51654800  1
  O  O14  1  0.09299100  0.09299100  0.11849300  1
  O  O15  1  0.50585100  0.98266600  0.00383600  1
  O  O16  1  0.09321200  0.59066600  0.61765800  1
  O  O17  1  0.69144900  0.18662000  0.22022500  1
  O  O18  1  0.29734300  0.77995800  0.80739200  1
  O  O19  1  0.89866000  0.38439800  0.40486200  1
  O  O20  1  0.98266600  0.50585100  0.00383600  1
  O  O21  1  0.59066600  0.09321200  0.61765800  1
  O  O22  1  0.18662000  0.69144900  0.22022500  1
  O  O23  1  0.77995800  0.29734300  0.80739200  1
  O  O24  1  0.38439800  0.89866000  0.40486200  1
