# generated using pymatgen
data_K4Mo6Se25O
_symmetry_space_group_name_H-M   'P 1'
_cell_length_a   10.83446943
_cell_length_b   10.83446943
_cell_length_c   11.96750295
_cell_angle_alpha   72.86989564
_cell_angle_beta   72.86989564
_cell_angle_gamma   108.22541142
_symmetry_Int_Tables_number   1
_chemical_formula_structural   K4Mo6Se25O
_chemical_formula_sum   'K4 Mo6 Se25 O1'
_cell_volume   1153.66499920
_cell_formula_units_Z   1
loop_
 _symmetry_equiv_pos_site_id
 _symmetry_equiv_pos_as_xyz
  1  'x, y, z'
loop_
 _atom_site_type_symbol
 _atom_site_label
 _atom_site_symmetry_multiplicity
 _atom_site_fract_x
 _atom_site_fract_y
 _atom_site_fract_z
 _atom_site_occupancy
  K  K0  1  0.82082500  0.47905200  0.62123900  1
  K  K1  1  0.82031500  0.48292700  0.12001600  1
  K  K2  1  0.47905200  0.82082500  0.62123900  1
  K  K3  1  0.48292700  0.82031500  0.12001600  1
  Mo  Mo4  1  0.97468700  0.97468700  0.50665100  1
  Mo  Mo5  1  0.98953100  0.98953100  0.00641500  1
  Mo  Mo6  1  0.14155100  0.33305100  0.36180700  1
  Mo  Mo7  1  0.14969100  0.31313300  0.87491700  1
  Mo  Mo8  1  0.33305100  0.14155100  0.36180700  1
  Mo  Mo9  1  0.31313300  0.14969100  0.87491700  1
  Se  Se10  1  0.80526100  0.80526100  0.96800700  1
  Se  Se11  1  0.79167000  0.79167000  0.46899900  1
  Se  Se12  1  0.85745300  0.16001000  0.45309100  1
  Se  Se13  1  0.86282900  0.16601500  0.97214500  1
  Se  Se14  1  0.16001000  0.85745300  0.45309100  1
  Se  Se15  1  0.16601500  0.86282900  0.97214500  1
  Se  Se16  1  0.13548800  0.49768200  0.68805300  1
  Se  Se17  1  0.13228100  0.51659500  0.17333100  1
  Se  Se18  1  0.49768200  0.13548800  0.68805300  1
  Se  Se19  1  0.51659500  0.13228100  0.17333100  1
  Se  Se20  1  0.34013600  0.34013600  0.45092600  1
  Se  Se21  1  0.34068200  0.34068200  0.96755200  1
  Se  Se22  1  0.13878400  0.58350900  0.34640900  1
  Se  Se23  1  0.13989800  0.55918800  0.86245700  1
  Se  Se24  1  0.58350900  0.13878400  0.34640900  1
  Se  Se25  1  0.55918800  0.13989800  0.86245700  1
  Se  Se26  1  0.75740400  0.75740400  0.18843000  1
  Se  Se27  1  0.74362200  0.74362200  0.69082700  1
  Se  Se28  1  0.42824000  0.42824000  0.22287700  1
  Se  Se29  1  0.43424900  0.43424900  0.74206100  1
  Se  Se30  1  0.96553800  0.16101400  0.11913500  1
  Se  Se31  1  0.95504500  0.16057500  0.60639200  1
  Se  Se32  1  0.16101400  0.96553800  0.11913500  1
  Se  Se33  1  0.16057500  0.95504500  0.60639200  1
  Se  Se34  1  0.14930900  0.14930900  0.76096200  1
  O  O35  1  0.14876000  0.14876000  0.34360900  1
