# generated using pymatgen
data_Hf4NiRh
_symmetry_space_group_name_H-M   'P 1'
_cell_length_a   8.60370055
_cell_length_b   8.60370055
_cell_length_c   8.60370055
_cell_angle_alpha   60.00000000
_cell_angle_beta   60.00000000
_cell_angle_gamma   60.00000000
_symmetry_Int_Tables_number   1
_chemical_formula_structural   Hf4NiRh
_chemical_formula_sum   'Hf16 Ni4 Rh4'
_cell_volume   450.34035003
_cell_formula_units_Z   4
loop_
 _symmetry_equiv_pos_site_id
 _symmetry_equiv_pos_as_xyz
  1  'x, y, z'
loop_
 _atom_site_type_symbol
 _atom_site_label
 _atom_site_symmetry_multiplicity
 _atom_site_fract_x
 _atom_site_fract_y
 _atom_site_fract_z
 _atom_site_occupancy
  Hf  Hf0  1  0.67262100  0.10912600  0.10912600  1
  Hf  Hf1  1  0.10912600  0.67262100  0.10912600  1
  Hf  Hf2  1  0.10912600  0.10912600  0.67262100  1
  Hf  Hf3  1  0.10912600  0.10912600  0.10912600  1
  Hf  Hf4  1  0.31411300  0.31411300  0.68588700  1
  Hf  Hf5  1  0.68588700  0.68588700  0.31411300  1
  Hf  Hf6  1  0.31411300  0.68588700  0.31411300  1
  Hf  Hf7  1  0.68588700  0.31411300  0.68588700  1
  Hf  Hf8  1  0.68588700  0.31411300  0.31411300  1
  Hf  Hf9  1  0.31411300  0.68588700  0.68588700  1
  Hf  Hf10  1  0.94567700  0.94567700  0.55432300  1
  Hf  Hf11  1  0.55432300  0.55432300  0.94567700  1
  Hf  Hf12  1  0.94567700  0.55432300  0.94567700  1
  Hf  Hf13  1  0.55432300  0.94567700  0.55432300  1
  Hf  Hf14  1  0.55432300  0.94567700  0.94567700  1
  Hf  Hf15  1  0.94567700  0.55432300  0.55432300  1
  Ni  Ni16  1  0.31466100  0.89511300  0.89511300  1
  Ni  Ni17  1  0.89511300  0.31466100  0.89511300  1
  Ni  Ni18  1  0.89511300  0.89511300  0.31466100  1
  Ni  Ni19  1  0.89511300  0.89511300  0.89511300  1
  Rh  Rh20  1  0.99685000  0.33438300  0.33438300  1
  Rh  Rh21  1  0.33438300  0.99685000  0.33438300  1
  Rh  Rh22  1  0.33438300  0.33438300  0.99685000  1
  Rh  Rh23  1  0.33438300  0.33438300  0.33438300  1
