# generated using pymatgen
data_HW2C9NO10
_symmetry_space_group_name_H-M   'P 1'
_cell_length_a   8.26640755
_cell_length_b   8.26640755
_cell_length_c   16.17826071
_cell_angle_alpha   79.12275093
_cell_angle_beta   79.12275093
_cell_angle_gamma   49.85342543
_symmetry_Int_Tables_number   1
_chemical_formula_structural   HW2C9NO10
_chemical_formula_sum   'H2 W4 C18 N2 O20'
_cell_volume   826.55611820
_cell_formula_units_Z   2
loop_
 _symmetry_equiv_pos_site_id
 _symmetry_equiv_pos_as_xyz
  1  'x, y, z'
loop_
 _atom_site_type_symbol
 _atom_site_label
 _atom_site_symmetry_multiplicity
 _atom_site_fract_x
 _atom_site_fract_y
 _atom_site_fract_z
 _atom_site_occupancy
  H  H0  1  0.66980700  0.33019300  0.00000000  1
  H  H1  1  0.33487200  0.66512800  0.50000000  1
  W  W2  1  0.72822200  0.14825200  0.10561000  1
  W  W3  1  0.85174800  0.27177800  0.89439000  1
  W  W4  1  0.27161100  0.84746300  0.39699600  1
  W  W5  1  0.15253700  0.72838900  0.60300400  1
  C  C6  1  0.73518800  0.93235800  0.05192700  1
  C  C7  1  0.06764200  0.26481200  0.94807300  1
  C  C8  1  0.26438800  0.06568600  0.44858200  1
  C  C9  1  0.93431400  0.73561200  0.55141800  1
  C  C10  1  0.05945200  0.94703500  0.09681700  1
  C  C11  1  0.05296500  0.94054800  0.90318300  1
  C  C12  1  0.94289000  0.05107300  0.40418300  1
  C  C13  1  0.94892700  0.05711000  0.59581700  1
  C  C14  1  0.39356100  0.35558300  0.11290300  1
  C  C15  1  0.64441700  0.60643900  0.88709700  1
  C  C16  1  0.60312000  0.64443200  0.38853700  1
  C  C17  1  0.35556800  0.39688000  0.61146300  1
  C  C18  1  0.72268500  0.37178800  0.15351600  1
  C  C19  1  0.62821200  0.27731500  0.84648400  1
  C  C20  1  0.27752100  0.62967500  0.34820100  1
  C  C21  1  0.37032500  0.72247900  0.65179900  1
  C  C22  1  0.27795200  0.98088200  0.28097300  1
  C  C23  1  0.01911800  0.72204800  0.71902700  1
  N  N24  1  0.72218500  0.02214700  0.21617500  1
  N  N25  1  0.97785300  0.27781500  0.78382500  1
  O  O26  1  0.21077900  0.46775600  0.11775100  1
  O  O27  1  0.53224400  0.78922100  0.88224900  1
  O  O28  1  0.78773200  0.53429800  0.38147000  1
  O  O29  1  0.46570200  0.21226800  0.61853000  1
  O  O30  1  0.24296600  0.83267000  0.09405200  1
  O  O31  1  0.16733000  0.75703400  0.90594800  1
  O  O32  1  0.75808800  0.16678100  0.40487300  1
  O  O33  1  0.83321900  0.24191200  0.59512700  1
  O  O34  1  0.71471500  0.94688300  0.28423100  1
  O  O35  1  0.05311700  0.28528500  0.71576900  1
  O  O36  1  0.28517200  0.05730000  0.21222000  1
  O  O37  1  0.94270000  0.71482800  0.78778000  1
  O  O38  1  0.73826300  0.81139000  0.02429000  1
  O  O39  1  0.18861000  0.26173700  0.97571000  1
  O  O40  1  0.26168800  0.18833700  0.47530700  1
  O  O41  1  0.81166300  0.73831200  0.52469300  1
  O  O42  1  0.72118800  0.49119200  0.18105500  1
  O  O43  1  0.50880800  0.27881200  0.81894500  1
  O  O44  1  0.27937900  0.51044200  0.31801000  1
  O  O45  1  0.48955800  0.72062100  0.68199000  1
