# generated using pymatgen
data_K4BaTi6S20O
_symmetry_space_group_name_H-M   'P 1'
_cell_length_a   18.18980979
_cell_length_b   17.37254339
_cell_length_c   9.66030243
_cell_angle_alpha   78.96298194
_cell_angle_beta   69.62020169
_cell_angle_gamma   31.41681636
_symmetry_Int_Tables_number   1
_chemical_formula_structural   K4BaTi6S20O
_chemical_formula_sum   'K8 Ba2 Ti12 S40 O2'
_cell_volume   1456.29141039
_cell_formula_units_Z   2
loop_
 _symmetry_equiv_pos_site_id
 _symmetry_equiv_pos_as_xyz
  1  'x, y, z'
loop_
 _atom_site_type_symbol
 _atom_site_label
 _atom_site_symmetry_multiplicity
 _atom_site_fract_x
 _atom_site_fract_y
 _atom_site_fract_z
 _atom_site_occupancy
  K  K0  1  0.29416800  0.29416800  0.70583200  1
  K  K1  1  0.95565200  0.95565200  0.04434800  1
  K  K2  1  0.20565200  0.20565200  0.29434800  1
  K  K3  1  0.54416800  0.54416800  0.95583200  1
  K  K4  1  0.12542200  0.12542200  0.87457800  1
  K  K5  1  0.37542200  0.37542200  0.12457800  1
  K  K6  1  0.45719000  0.45719000  0.54281000  1
  K  K7  1  0.70719000  0.70719000  0.79281000  1
  Ba  Ba8  1  0.79223600  0.79223600  0.20776400  1
  Ba  Ba9  1  0.04223600  0.04223600  0.45776400  1
  Ti  Ti10  1  0.77266600  0.47748000  0.52358900  1
  Ti  Ti11  1  0.47748000  0.77266600  0.22626500  1
  Ti  Ti12  1  0.72641100  0.02373500  0.47733400  1
  Ti  Ti13  1  0.02373500  0.72641100  0.77252000  1
  Ti  Ti14  1  0.53065100  0.81830600  0.46778100  1
  Ti  Ti15  1  0.43325000  0.71723700  0.56904200  1
  Ti  Ti16  1  0.71723700  0.43325000  0.28047100  1
  Ti  Ti17  1  0.81830600  0.53065100  0.18326200  1
  Ti  Ti18  1  0.96952900  0.68095800  0.53276300  1
  Ti  Ti19  1  0.06673800  0.78221900  0.43169400  1
  Ti  Ti20  1  0.78221900  0.06673800  0.71934900  1
  Ti  Ti21  1  0.68095800  0.96952900  0.81675000  1
  S  S22  1  0.30452300  0.95046100  0.46773700  1
  S  S23  1  0.52448600  0.71973800  0.69894200  1
  S  S24  1  0.71973800  0.52448600  0.05683400  1
  S  S25  1  0.95046100  0.30452300  0.27728000  1
  S  S26  1  0.19316600  0.55105800  0.53026200  1
  S  S27  1  0.97272000  0.78226300  0.29953900  1
  S  S28  1  0.78226300  0.97272000  0.94547700  1
  S  S29  1  0.55105800  0.19316600  0.72551400  1
  S  S30  1  0.44708800  0.02387800  0.45086800  1
  S  S31  1  0.32812900  0.70086200  0.76981500  1
  S  S32  1  0.70086200  0.32812900  0.20119400  1
  S  S33  1  0.02387800  0.44708800  0.07816600  1
  S  S34  1  0.04880600  0.48018500  0.54913800  1
  S  S35  1  0.17183400  0.79913200  0.22612200  1
  S  S36  1  0.79913200  0.17183400  0.80291200  1
  S  S37  1  0.48018500  0.04880600  0.92187100  1
  S  S38  1  0.94022200  0.37284500  0.62926500  1
  S  S39  1  0.30598000  0.88078400  0.12108000  1
  S  S40  1  0.88078400  0.30598000  0.69215500  1
  S  S41  1  0.37284500  0.94022200  0.05766900  1
  S  S42  1  0.55784500  0.12892000  0.36921600  1
  S  S43  1  0.19233100  0.62073500  0.87715500  1
  S  S44  1  0.62073500  0.19233100  0.30977800  1
  S  S45  1  0.12892000  0.55784500  0.94402000  1
  S  S46  1  0.60646600  0.79367800  0.18245600  1
  S  S47  1  0.67036800  0.43086400  0.54372100  1
  S  S48  1  0.43086400  0.67036800  0.35504700  1
  S  S49  1  0.79367800  0.60646600  0.41740000  1
  S  S50  1  0.89495300  0.70627900  0.81913600  1
  S  S51  1  0.83260000  0.06754400  0.45632200  1
  S  S52  1  0.06754400  0.83260000  0.64353400  1
  S  S53  1  0.70627900  0.89495300  0.57963200  1
  S  S54  1  0.41909900  0.98755100  0.66556900  1
  S  S55  1  0.17550500  0.91803800  0.74149800  1
  S  S56  1  0.91803800  0.17550500  0.16495900  1
  S  S57  1  0.98755100  0.41909900  0.92778000  1
  S  S58  1  0.08504100  0.50850200  0.33196200  1
  S  S59  1  0.32222000  0.58443100  0.26244900  1
  S  S60  1  0.58443100  0.32222000  0.83090100  1
  S  S61  1  0.50850200  0.08504100  0.07449500  1
  O  O62  1  0.62517600  0.62517600  0.37482400  1
  O  O63  1  0.87517600  0.87517600  0.62482400  1
