# generated using pymatgen
data_Ho12Si5S28
_symmetry_space_group_name_H-M   'P 1'
_cell_length_a   9.76773600
_cell_length_b   11.30671879
_cell_length_c   11.31105108
_cell_angle_alpha   60.72923562
_cell_angle_beta   64.42095454
_cell_angle_gamma   64.41317617
_symmetry_Int_Tables_number   1
_chemical_formula_structural   Ho12Si5S28
_chemical_formula_sum   'Ho12 Si5 S28'
_cell_volume   943.41689511
_cell_formula_units_Z   1
loop_
 _symmetry_equiv_pos_site_id
 _symmetry_equiv_pos_as_xyz
  1  'x, y, z'
loop_
 _atom_site_type_symbol
 _atom_site_label
 _atom_site_symmetry_multiplicity
 _atom_site_fract_x
 _atom_site_fract_y
 _atom_site_fract_z
 _atom_site_occupancy
  Ho  Ho0  1  0.77053100  0.57098900  0.79524200  1
  Ho  Ho1  1  0.78344900  0.04161400  0.30636600  1
  Ho  Ho2  1  0.34911500  0.80224900  0.06664000  1
  Ho  Ho3  1  0.36455700  0.31835600  0.54423200  1
  Ho  Ho4  1  0.86747300  0.75995800  0.02454300  1
  Ho  Ho5  1  0.86599900  0.27164600  0.49690200  1
  Ho  Ho6  1  0.21770100  0.46235200  0.19155000  1
  Ho  Ho7  1  0.22713600  0.93610300  0.69535500  1
  Ho  Ho8  1  0.63228500  0.19020100  0.94904400  1
  Ho  Ho9  1  0.65372400  0.69973800  0.42957000  1
  Ho  Ho10  1  0.13942500  0.23463400  0.99273400  1
  Ho  Ho11  1  0.12979000  0.74334100  0.47391900  1
  Si  Si12  1  0.66564100  0.41993400  0.24500200  1
  Si  Si13  1  0.66737900  0.92134100  0.74759000  1
  Si  Si14  1  0.33296600  0.50185600  0.83242200  1
  Si  Si15  1  0.33364100  0.00008000  0.33256600  1
  Si  Si16  1  0.99951800  0.27430400  0.72588900  1
  S  S17  1  0.58300900  0.46047900  0.43554700  1
  S  S18  1  0.57768900  0.96051200  0.93811200  1
  S  S19  1  0.89435300  0.26887800  0.24494000  1
  S  S20  1  0.89876500  0.77690800  0.75435100  1
  S  S21  1  0.52890000  0.29635800  0.27452900  1
  S  S22  1  0.51549900  0.80790100  0.78360000  1
  S  S23  1  0.41919400  0.31095200  0.79199200  1
  S  S24  1  0.42140700  0.81080100  0.29206500  1
  S  S25  1  0.10299300  0.49802000  0.97774000  1
  S  S26  1  0.10270900  0.99774300  0.47992400  1
  S  S27  1  0.47858700  0.46905100  0.94974400  1
  S  S28  1  0.47528800  0.97012900  0.45160800  1
  S  S29  1  0.66734000  0.60408200  0.06128000  1
  S  S30  1  0.66621700  0.10524700  0.56281500  1
  S  S31  1  0.32790100  0.19098600  0.15390400  1
  S  S32  1  0.33872900  0.68002900  0.64230500  1
  S  S33  1  0.76287500  0.43026600  0.65776500  1
  S  S34  1  0.74270200  0.94675000  0.15256400  1
  S  S35  1  0.08802600  0.46124600  0.68803500  1
  S  S36  1  0.09970600  0.97558000  0.18226600  1
  S  S37  1  0.15845700  0.76805700  0.97433700  1
  S  S38  1  0.14881800  0.26769600  0.49486200  1
  S  S39  1  0.25875900  0.59224300  0.30974400  1
  S  S40  1  0.22893300  0.12023600  0.78934400  1
  S  S41  1  0.90343900  0.56127800  0.27791100  1
  S  S42  1  0.90975300  0.09521100  0.76490800  1
  S  S43  1  0.86048100  0.28037800  0.94882000  1
  S  S44  1  0.83914300  0.77048800  0.48922200  1
