# generated using pymatgen
data_Rb4N2O7
_symmetry_space_group_name_H-M   'P 1'
_cell_length_a   4.25863900
_cell_length_b   4.72350096
_cell_length_c   16.15330032
_cell_angle_alpha   85.00145062
_cell_angle_beta   85.80564634
_cell_angle_gamma   67.80402618
_symmetry_Int_Tables_number   1
_chemical_formula_structural   Rb4N2O7
_chemical_formula_sum   'Rb4 N2 O7'
_cell_volume   299.42680297
_cell_formula_units_Z   1
loop_
 _symmetry_equiv_pos_site_id
 _symmetry_equiv_pos_as_xyz
  1  'x, y, z'
loop_
 _atom_site_type_symbol
 _atom_site_label
 _atom_site_symmetry_multiplicity
 _atom_site_fract_x
 _atom_site_fract_y
 _atom_site_fract_z
 _atom_site_occupancy
  Rb  Rb0  1  0.43091000  0.18347800  0.10525000  1
  Rb  Rb1  1  0.11981300  0.73712900  0.37907000  1
  Rb  Rb2  1  0.82641500  0.22303300  0.57350400  1
  Rb  Rb3  1  0.78675300  0.67010200  0.91498800  1
  N  N4  1  0.79394900  0.46969300  0.22479100  1
  N  N5  1  0.16881600  0.58480300  0.73815300  1
  O  O6  1  0.14503300  0.82168300  0.02830500  1
  O  O7  1  0.60610000  0.73607300  0.24534900  1
  O  O8  1  0.97754700  0.29438200  0.28148300  1
  O  O9  1  0.12076200  0.59749700  0.66317200  1
  O  O10  1  0.54126900  0.85119700  0.49404200  1
  O  O11  1  0.51329800  0.28600000  0.84280000  1
  O  O12  1  0.44534000  0.31893500  0.75908800  1
