# generated using pymatgen
data_K3B5PH2O13
_symmetry_space_group_name_H-M   'P 1'
_cell_length_a   7.41116900
_cell_length_b   6.92272740
_cell_length_c   12.33802219
_cell_angle_alpha   94.09521102
_cell_angle_beta   90.00000000
_cell_angle_gamma   90.00000000
_symmetry_Int_Tables_number   1
_chemical_formula_structural   K3B5PH2O13
_chemical_formula_sum   'K6 B10 P2 H4 O26'
_cell_volume   631.39220498
_cell_formula_units_Z   2
loop_
 _symmetry_equiv_pos_site_id
 _symmetry_equiv_pos_as_xyz
  1  'x, y, z'
loop_
 _atom_site_type_symbol
 _atom_site_label
 _atom_site_symmetry_multiplicity
 _atom_site_fract_x
 _atom_site_fract_y
 _atom_site_fract_z
 _atom_site_occupancy
  K  K0  1  0.24828100  0.64730700  0.05226000  1
  K  K1  1  0.24828100  0.35269300  0.44774000  1
  K  K2  1  0.75171900  0.35269300  0.94774000  1
  K  K3  1  0.75171900  0.64730700  0.55226000  1
  K  K4  1  0.58758200  0.00000000  0.25000000  1
  K  K5  1  0.41241800  0.00000000  0.75000000  1
  B  B6  1  0.18730900  0.86453800  0.42491100  1
  B  B7  1  0.18730900  0.13546200  0.07508900  1
  B  B8  1  0.81269100  0.13546200  0.57508900  1
  B  B9  1  0.81269100  0.86453800  0.92491100  1
  B  B10  1  0.02130000  0.67286400  0.80238600  1
  B  B11  1  0.02130000  0.32713600  0.69761400  1
  B  B12  1  0.97870000  0.32713600  0.19761400  1
  B  B13  1  0.97870000  0.67286400  0.30238600  1
  B  B14  1  0.11697300  0.00000000  0.25000000  1
  B  B15  1  0.88302700  0.00000000  0.75000000  1
  P  P16  1  0.65114500  0.50000000  0.25000000  1
  P  P17  1  0.34885500  0.50000000  0.75000000  1
  H  H18  1  0.77290000  0.81149100  0.07694100  1
  H  H19  1  0.77290000  0.18850900  0.42305900  1
  H  H20  1  0.22710000  0.18850900  0.92305900  1
  H  H21  1  0.22710000  0.81149100  0.57694100  1
  O  O22  1  0.06450700  0.50000000  0.25000000  1
  O  O23  1  0.93549300  0.50000000  0.75000000  1
  O  O24  1  0.06214800  0.71846900  0.41038400  1
  O  O25  1  0.06214800  0.28153100  0.08961600  1
  O  O26  1  0.93785200  0.28153100  0.58961600  1
  O  O27  1  0.93785200  0.71846900  0.91038400  1
  O  O28  1  0.99782800  0.82933600  0.22907600  1
  O  O29  1  0.99782800  0.17066400  0.27092400  1
  O  O30  1  0.00217200  0.17066400  0.77092400  1
  O  O31  1  0.00217200  0.82933600  0.72907600  1
  O  O32  1  0.23471800  0.98304400  0.34544000  1
  O  O33  1  0.23471800  0.01695600  0.15456000  1
  O  O34  1  0.76528200  0.01695600  0.65456000  1
  O  O35  1  0.76528200  0.98304400  0.84544000  1
  O  O36  1  0.72718500  0.89849100  0.02469500  1
  O  O37  1  0.72718500  0.10150900  0.47530500  1
  O  O38  1  0.27281500  0.10150900  0.97530500  1
  O  O39  1  0.27281500  0.89849100  0.52469500  1
  O  O40  1  0.21852200  0.63919300  0.82326500  1
  O  O41  1  0.21852200  0.36080700  0.67673500  1
  O  O42  1  0.78147800  0.36080700  0.17673500  1
  O  O43  1  0.78147800  0.63919300  0.32326500  1
  O  O44  1  0.54265700  0.61662300  0.17340900  1
  O  O45  1  0.54265700  0.38337700  0.32659100  1
  O  O46  1  0.45734300  0.38337700  0.82659100  1
  O  O47  1  0.45734300  0.61662300  0.67340900  1
