data_image0
_chemical_formula_structural       H28N12Na4Ni2
_chemical_formula_sum              "H28 N12 Na4 Ni2"
_cell_length_a       7.56967
_cell_length_b       7.56967
_cell_length_c       7.56967
_cell_angle_alpha    114.602
_cell_angle_beta     114.602
_cell_angle_gamma    99.6357

_space_group_name_H-M_alt    "P 1"
_space_group_IT_number       1

loop_
  _space_group_symop_operation_xyz
  'x, y, z'

loop_
  _atom_site_type_symbol
  _atom_site_label
  _atom_site_symmetry_multiplicity
  _atom_site_fract_x
  _atom_site_fract_y
  _atom_site_fract_z
  _atom_site_occupancy
  H   H1        1.0  0.42000  0.69600  0.66800  1.0000
  H   H2        1.0  0.02800  0.75200  0.33200  1.0000
  H   H3        1.0  0.69600  0.02800  0.27600  1.0000
  H   H4        1.0  0.75200  0.42000  0.72400  1.0000
  H   H5        1.0  0.58000  0.30400  0.33200  1.0000
  H   H6        1.0  0.97200  0.24800  0.66800  1.0000
  H   H7        1.0  0.30400  0.97200  0.72400  1.0000
  H   H8        1.0  0.24800  0.58000  0.27600  1.0000
  H   H9        1.0  0.06810  0.28200  0.18100  1.0000
  H   H10       1.0  0.10100  0.88700  0.81900  1.0000
  H   H11       1.0  0.28200  0.10100  0.21400  1.0000
  H   H12       1.0  0.88700  0.06810  0.78600  1.0000
  H   H13       1.0  0.93200  0.71800  0.81900  1.0000
  H   H14       1.0  0.89900  0.11300  0.18100  1.0000
  H   H15       1.0  0.71800  0.89900  0.78600  1.0000
  H   H16       1.0  0.11300  0.93200  0.21400  1.0000
  H   H17       1.0  0.61400  0.52500  0.61200  1.0000
  H   H18       1.0  0.91200  0.00175  0.38800  1.0000
  H   H19       1.0  0.52500  0.91200  0.91100  1.0000
  H   H20       1.0  0.00175  0.61400  0.08930  1.0000
  H   H21       1.0  0.38600  0.47500  0.38800  1.0000
  H   H22       1.0  0.08760  0.99800  0.61200  1.0000
  H   H23       1.0  0.47500  0.08760  0.08930  1.0000
  H   H24       1.0  0.99800  0.38600  0.91100  1.0000
  H   H25       1.0  0.91100  0.35500  0.26600  1.0000
  H   H26       1.0  0.08910  0.64500  0.73400  1.0000
  H   H27       1.0  0.35500  0.08910  0.44400  1.0000
  H   H28       1.0  0.64500  0.91100  0.55600  1.0000
  N   N1        1.0  0.62800  0.46400  0.71300  1.0000
  N   N2        1.0  0.75000  0.91500  0.28700  1.0000
  N   N3        1.0  0.46400  0.75000  0.83600  1.0000
  N   N4        1.0  0.91500  0.62800  0.16400  1.0000
  N   N5        1.0  0.37200  0.53600  0.28700  1.0000
  N   N6        1.0  0.25000  0.08540  0.71300  1.0000
  N   N7        1.0  0.53600  0.25000  0.16400  1.0000
  N   N8        1.0  0.08540  0.37200  0.83600  1.0000
  N   N9        1.0  0.27000  0.99700  0.26700  1.0000
  N   N10       1.0  0.73000  0.00300  0.73300  1.0000
  N   N11       1.0  0.99700  0.73000  0.72700  1.0000
  N   N12       1.0  0.00300  0.27000  0.27300  1.0000
  Na  Na1       1.0  0.27100  0.37100  0.64200  1.0000
  Na  Na2       1.0  0.72900  0.62900  0.35800  1.0000
  Na  Na3       1.0  0.37100  0.72900  0.10100  1.0000
  Na  Na4       1.0  0.62900  0.27100  0.89900  1.0000
  Ni  Ni1       1.0  0.30000  0.30000  0.00000  1.0000
  Ni  Ni2       1.0  0.70000  0.70000  0.00000  1.0000
