# generated using pymatgen
data_K2AlB5O14
_symmetry_space_group_name_H-M   'P 1'
_cell_length_a   7.01358059
_cell_length_b   7.01358059
_cell_length_c   12.96608500
_cell_angle_alpha   90.00000000
_cell_angle_beta   90.00000000
_cell_angle_gamma   92.57996330
_symmetry_Int_Tables_number   1
_chemical_formula_structural   K2AlB5O14
_chemical_formula_sum   'K4 Al2 B10 O28'
_cell_volume   637.15927732
_cell_formula_units_Z   2
loop_
 _symmetry_equiv_pos_site_id
 _symmetry_equiv_pos_as_xyz
  1  'x, y, z'
loop_
 _atom_site_type_symbol
 _atom_site_label
 _atom_site_symmetry_multiplicity
 _atom_site_fract_x
 _atom_site_fract_y
 _atom_site_fract_z
 _atom_site_occupancy
  K  K0  1  0.09328800  0.46940600  0.60027700  1
  K  K1  1  0.53059400  0.90671200  0.89972300  1
  K  K2  1  0.90671200  0.53059400  0.10027700  1
  K  K3  1  0.46940600  0.09328800  0.39972300  1
  Al  Al4  1  0.60948700  0.39051300  0.75000000  1
  Al  Al5  1  0.39051300  0.60948700  0.25000000  1
  B  B6  1  0.70683300  0.76545900  0.67749300  1
  B  B7  1  0.23454100  0.29316700  0.82250700  1
  B  B8  1  0.29316700  0.23454100  0.17749300  1
  B  B9  1  0.76545900  0.70683300  0.32250700  1
  B  B10  1  0.83699100  0.83699100  0.50000000  1
  B  B11  1  0.16300900  0.16300900  0.00000000  1
  B  B12  1  0.73487600  0.09638000  0.62029400  1
  B  B13  1  0.90362000  0.26512400  0.87970600  1
  B  B14  1  0.26512400  0.90362000  0.12029400  1
  B  B15  1  0.09638000  0.73487600  0.37970600  1
  O  O16  1  0.81133800  0.18866200  0.25000000  1
  O  O17  1  0.18866200  0.81133800  0.75000000  1
  O  O18  1  0.65186300  0.64034800  0.75269800  1
  O  O19  1  0.35965200  0.34813700  0.74730200  1
  O  O20  1  0.34813700  0.35965200  0.25269800  1
  O  O21  1  0.64034800  0.65186300  0.24730200  1
  O  O22  1  0.48973900  0.48973900  0.50000000  1
  O  O23  1  0.51026100  0.51026100  0.00000000  1
  O  O24  1  0.70973500  0.28380100  0.63933800  1
  O  O25  1  0.71619900  0.29026500  0.86066200  1
  O  O26  1  0.29026500  0.71619900  0.13933800  1
  O  O27  1  0.28380100  0.70973500  0.36066200  1
  O  O28  1  0.79050800  0.70827500  0.58761200  1
  O  O29  1  0.29172500  0.20949200  0.91238800  1
  O  O30  1  0.20949200  0.29172500  0.08761200  1
  O  O31  1  0.70827500  0.79050800  0.41238800  1
  O  O32  1  0.68010800  0.95961100  0.69549200  1
  O  O33  1  0.04038900  0.31989200  0.80450800  1
  O  O34  1  0.31989200  0.04038900  0.19549200  1
  O  O35  1  0.95961100  0.68010800  0.30450800  1
  O  O36  1  0.80869100  0.03855600  0.52804800  1
  O  O37  1  0.96144400  0.19130900  0.97195200  1
  O  O38  1  0.19130900  0.96144400  0.02804800  1
  O  O39  1  0.03855600  0.80869100  0.47195200  1
  O  O40  1  0.93931100  0.18629700  0.32169200  1
  O  O41  1  0.81370300  0.06068900  0.17830800  1
  O  O42  1  0.06068900  0.81370300  0.82169200  1
  O  O43  1  0.18629700  0.93931100  0.67830800  1
