# generated using pymatgen
data_H8S2N2O3
_symmetry_space_group_name_H-M   'P 1'
_cell_length_a   6.15549043
_cell_length_b   6.17731275
_cell_length_c   8.90049423
_cell_angle_alpha   86.99360714
_cell_angle_beta   87.54557781
_cell_angle_gamma   65.46833081
_symmetry_Int_Tables_number   1
_chemical_formula_structural   H8S2N2O3
_chemical_formula_sum   'H16 S4 N4 O6'
_cell_volume   307.37962129
_cell_formula_units_Z   2
loop_
 _symmetry_equiv_pos_site_id
 _symmetry_equiv_pos_as_xyz
  1  'x, y, z'
loop_
 _atom_site_type_symbol
 _atom_site_label
 _atom_site_symmetry_multiplicity
 _atom_site_fract_x
 _atom_site_fract_y
 _atom_site_fract_z
 _atom_site_occupancy
  H  H0  1  0.20652000  0.69278800  0.26979700  1
  H  H1  1  0.30602800  0.79480800  0.73060900  1
  H  H2  1  0.02418800  0.56194700  0.21977400  1
  H  H3  1  0.43851200  0.97512100  0.77728400  1
  H  H4  1  0.09188300  0.02757000  0.06798800  1
  H  H5  1  0.97293600  0.90852300  0.94267700  1
  H  H6  1  0.15487700  0.50064600  0.39268300  1
  H  H7  1  0.49619000  0.84263300  0.60436200  1
  H  H8  1  0.79904600  0.08691200  0.07782600  1
  H  H9  1  0.91354500  0.19973500  0.92929200  1
  H  H10  1  0.32452300  0.39600700  0.23888900  1
  H  H11  1  0.60442600  0.67719700  0.76160900  1
  H  H12  1  0.75910400  0.15505100  0.41487400  1
  H  H13  1  0.83939900  0.27714500  0.56279800  1
  H  H14  1  0.58164600  0.24250800  0.56709700  1
  H  H15  1  0.84965300  0.00095000  0.58097600  1
  S  S16  1  0.52616700  0.88920000  0.26890300  1
  S  S17  1  0.11788700  0.47597900  0.72749000  1
  S  S18  1  0.67740300  0.65656000  0.10721200  1
  S  S19  1  0.34189300  0.32965600  0.89482300  1
  N  N20  1  0.94470200  0.05579100  0.00394900  1
  N  N21  1  0.17619800  0.53913000  0.27932200  1
  N  N22  1  0.46051600  0.82437700  0.71919000  1
  N  N23  1  0.75997300  0.16881600  0.53036300  1
  O  O24  1  0.26045400  0.97566400  0.26340500  1
  O  O25  1  0.02894400  0.74332000  0.72676000  1
  O  O26  1  0.59427900  0.09734000  0.24137100  1
  O  O27  1  0.90926500  0.41003100  0.74580100  1
  O  O28  1  0.61479800  0.77372500  0.41831100  1
  O  O29  1  0.24694500  0.38517100  0.58196400  1
