# generated using pymatgen
data_K3FeMo4O15
_symmetry_space_group_name_H-M   'P 1'
_cell_length_a   5.84897600
_cell_length_b   8.18327947
_cell_length_c   17.30384233
_cell_angle_alpha   92.63195149
_cell_angle_beta   80.26985218
_cell_angle_gamma   90.00000000
_symmetry_Int_Tables_number   1
_chemical_formula_structural   K3FeMo4O15
_chemical_formula_sum   'K6 Fe2 Mo8 O30'
_cell_volume   815.42696643
_cell_formula_units_Z   2
loop_
 _symmetry_equiv_pos_site_id
 _symmetry_equiv_pos_as_xyz
  1  'x, y, z'
loop_
 _atom_site_type_symbol
 _atom_site_label
 _atom_site_symmetry_multiplicity
 _atom_site_fract_x
 _atom_site_fract_y
 _atom_site_fract_z
 _atom_site_occupancy
  K  K0  1  0.60318900  0.76608000  0.79362200  1
  K  K1  1  0.39681100  0.23392000  0.20637800  1
  K  K2  1  0.51594300  0.22435800  0.96811400  1
  K  K3  1  0.48405700  0.77564200  0.03188600  1
  K  K4  1  0.18546500  0.52631300  0.62907000  1
  K  K5  1  0.81453500  0.47368700  0.37093000  1
  Fe  Fe6  1  0.18143900  0.02020500  0.63712100  1
  Fe  Fe7  1  0.81856100  0.97979500  0.36287900  1
  Mo  Mo8  1  0.05950400  0.51144700  0.88099100  1
  Mo  Mo9  1  0.94049600  0.48855300  0.11900900  1
  Mo  Mo10  1  0.71999500  0.81547600  0.56001100  1
  Mo  Mo11  1  0.28000500  0.18452400  0.43998900  1
  Mo  Mo12  1  0.64954500  0.26648300  0.70091000  1
  Mo  Mo13  1  0.35045500  0.73351700  0.29909000  1
  Mo  Mo14  1  0.07063500  0.04610900  0.85872900  1
  Mo  Mo15  1  0.92936500  0.95389100  0.14127100  1
  O  O16  1  0.60130400  0.19744000  0.79739200  1
  O  O17  1  0.39869600  0.80256000  0.20260800  1
  O  O18  1  0.93411200  0.19406000  0.65028900  1
  O  O19  1  0.41559800  0.19406000  0.65028900  1
  O  O20  1  0.06588800  0.80594000  0.34971100  1
  O  O21  1  0.58440200  0.80594000  0.34971100  1
  O  O22  1  0.28922800  0.96035000  0.90225800  1
  O  O23  1  0.80851400  0.96035000  0.90225800  1
  O  O24  1  0.71077200  0.03965000  0.09774200  1
  O  O25  1  0.19148600  0.03965000  0.09774200  1
  O  O26  1  0.12242800  0.98958700  0.75514400  1
  O  O27  1  0.87757200  0.01041300  0.24485600  1
  O  O28  1  0.10774700  0.57929500  0.78450600  1
  O  O29  1  0.89225300  0.42070500  0.21549400  1
  O  O30  1  0.05711900  0.27352900  0.88576300  1
  O  O31  1  0.94288100  0.72647100  0.11423700  1
  O  O32  1  0.43477600  0.84332900  0.62174600  1
  O  O33  1  0.94347800  0.84332900  0.62174600  1
  O  O34  1  0.56522400  0.15667100  0.37825400  1
  O  O35  1  0.05652200  0.15667100  0.37825400  1
  O  O36  1  0.75934300  0.95307700  0.48131400  1
  O  O37  1  0.24065700  0.04692300  0.51868600  1
  O  O38  1  0.73942400  0.61425300  0.52115100  1
  O  O39  1  0.26057600  0.38574700  0.47884900  1
  O  O40  1  0.64794100  0.48243700  0.70411700  1
  O  O41  1  0.35205900  0.51756300  0.29588300  1
  O  O42  1  0.79140700  0.59263100  0.92777300  1
  O  O43  1  0.28082000  0.59263100  0.92777300  1
  O  O44  1  0.20859300  0.40736900  0.07222700  1
  O  O45  1  0.71918000  0.40736900  0.07222700  1
