# generated using pymatgen
data_Hf4Ti(PbO3)5
_symmetry_space_group_name_H-M   'P 1'
_cell_length_a   5.87151700
_cell_length_b   10.08362738
_cell_length_c   13.04588861
_cell_angle_alpha   75.07453275
_cell_angle_beta   77.64841737
_cell_angle_gamma   73.39135534
_symmetry_Int_Tables_number   1
_chemical_formula_structural   Hf4Ti(PbO3)5
_chemical_formula_sum   'Hf8 Ti2 Pb10 O30'
_cell_volume   706.94392443
_cell_formula_units_Z   2
loop_
 _symmetry_equiv_pos_site_id
 _symmetry_equiv_pos_as_xyz
  1  'x, y, z'
loop_
 _atom_site_type_symbol
 _atom_site_label
 _atom_site_symmetry_multiplicity
 _atom_site_fract_x
 _atom_site_fract_y
 _atom_site_fract_z
 _atom_site_occupancy
  Hf  Hf0  1  0.43156400  0.29663300  0.89076000  1
  Hf  Hf1  1  0.23086700  0.89879500  0.69211600  1
  Hf  Hf2  1  0.03154200  0.49630900  0.49307900  1
  Hf  Hf3  1  0.82885300  0.09789100  0.29287800  1
  Hf  Hf4  1  0.03168000  0.99604700  0.99316900  1
  Hf  Hf5  1  0.82924800  0.59786500  0.79302200  1
  Hf  Hf6  1  0.43107800  0.79680000  0.39082300  1
  Hf  Hf7  1  0.23146200  0.39882200  0.19230200  1
  Ti  Ti8  1  0.63923000  0.69666600  0.09068200  1
  Ti  Ti9  1  0.63913300  0.19698900  0.59038000  1
  Pb  Pb10  1  0.27866800  0.64435400  0.93435400  1
  Pb  Pb11  1  0.08785400  0.24209300  0.72698500  1
  Pb  Pb12  1  0.87699500  0.84585800  0.53055600  1
  Pb  Pb13  1  0.67415300  0.44670700  0.32900100  1
  Pb  Pb14  1  0.47769400  0.03782000  0.13026500  1
  Pb  Pb15  1  0.67412100  0.94685400  0.82894900  1
  Pb  Pb16  1  0.47727400  0.53843300  0.62989800  1
  Pb  Pb17  1  0.27881500  0.14390200  0.43475600  1
  Pb  Pb18  1  0.08765400  0.74240400  0.22680200  1
  Pb  Pb19  1  0.87638900  0.34575800  0.03096200  1
  O  O20  1  0.98604600  0.26462100  0.23663500  1
  O  O21  1  0.78215900  0.85406500  0.03993500  1
  O  O22  1  0.58779500  0.46339500  0.83853100  1
  O  O23  1  0.39158800  0.06487600  0.63599800  1
  O  O24  1  0.18893300  0.66069900  0.43740700  1
  O  O25  1  0.90335100  0.02856000  0.15351600  1
  O  O26  1  0.70094400  0.63287000  0.95893000  1
  O  O27  1  0.50592900  0.22918200  0.74911800  1
  O  O28  1  0.30226700  0.83027600  0.55181100  1
  O  O29  1  0.10094000  0.43052000  0.35186400  1
  O  O30  1  0.11045600  0.95821500  0.36056200  1
  O  O31  1  0.89860000  0.56401000  0.15581800  1
  O  O32  1  0.71020000  0.15473600  0.96092900  1
  O  O33  1  0.51034300  0.75966800  0.76028200  1
  O  O34  1  0.31541500  0.35442200  0.55995200  1
  O  O35  1  0.68904400  0.16879800  0.44699500  1
  O  O36  1  0.49334400  0.76658200  0.23685000  1
  O  O37  1  0.28931200  0.36884300  0.03903800  1
  O  O38  1  0.08851300  0.96789800  0.83959500  1
  O  O39  1  0.89091400  0.56615200  0.64077600  1
  O  O40  1  0.49796700  0.23411400  0.24784400  1
  O  O41  1  0.30317300  0.82974100  0.04755200  1
  O  O42  1  0.09752500  0.43276800  0.84773600  1
  O  O43  1  0.88704500  0.04039800  0.64386200  1
  O  O44  1  0.69756500  0.62962500  0.44816500  1
  O  O45  1  0.61311400  0.95052000  0.36387400  1
  O  O46  1  0.41576100  0.55271500  0.16061500  1
  O  O47  1  0.21471000  0.14800000  0.96285500  1
  O  O48  1  0.01122000  0.75250300  0.76180200  1
  O  O49  1  0.80555400  0.34222700  0.56341500  1
