# generated using pymatgen
data_La20S29O
_symmetry_space_group_name_H-M   'P 1'
_cell_length_a   15.05371367
_cell_length_b   15.05371367
_cell_length_c   15.05371367
_cell_angle_alpha   62.17570403
_cell_angle_beta   62.17570403
_cell_angle_gamma   93.81163948
_symmetry_Int_Tables_number   1
_chemical_formula_structural   La20S29O
_chemical_formula_sum   'La40 S58 O2'
_cell_volume   2485.59227637
_cell_formula_units_Z   2
loop_
 _symmetry_equiv_pos_site_id
 _symmetry_equiv_pos_as_xyz
  1  'x, y, z'
loop_
 _atom_site_type_symbol
 _atom_site_label
 _atom_site_symmetry_multiplicity
 _atom_site_fract_x
 _atom_site_fract_y
 _atom_site_fract_z
 _atom_site_occupancy
  La  La0  1  0.17253612  0.57513838  0.84462044  1
  La  La1  1  0.67253612  0.51715656  0.40260226  1
  La  La2  1  0.57546729  0.17019844  0.34601749  1
  La  La3  1  0.07546729  0.42148478  0.59473115  1
  La  La4  1  0.82980156  0.42453271  0.15398251  1
  La  La5  1  0.32980156  0.48378407  0.59473115  1
  La  La6  1  0.42486162  0.82746388  0.65537956  1
  La  La7  1  0.92486162  0.58024118  0.40260226  1
  La  La8  1  0.41975882  0.07513838  0.09739774  1
  La  La9  1  0.91975882  0.01715656  0.65537956  1
  La  La10  1  0.51621593  0.67019844  0.90526885  1
  La  La11  1  0.01621593  0.92148478  0.15398251  1
  La  La12  1  0.57851522  0.92453271  0.90526885  1
  La  La13  1  0.07851522  0.98378407  0.34601749  1
  La  La14  1  0.48284344  0.32746388  0.09739774  1
  La  La15  1  0.98284344  0.08024118  0.84462044  1
  La  La16  1  0.26282301  0.01282301  0.47435397  1
  La  La17  1  0.76282301  0.23717699  0.75000000  1
  La  La18  1  0.01359051  0.26359051  0.97281898  1
  La  La19  1  0.51359051  0.48640949  0.25000000  1
  La  La20  1  0.73640949  0.98640949  0.52718102  1
  La  La21  1  0.23640949  0.76359051  0.25000000  1
  La  La22  1  0.98717699  0.73717699  0.02564603  1
  La  La23  1  0.48717699  0.51282301  0.75000000  1
  La  La24  1  0.40409526  0.81292328  0.38558453  1
  La  La25  1  0.90409526  0.28967979  0.40882803  1
  La  La26  1  0.81805324  0.42752523  0.87237560  1
  La  La27  1  0.31805324  0.19042884  0.60947200  1
  La  La28  1  0.57247477  0.18194676  0.62762440  1
  La  La29  1  0.07247477  0.70009917  0.60947200  1
  La  La30  1  0.18707672  0.59590474  0.11441547  1
  La  La31  1  0.68707672  0.80149219  0.40882803  1
  La  La32  1  0.19850781  0.31292328  0.09117197  1
  La  La33  1  0.69850781  0.78967979  0.11441547  1
  La  La34  1  0.29990083  0.92752523  0.89052800  1
  La  La35  1  0.79990083  0.69042884  0.62762440  1
  La  La36  1  0.80957116  0.68194676  0.89052800  1
  La  La37  1  0.30957116  0.20009917  0.87237560  1
  La  La38  1  0.71032021  0.09590474  0.09117197  1
  La  La39  1  0.21032021  0.30149219  0.38558453  1
  S  S40  1  0.20837970  0.74819412  0.88804639  1
  S  S41  1  0.70837970  0.59642609  0.53981441  1
  S  S42  1  0.73944035  0.20674050  0.39351812  1
  S  S43  1  0.23944035  0.63295847  0.46730015  1
  S  S44  1  0.79325950  0.26055965  0.10648188  1
  S  S45  1  0.29325950  0.39974138  0.46730015  1
  S  S46  1  0.25180588  0.79162030  0.61195361  1
  S  S47  1  0.75180588  0.36375949  0.53981441  1
  S  S48  1  0.63624051  0.24819412  0.96018559  1
  S  S49  1  0.13624051  0.09642609  0.61195361  1
  S  S50  1  0.60025862  0.70674050  0.03269985  1
  S  S51  1  0.10025862  0.13295847  0.10648188  1
  S  S52  1  0.36704153  0.76055965  0.03269985  1
  S  S53  1  0.86704153  0.89974138  0.39351812  1
  S  S54  1  0.40357391  0.29162030  0.96018559  1
  S  S55  1  0.90357391  0.86375949  0.88804639  1
  S  S56  1  0.03016069  0.88758081  0.58947790  1
  S  S57  1  0.53016069  0.11963859  0.85742012  1
  S  S58  1  0.89307755  0.03679584  0.08261381  1
  S  S59  1  0.39307755  0.47569135  0.14371830  1
  S  S60  1  0.96320416  0.10692245  0.41738619  1
  S  S61  1  0.46320416  0.88059035  0.14371830  1
  S  S62  1  0.11241919  0.96983931  0.91052210  1
  S  S63  1  0.61241919  0.52294129  0.85742012  1
  S  S64  1  0.47705871  0.38758081  0.64257988  1
  S  S65  1  0.97705871  0.61963859  0.91052210  1
  S  S66  1  0.11940965  0.53679584  0.35628170  1
  S  S67  1  0.61940965  0.97569135  0.41738619  1
  S  S68  1  0.52430865  0.60692245  0.35628170  1
  S  S69  1  0.02430865  0.38059035  0.08261381  1
  S  S70  1  0.88036141  0.46983931  0.64257988  1
  S  S71  1  0.38036141  0.02294129  0.58947790  1
  S  S72  1  0.43365640  0.66755749  0.58472104  1
  S  S73  1  0.93365640  0.51837744  0.23390110  1
  S  S74  1  0.67007159  0.43745240  0.08070139  1
  S  S75  1  0.17007159  0.25077298  0.76738081  1
  S  S76  1  0.56254760  0.32992841  0.41929861  1
  S  S77  1  0.06254760  0.48184622  0.76738081  1
  S  S78  1  0.33244251  0.56634360  0.91527896  1
  S  S79  1  0.83244251  0.74772147  0.23390110  1
  S  S80  1  0.25227853  0.16755749  0.26609890  1
  S  S81  1  0.75227853  0.01837744  0.91527896  1
  S  S82  1  0.51815378  0.93745240  0.73261919  1
  S  S83  1  0.01815378  0.75077298  0.41929861  1
  S  S84  1  0.74922702  0.82992841  0.73261919  1
  S  S85  1  0.24922702  0.98184622  0.08070139  1
  S  S86  1  0.48162256  0.06634360  0.26609890  1
  S  S87  1  0.98162256  0.24772147  0.58472104  1
  S  S88  1  0.59935619  0.74873073  0.65409596  1
  S  S89  1  0.09935619  0.75345215  0.14937454  1
  S  S90  1  0.75126927  0.59717330  0.14937454  1
  S  S91  1  0.25126927  0.40064381  0.84590404  1
  S  S92  1  0.40282670  0.24873073  0.35062546  1
  S  S93  1  0.90282670  0.25345215  0.84590404  1
  S  S94  1  0.74654785  0.09717330  0.65409596  1
  S  S95  1  0.24654785  0.90064381  0.35062546  1
  S  S96  1  0.62500000  0.87500000  0.25000000  1
  S  S97  1  0.12500000  0.37500000  0.25000000  1
  O  O98  1  0.87500000  0.62500000  0.75000000  1
  O  O99  1  0.37500000  0.12500000  0.75000000  1
