# generated using pymatgen
data_FePRh
_symmetry_space_group_name_H-M   'P 1'
_cell_length_a   6.10092025
_cell_length_b   6.10092025
_cell_length_c   3.60944400
_cell_angle_alpha   90.00000000
_cell_angle_beta   90.00000000
_cell_angle_gamma   120.00000276
_symmetry_Int_Tables_number   1
_chemical_formula_structural   FePRh
_chemical_formula_sum   'Fe3 P3 Rh3'
_cell_volume   116.34872393
_cell_formula_units_Z   3
loop_
 _symmetry_equiv_pos_site_id
 _symmetry_equiv_pos_as_xyz
  1  'x, y, z'
loop_
 _atom_site_type_symbol
 _atom_site_label
 _atom_site_symmetry_multiplicity
 _atom_site_fract_x
 _atom_site_fract_y
 _atom_site_fract_z
 _atom_site_occupancy
  Fe  Fe0  1  0.38967400  0.38967400  0.50000000  1
  Fe  Fe1  1  0.61032600  0.00000000  0.50000000  1
  Fe  Fe2  1  0.00000000  0.61032600  0.50000000  1
  P  P3  1  0.66666700  0.33333300  0.00000000  1
  P  P4  1  0.33333300  0.66666700  0.00000000  1
  P  P5  1  0.00000000  0.00000000  0.50000000  1
  Rh  Rh6  1  0.73133900  0.73133900  0.00000000  1
  Rh  Rh7  1  0.26866100  0.00000000  0.00000000  1
  Rh  Rh8  1  0.00000000  0.26866100  0.00000000  1
