# generated using pymatgen
data_Ga2S3
_symmetry_space_group_name_H-M   'P 1'
_cell_length_a   6.52421769
_cell_length_b   6.52421769
_cell_length_c   6.52421769
_cell_angle_alpha   146.93804110
_cell_angle_beta   130.43108507
_cell_angle_gamma   60.88172321
_symmetry_Int_Tables_number   1
_chemical_formula_structural   Ga2S3
_chemical_formula_sum   'Ga2 S3'
_cell_volume   114.23271602
_cell_formula_units_Z   1
loop_
 _symmetry_equiv_pos_site_id
 _symmetry_equiv_pos_as_xyz
  1  'x, y, z'
loop_
 _atom_site_type_symbol
 _atom_site_label
 _atom_site_symmetry_multiplicity
 _atom_site_fract_x
 _atom_site_fract_y
 _atom_site_fract_z
 _atom_site_occupancy
  Ga  Ga0  1  0.83210400  0.83984100  0.99226300  1
  Ga  Ga1  1  0.15242200  0.16015900  0.99226300  1
  S  S2  1  0.08944100  0.33376200  0.75567800  1
  S  S3  1  0.42191600  0.66623800  0.75567800  1
  S  S4  1  0.75411700  0.00000000  0.75411700  1
