# generated using pymatgen
data_GaSnSe2
_symmetry_space_group_name_H-M   'P 1'
_cell_length_a   3.91372700
_cell_length_b   4.57174900
_cell_length_c   11.29678600
_cell_angle_alpha   90.00000000
_cell_angle_beta   90.00000000
_cell_angle_gamma   90.00000000
_symmetry_Int_Tables_number   1
_chemical_formula_structural   GaSnSe2
_chemical_formula_sum   'Ga2 Sn2 Se4'
_cell_volume   202.12861899
_cell_formula_units_Z   2
loop_
 _symmetry_equiv_pos_site_id
 _symmetry_equiv_pos_as_xyz
  1  'x, y, z'
loop_
 _atom_site_type_symbol
 _atom_site_label
 _atom_site_symmetry_multiplicity
 _atom_site_fract_x
 _atom_site_fract_y
 _atom_site_fract_z
 _atom_site_occupancy
  Ga  Ga0  1  0.00000000  0.12172300  0.62329400  1
  Ga  Ga1  1  0.00000000  0.87827700  0.12329400  1
  Sn  Sn2  1  0.50000000  0.34193000  0.39334600  1
  Sn  Sn3  1  0.50000000  0.65807000  0.89334600  1
  Se  Se4  1  0.00000000  0.23732000  0.84393700  1
  Se  Se5  1  0.00000000  0.76268000  0.34393700  1
  Se  Se6  1  0.50000000  0.24315600  0.13942300  1
  Se  Se7  1  0.50000000  0.75684400  0.63942300  1
