# generated using pymatgen
data_GdDyNi2
_symmetry_space_group_name_H-M   'P 1'
_cell_length_a   4.23721400
_cell_length_b   5.46501200
_cell_length_c   10.68787997
_cell_angle_alpha   82.91412528
_cell_angle_beta   90.00000000
_cell_angle_gamma   90.00000000
_symmetry_Int_Tables_number   1
_chemical_formula_structural   GdDyNi2
_chemical_formula_sum   'Gd3 Dy3 Ni6'
_cell_volume   245.60283644
_cell_formula_units_Z   3
loop_
 _symmetry_equiv_pos_site_id
 _symmetry_equiv_pos_as_xyz
  1  'x, y, z'
loop_
 _atom_site_type_symbol
 _atom_site_label
 _atom_site_symmetry_multiplicity
 _atom_site_fract_x
 _atom_site_fract_y
 _atom_site_fract_z
 _atom_site_occupancy
  Gd  Gd0  1  0.00000000  0.58319400  0.21248800  1
  Gd  Gd1  1  0.50000000  0.25812200  0.45330600  1
  Gd  Gd2  1  0.00000000  0.74156200  0.54767600  1
  Dy  Dy3  1  0.50000000  0.10438700  0.11822000  1
  Dy  Dy4  1  0.00000000  0.89607700  0.88074600  1
  Dy  Dy5  1  0.50000000  0.41632500  0.78790400  1
  Ni  Ni6  1  0.50000000  0.62066900  0.02330200  1
  Ni  Ni7  1  0.00000000  0.37859100  0.97498000  1
  Ni  Ni8  1  0.50000000  0.78879200  0.35827900  1
  Ni  Ni9  1  0.00000000  0.21200100  0.64285400  1
  Ni  Ni10  1  0.50000000  0.94647100  0.69210600  1
  Ni  Ni11  1  0.00000000  0.05380700  0.30813600  1
