# generated using pymatgen
data_GdDy3Ni4
_symmetry_space_group_name_H-M   'P 1'
_cell_length_a   4.19259600
_cell_length_b   5.46988300
_cell_length_c   7.13140419
_cell_angle_alpha   89.98691214
_cell_angle_beta   90.00000000
_cell_angle_gamma   90.00000000
_symmetry_Int_Tables_number   1
_chemical_formula_structural   GdDy3Ni4
_chemical_formula_sum   'Gd1 Dy3 Ni4'
_cell_volume   163.54455630
_cell_formula_units_Z   1
loop_
 _symmetry_equiv_pos_site_id
 _symmetry_equiv_pos_as_xyz
  1  'x, y, z'
loop_
 _atom_site_type_symbol
 _atom_site_label
 _atom_site_symmetry_multiplicity
 _atom_site_fract_x
 _atom_site_fract_y
 _atom_site_fract_z
 _atom_site_occupancy
  Gd  Gd0  1  0.00000000  0.63416400  0.32068500  1
  Dy  Dy1  1  0.00000000  0.86619200  0.82006300  1
  Dy  Dy2  1  0.50000000  0.36535300  0.68095100  1
  Dy  Dy3  1  0.50000000  0.13417300  0.17912700  1
  Ni  Ni4  1  0.00000000  0.12586800  0.46258300  1
  Ni  Ni5  1  0.00000000  0.37350600  0.96097900  1
  Ni  Ni6  1  0.50000000  0.87546600  0.53943700  1
  Ni  Ni7  1  0.50000000  0.62527700  0.03617500  1
