# generated using pymatgen
data_Ga2AsP
_symmetry_space_group_name_H-M   'P 1'
_cell_length_a   6.87880789
_cell_length_b   6.87880789
_cell_length_c   6.87880799
_cell_angle_alpha   33.59428967
_cell_angle_beta   33.59428967
_cell_angle_gamma   33.59428881
_symmetry_Int_Tables_number   1
_chemical_formula_structural   Ga2AsP
_chemical_formula_sum   'Ga2 As1 P1'
_cell_volume   88.76538389
_cell_formula_units_Z   1
loop_
 _symmetry_equiv_pos_site_id
 _symmetry_equiv_pos_as_xyz
  1  'x, y, z'
loop_
 _atom_site_type_symbol
 _atom_site_label
 _atom_site_symmetry_multiplicity
 _atom_site_fract_x
 _atom_site_fract_y
 _atom_site_fract_z
 _atom_site_occupancy
  Ga  Ga0  1  0.99759200  0.99759200  0.99759200  1
  Ga  Ga1  1  0.50245200  0.50245200  0.50245200  1
  As  As2  1  0.12502200  0.12502200  0.12502200  1
  P  P3  1  0.62493400  0.62493400  0.62493400  1
