# generated using pymatgen
data_Gd3YV4O16
_symmetry_space_group_name_H-M   'P 1'
_cell_length_a   6.05998483
_cell_length_b   6.05998483
_cell_length_c   10.28118200
_cell_angle_alpha   90.00000000
_cell_angle_beta   90.00000000
_cell_angle_gamma   116.06520265
_symmetry_Int_Tables_number   1
_chemical_formula_structural   Gd3YV4O16
_chemical_formula_sum   'Gd3 Y1 V4 O16'
_cell_volume   339.16022077
_cell_formula_units_Z   1
loop_
 _symmetry_equiv_pos_site_id
 _symmetry_equiv_pos_as_xyz
  1  'x, y, z'
loop_
 _atom_site_type_symbol
 _atom_site_label
 _atom_site_symmetry_multiplicity
 _atom_site_fract_x
 _atom_site_fract_y
 _atom_site_fract_z
 _atom_site_occupancy
  Gd  Gd0  1  0.50000000  0.50000000  0.00000000  1
  Gd  Gd1  1  0.50000000  0.00000000  0.25060100  1
  Gd  Gd2  1  0.00000000  0.50000000  0.74939900  1
  Y  Y3  1  0.00000000  0.00000000  0.50000000  1
  V  V4  1  0.00000000  0.50000000  0.25162700  1
  V  V5  1  0.50000000  0.00000000  0.74837300  1
  V  V6  1  0.50000000  0.50000000  0.50000000  1
  V  V7  1  0.00000000  0.00000000  0.00000000  1
  O  O8  1  0.91972000  0.23394100  0.34322700  1
  O  O9  1  0.41786100  0.73540200  0.84090000  1
  O  O10  1  0.23338700  0.41590800  0.59130000  1
  O  O11  1  0.73437000  0.91786800  0.09173700  1
  O  O12  1  0.41590800  0.23338700  0.40870000  1
  O  O13  1  0.91786800  0.73437000  0.90826300  1
  O  O14  1  0.73540200  0.41786100  0.15910000  1
  O  O15  1  0.23394100  0.91972000  0.65677300  1
  O  O16  1  0.58409200  0.76661300  0.40870000  1
  O  O17  1  0.08213200  0.26563000  0.90826300  1
  O  O18  1  0.26459800  0.58213900  0.15910000  1
  O  O19  1  0.76605900  0.08028000  0.65677300  1
  O  O20  1  0.08028000  0.76605900  0.34322700  1
  O  O21  1  0.58213900  0.26459800  0.84090000  1
  O  O22  1  0.76661300  0.58409200  0.59130000  1
  O  O23  1  0.26563000  0.08213200  0.09173700  1
