# generated using pymatgen
data_Sb26O53
_symmetry_space_group_name_H-M   'P 1'
_cell_length_a   4.98277355
_cell_length_b   5.55387647
_cell_length_c   44.57884934
_cell_angle_alpha   102.05060374
_cell_angle_beta   113.70835539
_cell_angle_gamma   90.33493130
_symmetry_Int_Tables_number   1
_chemical_formula_structural   Sb26O53
_chemical_formula_sum   'Sb26 O53'
_cell_volume   1099.08687618
_cell_formula_units_Z   1
loop_
 _symmetry_equiv_pos_site_id
 _symmetry_equiv_pos_as_xyz
  1  'x, y, z'
loop_
 _atom_site_type_symbol
 _atom_site_label
 _atom_site_symmetry_multiplicity
 _atom_site_fract_x
 _atom_site_fract_y
 _atom_site_fract_z
 _atom_site_occupancy
  Sb  Sb0  1  0.25478400  0.70795500  0.86928300  1
  Sb  Sb1  1  0.59278100  0.41527500  0.93854300  1
  Sb  Sb2  1  0.23394400  0.73814400  0.72209600  1
  Sb  Sb3  1  0.52970200  0.47186600  0.79573000  1
  Sb  Sb4  1  0.83437400  0.19515400  0.86922400  1
  Sb  Sb5  1  0.07222300  0.92065300  0.94669300  1
  Sb  Sb6  1  0.21950300  0.75000400  0.57323700  1
  Sb  Sb7  1  0.51228000  0.48985700  0.64655400  1
  Sb  Sb8  1  0.80852100  0.23169200  0.72000100  1
  Sb  Sb9  1  0.02959200  0.97251300  0.79515400  1
  Sb  Sb10  1  0.20765300  0.75412900  0.42398800  1
  Sb  Sb11  1  0.49956900  0.49735800  0.49729300  1
  Sb  Sb12  1  0.79228500  0.24107900  0.57058400  1
  Sb  Sb13  1  0.01267300  0.98996600  0.64654700  1
  Sb  Sb14  1  0.18928100  0.75172400  0.27533200  1
  Sb  Sb15  1  0.48694100  0.49972400  0.34816900  1
  Sb  Sb16  1  0.77990500  0.24496100  0.42129800  1
  Sb  Sb17  1  0.00004700  0.99733700  0.49729700  1
  Sb  Sb18  1  0.45338500  0.51327100  0.19900700  1
  Sb  Sb19  1  0.75750100  0.25224300  0.27201100  1
  Sb  Sb20  1  0.98669600  0.99974400  0.34803700  1
  Sb  Sb21  1  0.59920500  0.63086000  0.08486200  1
  Sb  Sb22  1  0.74183500  0.24926000  0.13985400  1
  Sb  Sb23  1  0.98397500  0.99335100  0.20045700  1
  Sb  Sb24  1  0.80649500  0.45852200  0.01434200  1
  Sb  Sb25  1  0.95112500  0.02750100  0.06027100  1
  O  O26  1  0.09748900  0.93499100  0.89994900  1
  O  O27  1  0.41605000  0.32433200  0.96735700  1
  O  O28  1  0.21853600  0.43093700  0.89955400  1
  O  O29  1  0.02216000  0.94313400  0.74854700  1
  O  O30  1  0.29425900  0.28969300  0.81306800  1
  O  O31  1  0.20577300  0.44601200  0.74901700  1
  O  O32  1  0.73023200  0.10786200  0.92434700  1
  O  O33  1  0.39041900  0.79135500  0.81298500  1
  O  O34  1  0.90451800  0.59394500  0.98091900  1
  O  O35  1  0.74456900  0.62513000  0.91732100  1
  O  O36  1  0.01138200  0.95781100  0.59995800  1
  O  O37  1  0.96869300  0.13594200  0.99867700  1
  O  O38  1  0.29105200  0.30078700  0.66483300  1
  O  O39  1  0.18632400  0.46001300  0.60008400  1
  O  O40  1  0.66998200  0.15515000  0.77796500  1
  O  O41  1  0.36477300  0.80126400  0.66473700  1
  O  O42  1  0.84802600  0.49946200  0.84294800  1
  O  O43  1  0.76317900  0.65622900  0.77822800  1
  O  O44  1  0.99969000  0.96302300  0.45071200  1
  O  O45  1  0.04621600  0.00361600  0.84238300  1
  O  O46  1  0.27970500  0.30727800  0.51556700  1
  O  O47  1  0.17379900  0.46496200  0.45080200  1
  O  O48  1  0.66028700  0.17808100  0.62867100  1
  O  O49  1  0.35098200  0.80831900  0.51545900  1
  O  O50  1  0.84026600  0.51928200  0.69309900  1
  O  O51  1  0.73493000  0.67942600  0.62855400  1
  O  O52  1  0.98257300  0.96334900  0.30148600  1
  O  O53  1  0.01448900  0.02096900  0.69324000  1
  O  O54  1  0.26791300  0.30880200  0.36635400  1
  O  O55  1  0.15930400  0.46718300  0.30169700  1
  O  O56  1  0.64929400  0.18652000  0.47940400  1
  O  O57  1  0.33714700  0.81001900  0.36627100  1
  O  O58  1  0.82634700  0.52958900  0.54395700  1
  O  O59  1  0.72109100  0.68765600  0.47930000  1
  O  O60  1  0.97529500  0.97297700  0.15568600  1
  O  O61  1  0.00109000  0.03167400  0.54408900  1
  O  O62  1  0.26865900  0.30714200  0.21929600  1
  O  O63  1  0.11052100  0.45977900  0.15445500  1
  O  O64  1  0.63654600  0.18951900  0.33034300  1
  O  O65  1  0.33559800  0.81908500  0.22037200  1
  O  O66  1  0.81476200  0.53327900  0.39470800  1
  O  O67  1  0.70577800  0.69036600  0.32991600  1
  O  O68  1  0.15046400  0.05010800  0.02867900  1
  O  O69  1  0.98810800  0.03481600  0.39478900  1
  O  O70  1  0.17255500  0.61462100  0.05480400  1
  O  O71  1  0.62880900  0.21371700  0.17840000  1
  O  O72  1  0.79646400  0.52855200  0.24505900  1
  O  O73  1  0.70821400  0.69087200  0.18471100  1
  O  O74  1  0.96725500  0.04338100  0.24574200  1
  O  O75  1  0.67402000  0.27344900  0.03928800  1
  O  O76  1  0.48495800  0.47470900  0.11639400  1
  O  O77  1  0.63114800  0.75299400  0.02775100  1
  O  O78  1  0.53542800  0.00038600  0.09786500  1
