# generated using pymatgen
data_Ga2CuAgTe4
_symmetry_space_group_name_H-M   'P 1'
_cell_length_a   7.54857280
_cell_length_b   7.54857280
_cell_length_c   7.54857280
_cell_angle_alpha   131.14268178
_cell_angle_beta   131.14268178
_cell_angle_gamma   71.58648550
_symmetry_Int_Tables_number   1
_chemical_formula_structural   Ga2CuAgTe4
_chemical_formula_sum   'Ga2 Cu1 Ag1 Te4'
_cell_volume   238.68401723
_cell_formula_units_Z   1
loop_
 _symmetry_equiv_pos_site_id
 _symmetry_equiv_pos_as_xyz
  1  'x, y, z'
loop_
 _atom_site_type_symbol
 _atom_site_label
 _atom_site_symmetry_multiplicity
 _atom_site_fract_x
 _atom_site_fract_y
 _atom_site_fract_z
 _atom_site_occupancy
  Ga  Ga0  1  0.75000000  0.25000000  0.50000000  1
  Ga  Ga1  1  0.50000000  0.50000000  0.00000000  1
  Cu  Cu2  1  0.00000000  0.00000000  0.00000000  1
  Ag  Ag3  1  0.25000000  0.75000000  0.50000000  1
  Te  Te4  1  0.11804100  0.13290800  0.48955400  1
  Te  Te5  1  0.64335400  0.62848800  0.51044600  1
  Te  Te6  1  0.37151200  0.88195900  0.01486600  1
  Te  Te7  1  0.86709200  0.35664600  0.98513400  1
