# generated using pymatgen
data_Na4V10Co(H11O13)4
_symmetry_space_group_name_H-M   'P 1'
_cell_length_a   9.00261400
_cell_length_b   11.42576399
_cell_length_c   11.85234488
_cell_angle_alpha   105.53092421
_cell_angle_beta   96.24034820
_cell_angle_gamma   100.53901703
_symmetry_Int_Tables_number   1
_chemical_formula_structural   Na4V10Co(H11O13)4
_chemical_formula_sum   'Na4 V10 Co1 H44 O52'
_cell_volume   1138.71005549
_cell_formula_units_Z   1
loop_
 _symmetry_equiv_pos_site_id
 _symmetry_equiv_pos_as_xyz
  1  'x, y, z'
loop_
 _atom_site_type_symbol
 _atom_site_label
 _atom_site_symmetry_multiplicity
 _atom_site_fract_x
 _atom_site_fract_y
 _atom_site_fract_z
 _atom_site_occupancy
  Na  Na0  1  0.78749400  0.90310400  0.20441800  1
  Na  Na1  1  0.21250600  0.09689600  0.79558200  1
  Na  Na2  1  0.00000000  0.00000000  0.50000000  1
  Na  Na3  1  0.00000000  0.00000000  0.00000000  1
  V  V4  1  0.53233200  0.47385600  0.72590200  1
  V  V5  1  0.46766800  0.52614400  0.27409800  1
  V  V6  1  0.67025700  0.75644200  0.74386400  1
  V  V7  1  0.32974300  0.24355800  0.25613600  1
  V  V8  1  0.46015700  0.73612100  0.50288400  1
  V  V9  1  0.53984300  0.26387900  0.49711600  1
  V  V10  1  0.31385100  0.44878900  0.48168100  1
  V  V11  1  0.68614900  0.55121100  0.51831900  1
  V  V12  1  0.31564700  0.66009600  0.71186900  1
  V  V13  1  0.68435300  0.33990400  0.28813100  1
  Co  Co14  1  0.00000000  0.50000000  0.00000000  1
  H  H15  1  0.01153500  0.18248200  0.36256800  1
  H  H16  1  0.98846500  0.81751800  0.63743200  1
  H  H17  1  0.25857700  0.03143900  0.37650900  1
  H  H18  1  0.74142300  0.96856100  0.62349100  1
  H  H19  1  0.25151100  0.89941400  0.39220100  1
  H  H20  1  0.74848900  0.10058600  0.60779900  1
  H  H21  1  0.13767100  0.37050500  0.12587700  1
  H  H22  1  0.86232900  0.62949500  0.87412300  1
  H  H23  1  0.75544600  0.59584300  0.05738000  1
  H  H24  1  0.24455400  0.40415700  0.94262000  1
  H  H25  1  0.95979600  0.33952300  0.13267000  1
  H  H26  1  0.04020400  0.66047700  0.86733000  1
  H  H27  1  0.53952100  0.03863300  0.27923100  1
  H  H28  1  0.46047900  0.96136700  0.72076900  1
  H  H29  1  0.84363700  0.16376400  0.38545200  1
  H  H30  1  0.15636300  0.83623600  0.61454800  1
  H  H31  1  0.23937200  0.63825200  0.15487600  1
  H  H32  1  0.76062800  0.36174800  0.84512400  1
  H  H33  1  0.09157900  0.89547100  0.20633400  1
  H  H34  1  0.90842100  0.10452900  0.79366600  1
  H  H35  1  0.75583000  0.49378000  0.12447600  1
  H  H36  1  0.24417000  0.50622000  0.87552400  1
  H  H37  1  0.09002200  0.63628500  0.21747000  1
  H  H38  1  0.90997800  0.36371500  0.78253000  1
  H  H39  1  0.29523000  0.95327400  0.96405800  1
  H  H40  1  0.70477000  0.04672600  0.03594200  1
  H  H41  1  0.55105900  0.68106900  0.08716000  1
  H  H42  1  0.44894100  0.31893100  0.91284000  1
  H  H43  1  0.92007100  0.76152800  0.35160700  1
  H  H44  1  0.07992900  0.23847200  0.64839300  1
  H  H45  1  0.75543100  0.75707900  0.38117700  1
  H  H46  1  0.24456900  0.24292100  0.61882300  1
  H  H47  1  0.61277500  0.69627200  0.97104500  1
  H  H48  1  0.38722500  0.30372800  0.02895500  1
  H  H49  1  0.02603000  0.78781600  0.08751400  1
  H  H50  1  0.97397000  0.21218400  0.91248600  1
  H  H51  1  0.95931600  0.57951000  0.37247200  1
  H  H52  1  0.04068400  0.42049000  0.62752800  1
  H  H53  1  0.50826900  0.91483100  0.31526100  1
  H  H54  1  0.49173100  0.08516900  0.68473900  1
  H  H55  1  0.18282200  0.86863500  0.85114300  1
  H  H56  1  0.81717800  0.13136500  0.14885700  1
  H  H57  1  0.13787600  0.62291400  0.38783200  1
  H  H58  1  0.86212400  0.37708600  0.61216800  1
  O  O59  1  0.55843400  0.95473500  0.26059300  1
  O  O60  1  0.44156600  0.04526500  0.73940700  1
  O  O61  1  0.20735900  0.95318400  0.90669700  1
  O  O62  1  0.79264100  0.04681600  0.09330300  1
  O  O63  1  0.61482900  0.83121000  0.62377800  1
  O  O64  1  0.38517100  0.16879000  0.37622200  1
  O  O65  1  0.39142200  0.35178500  0.58088400  1
  O  O66  1  0.60857800  0.64821500  0.41911600  1
  O  O67  1  0.03348500  0.35784300  0.08000800  1
  O  O68  1  0.96651500  0.64215700  0.91999200  1
  O  O69  1  0.43004100  0.82960700  0.42205300  1
  O  O70  1  0.56995900  0.17039300  0.57794700  1
  O  O71  1  0.12949500  0.63945300  0.14218400  1
  O  O72  1  0.87050500  0.36054700  0.85781600  1
  O  O73  1  0.18566800  0.95279600  0.37136800  1
  O  O74  1  0.81433200  0.04720400  0.62863200  1
  O  O75  1  0.01699300  0.87100100  0.13180900  1
  O  O76  1  0.98300700  0.12899900  0.86819100  1
  O  O77  1  0.04087700  0.63820000  0.35331600  1
  O  O78  1  0.95912300  0.36180000  0.64668400  1
  O  O79  1  0.64479200  0.70627800  0.05539500  1
  O  O80  1  0.35520800  0.29372200  0.94460500  1
  O  O81  1  0.17555400  0.69864600  0.78337000  1
  O  O82  1  0.82444600  0.30135400  0.21663000  1
  O  O83  1  0.67721400  0.61808900  0.80330800  1
  O  O84  1  0.32278600  0.38191100  0.19669200  1
  O  O85  1  0.37044600  0.53562200  0.77712000  1
  O  O86  1  0.62955400  0.46437800  0.22288000  1
  O  O87  1  0.83992800  0.80996500  0.35852000  1
  O  O88  1  0.16007200  0.19003500  0.64148000  1
  O  O89  1  0.56234000  0.38024300  0.80673100  1
  O  O90  1  0.43766000  0.61975700  0.19326900  1
  O  O91  1  0.19556600  0.50976800  0.57756100  1
  O  O92  1  0.80443400  0.49023200  0.42243900  1
  O  O93  1  0.48879700  0.77263600  0.80002800  1
  O  O94  1  0.51120300  0.22736400  0.19997200  1
  O  O95  1  0.80167900  0.86533700  0.83955100  1
  O  O96  1  0.19832100  0.13466300  0.16044900  1
  O  O97  1  0.31004100  0.74612500  0.59697500  1
  O  O98  1  0.68995900  0.25387500  0.40302500  1
  O  O99  1  0.49748800  0.58792700  0.59723400  1
  O  O100  1  0.50251200  0.41207300  0.40276600  1
  O  O101  1  0.32657300  0.57095300  0.39599300  1
  O  O102  1  0.67342700  0.42904700  0.60400700  1
  O  O103  1  0.79955600  0.67792600  0.62762900  1
  O  O104  1  0.20044400  0.32207400  0.37237100  1
  O  O105  1  0.92553900  0.11829400  0.36684600  1
  O  O106  1  0.07446100  0.88170600  0.63315400  1
  O  O107  1  0.80644400  0.52725400  0.06603900  1
  O  O108  1  0.19355600  0.47274600  0.93396100  1
  O  O109  1  0.39318600  0.85914800  0.05514500  1
  O  O110  1  0.60681400  0.14085200  0.94485500  1
