# generated using pymatgen
data_Nd2Th3O9
_symmetry_space_group_name_H-M   'P 1'
_cell_length_a   14.42610137
_cell_length_b   14.42610137
_cell_length_c   14.42610137
_cell_angle_alpha   164.14247405
_cell_angle_beta   164.14247405
_cell_angle_gamma   22.49869192
_symmetry_Int_Tables_number   1
_chemical_formula_structural   Nd2Th3O9
_chemical_formula_sum   'Nd2 Th3 O9'
_cell_volume   224.11630971
_cell_formula_units_Z   1
loop_
 _symmetry_equiv_pos_site_id
 _symmetry_equiv_pos_as_xyz
  1  'x, y, z'
loop_
 _atom_site_type_symbol
 _atom_site_label
 _atom_site_symmetry_multiplicity
 _atom_site_fract_x
 _atom_site_fract_y
 _atom_site_fract_z
 _atom_site_occupancy
  Nd  Nd0  1  0.44383100  0.94383100  0.50000000  1
  Nd  Nd1  1  0.05616900  0.55616900  0.50000000  1
  Th  Th2  1  0.65036700  0.15036700  0.50000000  1
  Th  Th3  1  0.25000000  0.75000000  0.50000000  1
  Th  Th4  1  0.84963300  0.34963300  0.50000000  1
  O  O5  1  0.10598400  0.10598400  0.00000000  1
  O  O6  1  0.69721200  0.69721200  0.00000000  1
  O  O7  1  0.30278800  0.30278800  0.00000000  1
  O  O8  1  0.89401600  0.89401600  0.00000000  1
  O  O9  1  0.40504900  0.40504900  0.00000000  1
  O  O10  1  0.00000000  0.00000000  0.00000000  1
  O  O11  1  0.59495100  0.59495100  0.00000000  1
  O  O12  1  0.20342900  0.20342900  0.00000000  1
  O  O13  1  0.79657100  0.79657100  0.00000000  1
