# generated using pymatgen
data_Fe5O8
_symmetry_space_group_name_H-M   'P 1'
_cell_length_a   5.92069520
_cell_length_b   5.92069520
_cell_length_c   5.92069578
_cell_angle_alpha   61.23968348
_cell_angle_beta   61.23968348
_cell_angle_gamma   61.23968984
_symmetry_Int_Tables_number   1
_chemical_formula_structural   Fe5O8
_chemical_formula_sum   'Fe5 O8'
_cell_volume   150.84981344
_cell_formula_units_Z   1
loop_
 _symmetry_equiv_pos_site_id
 _symmetry_equiv_pos_as_xyz
  1  'x, y, z'
loop_
 _atom_site_type_symbol
 _atom_site_label
 _atom_site_symmetry_multiplicity
 _atom_site_fract_x
 _atom_site_fract_y
 _atom_site_fract_z
 _atom_site_occupancy
  Fe  Fe0  1  0.11819100  0.11819100  0.11819100  1
  Fe  Fe1  1  0.88180900  0.88180900  0.88180900  1
  Fe  Fe2  1  0.00000000  0.50000000  0.50000000  1
  Fe  Fe3  1  0.50000000  0.50000000  0.00000000  1
  Fe  Fe4  1  0.50000000  0.00000000  0.50000000  1
  O  O5  1  0.25527000  0.25527000  0.25527000  1
  O  O6  1  0.73066700  0.24639700  0.24639700  1
  O  O7  1  0.24639700  0.24639700  0.73066700  1
  O  O8  1  0.24639700  0.73066700  0.24639700  1
  O  O9  1  0.74473000  0.74473000  0.74473000  1
  O  O10  1  0.26933300  0.75360300  0.75360300  1
  O  O11  1  0.75360300  0.75360300  0.26933300  1
  O  O12  1  0.75360300  0.26933300  0.75360300  1
