# generated using pymatgen
data_Gd2NbInO7
_symmetry_space_group_name_H-M   'P 1'
_cell_length_a   7.50913374
_cell_length_b   7.50913374
_cell_length_c   7.50913374
_cell_angle_alpha   121.02323689
_cell_angle_beta   119.03742757
_cell_angle_gamma   89.95608199
_symmetry_Int_Tables_number   1
_chemical_formula_structural   Gd2NbInO7
_chemical_formula_sum   'Gd4 Nb2 In2 O14'
_cell_volume   299.15206051
_cell_formula_units_Z   2
loop_
 _symmetry_equiv_pos_site_id
 _symmetry_equiv_pos_as_xyz
  1  'x, y, z'
loop_
 _atom_site_type_symbol
 _atom_site_label
 _atom_site_symmetry_multiplicity
 _atom_site_fract_x
 _atom_site_fract_y
 _atom_site_fract_z
 _atom_site_occupancy
  Gd  Gd0  1  0.50000000  0.50000000  0.50000000  1
  Gd  Gd1  1  0.50000000  0.00000000  0.00000000  1
  Gd  Gd2  1  0.50000000  0.50000000  0.00000000  1
  Gd  Gd3  1  0.00000000  0.50000000  0.50000000  1
  Nb  Nb4  1  0.00000000  0.00000000  0.00000000  1
  Nb  Nb5  1  0.50000000  0.00000000  0.50000000  1
  In  In6  1  0.00000000  0.00000000  0.50000000  1
  In  In7  1  0.00000000  0.50000000  0.00000000  1
  O  O8  1  0.37924400  0.62924400  0.75000000  1
  O  O9  1  0.62075600  0.37075600  0.25000000  1
  O  O10  1  0.31474100  0.06474100  0.25000000  1
  O  O11  1  0.89514800  0.64514800  0.25000000  1
  O  O12  1  0.34947400  0.67307500  0.27178200  1
  O  O13  1  0.90129400  0.07769300  0.22821800  1
  O  O14  1  0.34947400  0.07769300  0.67639900  1
  O  O15  1  0.90129400  0.67307500  0.82360100  1
  O  O16  1  0.68525900  0.93525900  0.75000000  1
  O  O17  1  0.10485200  0.35485200  0.75000000  1
  O  O18  1  0.65052600  0.32692500  0.72821800  1
  O  O19  1  0.09870600  0.92230700  0.77178200  1
  O  O20  1  0.65052600  0.92230700  0.32360100  1
  O  O21  1  0.09870600  0.32692500  0.17639900  1
