# generated using pymatgen
data_FeRe2(MoS4)2
_symmetry_space_group_name_H-M   'P 1'
_cell_length_a   6.86131442
_cell_length_b   6.86131442
_cell_length_c   6.86131442
_cell_angle_alpha   120.15277718
_cell_angle_beta   119.51718018
_cell_angle_gamma   90.28694071
_symmetry_Int_Tables_number   1
_chemical_formula_structural   FeRe2(MoS4)2
_chemical_formula_sum   'Fe1 Re2 Mo2 S8'
_cell_volume   228.96356528
_cell_formula_units_Z   1
loop_
 _symmetry_equiv_pos_site_id
 _symmetry_equiv_pos_as_xyz
  1  'x, y, z'
loop_
 _atom_site_type_symbol
 _atom_site_label
 _atom_site_symmetry_multiplicity
 _atom_site_fract_x
 _atom_site_fract_y
 _atom_site_fract_z
 _atom_site_occupancy
  Fe  Fe0  1  0.00035100  0.00035100  0.00000000  1
  Re  Re1  1  0.39538700  0.60161400  0.20622700  1
  Re  Re2  1  0.39538700  0.18916000  0.79377300  1
  Mo  Mo3  1  0.39846100  0.60258400  0.79587700  1
  Mo  Mo4  1  0.80670700  0.60258400  0.20412300  1
  S  S5  1  0.63015700  0.36413200  0.26602600  1
  S  S6  1  0.09810600  0.36413200  0.73397400  1
  S  S7  1  0.63347100  0.36350300  0.73003200  1
  S  S8  1  0.63347100  0.90343900  0.26996800  1
  S  S9  1  0.14214900  0.86647600  0.27567300  1
  S  S10  1  0.59080400  0.86647600  0.72432700  1
  S  S11  1  0.13777500  0.86929900  0.73152400  1
  S  S12  1  0.13777500  0.40625000  0.26847600  1
