# generated using pymatgen
data_GaAg(GeSe3)2
_symmetry_space_group_name_H-M   'P 1'
_cell_length_a   7.34109009
_cell_length_b   7.34109009
_cell_length_c   12.79775656
_cell_angle_alpha   81.94384102
_cell_angle_beta   81.94384102
_cell_angle_gamma   120.38475654
_symmetry_Int_Tables_number   1
_chemical_formula_structural   GaAg(GeSe3)2
_chemical_formula_sum   'Ga2 Ag2 Ge4 Se12'
_cell_volume   570.82693443
_cell_formula_units_Z   2
loop_
 _symmetry_equiv_pos_site_id
 _symmetry_equiv_pos_as_xyz
  1  'x, y, z'
loop_
 _atom_site_type_symbol
 _atom_site_label
 _atom_site_symmetry_multiplicity
 _atom_site_fract_x
 _atom_site_fract_y
 _atom_site_fract_z
 _atom_site_occupancy
  Ga  Ga0  1  0.25073400  0.00172600  0.49949900  1
  Ga  Ga1  1  0.00172600  0.25073400  0.99949900  1
  Ag  Ag2  1  0.26476600  0.85771300  0.08168200  1
  Ag  Ag3  1  0.85771300  0.26476600  0.58168200  1
  Ge  Ge4  1  0.75490200  0.26120400  0.27340200  1
  Ge  Ge5  1  0.28278800  0.28506900  0.72682900  1
  Ge  Ge6  1  0.26120400  0.75490200  0.77340200  1
  Ge  Ge7  1  0.28506900  0.28278800  0.22682900  1
  Se  Se8  1  0.60663200  0.03861000  0.45626000  1
  Se  Se9  1  0.24978500  0.31631100  0.54283800  1
  Se  Se10  1  0.03861000  0.60663200  0.95626000  1
  Se  Se11  1  0.31631100  0.24978500  0.04283800  1
  Se  Se12  1  0.14085100  0.51115900  0.26099200  1
  Se  Se13  1  0.52202900  0.65233800  0.73988200  1
  Se  Se14  1  0.51115900  0.14085100  0.76099200  1
  Se  Se15  1  0.65233800  0.52202900  0.23988200  1
  Se  Se16  1  0.67732200  0.02367500  0.15174600  1
  Se  Se17  1  0.93051000  0.07987700  0.84767000  1
  Se  Se18  1  0.02367500  0.67732200  0.65174600  1
  Se  Se19  1  0.07987700  0.93051000  0.34767000  1
