# generated using pymatgen
data_NdTa3O9
_symmetry_space_group_name_H-M   'P 1'
_cell_length_a   5.57373370
_cell_length_b   16.72600247
_cell_length_c   9.69083348
_cell_angle_alpha   54.89576693
_cell_angle_beta   90.19845060
_cell_angle_gamma   90.34516665
_symmetry_Int_Tables_number   1
_chemical_formula_structural   NdTa3O9
_chemical_formula_sum   'Nd4 Ta12 O36'
_cell_volume   739.09770701
_cell_formula_units_Z   4
loop_
 _symmetry_equiv_pos_site_id
 _symmetry_equiv_pos_as_xyz
  1  'x, y, z'
loop_
 _atom_site_type_symbol
 _atom_site_label
 _atom_site_symmetry_multiplicity
 _atom_site_fract_x
 _atom_site_fract_y
 _atom_site_fract_z
 _atom_site_occupancy
  Nd  Nd0  1  0.26268600  0.91200900  0.00016600  1
  Nd  Nd1  1  0.25925100  0.24975300  0.99878500  1
  Nd  Nd2  1  0.73731400  0.75465800  0.99983400  1
  Nd  Nd3  1  0.74074900  0.41691400  0.00121500  1
  Ta  Ta4  1  0.24809200  0.99912600  0.24995900  1
  Ta  Ta5  1  0.25022100  0.83527500  0.73508900  1
  Ta  Ta6  1  0.25089800  0.50607800  0.74393400  1
  Ta  Ta7  1  0.25060700  0.65917100  0.26151300  1
  Ta  Ta8  1  0.25018800  0.33237400  0.26289400  1
  Ta  Ta9  1  0.24753600  0.16730700  0.74613400  1
  Ta  Ta10  1  0.74977900  0.83139100  0.26491100  1
  Ta  Ta11  1  0.75190800  0.66754100  0.75004100  1
  Ta  Ta12  1  0.75246400  0.49936000  0.25386600  1
  Ta  Ta13  1  0.74981200  0.33429200  0.73710600  1
  Ta  Ta14  1  0.74910200  0.16058900  0.25606600  1
  Ta  Ta15  1  0.74939300  0.00749600  0.73848700  1
  O  O16  1  0.01077600  0.92596100  0.20748900  1
  O  O17  1  0.99983600  0.76106600  0.21687500  1
  O  O18  1  0.98731700  0.41716900  0.23344400  1
  O  O19  1  0.01284500  0.09359300  0.23408000  1
  O  O20  1  0.22113000  0.90935700  0.49685600  1
  O  O21  1  0.22313700  0.57304500  0.50089000  1
  O  O22  1  0.22186100  0.23977700  0.50241300  1
  O  O23  1  0.29635800  0.76648100  0.99980300  1
  O  O24  1  0.29018600  0.42066400  0.99977300  1
  O  O25  1  0.27366800  0.09637100  0.00020700  1
  O  O26  1  0.50011900  0.91947800  0.74135500  1
  O  O27  1  0.49011900  0.91876800  0.23247200  1
  O  O28  1  0.50988100  0.74789900  0.76752800  1
  O  O29  1  0.49988100  0.74718900  0.25864500  1
  O  O30  1  0.50823800  0.58587800  0.73479300  1
  O  O31  1  0.51058000  0.59306500  0.23128300  1
  O  O32  1  0.50066800  0.40821300  0.77436600  1
  O  O33  1  0.50795900  0.40916200  0.26459700  1
  O  O34  1  0.49204100  0.25750500  0.73540300  1
  O  O35  1  0.49933200  0.25845300  0.22563400  1
  O  O36  1  0.48942000  0.07360200  0.76871700  1
  O  O37  1  0.49176200  0.08078800  0.26520700  1
  O  O38  1  0.70364200  0.90018500  0.00019700  1
  O  O39  1  0.72633200  0.57029600  0.99979300  1
  O  O40  1  0.70981400  0.24600300  0.00022700  1
  O  O41  1  0.77887000  0.75730900  0.50314400  1
  O  O42  1  0.77813900  0.42689000  0.49758700  1
  O  O43  1  0.77686300  0.09362200  0.49911000  1
  O  O44  1  0.00016400  0.90560000  0.78312500  1
  O  O45  1  0.98922400  0.74070600  0.79251100  1
  O  O46  1  0.98715500  0.57307400  0.76592000  1
  O  O47  1  0.98877900  0.60236500  0.20674800  1
  O  O48  1  0.99932000  0.39819300  0.80454900  1
  O  O49  1  0.01268300  0.24949800  0.76655600  1
  O  O50  1  0.00068000  0.26847300  0.19545100  1
  O  O51  1  0.01122100  0.06430200  0.79325200  1
