data_image0
_chemical_formula_structural       H64La16Mg8Ni16
_chemical_formula_sum              "H64 La16 Mg8 Ni16"
_cell_length_a       11.7137
_cell_length_b       7.71889
_cell_length_c       11.8817
_cell_angle_alpha    90
_cell_angle_beta     92.8119
_cell_angle_gamma    90

_space_group_name_H-M_alt    "P 1"
_space_group_IT_number       1

loop_
  _space_group_symop_operation_xyz
  'x, y, z'

loop_
  _atom_site_type_symbol
  _atom_site_label
  _atom_site_symmetry_multiplicity
  _atom_site_fract_x
  _atom_site_fract_y
  _atom_site_fract_z
  _atom_site_occupancy
  H   H1        1.0  0.26400  0.92600  0.03320  1.0000
  H   H2        1.0  0.59200  0.28500  0.03710  1.0000
  H   H3        1.0  0.74900  0.62800  0.04010  1.0000
  H   H4        1.0  0.95900  0.68400  0.04410  1.0000
  H   H5        1.0  0.43100  0.46500  0.06240  1.0000
  H   H6        1.0  0.93600  0.04360  0.07250  1.0000
  H   H7        1.0  0.57200  0.00499  0.07700  1.0000
  H   H8        1.0  0.15800  0.55400  0.08330  1.0000
  H   H9        1.0  0.53400  0.72100  0.09770  1.0000
  H   H10       1.0  0.18800  0.21000  0.13300  1.0000
  H   H11       1.0  0.77100  0.13600  0.17900  1.0000
  H   H12       1.0  0.13000  0.80900  0.18400  1.0000
  H   H13       1.0  0.33500  0.37600  0.21900  1.0000
  H   H14       1.0  0.45300  0.93300  0.23000  1.0000
  H   H15       1.0  0.74900  0.51500  0.23400  1.0000
  H   H16       1.0  0.97800  0.58500  0.24800  1.0000
  H   H17       1.0  0.02220  0.08480  0.25200  1.0000
  H   H18       1.0  0.25100  0.01520  0.26600  1.0000
  H   H19       1.0  0.54700  0.43300  0.27000  1.0000
  H   H20       1.0  0.66500  0.87600  0.28100  1.0000
  H   H21       1.0  0.87000  0.30900  0.31600  1.0000
  H   H22       1.0  0.22900  0.63600  0.32100  1.0000
  H   H23       1.0  0.81200  0.71000  0.36700  1.0000
  H   H24       1.0  0.46600  0.22100  0.40200  1.0000
  H   H25       1.0  0.84200  0.05400  0.41700  1.0000
  H   H26       1.0  0.42800  0.50500  0.42300  1.0000
  H   H27       1.0  0.06450  0.54400  0.42700  1.0000
  H   H28       1.0  0.56900  0.96500  0.43800  1.0000
  H   H29       1.0  0.04070  0.18400  0.45600  1.0000
  H   H30       1.0  0.25100  0.12800  0.46000  1.0000
  H   H31       1.0  0.40800  0.78500  0.46300  1.0000
  H   H32       1.0  0.73600  0.42600  0.46700  1.0000
  H   H33       1.0  0.26400  0.57400  0.53300  1.0000
  H   H34       1.0  0.59200  0.21500  0.53700  1.0000
  H   H35       1.0  0.74900  0.87200  0.54000  1.0000
  H   H36       1.0  0.95900  0.81600  0.54400  1.0000
  H   H37       1.0  0.43100  0.03510  0.56200  1.0000
  H   H38       1.0  0.93600  0.45600  0.57300  1.0000
  H   H39       1.0  0.57200  0.49500  0.57700  1.0000
  H   H40       1.0  0.15800  0.94600  0.58300  1.0000
  H   H41       1.0  0.53400  0.77900  0.59800  1.0000
  H   H42       1.0  0.18800  0.29000  0.63300  1.0000
  H   H43       1.0  0.77100  0.36400  0.67900  1.0000
  H   H44       1.0  0.13000  0.69100  0.68400  1.0000
  H   H45       1.0  0.33500  0.12400  0.71900  1.0000
  H   H46       1.0  0.45300  0.56700  0.73000  1.0000
  H   H47       1.0  0.74900  0.98500  0.73400  1.0000
  H   H48       1.0  0.97800  0.91500  0.74800  1.0000
  H   H49       1.0  0.02220  0.41500  0.75200  1.0000
  H   H50       1.0  0.25100  0.48500  0.76600  1.0000
  H   H51       1.0  0.54700  0.06670  0.77000  1.0000
  H   H52       1.0  0.66500  0.62400  0.78100  1.0000
  H   H53       1.0  0.87000  0.19100  0.81600  1.0000
  H   H54       1.0  0.22900  0.86400  0.82100  1.0000
  H   H55       1.0  0.81200  0.79000  0.86700  1.0000
  H   H56       1.0  0.46600  0.27900  0.90200  1.0000
  H   H57       1.0  0.84200  0.44600  0.91700  1.0000
  H   H58       1.0  0.42800  0.99500  0.92300  1.0000
  H   H59       1.0  0.06450  0.95600  0.92700  1.0000
  H   H60       1.0  0.56900  0.53500  0.93800  1.0000
  H   H61       1.0  0.04070  0.31600  0.95600  1.0000
  H   H62       1.0  0.25100  0.37200  0.96000  1.0000
  H   H63       1.0  0.40800  0.71500  0.96300  1.0000
  H   H64       1.0  0.73600  0.07390  0.96700  1.0000
  La  La1       1.0  0.40000  0.17300  0.08710  1.0000
  La  La2       1.0  0.89700  0.34400  0.11100  1.0000
  La  La3       1.0  0.33800  0.68100  0.15900  1.0000
  La  La4       1.0  0.83400  0.83700  0.18200  1.0000
  La  La5       1.0  0.16600  0.33700  0.31800  1.0000
  La  La6       1.0  0.66200  0.18100  0.34100  1.0000
  La  La7       1.0  0.10300  0.84400  0.38900  1.0000
  La  La8       1.0  0.60000  0.67300  0.41300  1.0000
  La  La9       1.0  0.40000  0.32700  0.58700  1.0000
  La  La10      1.0  0.89700  0.15600  0.61100  1.0000
  La  La11      1.0  0.33800  0.81900  0.65900  1.0000
  La  La12      1.0  0.83400  0.66300  0.68200  1.0000
  La  La13      1.0  0.16600  0.16300  0.81800  1.0000
  La  La14      1.0  0.66200  0.31900  0.84100  1.0000
  La  La15      1.0  0.10300  0.65600  0.88900  1.0000
  La  La16      1.0  0.60000  0.82700  0.91300  1.0000
  Mg  Mg1       1.0  0.10300  0.00304  0.08680  1.0000
  Mg  Mg2       1.0  0.61200  0.50200  0.11900  1.0000
  Mg  Mg3       1.0  0.38800  0.00204  0.38100  1.0000
  Mg  Mg4       1.0  0.89700  0.50300  0.41300  1.0000
  Mg  Mg5       1.0  0.10300  0.49700  0.58700  1.0000
  Mg  Mg6       1.0  0.61200  0.99800  0.61900  1.0000
  Mg  Mg7       1.0  0.38800  0.49800  0.88100  1.0000
  Mg  Mg8       1.0  0.89700  0.99700  0.91300  1.0000
  Ni  Ni1       1.0  0.15000  0.35100  0.04630  1.0000
  Ni  Ni2       1.0  0.67700  0.14500  0.08030  1.0000
  Ni  Ni3       1.0  0.05710  0.64500  0.14900  1.0000
  Ni  Ni4       1.0  0.57200  0.86900  0.18100  1.0000
  Ni  Ni5       1.0  0.42800  0.36900  0.31900  1.0000
  Ni  Ni6       1.0  0.94300  0.14500  0.35100  1.0000
  Ni  Ni7       1.0  0.32300  0.64500  0.42000  1.0000
  Ni  Ni8       1.0  0.85000  0.85100  0.45400  1.0000
  Ni  Ni9       1.0  0.15000  0.14900  0.54600  1.0000
  Ni  Ni10      1.0  0.67700  0.35500  0.58000  1.0000
  Ni  Ni11      1.0  0.05710  0.85500  0.64900  1.0000
  Ni  Ni12      1.0  0.57200  0.63100  0.68100  1.0000
  Ni  Ni13      1.0  0.42800  0.13100  0.81900  1.0000
  Ni  Ni14      1.0  0.94300  0.35500  0.85100  1.0000
  Ni  Ni15      1.0  0.32300  0.85500  0.92000  1.0000
  Ni  Ni16      1.0  0.85000  0.64900  0.95400  1.0000
