# generated using pymatgen
data_Fe2CuS3
_symmetry_space_group_name_H-M   'P 1'
_cell_length_a   5.89300500
_cell_length_b   5.95148132
_cell_length_c   10.83402775
_cell_angle_alpha   89.35206315
_cell_angle_beta   89.50599489
_cell_angle_gamma   60.55252271
_symmetry_Int_Tables_number   1
_chemical_formula_structural   Fe2CuS3
_chemical_formula_sum   'Fe8 Cu4 S12'
_cell_volume   330.85914980
_cell_formula_units_Z   4
loop_
 _symmetry_equiv_pos_site_id
 _symmetry_equiv_pos_as_xyz
  1  'x, y, z'
loop_
 _atom_site_type_symbol
 _atom_site_label
 _atom_site_symmetry_multiplicity
 _atom_site_fract_x
 _atom_site_fract_y
 _atom_site_fract_z
 _atom_site_occupancy
  Fe  Fe0  1  0.35795300  0.68410800  0.38042400  1
  Fe  Fe1  1  0.67593600  0.95811300  0.38074600  1
  Fe  Fe2  1  0.07173200  0.33260300  0.61208400  1
  Fe  Fe3  1  0.59140400  0.07645400  0.61298100  1
  Fe  Fe4  1  0.33297700  0.59005700  0.61093300  1
  Fe  Fe5  1  0.07565800  0.33110300  0.88640400  1
  Fe  Fe6  1  0.59083000  0.07776200  0.88420500  1
  Fe  Fe7  1  0.33407700  0.58960800  0.88350900  1
  Cu  Cu8  1  0.94575900  0.36960600  0.12579200  1
  Cu  Cu9  1  0.37869400  0.68220600  0.11842700  1
  Cu  Cu10  1  0.69312900  0.93703800  0.11624900  1
  Cu  Cu11  1  0.94267200  0.37984300  0.37828000  1
  S  S12  1  0.00385300  0.68229400  0.25941400  1
  S  S13  1  0.66118600  0.32459900  0.26297400  1
  S  S14  1  0.34210600  0.99253700  0.25629700  1
  S  S15  1  0.03512700  0.62926400  0.74853900  1
  S  S16  1  0.32903000  0.03765200  0.75000100  1
  S  S17  1  0.63513400  0.33330200  0.74678400  1
  S  S18  1  0.99952100  0.99695600  0.95656800  1
  S  S19  1  0.00322400  0.99142800  0.53815300  1
  S  S20  1  0.33403300  0.33163400  0.02135300  1
  S  S21  1  0.33474200  0.33087000  0.47539200  1
  S  S22  1  0.66278000  0.67624800  0.54257400  1
  S  S23  1  0.66844100  0.66451700  0.95191600  1
