# generated using pymatgen
data_Er2AlCo3
_symmetry_space_group_name_H-M   'P 1'
_cell_length_a   4.92590857
_cell_length_b   4.92590857
_cell_length_c   4.92590845
_cell_angle_alpha   64.97130445
_cell_angle_beta   64.97130445
_cell_angle_gamma   64.97129564
_symmetry_Int_Tables_number   1
_chemical_formula_structural   Er2AlCo3
_chemical_formula_sum   'Er2 Al1 Co3'
_cell_volume   93.69433850
_cell_formula_units_Z   1
loop_
 _symmetry_equiv_pos_site_id
 _symmetry_equiv_pos_as_xyz
  1  'x, y, z'
loop_
 _atom_site_type_symbol
 _atom_site_label
 _atom_site_symmetry_multiplicity
 _atom_site_fract_x
 _atom_site_fract_y
 _atom_site_fract_z
 _atom_site_occupancy
  Er  Er0  1  0.62953500  0.62953500  0.62953500  1
  Er  Er1  1  0.37046500  0.37046500  0.37046500  1
  Al  Al2  1  0.00000000  0.00000000  0.00000000  1
  Co  Co3  1  0.00000000  0.50000000  0.00000000  1
  Co  Co4  1  0.50000000  0.00000000  0.00000000  1
  Co  Co5  1  0.00000000  0.00000000  0.50000000  1
