# generated using pymatgen
data_Ga3Te9Pd32
_symmetry_space_group_name_H-M   'P 1'
_cell_length_a   15.13881711
_cell_length_b   15.13881711
_cell_length_c   15.13881700
_cell_angle_alpha   29.48603904
_cell_angle_beta   29.48603904
_cell_angle_gamma   29.48604152
_symmetry_Int_Tables_number   1
_chemical_formula_structural   Ga3Te9Pd32
_chemical_formula_sum   'Ga3 Te9 Pd32'
_cell_volume   744.00851759
_cell_formula_units_Z   1
loop_
 _symmetry_equiv_pos_site_id
 _symmetry_equiv_pos_as_xyz
  1  'x, y, z'
loop_
 _atom_site_type_symbol
 _atom_site_label
 _atom_site_symmetry_multiplicity
 _atom_site_fract_x
 _atom_site_fract_y
 _atom_site_fract_z
 _atom_site_occupancy
  Ga  Ga0  1  0.79089200  0.79089200  0.79089200  1
  Ga  Ga1  1  0.94917300  0.94917300  0.94917300  1
  Ga  Ga2  1  0.44898900  0.44898900  0.44898900  1
  Te  Te3  1  0.60600500  0.60600500  0.60600500  1
  Te  Te4  1  0.10646100  0.10646100  0.10646100  1
  Te  Te5  1  0.87878900  0.19534500  0.51960100  1
  Te  Te6  1  0.51960100  0.87878900  0.19534500  1
  Te  Te7  1  0.19534500  0.51960100  0.87878900  1
  Te  Te8  1  0.01740900  0.69843700  0.38240500  1
  Te  Te9  1  0.38240500  0.01740900  0.69843700  1
  Te  Te10  1  0.69843700  0.38240500  0.01740900  1
  Te  Te11  1  0.29043100  0.29043100  0.29043100  1
  Pd  Pd12  1  0.08569200  0.82597800  0.58491100  1
  Pd  Pd13  1  0.58491100  0.08569200  0.82597800  1
  Pd  Pd14  1  0.82597800  0.58491100  0.08569200  1
  Pd  Pd15  1  0.07865000  0.32705300  0.59404300  1
  Pd  Pd16  1  0.59404300  0.07865000  0.32705300  1
  Pd  Pd17  1  0.32705300  0.59404300  0.07865000  1
  Pd  Pd18  1  0.29619100  0.82914300  0.56478000  1
  Pd  Pd19  1  0.56478000  0.29619100  0.82914300  1
  Pd  Pd20  1  0.82914300  0.56478000  0.29619100  1
  Pd  Pd21  1  0.06603500  0.32899000  0.79512700  1
  Pd  Pd22  1  0.79512700  0.06603500  0.32899000  1
  Pd  Pd23  1  0.32899000  0.79512700  0.06603500  1
  Pd  Pd24  1  0.50935300  0.50935300  0.50935300  1
  Pd  Pd25  1  0.00959600  0.00959600  0.00959600  1
  Pd  Pd26  1  0.88797900  0.88797900  0.88797900  1
  Pd  Pd27  1  0.38781000  0.38781000  0.38781000  1
  Pd  Pd28  1  0.23085800  0.23085800  0.23085800  1
  Pd  Pd29  1  0.73247700  0.73247700  0.73247700  1
  Pd  Pd30  1  0.16733600  0.16733600  0.16733600  1
  Pd  Pd31  1  0.66693000  0.66693000  0.66693000  1
  Pd  Pd32  1  0.96066700  0.23016900  0.60317000  1
  Pd  Pd33  1  0.60317000  0.96066700  0.23016900  1
  Pd  Pd34  1  0.23016900  0.60317000  0.96066700  1
  Pd  Pd35  1  0.09781700  0.73234700  0.46626700  1
  Pd  Pd36  1  0.46626700  0.09781700  0.73234700  1
  Pd  Pd37  1  0.73234700  0.46626700  0.09781700  1
  Pd  Pd38  1  0.29909500  0.93381600  0.66286600  1
  Pd  Pd39  1  0.66286600  0.29909500  0.93381600  1
  Pd  Pd40  1  0.93381600  0.66286600  0.29909500  1
  Pd  Pd41  1  0.15670300  0.43721500  0.80100000  1
  Pd  Pd42  1  0.80100100  0.15670300  0.43721500  1
  Pd  Pd43  1  0.43721500  0.80100000  0.15670300  1
