# generated using pymatgen
data_Ga2Fe(PO4)3
_symmetry_space_group_name_H-M   'P 1'
_cell_length_a   5.02183424
_cell_length_b   5.02183424
_cell_length_c   11.28268500
_cell_angle_alpha   89.90175430
_cell_angle_beta   89.90175430
_cell_angle_gamma   59.48622754
_symmetry_Int_Tables_number   1
_chemical_formula_structural   Ga2Fe(PO4)3
_chemical_formula_sum   'Ga2 Fe1 P3 O12'
_cell_volume   245.12931002
_cell_formula_units_Z   1
loop_
 _symmetry_equiv_pos_site_id
 _symmetry_equiv_pos_as_xyz
  1  'x, y, z'
loop_
 _atom_site_type_symbol
 _atom_site_label
 _atom_site_symmetry_multiplicity
 _atom_site_fract_x
 _atom_site_fract_y
 _atom_site_fract_z
 _atom_site_occupancy
  Ga  Ga0  1  0.54153500  0.00027800  0.66510600  1
  Ga  Ga1  1  0.99972200  0.45846500  0.33489400  1
  Fe  Fe2  1  0.45385600  0.54614400  0.00000000  1
  P  P3  1  0.45832700  0.54167300  0.50000000  1
  P  P4  1  0.54300900  0.00214000  0.16932300  1
  P  P5  1  0.99786000  0.45699100  0.83067700  1
  O  O6  1  0.58826300  0.31475400  0.60576500  1
  O  O7  1  0.31614200  0.09468800  0.27505900  1
  O  O8  1  0.08873800  0.58756800  0.93694300  1
  O  O9  1  0.68524600  0.41173700  0.39423500  1
  O  O10  1  0.90531200  0.68385800  0.72494100  1
  O  O11  1  0.41243200  0.91126200  0.06305700  1
  O  O12  1  0.40982800  0.85736700  0.54035100  1
  O  O13  1  0.85963300  0.72746200  0.20786300  1
  O  O14  1  0.73205300  0.40693000  0.87000600  1
  O  O15  1  0.14263300  0.59017200  0.45964900  1
  O  O16  1  0.27253800  0.14036700  0.79213700  1
  O  O17  1  0.59307000  0.26794700  0.12999400  1
