# generated using pymatgen
data_FeMo3As4
_symmetry_space_group_name_H-M   'P 1'
_cell_length_a   3.36060000
_cell_length_b   5.99806600
_cell_length_c   6.39079812
_cell_angle_alpha   89.80736104
_cell_angle_beta   90.00000000
_cell_angle_gamma   90.00000000
_symmetry_Int_Tables_number   1
_chemical_formula_structural   FeMo3As4
_chemical_formula_sum   'Fe1 Mo3 As4'
_cell_volume   128.81923254
_cell_formula_units_Z   1
loop_
 _symmetry_equiv_pos_site_id
 _symmetry_equiv_pos_as_xyz
  1  'x, y, z'
loop_
 _atom_site_type_symbol
 _atom_site_label
 _atom_site_symmetry_multiplicity
 _atom_site_fract_x
 _atom_site_fract_y
 _atom_site_fract_z
 _atom_site_occupancy
  Fe  Fe0  1  0.50000000  0.51223000  0.31570500  1
  Mo  Mo1  1  0.50000000  0.01047400  0.18415600  1
  Mo  Mo2  1  0.00000000  0.48711300  0.69258700  1
  Mo  Mo3  1  0.00000000  0.99376300  0.81227200  1
  As  As4  1  0.50000000  0.69161100  0.92971500  1
  As  As5  1  0.50000000  0.19298300  0.55835900  1
  As  As6  1  0.00000000  0.31515600  0.07927100  1
  As  As7  1  0.00000000  0.79667000  0.42793500  1
