# generated using pymatgen
data_FeMo2H7O11
_symmetry_space_group_name_H-M   'P 1'
_cell_length_a   5.85260224
_cell_length_b   10.77140839
_cell_length_c   8.42250446
_cell_angle_alpha   76.56424009
_cell_angle_beta   98.40510618
_cell_angle_gamma   89.39118012
_symmetry_Int_Tables_number   1
_chemical_formula_structural   FeMo2H7O11
_chemical_formula_sum   'Fe2 Mo4 H14 O22'
_cell_volume   510.33362931
_cell_formula_units_Z   2
loop_
 _symmetry_equiv_pos_site_id
 _symmetry_equiv_pos_as_xyz
  1  'x, y, z'
loop_
 _atom_site_type_symbol
 _atom_site_label
 _atom_site_symmetry_multiplicity
 _atom_site_fract_x
 _atom_site_fract_y
 _atom_site_fract_z
 _atom_site_occupancy
  Fe  Fe0  1  0.49986400  0.00527100  0.47924000  1
  Fe  Fe1  1  0.99915800  0.50537100  0.97898000  1
  Mo  Mo2  1  0.02198200  0.10832000  0.67331500  1
  Mo  Mo3  1  0.52171900  0.60830800  0.17318300  1
  Mo  Mo4  1  0.98050500  0.89181800  0.31399600  1
  Mo  Mo5  1  0.48024700  0.39188000  0.81382200  1
  H  H6  1  0.83613200  0.27679900  0.06987000  1
  H  H7  1  0.33629400  0.77672200  0.57000700  1
  H  H8  1  0.10122200  0.24887800  0.06349800  1
  H  H9  1  0.60145500  0.74873500  0.56389800  1
  H  H10  1  0.66684900  0.23205300  0.40892600  1
  H  H11  1  0.16667300  0.73212300  0.90872300  1
  H  H12  1  0.43631200  0.24935000  0.47110600  1
  H  H13  1  0.93643500  0.74945700  0.97123200  1
  H  H14  1  0.32868100  0.04608600  0.97463300  1
  H  H15  1  0.82856300  0.54603400  0.47444200  1
  H  H16  1  0.54807900  0.00136700  0.13305900  1
  H  H17  1  0.04806900  0.50142500  0.63283000  1
  H  H18  1  0.96219300  0.39673300  0.52017100  1
  H  H19  1  0.46217600  0.89672700  0.02031500  1
  O  O20  1  0.99494100  0.30844200  0.09152200  1
  O  O21  1  0.49511400  0.80835200  0.59175400  1
  O  O22  1  0.50464900  0.20513500  0.39640800  1
  O  O23  1  0.00445100  0.70527400  0.89637300  1
  O  O24  1  0.09452100  0.12240900  0.88109700  1
  O  O25  1  0.59431300  0.62228100  0.38099800  1
  O  O26  1  0.43823500  0.32471700  0.64112600  1
  O  O27  1  0.93840100  0.82476600  0.14120400  1
  O  O28  1  0.98122200  0.49364300  0.51740500  1
  O  O29  1  0.48126800  0.99363000  0.01762600  1
  O  O30  1  0.77428900  0.01160700  0.65032900  1
  O  O31  1  0.27404400  0.51164500  0.15004800  1
  O  O32  1  0.26858500  0.03302800  0.62064500  1
  O  O33  1  0.76839100  0.53305200  0.12050900  1
  O  O34  1  0.72994000  0.49200300  0.80579700  1
  O  O35  1  0.23020600  0.99189800  0.30607500  1
  O  O36  1  0.20603200  0.48204600  0.81670200  1
  O  O37  1  0.70626800  0.98195600  0.31693300  1
  O  O38  1  0.94136700  0.25913400  0.53082800  1
  O  O39  1  0.44134300  0.75918500  0.03080700  1
  O  O40  1  0.54581700  0.26923700  0.99423000  1
  O  O41  1  0.04599200  0.76910200  0.49433800  1
