# generated using pymatgen
data_GdTa3O9
_symmetry_space_group_name_H-M   'P 1'
_cell_length_a   5.58708500
_cell_length_b   9.70640009
_cell_length_c   13.69731721
_cell_angle_alpha   89.62256137
_cell_angle_beta   89.99790850
_cell_angle_gamma   89.99237937
_symmetry_Int_Tables_number   1
_chemical_formula_structural   GdTa3O9
_chemical_formula_sum   'Gd4 Ta12 O36'
_cell_volume   742.79599443
_cell_formula_units_Z   4
loop_
 _symmetry_equiv_pos_site_id
 _symmetry_equiv_pos_as_xyz
  1  'x, y, z'
loop_
 _atom_site_type_symbol
 _atom_site_label
 _atom_site_symmetry_multiplicity
 _atom_site_fract_x
 _atom_site_fract_y
 _atom_site_fract_z
 _atom_site_occupancy
  Gd  Gd0  1  0.27498600  0.08355800  0.91820800  1
  Gd  Gd1  1  0.27651800  0.42561100  0.57379000  1
  Gd  Gd2  1  0.72348200  0.57438900  0.42621000  1
  Gd  Gd3  1  0.72501400  0.91644200  0.08179200  1
  Ta  Ta4  1  0.74742700  0.91550400  0.33316600  1
  Ta  Ta5  1  0.75434200  0.26100700  0.00142500  1
  Ta  Ta6  1  0.75360800  0.58482100  0.67440000  1
  Ta  Ta7  1  0.24526100  0.08411200  0.17216900  1
  Ta  Ta8  1  0.25217500  0.41682800  0.83388100  1
  Ta  Ta9  1  0.24642800  0.76342700  0.50091300  1
  Ta  Ta10  1  0.75357200  0.23657300  0.49908700  1
  Ta  Ta11  1  0.74782500  0.58317200  0.16611900  1
  Ta  Ta12  1  0.75473900  0.91588800  0.82783100  1
  Ta  Ta13  1  0.24639200  0.41517900  0.32560000  1
  Ta  Ta14  1  0.24565800  0.73899300  0.99857500  1
  Ta  Ta15  1  0.25257300  0.08449600  0.66683400  1
  O  O16  1  0.73044600  0.42472000  0.57504900  1
  O  O17  1  0.75511000  0.75101300  0.24898200  1
  O  O18  1  0.74486300  0.07397900  0.92628800  1
  O  O19  1  0.25513700  0.92602100  0.07371200  1
  O  O20  1  0.24489000  0.24898700  0.75101800  1
  O  O21  1  0.26955400  0.57528000  0.42495100  1
  O  O22  1  0.51262400  0.98731700  0.23576500  1
  O  O23  1  0.48808100  0.31065100  0.91318200  1
  O  O24  1  0.49983600  0.64797300  0.57400900  1
  O  O25  1  0.50016400  0.35202700  0.42599100  1
  O  O26  1  0.51191900  0.68934900  0.08681800  1
  O  O27  1  0.48737600  0.01268300  0.76423500  1
  O  O28  1  0.00031000  0.15206700  0.07559900  1
  O  O29  1  0.00764100  0.49200200  0.74195600  1
  O  O30  1  0.99259000  0.82056700  0.41493500  1
  O  O31  1  0.99235900  0.50799800  0.25804400  1
  O  O32  1  0.99969000  0.84793300  0.92440100  1
  O  O33  1  0.00741000  0.17943300  0.58506500  1
  O  O34  1  0.74266300  0.08388900  0.41280500  1
  O  O35  1  0.74349600  0.41989600  0.08310300  1
  O  O36  1  0.74500200  0.75244700  0.74773100  1
  O  O37  1  0.25499800  0.24755300  0.25226900  1
  O  O38  1  0.25650400  0.58010400  0.91689700  1
  O  O39  1  0.25733700  0.91611100  0.58719500  1
  O  O40  1  0.01048400  0.31677400  0.91444900  1
  O  O41  1  0.00032200  0.64336800  0.57167200  1
  O  O42  1  0.98957800  0.99146200  0.24013700  1
  O  O43  1  0.49973200  0.85156400  0.92619700  1
  O  O44  1  0.48706300  0.18502000  0.58478200  1
  O  O45  1  0.51307500  0.50889200  0.26149200  1
  O  O46  1  0.98951600  0.68322600  0.08555100  1
  O  O47  1  0.01042200  0.00853800  0.75986300  1
  O  O48  1  0.99967800  0.35663200  0.42832800  1
  O  O49  1  0.48692500  0.49110800  0.73850800  1
  O  O50  1  0.51293700  0.81498000  0.41521800  1
  O  O51  1  0.50026800  0.14843600  0.07380300  1
