# generated using pymatgen
data_Fe9PO12
_symmetry_space_group_name_H-M   'P 1'
_cell_length_a   13.64119329
_cell_length_b   13.64119329
_cell_length_c   3.10432100
_cell_angle_alpha   90.00000000
_cell_angle_beta   90.00000000
_cell_angle_gamma   154.55761077
_symmetry_Int_Tables_number   1
_chemical_formula_structural   Fe9PO12
_chemical_formula_sum   'Fe9 P1 O12'
_cell_volume   248.16411921
_cell_formula_units_Z   1
loop_
 _symmetry_equiv_pos_site_id
 _symmetry_equiv_pos_as_xyz
  1  'x, y, z'
loop_
 _atom_site_type_symbol
 _atom_site_label
 _atom_site_symmetry_multiplicity
 _atom_site_fract_x
 _atom_site_fract_y
 _atom_site_fract_z
 _atom_site_occupancy
  Fe  Fe0  1  0.50400200  0.49599800  0.00000000  1
  Fe  Fe1  1  0.67277600  0.32722400  0.00000000  1
  Fe  Fe2  1  0.32382000  0.67618000  0.00000000  1
  Fe  Fe3  1  0.84416000  0.66770400  0.50000000  1
  Fe  Fe4  1  0.15972800  0.33048900  0.50000000  1
  Fe  Fe5  1  0.66951100  0.84027200  0.50000000  1
  Fe  Fe6  1  0.33229600  0.15584000  0.50000000  1
  Fe  Fe7  1  0.99993600  0.00006400  0.00000000  1
  Fe  Fe8  1  0.20646600  0.79353400  0.50000000  1
  P  P9  1  0.79676100  0.20323900  0.50000000  1
  O  O10  1  0.90513700  0.57043000  0.50000000  1
  O  O11  1  0.04582600  0.38764500  0.50000000  1
  O  O12  1  0.61235500  0.95417400  0.50000000  1
  O  O13  1  0.42957000  0.09486300  0.50000000  1
  O  O14  1  0.74128400  0.74540200  0.50000000  1
  O  O15  1  0.25459800  0.25871600  0.50000000  1
  O  O16  1  0.40195300  0.59804700  0.00000000  1
  O  O17  1  0.58585600  0.41414400  0.00000000  1
  O  O18  1  0.92318800  0.07681200  0.00000000  1
  O  O19  1  0.07474200  0.92525800  0.00000000  1
  O  O20  1  0.76707300  0.23292700  0.00000000  1
  O  O21  1  0.24896300  0.75103700  0.00000000  1
