# generated using pymatgen
data_Ga(MoS2)3
_symmetry_space_group_name_H-M   'P 1'
_cell_length_a   7.01947730
_cell_length_b   9.92338800
_cell_length_c   12.14805282
_cell_angle_alpha   65.89341730
_cell_angle_beta   73.20706569
_cell_angle_gamma   90.00000000
_symmetry_Int_Tables_number   1
_chemical_formula_structural   Ga(MoS2)3
_chemical_formula_sum   'Ga4 Mo12 S24'
_cell_volume   732.68601988
_cell_formula_units_Z   4
loop_
 _symmetry_equiv_pos_site_id
 _symmetry_equiv_pos_as_xyz
  1  'x, y, z'
loop_
 _atom_site_type_symbol
 _atom_site_label
 _atom_site_symmetry_multiplicity
 _atom_site_fract_x
 _atom_site_fract_y
 _atom_site_fract_z
 _atom_site_occupancy
  Ga  Ga0  1  0.50000000  0.75163100  0.00000000  1
  Ga  Ga1  1  0.00000000  0.00146600  0.00000000  1
  Ga  Ga2  1  0.33287000  0.33242300  0.33425900  1
  Ga  Ga3  1  0.66713000  0.66668400  0.66574100  1
  Mo  Mo4  1  0.20080900  0.39283900  0.00000000  1
  Mo  Mo5  1  0.53783200  0.73091200  0.33805200  1
  Mo  Mo6  1  0.87588400  0.06896400  0.66194800  1
  Mo  Mo7  1  0.07094300  0.67059100  0.85811400  1
  Mo  Mo8  1  0.39998400  0.00650700  0.20003100  1
  Mo  Mo9  1  0.73395600  0.33464900  0.53208700  1
  Mo  Mo10  1  0.92905700  0.52870400  0.14188600  1
  Mo  Mo11  1  0.26604400  0.86673700  0.46791300  1
  Mo  Mo12  1  0.60001600  0.20653800  0.79996900  1
  Mo  Mo13  1  0.79919100  0.39283900  0.00000000  1
  Mo  Mo14  1  0.12411600  0.73091200  0.33805200  1
  Mo  Mo15  1  0.46216800  0.06896400  0.66194800  1
  S  S16  1  0.72820300  0.13627900  0.00000000  1
  S  S17  1  0.06087200  0.46830000  0.33477500  1
  S  S18  1  0.39564800  0.80307600  0.66522500  1
  S  S19  1  0.57610400  0.44058900  0.84779300  1
  S  S20  1  0.90898100  0.77331300  0.18203800  1
  S  S21  1  0.24347600  0.10721500  0.51304800  1
  S  S22  1  0.42389600  0.28838100  0.15220700  1
  S  S23  1  0.75652400  0.62026400  0.48695200  1
  S  S24  1  0.09101900  0.95535100  0.81796200  1
  S  S25  1  0.27179700  0.13627900  0.00000000  1
  S  S26  1  0.60435200  0.46830000  0.33477500  1
  S  S27  1  0.93912800  0.80307600  0.66522500  1
  S  S28  1  0.75209100  0.62194900  0.00000000  1
  S  S29  1  0.06651600  0.96658300  0.33442500  1
  S  S30  1  0.40094100  0.30100900  0.66557500  1
  S  S31  1  0.91084800  0.27540700  0.17830500  1
  S  S32  1  0.24397700  0.61158100  0.51204600  1
  S  S33  1  0.58522400  0.96262700  0.82955100  1
  S  S34  1  0.08915200  0.45371100  0.82169500  1
  S  S35  1  0.41477600  0.79217900  0.17044900  1
  S  S36  1  0.75602300  0.12362700  0.48795400  1
  S  S37  1  0.24790900  0.62194900  0.00000000  1
  S  S38  1  0.59905900  0.96658300  0.33442500  1
  S  S39  1  0.93348400  0.30100900  0.66557500  1
