# generated using pymatgen
data_DyY(FeO3)2
_symmetry_space_group_name_H-M   'P 1'
_cell_length_a   5.35546100
_cell_length_b   5.64675100
_cell_length_c   7.73693300
_cell_angle_alpha   90.00000000
_cell_angle_beta   90.00000000
_cell_angle_gamma   90.00000000
_symmetry_Int_Tables_number   1
_chemical_formula_structural   DyY(FeO3)2
_chemical_formula_sum   'Dy2 Y2 Fe4 O12'
_cell_volume   233.97224081
_cell_formula_units_Z   2
loop_
 _symmetry_equiv_pos_site_id
 _symmetry_equiv_pos_as_xyz
  1  'x, y, z'
loop_
 _atom_site_type_symbol
 _atom_site_label
 _atom_site_symmetry_multiplicity
 _atom_site_fract_x
 _atom_site_fract_y
 _atom_site_fract_z
 _atom_site_occupancy
  Dy  Dy0  1  0.76973900  0.93348700  0.50000000  1
  Dy  Dy1  1  0.23026100  0.43348700  0.50000000  1
  Y  Y2  1  0.73049400  0.06614800  0.00000000  1
  Y  Y3  1  0.26950600  0.56614800  0.00000000  1
  Fe  Fe4  1  0.25008400  0.99990300  0.74952600  1
  Fe  Fe5  1  0.74991600  0.49990300  0.25047400  1
  Fe  Fe6  1  0.25008400  0.99990300  0.25047400  1
  Fe  Fe7  1  0.74991600  0.49990300  0.74952600  1
  O  O8  1  0.55633500  0.80374200  0.80972600  1
  O  O9  1  0.44366500  0.30374200  0.19027400  1
  O  O10  1  0.94412700  0.19637800  0.31104300  1
  O  O11  1  0.05587300  0.69637800  0.68895700  1
  O  O12  1  0.94412700  0.19637800  0.68895700  1
  O  O13  1  0.05587300  0.69637800  0.31104300  1
  O  O14  1  0.55633500  0.80374200  0.19027400  1
  O  O15  1  0.44366500  0.30374200  0.80972600  1
  O  O16  1  0.86568100  0.45631900  0.00000000  1
  O  O17  1  0.13431900  0.95631900  0.00000000  1
  O  O18  1  0.63281600  0.54399900  0.50000000  1
  O  O19  1  0.36718400  0.04399900  0.50000000  1
