# generated using pymatgen
data_Nb2NiO6
_symmetry_space_group_name_H-M   'P 1'
_cell_length_a   5.68803859
_cell_length_b   5.68797360
_cell_length_c   7.49293683
_cell_angle_alpha   108.22415118
_cell_angle_beta   108.22384085
_cell_angle_gamma   72.00856077
_symmetry_Int_Tables_number   1
_chemical_formula_structural   Nb2NiO6
_chemical_formula_sum   'Nb4 Ni2 O12'
_cell_volume   212.64296983
_cell_formula_units_Z   2
loop_
 _symmetry_equiv_pos_site_id
 _symmetry_equiv_pos_as_xyz
  1  'x, y, z'
loop_
 _atom_site_type_symbol
 _atom_site_label
 _atom_site_symmetry_multiplicity
 _atom_site_fract_x
 _atom_site_fract_y
 _atom_site_fract_z
 _atom_site_occupancy
  Nb  Nb0  1  0.66669000  0.66669400  0.16685400  1
  Nb  Nb1  1  0.66661200  0.66661100  0.66682000  1
  Nb  Nb2  1  0.01153800  0.01153500  0.48267100  1
  Nb  Nb3  1  0.32176900  0.32177600  0.85064200  1
  Ni  Ni4  1  0.32482800  0.32482600  0.32893200  1
  Ni  Ni5  1  0.00846700  0.00848000  0.00435700  1
  O  O6  1  0.43305200  0.43300200  0.12709400  1
  O  O7  1  0.90028400  0.90032600  0.20622800  1
  O  O8  1  0.37566100  0.95760300  0.16660600  1
  O  O9  1  0.95763700  0.37569900  0.16657100  1
  O  O10  1  0.77148700  0.77146800  0.46737600  1
  O  O11  1  0.56188500  0.56190200  0.86591200  1
  O  O12  1  0.10024200  0.10020400  0.79134600  1
  O  O13  1  0.23309100  0.23313600  0.54196600  1
  O  O14  1  0.30869200  0.70874000  0.50778700  1
  O  O15  1  0.70874600  0.30866600  0.50780800  1
  O  O16  1  0.02470000  0.62461900  0.82552500  1
  O  O17  1  0.62461700  0.02471300  0.82550400  1
