# generated using pymatgen
data_P2Pb3O8
_symmetry_space_group_name_H-M   'P 1'
_cell_length_a   9.94363529
_cell_length_b   19.88931616
_cell_length_c   7.38907300
_cell_angle_alpha   90.00000000
_cell_angle_beta   90.00000000
_cell_angle_gamma   120.02420978
_symmetry_Int_Tables_number   1
_chemical_formula_structural   P2Pb3O8
_chemical_formula_sum   'P12 Pb18 O48'
_cell_volume   1265.25956059
_cell_formula_units_Z   6
loop_
 _symmetry_equiv_pos_site_id
 _symmetry_equiv_pos_as_xyz
  1  'x, y, z'
loop_
 _atom_site_type_symbol
 _atom_site_label
 _atom_site_symmetry_multiplicity
 _atom_site_fract_x
 _atom_site_fract_y
 _atom_site_fract_z
 _atom_site_occupancy
  P  P0  1  0.01809600  0.81207000  0.74862100  1
  P  P1  1  0.60575200  0.99087700  0.74834600  1
  P  P2  1  0.37588300  0.69708300  0.74860400  1
  P  P3  1  0.01809600  0.31207000  0.75137900  1
  P  P4  1  0.62929200  0.80399600  0.25451100  1
  P  P5  1  0.39205100  0.51058100  0.24572600  1
  P  P6  1  0.60575200  0.49087700  0.75165400  1
  P  P7  1  0.37588300  0.19708300  0.75139600  1
  P  P8  1  0.97902600  0.68540700  0.25366800  1
  P  P9  1  0.62929200  0.30399600  0.24548900  1
  P  P10  1  0.39205100  0.01058100  0.25427400  1
  P  P11  1  0.97902600  0.18540800  0.24633200  1
  Pb  Pb12  1  0.00880300  0.87239500  0.24211600  1
  Pb  Pb13  1  0.33337200  0.83320400  0.48395900  1
  Pb  Pb14  1  0.25544600  0.63208800  0.23777800  1
  Pb  Pb15  1  0.00880300  0.37239500  0.25788400  1
  Pb  Pb16  1  0.73600600  0.99557300  0.23761200  1
  Pb  Pb17  1  0.25394900  0.49599400  0.74090200  1
  Pb  Pb18  1  0.73800600  0.87295700  0.75646700  1
  Pb  Pb19  1  0.66981300  0.66814100  0.50280300  1
  Pb  Pb20  1  0.33337200  0.33320400  0.01604100  1
  Pb  Pb21  1  0.66346600  0.66531300  0.99598800  1
  Pb  Pb22  1  0.25544600  0.13208800  0.26222200  1
  Pb  Pb23  1  0.73600600  0.49557300  0.26238800  1
  Pb  Pb24  1  0.25394900  0.99599400  0.75909800  1
  Pb  Pb25  1  0.00781000  0.63104800  0.75852200  1
  Pb  Pb26  1  0.73800600  0.37295700  0.74353300  1
  Pb  Pb27  1  0.66346600  0.16531300  0.50401200  1
  Pb  Pb28  1  0.66981300  0.16814100  0.99719700  1
  Pb  Pb29  1  0.00781000  0.13104800  0.74147800  1
  O  O30  1  0.07823100  0.86659300  0.57982400  1
  O  O31  1  0.06753200  0.86682000  0.91583500  1
  O  O32  1  0.09407200  0.76007500  0.74598100  1
  O  O33  1  0.30980200  0.92134400  0.26308900  1
  O  O34  1  0.15750500  0.73359700  0.26220400  1
  O  O35  1  0.42566900  0.95288200  0.74633200  1
  O  O36  1  0.26681200  0.67230100  0.58021200  1
  O  O37  1  0.26646600  0.66738300  0.91606100  1
  O  O38  1  0.53258400  0.84483500  0.26239700  1
  O  O39  1  0.47990400  0.78712200  0.74639200  1
  O  O40  1  0.65513900  0.96087300  0.58018000  1
  O  O41  1  0.66526500  0.96604200  0.91590600  1
  O  O42  1  0.07823100  0.36659300  0.92017600  1
  O  O43  1  0.06753200  0.36682000  0.58416500  1
  O  O44  1  0.35372100  0.54618000  0.07803600  1
  O  O45  1  0.34458000  0.53936200  0.41743000  1
  O  O46  1  0.52132700  0.71244400  0.25118200  1
  O  O47  1  0.48027900  0.65845400  0.74651600  1
  O  O48  1  0.09407200  0.26007500  0.75401900  1
  O  O49  1  0.30980200  0.42134400  0.23691100  1
  O  O50  1  0.73384600  0.82737700  0.08174800  1
  O  O51  1  0.73934100  0.82360300  0.42113400  1
  O  O52  1  0.15750500  0.23359700  0.23779600  1
  O  O53  1  0.42566900  0.45288200  0.75366800  1
  O  O54  1  0.57507600  0.54804800  0.24792900  1
  O  O55  1  0.83641900  0.75986100  0.74702600  1
  O  O56  1  0.26646600  0.16738300  0.58393900  1
  O  O57  1  0.26681200  0.17230100  0.91978800  1
  O  O58  1  0.68312400  0.58172400  0.75492300  1
  O  O59  1  0.90396800  0.73939200  0.25027700  1
  O  O60  1  0.53258400  0.34483500  0.23760300  1
  O  O61  1  0.47990400  0.28712200  0.75360800  1
  O  O62  1  0.66526500  0.46604200  0.58409400  1
  O  O63  1  0.65513900  0.46087300  0.91982000  1
  O  O64  1  0.92111700  0.63284300  0.08187900  1
  O  O65  1  0.90811900  0.63078500  0.42141500  1
  O  O66  1  0.34458000  0.03936200  0.08257000  1
  O  O67  1  0.35372100  0.04618000  0.42196400  1
  O  O68  1  0.52132700  0.21244400  0.24881800  1
  O  O69  1  0.48027900  0.15845400  0.75348400  1
  O  O70  1  0.73934100  0.32360300  0.07886600  1
  O  O71  1  0.73384600  0.32737700  0.41825200  1
  O  O72  1  0.57507600  0.04804800  0.25207100  1
  O  O73  1  0.83641900  0.25986100  0.75297400  1
  O  O74  1  0.68312400  0.08172400  0.74507700  1
  O  O75  1  0.90396800  0.23939200  0.24972300  1
  O  O76  1  0.90811900  0.13078500  0.07858500  1
  O  O77  1  0.92111700  0.13284300  0.41812100  1
