# generated using pymatgen
data_Er(VFe5)2
_symmetry_space_group_name_H-M   'P 1'
_cell_length_a   4.68132600
_cell_length_b   6.42657736
_cell_length_c   6.42657736
_cell_angle_alpha   97.31974743
_cell_angle_beta   111.35934866
_cell_angle_gamma   68.64065134
_symmetry_Int_Tables_number   1
_chemical_formula_structural   Er(VFe5)2
_chemical_formula_sum   'Er1 V2 Fe10'
_cell_volume   167.69229660
_cell_formula_units_Z   1
loop_
 _symmetry_equiv_pos_site_id
 _symmetry_equiv_pos_as_xyz
  1  'x, y, z'
loop_
 _atom_site_type_symbol
 _atom_site_label
 _atom_site_symmetry_multiplicity
 _atom_site_fract_x
 _atom_site_fract_y
 _atom_site_fract_z
 _atom_site_occupancy
  Er  Er0  1  0.00000000  0.00000000  0.00000000  1
  V  V1  1  0.00000000  0.35858300  0.35858300  1
  V  V2  1  0.00000000  0.64141700  0.64141700  1
  Fe  Fe3  1  0.72401800  0.77598200  0.22401800  1
  Fe  Fe4  1  0.27598200  0.22401800  0.77598200  1
  Fe  Fe5  1  0.50000000  0.77353000  0.77353000  1
  Fe  Fe6  1  0.50000000  0.22647000  0.22647000  1
  Fe  Fe7  1  0.50000000  0.00000000  0.50000000  1
  Fe  Fe8  1  0.00000000  0.00000000  0.50000000  1
  Fe  Fe9  1  0.50000000  0.50000000  0.00000000  1
  Fe  Fe10  1  0.00000000  0.50000000  0.00000000  1
  Fe  Fe11  1  0.64156900  0.35843100  0.64156900  1
  Fe  Fe12  1  0.35843100  0.64156900  0.35843100  1
