# generated using pymatgen
data_Er(CuS)3
_symmetry_space_group_name_H-M   'P 1'
_cell_length_a   6.66137167
_cell_length_b   6.66137167
_cell_length_c   6.31315100
_cell_angle_alpha   90.00000000
_cell_angle_beta   90.00000000
_cell_angle_gamma   119.99999677
_symmetry_Int_Tables_number   1
_chemical_formula_structural   Er(CuS)3
_chemical_formula_sum   'Er2 Cu6 S6'
_cell_volume   242.60746219
_cell_formula_units_Z   2
loop_
 _symmetry_equiv_pos_site_id
 _symmetry_equiv_pos_as_xyz
  1  'x, y, z'
loop_
 _atom_site_type_symbol
 _atom_site_label
 _atom_site_symmetry_multiplicity
 _atom_site_fract_x
 _atom_site_fract_y
 _atom_site_fract_z
 _atom_site_occupancy
  Er  Er0  1  0.33333300  0.66666700  0.50000000  1
  Er  Er1  1  0.66666700  0.33333300  0.50000000  1
  Cu  Cu2  1  0.00000000  0.33723500  0.86976200  1
  Cu  Cu3  1  0.33723500  0.00000000  0.86976200  1
  Cu  Cu4  1  0.66276500  0.66276500  0.86976200  1
  Cu  Cu5  1  0.00000000  0.66276500  0.13023800  1
  Cu  Cu6  1  0.66276500  0.00000000  0.13023800  1
  Cu  Cu7  1  0.33723500  0.33723500  0.13023800  1
  S  S8  1  0.33278600  0.33278600  0.74814100  1
  S  S9  1  0.00000000  0.66721400  0.74814100  1
  S  S10  1  0.66721400  0.00000000  0.74814100  1
  S  S11  1  0.66721400  0.66721400  0.25185900  1
  S  S12  1  0.00000000  0.33278600  0.25185900  1
  S  S13  1  0.33278600  0.00000000  0.25185900  1
