# generated using pymatgen
data_Fe2P4Pb3O17
_symmetry_space_group_name_H-M   'P 1'
_cell_length_a   9.16990000
_cell_length_b   9.16990000
_cell_length_c   16.96825200
_cell_angle_alpha   90.00000000
_cell_angle_beta   90.00000000
_cell_angle_gamma   90.00000000
_symmetry_Int_Tables_number   1
_chemical_formula_structural   Fe2P4Pb3O17
_chemical_formula_sum   'Fe8 P16 Pb12 O68'
_cell_volume   1426.81052600
_cell_formula_units_Z   4
loop_
 _symmetry_equiv_pos_site_id
 _symmetry_equiv_pos_as_xyz
  1  'x, y, z'
loop_
 _atom_site_type_symbol
 _atom_site_label
 _atom_site_symmetry_multiplicity
 _atom_site_fract_x
 _atom_site_fract_y
 _atom_site_fract_z
 _atom_site_occupancy
  Fe  Fe0  1  0.00017200  0.73875600  0.62945900  1
  Fe  Fe1  1  0.99982800  0.26124400  0.12945900  1
  Fe  Fe2  1  0.73875600  0.99982800  0.37945900  1
  Fe  Fe3  1  0.26124400  0.00017200  0.87945900  1
  Fe  Fe4  1  0.75968100  0.50058500  0.87047700  1
  Fe  Fe5  1  0.24031900  0.49941500  0.37047700  1
  Fe  Fe6  1  0.50058500  0.24031900  0.62047700  1
  Fe  Fe7  1  0.49941500  0.75968100  0.12047700  1
  P  P8  1  0.96481300  0.73179000  0.43164400  1
  P  P9  1  0.03518700  0.26821000  0.93164400  1
  P  P10  1  0.73179000  0.03518700  0.18164400  1
  P  P11  1  0.26821000  0.96481300  0.68164400  1
  P  P12  1  0.76935400  0.53410700  0.06796400  1
  P  P13  1  0.23064600  0.46589300  0.56796400  1
  P  P14  1  0.53410700  0.23064600  0.81796400  1
  P  P15  1  0.46589300  0.76935400  0.31796400  1
  P  P16  1  0.72635900  0.50869800  0.67197000  1
  P  P17  1  0.27364100  0.49130200  0.17197000  1
  P  P18  1  0.50869800  0.27364100  0.42197000  1
  P  P19  1  0.49130200  0.72635900  0.92197000  1
  P  P20  1  0.99246700  0.77211500  0.82827500  1
  P  P21  1  0.00753300  0.22788500  0.32827500  1
  P  P22  1  0.77211500  0.00753300  0.57827500  1
  P  P23  1  0.22788500  0.99246700  0.07827500  1
  Pb  Pb24  1  0.63152900  0.86768700  0.75034800  1
  Pb  Pb25  1  0.36847100  0.13231300  0.25034800  1
  Pb  Pb26  1  0.86768700  0.36847100  0.50034800  1
  Pb  Pb27  1  0.13231300  0.63152900  0.00034800  1
  Pb  Pb28  1  0.57682700  0.66258400  0.48214400  1
  Pb  Pb29  1  0.42317300  0.33741600  0.98214400  1
  Pb  Pb30  1  0.66258400  0.42317300  0.23214400  1
  Pb  Pb31  1  0.33741600  0.57682700  0.73214400  1
  Pb  Pb32  1  0.84679300  0.92230100  0.01697900  1
  Pb  Pb33  1  0.15320700  0.07769900  0.51697900  1
  Pb  Pb34  1  0.92230100  0.15320700  0.76697900  1
  Pb  Pb35  1  0.07769900  0.84679300  0.26697900  1
  O  O36  1  0.02134700  0.77722800  0.51338500  1
  O  O37  1  0.97865300  0.22277200  0.01338500  1
  O  O38  1  0.77722800  0.97865300  0.26338500  1
  O  O39  1  0.22277200  0.02134700  0.76338500  1
  O  O40  1  0.72239900  0.47823200  0.98636200  1
  O  O41  1  0.27760100  0.52176800  0.48636200  1
  O  O42  1  0.47823200  0.27760100  0.73636200  1
  O  O43  1  0.52176800  0.72239900  0.23636200  1
  O  O44  1  0.59456400  0.82976200  0.36925700  1
  O  O45  1  0.40543600  0.17023800  0.86925700  1
  O  O46  1  0.82976200  0.40543600  0.11925700  1
  O  O47  1  0.17023800  0.59456400  0.61925700  1
  O  O48  1  0.66943700  0.90677700  0.13071200  1
  O  O49  1  0.33056300  0.09322300  0.63071200  1
  O  O50  1  0.90677700  0.33056300  0.88071200  1
  O  O51  1  0.09322300  0.66943700  0.38071200  1
  O  O52  1  0.82389900  0.87775700  0.63131400  1
  O  O53  1  0.17610100  0.12224300  0.13131400  1
  O  O54  1  0.87775700  0.17610100  0.38131400  1
  O  O55  1  0.12224300  0.82389900  0.88131400  1
  O  O56  1  0.62135700  0.67571200  0.86857900  1
  O  O57  1  0.37864300  0.32428800  0.36857900  1
  O  O58  1  0.67571200  0.37864300  0.61857900  1
  O  O59  1  0.32428800  0.62135700  0.11857900  1
  O  O60  1  0.92246400  0.87187500  0.38432300  1
  O  O61  1  0.07753600  0.12812500  0.88432300  1
  O  O62  1  0.87187500  0.07753600  0.13432300  1
  O  O63  1  0.12812500  0.92246400  0.63432300  1
  O  O64  1  0.63109900  0.57927000  0.11613700  1
  O  O65  1  0.36890100  0.42073000  0.61613700  1
  O  O66  1  0.57927000  0.36890100  0.86613700  1
  O  O67  1  0.42073000  0.63109900  0.36613700  1
  O  O68  1  0.85477700  0.57678300  0.62405700  1
  O  O69  1  0.14522300  0.42321700  0.12405700  1
  O  O70  1  0.57678300  0.14522300  0.37405700  1
  O  O71  1  0.42321700  0.85477700  0.87405700  1
  O  O72  1  0.92436600  0.64358500  0.87598900  1
  O  O73  1  0.07563400  0.35641500  0.37598900  1
  O  O74  1  0.64358500  0.07563400  0.62598900  1
  O  O75  1  0.35641500  0.92436600  0.12598900  1
  O  O76  1  0.60080600  0.61957600  0.68312200  1
  O  O77  1  0.39919400  0.38042400  0.18312200  1
  O  O78  1  0.61957600  0.39919400  0.43312200  1
  O  O79  1  0.38042400  0.60080600  0.93312200  1
  O  O80  1  0.87907100  0.89610100  0.81829800  1
  O  O81  1  0.12092900  0.10389900  0.31829800  1
  O  O82  1  0.89610100  0.12092900  0.56829800  1
  O  O83  1  0.10389900  0.87907100  0.06829800  1
  O  O84  1  0.83667300  0.62368700  0.43764900  1
  O  O85  1  0.16332700  0.37631300  0.93764900  1
  O  O86  1  0.62368700  0.16332700  0.18764900  1
  O  O87  1  0.37631300  0.83667300  0.68764900  1
  O  O88  1  0.87930000  0.66026600  0.06259300  1
  O  O89  1  0.12070000  0.33973400  0.56259300  1
  O  O90  1  0.66026600  0.12070000  0.81259300  1
  O  O91  1  0.33973400  0.87930000  0.31259300  1
  O  O92  1  0.71932100  0.95312900  0.49667600  1
  O  O93  1  0.28067900  0.04687100  0.99667600  1
  O  O94  1  0.95312900  0.28067900  0.24667600  1
  O  O95  1  0.04687100  0.71932100  0.74667600  1
  O  O96  1  0.54577600  0.78147600  0.00323800  1
  O  O97  1  0.45422400  0.21852400  0.50323800  1
  O  O98  1  0.78147600  0.45422400  0.75323800  1
  O  O99  1  0.21852400  0.54577600  0.25323800  1
  O  O100  1  0.36451600  0.89927500  0.51154800  1
  O  O101  1  0.63548400  0.10072500  0.01154800  1
  O  O102  1  0.89927500  0.63548400  0.26154800  1
  O  O103  1  0.10072500  0.36451600  0.76154800  1
