# generated using pymatgen
data_Ga2Ge(MoS2)8
_symmetry_space_group_name_H-M   'P 1'
_cell_length_a   6.92828900
_cell_length_b   6.92828900
_cell_length_c   11.68560500
_cell_angle_alpha   90.00000000
_cell_angle_beta   90.00000000
_cell_angle_gamma   90.00000000
_symmetry_Int_Tables_number   1
_chemical_formula_structural   Ga2Ge(MoS2)8
_chemical_formula_sum   'Ga2 Ge1 Mo8 S16'
_cell_volume   560.92292796
_cell_formula_units_Z   1
loop_
 _symmetry_equiv_pos_site_id
 _symmetry_equiv_pos_as_xyz
  1  'x, y, z'
loop_
 _atom_site_type_symbol
 _atom_site_label
 _atom_site_symmetry_multiplicity
 _atom_site_fract_x
 _atom_site_fract_y
 _atom_site_fract_z
 _atom_site_occupancy
  Ga  Ga0  1  0.50000000  0.00000000  0.70813600  1
  Ga  Ga1  1  0.00000000  0.50000000  0.29186400  1
  Ge  Ge2  1  0.50000000  0.50000000  0.00000000  1
  Mo  Mo3  1  0.50000000  0.20507300  0.20779600  1
  Mo  Mo4  1  0.00000000  0.70804400  0.62565900  1
  Mo  Mo5  1  0.70804400  0.00000000  0.37434100  1
  Mo  Mo6  1  0.20507300  0.50000000  0.79220400  1
  Mo  Mo7  1  0.29195600  0.00000000  0.37434100  1
  Mo  Mo8  1  0.79492700  0.50000000  0.79220400  1
  Mo  Mo9  1  0.50000000  0.79492700  0.20779600  1
  Mo  Mo10  1  0.00000000  0.29195600  0.62565900  1
  S  S11  1  0.50000000  0.72522700  0.82269500  1
  S  S12  1  0.00000000  0.22648100  0.40450600  1
  S  S13  1  0.72522700  0.50000000  0.17730500  1
  S  S14  1  0.22648100  0.00000000  0.59549400  1
  S  S15  1  0.27477300  0.50000000  0.17730500  1
  S  S16  1  0.77351900  0.00000000  0.59549400  1
  S  S17  1  0.50000000  0.27477300  0.82269500  1
  S  S18  1  0.00000000  0.77351900  0.40450600  1
  S  S19  1  0.50000000  0.73422300  0.40344900  1
  S  S20  1  0.00000000  0.23348700  0.82585700  1
  S  S21  1  0.23348700  0.00000000  0.17414300  1
  S  S22  1  0.73422300  0.50000000  0.59655100  1
  S  S23  1  0.76651300  0.00000000  0.17414300  1
  S  S24  1  0.26577700  0.50000000  0.59655100  1
  S  S25  1  0.50000000  0.26577700  0.40344900  1
  S  S26  1  0.00000000  0.76651300  0.82585700  1
