# generated using pymatgen
data_DyV2Fe10N
_symmetry_space_group_name_H-M   'P 1'
_cell_length_a   4.74096300
_cell_length_b   6.49311222
_cell_length_c   6.49311222
_cell_angle_alpha   97.27870255
_cell_angle_beta   111.41228424
_cell_angle_gamma   68.58771576
_symmetry_Int_Tables_number   1
_chemical_formula_structural   DyV2Fe10N
_chemical_formula_sum   'Dy1 V2 Fe10 N1'
_cell_volume   173.23605284
_cell_formula_units_Z   1
loop_
 _symmetry_equiv_pos_site_id
 _symmetry_equiv_pos_as_xyz
  1  'x, y, z'
loop_
 _atom_site_type_symbol
 _atom_site_label
 _atom_site_symmetry_multiplicity
 _atom_site_fract_x
 _atom_site_fract_y
 _atom_site_fract_z
 _atom_site_occupancy
  Dy  Dy0  1  0.00000000  0.00000000  0.00000000  1
  V  V1  1  0.00000000  0.35866700  0.35866700  1
  V  V2  1  0.00000000  0.64133300  0.64133300  1
  Fe  Fe3  1  0.72466600  0.77533400  0.22466600  1
  Fe  Fe4  1  0.27533400  0.22466600  0.77533400  1
  Fe  Fe5  1  0.50000000  0.77686700  0.77686700  1
  Fe  Fe6  1  0.50000000  0.22313300  0.22313300  1
  Fe  Fe7  1  0.50000000  0.00000000  0.50000000  1
  Fe  Fe8  1  0.00000000  0.00000000  0.50000000  1
  Fe  Fe9  1  0.50000000  0.50000000  0.00000000  1
  Fe  Fe10  1  0.00000000  0.50000000  0.00000000  1
  Fe  Fe11  1  0.63969600  0.36030400  0.63969600  1
  Fe  Fe12  1  0.36030400  0.63969600  0.36030400  1
  N  N13  1  0.50000000  0.00000000  0.00000000  1
