# generated using pymatgen
data_Fe4Sb3
_symmetry_space_group_name_H-M   'P 1'
_cell_length_a   4.06867756
_cell_length_b   4.06867756
_cell_length_c   9.71892500
_cell_angle_alpha   90.00000000
_cell_angle_beta   90.00000000
_cell_angle_gamma   119.99999285
_symmetry_Int_Tables_number   1
_chemical_formula_structural   Fe4Sb3
_chemical_formula_sum   'Fe4 Sb3'
_cell_volume   139.33346617
_cell_formula_units_Z   1
loop_
 _symmetry_equiv_pos_site_id
 _symmetry_equiv_pos_as_xyz
  1  'x, y, z'
loop_
 _atom_site_type_symbol
 _atom_site_label
 _atom_site_symmetry_multiplicity
 _atom_site_fract_x
 _atom_site_fract_y
 _atom_site_fract_z
 _atom_site_occupancy
  Fe  Fe0  1  0.66666700  0.33333300  0.12301000  1
  Fe  Fe1  1  0.66666700  0.33333300  0.62758800  1
  Fe  Fe2  1  0.66666700  0.33333300  0.37241200  1
  Fe  Fe3  1  0.66666700  0.33333300  0.87699000  1
  Sb  Sb4  1  0.33333300  0.66666700  0.50000000  1
  Sb  Sb5  1  0.00000000  0.00000000  0.24072500  1
  Sb  Sb6  1  0.00000000  0.00000000  0.75927500  1
