# generated using pymatgen
data_Gd3Y3Fe23
_symmetry_space_group_name_H-M   'P 1'
_cell_length_a   8.52566855
_cell_length_b   8.52566855
_cell_length_c   8.52566777
_cell_angle_alpha   59.84232487
_cell_angle_beta   59.84232487
_cell_angle_gamma   59.84232788
_symmetry_Int_Tables_number   1
_chemical_formula_structural   Gd3Y3Fe23
_chemical_formula_sum   'Gd3 Y3 Fe23'
_cell_volume   436.62985865
_cell_formula_units_Z   1
loop_
 _symmetry_equiv_pos_site_id
 _symmetry_equiv_pos_as_xyz
  1  'x, y, z'
loop_
 _atom_site_type_symbol
 _atom_site_label
 _atom_site_symmetry_multiplicity
 _atom_site_fract_x
 _atom_site_fract_y
 _atom_site_fract_z
 _atom_site_occupancy
  Gd  Gd0  1  0.71099700  0.71099700  0.28890100  1
  Gd  Gd1  1  0.28890100  0.71099700  0.71099700  1
  Gd  Gd2  1  0.71099700  0.28890100  0.71099700  1
  Y  Y3  1  0.28845300  0.28845300  0.71133600  1
  Y  Y4  1  0.71133600  0.28845300  0.28845300  1
  Y  Y5  1  0.28845300  0.71133600  0.28845300  1
  Fe  Fe6  1  0.67623700  0.67623700  0.67623700  1
  Fe  Fe7  1  0.67575000  0.97240500  0.67575000  1
  Fe  Fe8  1  0.97240500  0.67575000  0.67575000  1
  Fe  Fe9  1  0.67575000  0.67575000  0.97240500  1
  Fe  Fe10  1  0.32441900  0.32441900  0.32441900  1
  Fe  Fe11  1  0.32397300  0.02803100  0.32397300  1
  Fe  Fe12  1  0.02803100  0.32397300  0.32397300  1
  Fe  Fe13  1  0.32397300  0.32397300  0.02803100  1
  Fe  Fe14  1  0.00026700  0.00026700  0.00026700  1
  Fe  Fe15  1  0.87810500  0.87810500  0.87810500  1
  Fe  Fe16  1  0.87819300  0.36528600  0.87819300  1
  Fe  Fe17  1  0.36528600  0.87819300  0.87819300  1
  Fe  Fe18  1  0.87819300  0.87819300  0.36528600  1
  Fe  Fe19  1  0.12184600  0.12184600  0.12184600  1
  Fe  Fe20  1  0.12182600  0.63464900  0.12182600  1
  Fe  Fe21  1  0.63464900  0.12182600  0.12182600  1
  Fe  Fe22  1  0.12182600  0.12182600  0.63464900  1
  Fe  Fe23  1  0.99989200  0.99989200  0.49923600  1
  Fe  Fe24  1  0.49923600  0.99989200  0.99989200  1
  Fe  Fe25  1  0.99989200  0.49923600  0.99989200  1
  Fe  Fe26  1  0.49996000  0.49996000  0.00119200  1
  Fe  Fe27  1  0.00119200  0.49996000  0.49996000  1
  Fe  Fe28  1  0.49996000  0.00119200  0.49996000  1
