# generated using pymatgen
data_RbNaMg5(Si2O5)6
_symmetry_space_group_name_H-M   'P 1'
_cell_length_a   10.22702795
_cell_length_b   10.22702795
_cell_length_c   14.61422100
_cell_angle_alpha   90.00000000
_cell_angle_beta   90.00000000
_cell_angle_gamma   119.99999970
_symmetry_Int_Tables_number   1
_chemical_formula_structural   RbNaMg5(Si2O5)6
_chemical_formula_sum   'Rb2 Na2 Mg10 Si24 O60'
_cell_volume   1323.74761187
_cell_formula_units_Z   2
loop_
 _symmetry_equiv_pos_site_id
 _symmetry_equiv_pos_as_xyz
  1  'x, y, z'
loop_
 _atom_site_type_symbol
 _atom_site_label
 _atom_site_symmetry_multiplicity
 _atom_site_fract_x
 _atom_site_fract_y
 _atom_site_fract_z
 _atom_site_occupancy
  Rb  Rb0  1  0.00000000  0.00000000  0.00000000  1
  Rb  Rb1  1  0.00000000  0.00000000  0.50000000  1
  Na  Na2  1  0.33333300  0.66666700  0.75000000  1
  Na  Na3  1  0.66666700  0.33333300  0.25000000  1
  Mg  Mg4  1  0.33333300  0.66666700  0.00284700  1
  Mg  Mg5  1  0.33333300  0.66666700  0.49715300  1
  Mg  Mg6  1  0.66666700  0.33333300  0.50284700  1
  Mg  Mg7  1  0.66666700  0.33333300  0.99715300  1
  Mg  Mg8  1  0.50044000  0.50044000  0.00000000  1
  Mg  Mg9  1  0.49956000  0.00000000  0.00000000  1
  Mg  Mg10  1  0.00000000  0.49956000  0.00000000  1
  Mg  Mg11  1  0.50044000  0.50044000  0.50000000  1
  Mg  Mg12  1  0.49956000  0.00000000  0.50000000  1
  Mg  Mg13  1  0.00000000  0.49956000  0.50000000  1
  Si  Si14  1  0.76001300  0.64363600  0.85848400  1
  Si  Si15  1  0.35636400  0.11637700  0.85848400  1
  Si  Si16  1  0.88362300  0.23998700  0.85848400  1
  Si  Si17  1  0.76001300  0.64363600  0.64151600  1
  Si  Si18  1  0.35636400  0.11637700  0.64151600  1
  Si  Si19  1  0.88362300  0.23998700  0.64151600  1
  Si  Si20  1  0.64363600  0.76001300  0.35848400  1
  Si  Si21  1  0.11637700  0.35636400  0.35848400  1
  Si  Si22  1  0.23998700  0.88362300  0.35848400  1
  Si  Si23  1  0.64363600  0.76001300  0.14151600  1
  Si  Si24  1  0.11637700  0.35636400  0.14151600  1
  Si  Si25  1  0.23998700  0.88362300  0.14151600  1
  Si  Si26  1  0.23841700  0.35347100  0.64084500  1
  Si  Si27  1  0.64652900  0.88494500  0.64084500  1
  Si  Si28  1  0.11505500  0.76158300  0.64084500  1
  Si  Si29  1  0.23841700  0.35347100  0.85915500  1
  Si  Si30  1  0.64652900  0.88494500  0.85915500  1
  Si  Si31  1  0.11505500  0.76158300  0.85915500  1
  Si  Si32  1  0.35347100  0.23841700  0.14084500  1
  Si  Si33  1  0.88494500  0.64652900  0.14084500  1
  Si  Si34  1  0.76158300  0.11505500  0.14084500  1
  Si  Si35  1  0.35347100  0.23841700  0.35915500  1
  Si  Si36  1  0.88494500  0.64652900  0.35915500  1
  Si  Si37  1  0.76158300  0.11505500  0.35915500  1
  O  O38  1  0.73574700  0.60285700  0.75000000  1
  O  O39  1  0.39714300  0.13289100  0.75000000  1
  O  O40  1  0.86710900  0.26425300  0.75000000  1
  O  O41  1  0.60285700  0.73574700  0.25000000  1
  O  O42  1  0.13289100  0.39714300  0.25000000  1
  O  O43  1  0.26425300  0.86710900  0.25000000  1
  O  O44  1  0.26431800  0.40133000  0.75000000  1
  O  O45  1  0.59867000  0.86298900  0.75000000  1
  O  O46  1  0.13701100  0.73568200  0.75000000  1
  O  O47  1  0.40133000  0.26431800  0.25000000  1
  O  O48  1  0.86298900  0.59867000  0.25000000  1
  O  O49  1  0.73568200  0.13701100  0.25000000  1
  O  O50  1  0.65569100  0.50098400  0.92163500  1
  O  O51  1  0.49901600  0.15470600  0.92163500  1
  O  O52  1  0.84529400  0.34430900  0.92163500  1
  O  O53  1  0.65569100  0.50098400  0.57836500  1
  O  O54  1  0.49901600  0.15470600  0.57836500  1
  O  O55  1  0.84529400  0.34430900  0.57836500  1
  O  O56  1  0.50098400  0.65569100  0.42163500  1
  O  O57  1  0.15470600  0.49901600  0.42163500  1
  O  O58  1  0.34430900  0.84529400  0.42163500  1
  O  O59  1  0.50098400  0.65569100  0.07836500  1
  O  O60  1  0.15470600  0.49901600  0.07836500  1
  O  O61  1  0.34430900  0.84529400  0.07836500  1
  O  O62  1  0.34443400  0.50090600  0.58097600  1
  O  O63  1  0.49909400  0.84352800  0.58097600  1
  O  O64  1  0.15647200  0.65556600  0.58097600  1
  O  O65  1  0.34443400  0.50090600  0.91902400  1
  O  O66  1  0.49909400  0.84352800  0.91902400  1
  O  O67  1  0.15647200  0.65556600  0.91902400  1
  O  O68  1  0.50090600  0.34443400  0.08097600  1
  O  O69  1  0.84352800  0.49909400  0.08097600  1
  O  O70  1  0.65556600  0.15647200  0.08097600  1
  O  O71  1  0.50090600  0.34443400  0.41902400  1
  O  O72  1  0.84352800  0.49909400  0.41902400  1
  O  O73  1  0.65556600  0.15647200  0.41902400  1
  O  O74  1  0.94124100  0.72123900  0.88169800  1
  O  O75  1  0.27876100  0.22000200  0.88169800  1
  O  O76  1  0.77999800  0.05875900  0.88169800  1
  O  O77  1  0.94124100  0.72123900  0.61830200  1
  O  O78  1  0.27876100  0.22000200  0.61830200  1
  O  O79  1  0.77999800  0.05875900  0.61830200  1
  O  O80  1  0.72123900  0.94124100  0.38169800  1
  O  O81  1  0.22000200  0.27876100  0.38169800  1
  O  O82  1  0.05875900  0.77999800  0.38169800  1
  O  O83  1  0.72123900  0.94124100  0.11830200  1
  O  O84  1  0.22000200  0.27876100  0.11830200  1
  O  O85  1  0.05875900  0.77999800  0.11830200  1
  O  O86  1  0.05744400  0.27817100  0.61853700  1
  O  O87  1  0.72182900  0.77927300  0.61853700  1
  O  O88  1  0.22072700  0.94255600  0.61853700  1
  O  O89  1  0.05744400  0.27817100  0.88146300  1
  O  O90  1  0.72182900  0.77927300  0.88146300  1
  O  O91  1  0.22072700  0.94255600  0.88146300  1
  O  O92  1  0.27817100  0.05744400  0.11853700  1
  O  O93  1  0.77927300  0.72182900  0.11853700  1
  O  O94  1  0.94255600  0.22072700  0.11853700  1
  O  O95  1  0.27817100  0.05744400  0.38146300  1
  O  O96  1  0.77927300  0.72182900  0.38146300  1
  O  O97  1  0.94255600  0.22072700  0.38146300  1
