# generated using pymatgen
data_Dy2FeSbO7
_symmetry_space_group_name_H-M   'P 1'
_cell_length_a   7.29406000
_cell_length_b   7.29406000
_cell_length_c   7.29406000
_cell_angle_alpha   120.40195327
_cell_angle_beta   119.36063396
_cell_angle_gamma   90.20808594
_symmetry_Int_Tables_number   1
_chemical_formula_structural   Dy2FeSbO7
_chemical_formula_sum   'Dy4 Fe2 Sb2 O14'
_cell_volume   274.86775513
_cell_formula_units_Z   2
loop_
 _symmetry_equiv_pos_site_id
 _symmetry_equiv_pos_as_xyz
  1  'x, y, z'
loop_
 _atom_site_type_symbol
 _atom_site_label
 _atom_site_symmetry_multiplicity
 _atom_site_fract_x
 _atom_site_fract_y
 _atom_site_fract_z
 _atom_site_occupancy
  Dy  Dy0  1  0.00000000  0.00000000  0.50000000  1
  Dy  Dy1  1  0.00000000  0.50000000  0.00000000  1
  Dy  Dy2  1  0.00000000  0.00000000  0.00000000  1
  Dy  Dy3  1  0.50000000  0.00000000  0.50000000  1
  Fe  Fe4  1  0.50000000  0.50000000  0.50000000  1
  Fe  Fe5  1  0.50000000  0.00000000  0.00000000  1
  Sb  Sb6  1  0.50000000  0.50000000  0.00000000  1
  Sb  Sb7  1  0.00000000  0.50000000  0.50000000  1
  O  O8  1  0.40964600  0.15964600  0.25000000  1
  O  O9  1  0.82985900  0.57985900  0.25000000  1
  O  O10  1  0.40900800  0.57871900  0.24007600  1
  O  O11  1  0.83864300  0.16893300  0.25992400  1
  O  O12  1  0.40900800  0.16893300  0.83029000  1
  O  O13  1  0.83864300  0.57871900  0.66971000  1
  O  O14  1  0.59035400  0.84035400  0.75000000  1
  O  O15  1  0.17014100  0.42014100  0.75000000  1
  O  O16  1  0.59099200  0.42128100  0.75992400  1
  O  O17  1  0.16135700  0.83106700  0.74007600  1
  O  O18  1  0.59099200  0.83106700  0.16971000  1
  O  O19  1  0.16135700  0.42128100  0.33029000  1
  O  O20  1  0.12324100  0.87324100  0.25000000  1
  O  O21  1  0.87675900  0.12675900  0.75000000  1
