# generated using pymatgen
data_Fe4SiO9
_symmetry_space_group_name_H-M   'P 1'
_cell_length_a   5.32941991
_cell_length_b   5.32941991
_cell_length_c   23.43199600
_cell_angle_alpha   90.00000000
_cell_angle_beta   90.00000000
_cell_angle_gamma   119.99999884
_symmetry_Int_Tables_number   1
_chemical_formula_structural   Fe4SiO9
_chemical_formula_sum   'Fe12 Si3 O27'
_cell_volume   576.36792059
_cell_formula_units_Z   3
loop_
 _symmetry_equiv_pos_site_id
 _symmetry_equiv_pos_as_xyz
  1  'x, y, z'
loop_
 _atom_site_type_symbol
 _atom_site_label
 _atom_site_symmetry_multiplicity
 _atom_site_fract_x
 _atom_site_fract_y
 _atom_site_fract_z
 _atom_site_occupancy
  Fe  Fe0  1  0.44922900  0.22642400  0.17003100  1
  Fe  Fe1  1  0.77357600  0.22280500  0.50336400  1
  Fe  Fe2  1  0.77719500  0.55077100  0.83669700  1
  Fe  Fe3  1  0.10758800  0.55095700  0.17148700  1
  Fe  Fe4  1  0.44904300  0.55663100  0.50482100  1
  Fe  Fe5  1  0.44336900  0.89241200  0.83815400  1
  Fe  Fe6  1  0.44324900  0.55248100  0.30305600  1
  Fe  Fe7  1  0.44751900  0.89076800  0.63639000  1
  Fe  Fe8  1  0.10923200  0.55675100  0.96972300  1
  Fe  Fe9  1  0.77739800  0.89303900  0.17093300  1
  Fe  Fe10  1  0.10696100  0.88436000  0.50426600  1
  Fe  Fe11  1  0.11564000  0.22260200  0.83759900  1
  Si  Si12  1  0.10975000  0.88524300  0.29695100  1
  Si  Si13  1  0.11475700  0.22450700  0.63028400  1
  Si  Si14  1  0.77549300  0.89025000  0.96361700  1
  O  O15  1  0.38223100  0.18961600  0.31789400  1
  O  O16  1  0.81038400  0.19261500  0.65122700  1
  O  O17  1  0.80738500  0.61776900  0.98456000  1
  O  O18  1  0.11002600  0.88788600  0.22424600  1
  O  O19  1  0.11211400  0.22213900  0.55757900  1
  O  O20  1  0.77786100  0.88997400  0.89091200  1
  O  O21  1  0.44765500  0.56058300  0.21834900  1
  O  O22  1  0.43941700  0.88707200  0.55168200  1
  O  O23  1  0.11292800  0.55234500  0.88501600  1
  O  O24  1  0.14533600  0.61724400  0.31938100  1
  O  O25  1  0.38275600  0.52809200  0.65271400  1
  O  O26  1  0.47190800  0.85466400  0.98604800  1
  O  O27  1  0.11332000  0.21610000  0.13318600  1
  O  O28  1  0.78390000  0.89722000  0.46652000  1
  O  O29  1  0.10278000  0.88668000  0.79985300  1
  O  O30  1  0.42004300  0.87032200  0.13452800  1
  O  O31  1  0.12967800  0.54972100  0.46786100  1
  O  O32  1  0.45027900  0.57995700  0.80119400  1
  O  O33  1  0.80761300  0.84832100  0.32052500  1
  O  O34  1  0.15167900  0.95929300  0.65385900  1
  O  O35  1  0.04070700  0.19238700  0.98719200  1
  O  O36  1  0.79157800  0.57476400  0.13362800  1
  O  O37  1  0.42523600  0.21681400  0.46696100  1
  O  O38  1  0.78318600  0.20842200  0.80029400  1
  O  O39  1  0.79392800  0.23140300  0.21046800  1
  O  O40  1  0.76859700  0.56252500  0.54380100  1
  O  O41  1  0.43747500  0.20607200  0.87713500  1
