# generated using pymatgen
data_Dy2TiCuO6
_symmetry_space_group_name_H-M   'P 1'
_cell_length_a   3.63785900
_cell_length_b   3.63797355
_cell_length_c   11.36813300
_cell_angle_alpha   90.00003599
_cell_angle_beta   90.00037548
_cell_angle_gamma   120.00074061
_symmetry_Int_Tables_number   1
_chemical_formula_structural   Dy2TiCuO6
_chemical_formula_sum   'Dy2 Ti1 Cu1 O6'
_cell_volume   130.29325559
_cell_formula_units_Z   1
loop_
 _symmetry_equiv_pos_site_id
 _symmetry_equiv_pos_as_xyz
  1  'x, y, z'
loop_
 _atom_site_type_symbol
 _atom_site_label
 _atom_site_symmetry_multiplicity
 _atom_site_fract_x
 _atom_site_fract_y
 _atom_site_fract_z
 _atom_site_occupancy
  Dy  Dy0  1  0.00002100  0.00001000  0.27194000  1
  Dy  Dy1  1  0.99999400  0.99999900  0.72395500  1
  Ti  Ti2  1  0.66673800  0.33336800  0.99800800  1
  Cu  Cu3  1  0.33323400  0.66661400  0.49803600  1
  O  O4  1  0.66668900  0.33334400  0.16220900  1
  O  O5  1  0.33331100  0.66665600  0.66676000  1
  O  O6  1  0.99995000  0.99997400  0.99795300  1
  O  O7  1  0.00005800  0.00002900  0.49791400  1
  O  O8  1  0.33333900  0.66667000  0.32939100  1
  O  O9  1  0.66666700  0.33333500  0.83383400  1
