# generated using pymatgen
data_GdCo2Ni2B
_symmetry_space_group_name_H-M   'P 1'
_cell_length_a   5.03061943
_cell_length_b   5.03061943
_cell_length_c   6.84239300
_cell_angle_alpha   90.00000000
_cell_angle_beta   90.00000000
_cell_angle_gamma   120.12730939
_symmetry_Int_Tables_number   1
_chemical_formula_structural   GdCo2Ni2B
_chemical_formula_sum   'Gd2 Co4 Ni4 B2'
_cell_volume   149.76937126
_cell_formula_units_Z   2
loop_
 _symmetry_equiv_pos_site_id
 _symmetry_equiv_pos_as_xyz
  1  'x, y, z'
loop_
 _atom_site_type_symbol
 _atom_site_label
 _atom_site_symmetry_multiplicity
 _atom_site_fract_x
 _atom_site_fract_y
 _atom_site_fract_z
 _atom_site_occupancy
  Gd  Gd0  1  0.00000000  0.00000000  0.00261800  1
  Gd  Gd1  1  0.00000000  0.00000000  0.49901300  1
  Co  Co2  1  0.50000000  0.50000000  0.70657000  1
  Co  Co3  1  0.50000000  0.00000000  0.29052800  1
  Co  Co4  1  0.00000000  0.50000000  0.29052800  1
  Co  Co5  1  0.50000000  0.50000000  0.29284600  1
  Ni  Ni6  1  0.66422300  0.33577700  0.00136900  1
  Ni  Ni7  1  0.33577700  0.66422300  0.00136900  1
  Ni  Ni8  1  0.50000000  0.00000000  0.70922300  1
  Ni  Ni9  1  0.00000000  0.50000000  0.70922300  1
  B  B10  1  0.66560300  0.33439700  0.49810000  1
  B  B11  1  0.33439700  0.66560300  0.49810000  1
