# generated using pymatgen
data_Dy2ScNbO7
_symmetry_space_group_name_H-M   'P 1'
_cell_length_a   7.36975784
_cell_length_b   7.36975784
_cell_length_c   7.36975784
_cell_angle_alpha   120.74959935
_cell_angle_beta   119.26411842
_cell_angle_gamma   89.99293557
_symmetry_Int_Tables_number   1
_chemical_formula_structural   Dy2ScNbO7
_chemical_formula_sum   'Dy4 Sc2 Nb2 O14'
_cell_volume   282.94913557
_cell_formula_units_Z   2
loop_
 _symmetry_equiv_pos_site_id
 _symmetry_equiv_pos_as_xyz
  1  'x, y, z'
loop_
 _atom_site_type_symbol
 _atom_site_label
 _atom_site_symmetry_multiplicity
 _atom_site_fract_x
 _atom_site_fract_y
 _atom_site_fract_z
 _atom_site_occupancy
  Dy  Dy0  1  0.50000000  0.50000000  0.50000000  1
  Dy  Dy1  1  0.50000000  0.00000000  0.00000000  1
  Dy  Dy2  1  0.50000000  0.50000000  0.00000000  1
  Dy  Dy3  1  0.00000000  0.50000000  0.50000000  1
  Sc  Sc4  1  0.00000000  0.00000000  0.50000000  1
  Sc  Sc5  1  0.00000000  0.50000000  0.00000000  1
  Nb  Nb6  1  0.00000000  0.00000000  0.00000000  1
  Nb  Nb7  1  0.50000000  0.00000000  0.50000000  1
  O  O8  1  0.37882900  0.62882900  0.75000000  1
  O  O9  1  0.62117100  0.37117100  0.25000000  1
  O  O10  1  0.32413300  0.07413300  0.25000000  1
  O  O11  1  0.89996700  0.64996700  0.25000000  1
  O  O12  1  0.34455500  0.67024800  0.26578800  1
  O  O13  1  0.90446000  0.07876700  0.23421200  1
  O  O14  1  0.34455500  0.07876700  0.67430700  1
  O  O15  1  0.90446000  0.67024800  0.82569300  1
  O  O16  1  0.67586700  0.92586700  0.75000000  1
  O  O17  1  0.10003300  0.35003300  0.75000000  1
  O  O18  1  0.65544500  0.32975200  0.73421200  1
  O  O19  1  0.09554000  0.92123300  0.76578800  1
  O  O20  1  0.65544500  0.92123300  0.32569300  1
  O  O21  1  0.09554000  0.32975200  0.17430700  1
