# generated using pymatgen
data_EuTiNbBi2O9
_symmetry_space_group_name_H-M   'P 1'
_cell_length_a   5.48763900
_cell_length_b   5.46588600
_cell_length_c   12.95198251
_cell_angle_alpha   78.26126140
_cell_angle_beta   90.00000000
_cell_angle_gamma   90.00000000
_symmetry_Int_Tables_number   1
_chemical_formula_structural   EuTiNbBi2O9
_chemical_formula_sum   'Eu2 Ti2 Nb2 Bi4 O18'
_cell_volume   380.36711474
_cell_formula_units_Z   2
loop_
 _symmetry_equiv_pos_site_id
 _symmetry_equiv_pos_as_xyz
  1  'x, y, z'
loop_
 _atom_site_type_symbol
 _atom_site_label
 _atom_site_symmetry_multiplicity
 _atom_site_fract_x
 _atom_site_fract_y
 _atom_site_fract_z
 _atom_site_occupancy
  Eu  Eu0  1  0.97447600  0.24738600  0.00018800  1
  Eu  Eu1  1  0.47447600  0.75261400  0.99981200  1
  Ti  Ti2  1  0.00292500  0.66662300  0.17385200  1
  Ti  Ti3  1  0.50292500  0.33337700  0.82614800  1
  Nb  Nb4  1  0.00624900  0.82990600  0.82712200  1
  Nb  Nb5  1  0.50624900  0.17009400  0.17287800  1
  Bi  Bi6  1  0.98748500  0.02099100  0.39781300  1
  Bi  Bi7  1  0.98477700  0.42758600  0.60133400  1
  Bi  Bi8  1  0.48748500  0.97900900  0.60218700  1
  Bi  Bi9  1  0.48477700  0.57241400  0.39866600  1
  O  O10  1  0.24582600  0.25778500  0.49805400  1
  O  O11  1  0.24489200  0.75407700  0.50216200  1
  O  O12  1  0.74582600  0.74221500  0.50194600  1
  O  O13  1  0.74489200  0.24592300  0.49783800  1
  O  O14  1  0.03498500  0.68611300  0.99867800  1
  O  O15  1  0.53498500  0.31388700  0.00132200  1
  O  O16  1  0.32073200  0.47143000  0.16993800  1
  O  O17  1  0.32659100  0.63442600  0.83059400  1
  O  O18  1  0.82073200  0.52857000  0.83006200  1
  O  O19  1  0.82659100  0.36557400  0.16940600  1
  O  O20  1  0.23497100  0.97198500  0.12898300  1
  O  O21  1  0.23769100  0.10310900  0.87076400  1
  O  O22  1  0.73497100  0.02801500  0.87101700  1
  O  O23  1  0.73769100  0.89689100  0.12923600  1
  O  O24  1  0.01519800  0.66502100  0.31340500  1
  O  O25  1  0.01400200  0.97494000  0.68151600  1
  O  O26  1  0.51519800  0.33497900  0.68659500  1
  O  O27  1  0.51400200  0.02506000  0.31848400  1
