# generated using pymatgen
data_EuZnIn
_symmetry_space_group_name_H-M   'P 1'
_cell_length_a   6.14233731
_cell_length_b   6.14233731
_cell_length_c   7.74449872
_cell_angle_alpha   51.37321328
_cell_angle_beta   51.37321328
_cell_angle_gamma   46.35415038
_symmetry_Int_Tables_number   1
_chemical_formula_structural   EuZnIn
_chemical_formula_sum   'Eu2 Zn2 In2'
_cell_volume   155.21086715
_cell_formula_units_Z   2
loop_
 _symmetry_equiv_pos_site_id
 _symmetry_equiv_pos_as_xyz
  1  'x, y, z'
loop_
 _atom_site_type_symbol
 _atom_site_label
 _atom_site_symmetry_multiplicity
 _atom_site_fract_x
 _atom_site_fract_y
 _atom_site_fract_z
 _atom_site_occupancy
  Eu  Eu0  1  0.53660400  0.53660400  0.70899500  1
  Eu  Eu1  1  0.46339600  0.46339600  0.29100500  1
  Zn  Zn2  1  0.15954900  0.15954900  0.29302400  1
  Zn  Zn3  1  0.84045100  0.84045100  0.70697600  1
  In  In4  1  0.82903300  0.82903300  0.11864500  1
  In  In5  1  0.17096700  0.17096700  0.88135500  1
