data_image0
_chemical_formula_structural       Eu4H20Mg6
_chemical_formula_sum              "Eu4 H20 Mg6"
_cell_length_a       5.52509
_cell_length_b       7.10675
_cell_length_c       8.96058
_cell_angle_alpha    109.992
_cell_angle_beta     107.957
_cell_angle_gamma    90

_space_group_name_H-M_alt    "P 1"
_space_group_IT_number       1

loop_
  _space_group_symop_operation_xyz
  'x, y, z'

loop_
  _atom_site_type_symbol
  _atom_site_label
  _atom_site_symmetry_multiplicity
  _atom_site_fract_x
  _atom_site_fract_y
  _atom_site_fract_z
  _atom_site_occupancy
  Eu  Eu1       1.0  0.61700  0.72200  0.23400  1.0000
  Eu  Eu2       1.0  0.72300  0.31800  0.44600  1.0000
  Eu  Eu3       1.0  0.27700  0.68200  0.55400  1.0000
  Eu  Eu4       1.0  0.38300  0.27800  0.76600  1.0000
  H   H1        1.0  0.24100  0.50000  0.00000  1.0000
  H   H2        1.0  0.75900  0.50000  0.00000  1.0000
  H   H3        1.0  0.51500  0.20100  0.02990  1.0000
  H   H4        1.0  0.01660  0.17600  0.03320  1.0000
  H   H5        1.0  0.39900  0.03410  0.23100  1.0000
  H   H6        1.0  0.83200  0.03410  0.23100  1.0000
  H   H7        1.0  0.13500  0.74300  0.27100  1.0000
  H   H8        1.0  0.40500  0.48300  0.31000  1.0000
  H   H9        1.0  0.90600  0.48300  0.31000  1.0000
  H   H10       1.0  0.24000  0.30300  0.48000  1.0000
  H   H11       1.0  0.50000  0.00000  0.50000  1.0000
  H   H12       1.0  0.00000  0.00000  0.50000  1.0000
  H   H13       1.0  0.76000  0.69700  0.52000  1.0000
  H   H14       1.0  0.09440  0.51700  0.69000  1.0000
  H   H15       1.0  0.59500  0.51700  0.69000  1.0000
  H   H16       1.0  0.86500  0.25700  0.72900  1.0000
  H   H17       1.0  0.16800  0.96600  0.76900  1.0000
  H   H18       1.0  0.60100  0.96600  0.76900  1.0000
  H   H19       1.0  0.98300  0.82400  0.96700  1.0000
  H   H20       1.0  0.48500  0.79900  0.97000  1.0000
  Mg  Mg1       1.0  0.26000  0.00000  0.00000  1.0000
  Mg  Mg2       1.0  0.74000  0.00000  0.00000  1.0000
  Mg  Mg3       1.0  0.07550  0.44800  0.15100  1.0000
  Mg  Mg4       1.0  0.17400  0.02660  0.34800  1.0000
  Mg  Mg5       1.0  0.82600  0.97300  0.65200  1.0000
  Mg  Mg6       1.0  0.92400  0.55200  0.84900  1.0000
