# generated using pymatgen
data_Eu4BPd12
_symmetry_space_group_name_H-M   'P 1'
_cell_length_a   4.28585900
_cell_length_b   4.28585900
_cell_length_c   16.63976900
_cell_angle_alpha   90.00000000
_cell_angle_beta   90.00000000
_cell_angle_gamma   90.00000000
_symmetry_Int_Tables_number   1
_chemical_formula_structural   Eu4BPd12
_chemical_formula_sum   'Eu4 B1 Pd12'
_cell_volume   305.64905066
_cell_formula_units_Z   1
loop_
 _symmetry_equiv_pos_site_id
 _symmetry_equiv_pos_as_xyz
  1  'x, y, z'
loop_
 _atom_site_type_symbol
 _atom_site_label
 _atom_site_symmetry_multiplicity
 _atom_site_fract_x
 _atom_site_fract_y
 _atom_site_fract_z
 _atom_site_occupancy
  Eu  Eu0  1  0.00000000  0.00000000  0.86904700  1
  Eu  Eu1  1  0.00000000  0.00000000  0.13095300  1
  Eu  Eu2  1  0.00000000  0.00000000  0.37532000  1
  Eu  Eu3  1  0.00000000  0.00000000  0.62468000  1
  B  B4  1  0.50000000  0.50000000  0.00000000  1
  Pd  Pd5  1  0.00000000  0.50000000  0.00000000  1
  Pd  Pd6  1  0.00000000  0.50000000  0.24904800  1
  Pd  Pd7  1  0.00000000  0.50000000  0.50000000  1
  Pd  Pd8  1  0.00000000  0.50000000  0.75095200  1
  Pd  Pd9  1  0.50000000  0.50000000  0.87258500  1
  Pd  Pd10  1  0.50000000  0.50000000  0.12741500  1
  Pd  Pd11  1  0.50000000  0.50000000  0.37489300  1
  Pd  Pd12  1  0.50000000  0.50000000  0.62510700  1
  Pd  Pd13  1  0.50000000  0.00000000  0.00000000  1
  Pd  Pd14  1  0.50000000  0.00000000  0.24904800  1
  Pd  Pd15  1  0.50000000  0.00000000  0.50000000  1
  Pd  Pd16  1  0.50000000  0.00000000  0.75095200  1
