# generated using pymatgen
data_LaB12H33Cl2O11
_symmetry_space_group_name_H-M   'P 1'
_cell_length_a   7.91187794
_cell_length_b   7.90932384
_cell_length_c   22.19823124
_cell_angle_alpha   90.05544172
_cell_angle_beta   90.03739627
_cell_angle_gamma   59.96079199
_symmetry_Int_Tables_number   1
_chemical_formula_structural   LaB12H33Cl2O11
_chemical_formula_sum   'La2 B24 H66 Cl4 O22'
_cell_volume   1202.53024540
_cell_formula_units_Z   2
loop_
 _symmetry_equiv_pos_site_id
 _symmetry_equiv_pos_as_xyz
  1  'x, y, z'
loop_
 _atom_site_type_symbol
 _atom_site_label
 _atom_site_symmetry_multiplicity
 _atom_site_fract_x
 _atom_site_fract_y
 _atom_site_fract_z
 _atom_site_occupancy
  La  La0  1  0.66635500  0.66675800  0.24996800  1
  La  La1  1  0.66682400  0.66650400  0.74994600  1
  B  B2  1  0.00061300  0.78979200  0.01422700  1
  B  B3  1  0.78970600  0.20984200  0.01427900  1
  B  B4  1  0.20962900  0.00050100  0.01431300  1
  B  B5  1  0.00055800  0.78976800  0.48557700  1
  B  B6  1  0.78975100  0.20987000  0.48562000  1
  B  B7  1  0.20970400  0.00039700  0.48565400  1
  B  B8  1  0.20975400  0.78973600  0.51425700  1
  B  B9  1  0.00039500  0.20980400  0.51430100  1
  B  B10  1  0.78983500  0.00061900  0.51422500  1
  B  B11  1  0.20981600  0.78972300  0.98561900  1
  B  B12  1  0.00031100  0.20982200  0.98567300  1
  B  B13  1  0.78985100  0.00051400  0.98559000  1
  B  B14  1  0.99854800  0.13031500  0.06080500  1
  B  B15  1  0.13017800  0.87120600  0.06077400  1
  B  B16  1  0.87118500  0.99877400  0.06076000  1
  B  B17  1  0.99863600  0.13016000  0.43911600  1
  B  B18  1  0.13022000  0.87101800  0.43909200  1
  B  B19  1  0.87116900  0.99868600  0.43907200  1
  B  B20  1  0.87110700  0.13036000  0.56077000  1
  B  B21  1  0.99870200  0.87125300  0.56074800  1
  B  B22  1  0.13013500  0.99871800  0.56079400  1
  B  B23  1  0.87112000  0.13017800  0.93911300  1
  B  B24  1  0.99877900  0.87105300  0.93907700  1
  B  B25  1  0.13015700  0.99862300  0.93912900  1
  H  H26  1  0.26057700  0.47863200  0.00019300  1
  H  H27  1  0.47886700  0.26055500  0.00010800  1
  H  H28  1  0.26102400  0.26033500  0.00022400  1
  H  H29  1  0.26062000  0.47867800  0.50002900  1
  H  H30  1  0.47873100  0.26032000  0.50013600  1
  H  H31  1  0.26063200  0.26060600  0.50007600  1
  H  H32  1  0.99866700  0.64140600  0.02452300  1
  H  H33  1  0.64133100  0.36034100  0.02460600  1
  H  H34  1  0.36001000  0.99836600  0.02470000  1
  H  H35  1  0.99861100  0.64137800  0.47523400  1
  H  H36  1  0.64135500  0.36033400  0.47534200  1
  H  H37  1  0.36014300  0.99818600  0.47541100  1
  H  H38  1  0.36019600  0.64133600  0.52458100  1
  H  H39  1  0.99822000  0.36026400  0.52468200  1
  H  H40  1  0.64150700  0.99864000  0.52452100  1
  H  H41  1  0.36024700  0.64128900  0.97534300  1
  H  H42  1  0.99809000  0.36029200  0.97543700  1
  H  H43  1  0.64156600  0.99848500  0.97524800  1
  H  H44  1  0.32563900  0.58177800  0.21532600  1
  H  H45  1  0.58416700  0.09103400  0.21539600  1
  H  H46  1  0.09193600  0.32528600  0.21528400  1
  H  H47  1  0.32240700  0.58720500  0.28426600  1
  H  H48  1  0.58401000  0.09162600  0.28431800  1
  H  H49  1  0.09019800  0.32203200  0.28424000  1
  H  H50  1  0.09162800  0.58295700  0.71539800  1
  H  H51  1  0.32547100  0.09183500  0.71536800  1
  H  H52  1  0.58285600  0.32496700  0.71534000  1
  H  H53  1  0.09093000  0.58553900  0.78433200  1
  H  H54  1  0.32272400  0.09060600  0.78429500  1
  H  H55  1  0.58776500  0.32188400  0.78429800  1
  H  H56  1  0.56903700  0.40032500  0.16053900  1
  H  H57  1  0.40039900  0.03061100  0.16062100  1
  H  H58  1  0.03030600  0.56915900  0.16072900  1
  H  H59  1  0.56898000  0.40046700  0.33919300  1
  H  H60  1  0.40025100  0.03052400  0.33945500  1
  H  H61  1  0.03068600  0.56882600  0.33917900  1
  H  H62  1  0.03051600  0.40041100  0.66060500  1
  H  H63  1  0.56911900  0.03039100  0.66067100  1
  H  H64  1  0.40039300  0.56892800  0.66058900  1
  H  H65  1  0.03065500  0.40038200  0.83937200  1
  H  H66  1  0.56890300  0.03074700  0.83924000  1
  H  H67  1  0.40070800  0.56873000  0.83911400  1
  H  H68  1  0.76163700  0.38364100  0.13425200  1
  H  H69  1  0.38389200  0.85468300  0.13415000  1
  H  H70  1  0.85416300  0.76168700  0.13437400  1
  H  H71  1  0.76103900  0.38474200  0.36573100  1
  H  H72  1  0.38440100  0.85421400  0.36588600  1
  H  H73  1  0.85417900  0.76106300  0.36568400  1
  H  H74  1  0.85486300  0.38331000  0.63426800  1
  H  H75  1  0.76169600  0.85427700  0.63432000  1
  H  H76  1  0.38405000  0.76141700  0.63429200  1
  H  H77  1  0.85440800  0.38453900  0.86585700  1
  H  H78  1  0.76110500  0.85430100  0.86574500  1
  H  H79  1  0.38478900  0.76107200  0.86559500  1
  H  H80  1  0.00071100  0.22199100  0.10387400  1
  H  H81  1  0.22178800  0.77736500  0.10382500  1
  H  H82  1  0.77735900  0.00104900  0.10381200  1
  H  H83  1  0.00072100  0.22178900  0.39605900  1
  H  H84  1  0.22191300  0.77700200  0.39602700  1
  H  H85  1  0.77734500  0.00089100  0.39598700  1
  H  H86  1  0.77720000  0.22213500  0.60381100  1
  H  H87  1  0.00103200  0.77742200  0.60379600  1
  H  H88  1  0.22175100  0.00091400  0.60386200  1
  H  H89  1  0.77723100  0.22184600  0.89604900  1
  H  H90  1  0.00103400  0.77713300  0.89599400  1
  H  H91  1  0.22176000  0.00074300  0.89606200  1
  Cl  Cl92  1  0.33295800  0.33371400  0.16372700  1
  Cl  Cl93  1  0.33322400  0.33332800  0.33599400  1
  Cl  Cl94  1  0.33372600  0.33330400  0.66378500  1
  Cl  Cl95  1  0.33348600  0.33339700  0.83599700  1
  O  O96  1  0.33353600  0.33316000  0.99946500  1
  O  O97  1  0.33328100  0.33320300  0.49967700  1
  O  O98  1  0.34727100  0.64887800  0.24943600  1
  O  O99  1  0.64879200  0.00367500  0.24994500  1
  O  O100  1  0.00356700  0.34652300  0.24941600  1
  O  O101  1  0.00355300  0.64861300  0.74973200  1
  O  O102  1  0.34682200  0.00367700  0.74950700  1
  O  O103  1  0.64978500  0.34651200  0.74944500  1
  O  O104  1  0.65721300  0.45392200  0.16404700  1
  O  O105  1  0.45413100  0.88872700  0.16400100  1
  O  O106  1  0.88846400  0.65741000  0.16421900  1
  O  O107  1  0.65670300  0.45463200  0.33586900  1
  O  O108  1  0.45446700  0.88853000  0.33609500  1
  O  O109  1  0.88868300  0.65628800  0.33592100  1
  O  O110  1  0.88866700  0.45424200  0.66394700  1
  O  O111  1  0.65729200  0.88855600  0.66414100  1
  O  O112  1  0.45384500  0.65717700  0.66419200  1
  O  O113  1  0.88871800  0.45429200  0.83597000  1
  O  O114  1  0.65654500  0.88860700  0.83599200  1
  O  O115  1  0.45498700  0.65642000  0.83583400  1
  O  O116  1  0.00409100  0.00202500  0.23128300  1
  O  O117  1  0.99650600  0.00547900  0.73178600  1
