# generated using pymatgen
data_Fe4SiO9
_symmetry_space_group_name_H-M   'P 1'
_cell_length_a   5.33357100
_cell_length_b   5.33586893
_cell_length_c   7.38121599
_cell_angle_alpha   90.62636700
_cell_angle_beta   90.83488869
_cell_angle_gamma   118.61229188
_symmetry_Int_Tables_number   1
_chemical_formula_structural   Fe4SiO9
_chemical_formula_sum   'Fe4 Si1 O9'
_cell_volume   184.35287141
_cell_formula_units_Z   1
loop_
 _symmetry_equiv_pos_site_id
 _symmetry_equiv_pos_as_xyz
  1  'x, y, z'
loop_
 _atom_site_type_symbol
 _atom_site_label
 _atom_site_symmetry_multiplicity
 _atom_site_fract_x
 _atom_site_fract_y
 _atom_site_fract_z
 _atom_site_occupancy
  Fe  Fe0  1  0.33174300  0.67228100  0.91554100  1
  Fe  Fe1  1  0.00728500  0.67882000  0.50028000  1
  Fe  Fe2  1  0.33042400  0.32896500  0.50081700  1
  Fe  Fe3  1  0.67173300  0.00059000  0.50180600  1
  Si  Si4  1  0.66647600  0.33152600  0.90406100  1
  O  O5  1  0.99840500  0.98992700  0.62840400  1
  O  O6  1  0.96986000  0.58542800  0.97787700  1
  O  O7  1  0.41140200  0.38668100  0.97602700  1
  O  O8  1  0.61989800  0.02787200  0.97725700  1
  O  O9  1  0.32623700  0.66864400  0.64906600  1
  O  O10  1  0.65927700  0.32452200  0.67349700  1
  O  O11  1  0.99055200  0.34852500  0.38899200  1
  O  O12  1  0.66756800  0.65352500  0.38767800  1
  O  O13  1  0.34914000  0.00269300  0.38169600  1
