# generated using pymatgen
data_Dy4MgS7
_symmetry_space_group_name_H-M   'P 1'
_cell_length_a   6.59088219
_cell_length_b   6.59088219
_cell_length_c   11.51824906
_cell_angle_alpha   75.40470732
_cell_angle_beta   75.40470732
_cell_angle_gamma   33.63475323
_symmetry_Int_Tables_number   1
_chemical_formula_structural   Dy4MgS7
_chemical_formula_sum   'Dy4 Mg1 S7'
_cell_volume   267.36664067
_cell_formula_units_Z   1
loop_
 _symmetry_equiv_pos_site_id
 _symmetry_equiv_pos_as_xyz
  1  'x, y, z'
loop_
 _atom_site_type_symbol
 _atom_site_label
 _atom_site_symmetry_multiplicity
 _atom_site_fract_x
 _atom_site_fract_y
 _atom_site_fract_z
 _atom_site_occupancy
  Dy  Dy0  1  0.69273600  0.69273600  0.20422700  1
  Dy  Dy1  1  0.30685200  0.30685200  0.80125900  1
  Dy  Dy2  1  0.99963100  0.99963100  0.00570100  1
  Dy  Dy3  1  0.11362700  0.11362700  0.56792600  1
  Mg  Mg4  1  0.88519400  0.88519400  0.42187700  1
  S  S5  1  0.74304100  0.74304100  0.64043500  1
  S  S6  1  0.26730300  0.26730300  0.35282600  1
  S  S7  1  0.33861200  0.33861200  0.05073000  1
  S  S8  1  0.65974900  0.65974900  0.94870400  1
  S  S9  1  0.03630600  0.03630600  0.22389600  1
  S  S10  1  0.96177000  0.96177000  0.78503500  1
  S  S11  1  0.49517900  0.49517900  0.49738400  1
