# generated using pymatgen
data_Nd3AlSi5N10O
_symmetry_space_group_name_H-M   'P 1'
_cell_length_a   4.91519500
_cell_length_b   20.37794257
_cell_length_c   14.45904300
_cell_angle_alpha   44.80218946
_cell_angle_beta   90.00000000
_cell_angle_gamma   90.00000000
_symmetry_Int_Tables_number   1
_chemical_formula_structural   Nd3AlSi5N10O
_chemical_formula_sum   'Nd12 Al4 Si20 N40 O4'
_cell_volume   1020.51894453
_cell_formula_units_Z   4
loop_
 _symmetry_equiv_pos_site_id
 _symmetry_equiv_pos_as_xyz
  1  'x, y, z'
loop_
 _atom_site_type_symbol
 _atom_site_label
 _atom_site_symmetry_multiplicity
 _atom_site_fract_x
 _atom_site_fract_y
 _atom_site_fract_z
 _atom_site_occupancy
  Nd  Nd0  1  0.01891100  0.06059200  0.18907200  1
  Nd  Nd1  1  0.01392700  0.24630000  0.31652700  1
  Nd  Nd2  1  0.01891100  0.56059200  0.18974400  1
  Nd  Nd3  1  0.01392700  0.25370000  0.68347300  1
  Nd  Nd4  1  0.01392700  0.75370000  0.30912800  1
  Nd  Nd5  1  0.01891100  0.43940800  0.81092800  1
  Nd  Nd6  1  0.01392700  0.74630000  0.69087200  1
  Nd  Nd7  1  0.01891100  0.93940800  0.81025700  1
  Nd  Nd8  1  0.04231800  0.99998400  0.50300600  1
  Nd  Nd9  1  0.04231800  0.50001600  0.49699400  1
  Nd  Nd10  1  0.04231800  0.49998400  0.99702600  1
  Nd  Nd11  1  0.04231800  0.00001600  0.00297400  1
  Al  Al12  1  0.48469100  0.07240600  0.57346900  1
  Al  Al13  1  0.48469100  0.92759400  0.21828100  1
  Al  Al14  1  0.48469100  0.42759400  0.42653100  1
  Al  Al15  1  0.48469100  0.57240600  0.78171900  1
  Si  Si16  1  0.48014600  0.57205600  0.56745400  1
  Si  Si17  1  0.48042700  0.35763400  0.71327800  1
  Si  Si18  1  0.48042700  0.14236600  0.28672200  1
  Si  Si19  1  0.47855300  0.85585700  0.71706600  1
  Si  Si20  1  0.48014600  0.42794400  0.21156600  1
  Si  Si21  1  0.47855300  0.64414300  0.28293400  1
  Si  Si22  1  0.47855300  0.35585700  0.07121900  1
  Si  Si23  1  0.48042700  0.85763400  0.07145300  1
  Si  Si24  1  0.47855300  0.14414300  0.92878100  1
  Si  Si25  1  0.48014600  0.92794400  0.43254600  1
  Si  Si26  1  0.48042700  0.64236600  0.92854700  1
  Si  Si27  1  0.48014600  0.07205600  0.78843400  1
  Si  Si28  1  0.97105000  0.24941600  0.11716600  1
  Si  Si29  1  0.97554600  0.13355800  0.61902600  1
  Si  Si30  1  0.97554600  0.36644200  0.38097400  1
  Si  Si31  1  0.97554600  0.63355800  0.61385800  1
  Si  Si32  1  0.97105000  0.25058400  0.88283400  1
  Si  Si33  1  0.97105000  0.75058400  0.11599800  1
  Si  Si34  1  0.97554600  0.86644200  0.38614200  1
  Si  Si35  1  0.97105000  0.74941600  0.88400200  1
  N  N36  1  0.31844400  0.24856200  0.14214400  1
  N  N37  1  0.31826600  0.11009000  0.64915800  1
  N  N38  1  0.31844400  0.75143800  0.13926800  1
  N  N39  1  0.31826600  0.38991000  0.35084200  1
  N  N40  1  0.31844400  0.25143800  0.85785600  1
  N  N41  1  0.31826600  0.61009000  0.63066200  1
  N  N42  1  0.31844400  0.74856200  0.86073200  1
  N  N43  1  0.31826600  0.88991000  0.36933800  1
  N  N44  1  0.36325800  0.05091200  0.08374000  1
  N  N45  1  0.36895000  0.13475400  0.40667100  1
  N  N46  1  0.37070800  0.36788800  0.17427800  1
  N  N47  1  0.37109000  0.54431700  0.08607800  1
  N  N48  1  0.37070800  0.13211200  0.82572200  1
  N  N49  1  0.36895000  0.36524600  0.59332900  1
  N  N50  1  0.37109000  0.45568300  0.67471300  1
  N  N51  1  0.37070800  0.63211200  0.41005400  1
  N  N52  1  0.36325800  0.44908800  0.91626000  1
  N  N53  1  0.36895000  0.86524600  0.17618000  1
  N  N54  1  0.36895000  0.63475400  0.82382000  1
  N  N55  1  0.37070800  0.86788800  0.58994600  1
  N  N56  1  0.36325800  0.94908800  0.68556400  1
  N  N57  1  0.37109000  0.95568300  0.91392200  1
  N  N58  1  0.37109000  0.04431700  0.32528700  1
  N  N59  1  0.36325800  0.55091200  0.31443600  1
  N  N60  1  0.83403000  0.15093700  0.26414200  1
  N  N61  1  0.86193300  0.41528500  0.43259800  1
  N  N62  1  0.83220500  0.65341300  0.26321600  1
  N  N63  1  0.86193300  0.08471500  0.56740200  1
  N  N64  1  0.83220500  0.34658700  0.07004300  1
  N  N65  1  0.83249400  0.08379400  0.76630100  1
  N  N66  1  0.83249400  0.41620600  0.23369900  1
  N  N67  1  0.83403000  0.34906300  0.73585800  1
  N  N68  1  0.83249400  0.58379400  0.56611000  1
  N  N69  1  0.86193300  0.58471500  0.76316900  1
  N  N70  1  0.83249400  0.91620600  0.43389000  1
  N  N71  1  0.83220500  0.15341300  0.92995700  1
  N  N72  1  0.83403000  0.84906300  0.06601600  1
  N  N73  1  0.86193300  0.91528500  0.23683100  1
  N  N74  1  0.83403000  0.65093700  0.93398400  1
  N  N75  1  0.83220500  0.84658700  0.73678400  1
  O  O76  1  0.92263200  0.25000000  0.50000000  1
  O  O77  1  0.93029700  0.25000000  0.00000000  1
  O  O78  1  0.92263200  0.75000000  0.50000000  1
  O  O79  1  0.93029700  0.75000000  0.00000000  1
