# generated using pymatgen
data_Dy2GaCu3
_symmetry_space_group_name_H-M   'P 1'
_cell_length_a   5.40170299
_cell_length_b   5.40170299
_cell_length_c   6.90717667
_cell_angle_alpha   52.23346963
_cell_angle_beta   52.23346963
_cell_angle_gamma   47.09525324
_symmetry_Int_Tables_number   1
_chemical_formula_structural   Dy2GaCu3
_chemical_formula_sum   'Dy2 Ga1 Cu3'
_cell_volume   109.84698727
_cell_formula_units_Z   1
loop_
 _symmetry_equiv_pos_site_id
 _symmetry_equiv_pos_as_xyz
  1  'x, y, z'
loop_
 _atom_site_type_symbol
 _atom_site_label
 _atom_site_symmetry_multiplicity
 _atom_site_fract_x
 _atom_site_fract_y
 _atom_site_fract_z
 _atom_site_occupancy
  Dy  Dy0  1  0.45877800  0.45877800  0.79422100  1
  Dy  Dy1  1  0.54185300  0.54185300  0.20622000  1
  Ga  Ga2  1  0.83207900  0.83207900  0.61339800  1
  Cu  Cu3  1  0.16444600  0.16444600  0.38647800  1
  Cu  Cu4  1  0.16616000  0.16616000  0.78469600  1
  Cu  Cu5  1  0.83668600  0.83668600  0.21498600  1
