# generated using pymatgen
data_ErSiAg
_symmetry_space_group_name_H-M   'P 1'
_cell_length_a   3.57679700
_cell_length_b   4.41132305
_cell_length_c   4.41211491
_cell_angle_alpha   60.02385768
_cell_angle_beta   90.00000000
_cell_angle_gamma   90.00000000
_symmetry_Int_Tables_number   1
_chemical_formula_structural   ErSiAg
_chemical_formula_sum   'Er1 Si1 Ag1'
_cell_volume   60.30383888
_cell_formula_units_Z   1
loop_
 _symmetry_equiv_pos_site_id
 _symmetry_equiv_pos_as_xyz
  1  'x, y, z'
loop_
 _atom_site_type_symbol
 _atom_site_label
 _atom_site_symmetry_multiplicity
 _atom_site_fract_x
 _atom_site_fract_y
 _atom_site_fract_z
 _atom_site_occupancy
  Er  Er0  1  0.00000000  0.99993500  0.99990600  1
  Si  Si1  1  0.50000000  0.66667200  0.66690400  1
  Ag  Ag2  1  0.50000000  0.33329300  0.33329000  1
