# generated using pymatgen
data_DyCuTe2
_symmetry_space_group_name_H-M   'P 1'
_cell_length_a   4.35532323
_cell_length_b   4.35532300
_cell_length_c   6.93057400
_cell_angle_alpha   89.99675328
_cell_angle_beta   89.99675141
_cell_angle_gamma   60.00123518
_symmetry_Int_Tables_number   1
_chemical_formula_structural   DyCuTe2
_chemical_formula_sum   'Dy1 Cu1 Te2'
_cell_volume   113.85339921
_cell_formula_units_Z   1
loop_
 _symmetry_equiv_pos_site_id
 _symmetry_equiv_pos_as_xyz
  1  'x, y, z'
loop_
 _atom_site_type_symbol
 _atom_site_label
 _atom_site_symmetry_multiplicity
 _atom_site_fract_x
 _atom_site_fract_y
 _atom_site_fract_z
 _atom_site_occupancy
  Dy  Dy0  1  0.99999700  0.99999700  0.99220500  1
  Cu  Cu1  1  0.66668700  0.66668700  0.36839600  1
  Te  Te2  1  0.66669500  0.66669500  0.74555600  1
  Te  Te3  1  0.33332100  0.33332100  0.26384300  1
