# generated using pymatgen
data_Er2Fe3Cu
_symmetry_space_group_name_H-M   'P 1'
_cell_length_a   5.16736980
_cell_length_b   5.16736980
_cell_length_c   5.16736978
_cell_angle_alpha   58.51599571
_cell_angle_beta   58.51599571
_cell_angle_gamma   58.51599678
_symmetry_Int_Tables_number   1
_chemical_formula_structural   Er2Fe3Cu
_chemical_formula_sum   'Er2 Fe3 Cu1'
_cell_volume   94.25308273
_cell_formula_units_Z   1
loop_
 _symmetry_equiv_pos_site_id
 _symmetry_equiv_pos_as_xyz
  1  'x, y, z'
loop_
 _atom_site_type_symbol
 _atom_site_label
 _atom_site_symmetry_multiplicity
 _atom_site_fract_x
 _atom_site_fract_y
 _atom_site_fract_z
 _atom_site_occupancy
  Er  Er0  1  0.12267300  0.12267300  0.12267300  1
  Er  Er1  1  0.87732700  0.87732700  0.87732700  1
  Fe  Fe2  1  0.50000000  0.00000000  0.50000000  1
  Fe  Fe3  1  0.00000000  0.50000000  0.50000000  1
  Fe  Fe4  1  0.50000000  0.50000000  0.00000000  1
  Cu  Cu5  1  0.50000000  0.50000000  0.50000000  1
