# generated using pymatgen
data_LaPbNO5
_symmetry_space_group_name_H-M   'P 1'
_cell_length_a   7.64323086
_cell_length_b   7.64323086
_cell_length_c   3.88306564
_cell_angle_alpha   80.02165143
_cell_angle_beta   80.02165143
_cell_angle_gamma   35.82948570
_symmetry_Int_Tables_number   1
_chemical_formula_structural   LaPbNO5
_chemical_formula_sum   'La1 Pb1 N1 O5'
_cell_volume   130.56886393
_cell_formula_units_Z   1
loop_
 _symmetry_equiv_pos_site_id
 _symmetry_equiv_pos_as_xyz
  1  'x, y, z'
loop_
 _atom_site_type_symbol
 _atom_site_label
 _atom_site_symmetry_multiplicity
 _atom_site_fract_x
 _atom_site_fract_y
 _atom_site_fract_z
 _atom_site_occupancy
  La  La0  1  0.83014900  0.83014900  0.17532800  1
  Pb  Pb1  1  0.17768600  0.17768600  0.79252100  1
  N  N2  1  0.48355100  0.48355100  0.46567700  1
  O  O3  1  0.27310900  0.27310900  0.22193500  1
  O  O4  1  0.74556000  0.74556000  0.73509200  1
  O  O5  1  0.55349200  0.55349200  0.22497900  1
  O  O6  1  0.68085800  0.21359500  0.58823400  1
  O  O7  1  0.21359500  0.68085800  0.58823400  1
