# generated using pymatgen
data_Er4CdS7
_symmetry_space_group_name_H-M   'P 1'
_cell_length_a   6.59831647
_cell_length_b   6.59831647
_cell_length_c   11.53104998
_cell_angle_alpha   75.75340792
_cell_angle_beta   75.75340792
_cell_angle_gamma   33.50957278
_symmetry_Int_Tables_number   1
_chemical_formula_structural   Er4CdS7
_chemical_formula_sum   'Er4 Cd1 S7'
_cell_volume   267.85239812
_cell_formula_units_Z   1
loop_
 _symmetry_equiv_pos_site_id
 _symmetry_equiv_pos_as_xyz
  1  'x, y, z'
loop_
 _atom_site_type_symbol
 _atom_site_label
 _atom_site_symmetry_multiplicity
 _atom_site_fract_x
 _atom_site_fract_y
 _atom_site_fract_z
 _atom_site_occupancy
  Er  Er0  1  0.69318000  0.69318000  0.19858000  1
  Er  Er1  1  0.30703900  0.30703900  0.80435400  1
  Er  Er2  1  0.00002400  0.00002400  0.00197200  1
  Er  Er3  1  0.11500100  0.11500100  0.57199400  1
  Cd  Cd4  1  0.88497800  0.88497800  0.42132600  1
  S  S5  1  0.74126400  0.74126400  0.64765200  1
  S  S6  1  0.25662300  0.25662300  0.35228300  1
  S  S7  1  0.34061900  0.34061900  0.04990900  1
  S  S8  1  0.65996400  0.65996400  0.94815500  1
  S  S9  1  0.03893200  0.03893200  0.21614400  1
  S  S10  1  0.96112200  0.96112200  0.78527200  1
  S  S11  1  0.50125300  0.50125300  0.50235800  1
