# generated using pymatgen
data_DyTl2InS4
_symmetry_space_group_name_H-M   'P 1'
_cell_length_a   6.58259300
_cell_length_b   6.58259300
_cell_length_c   6.58259300
_cell_angle_alpha   105.82070469
_cell_angle_beta   105.82070469
_cell_angle_gamma   117.04847152
_symmetry_Int_Tables_number   1
_chemical_formula_structural   DyTl2InS4
_chemical_formula_sum   'Dy1 Tl2 In1 S4'
_cell_volume   216.65205006
_cell_formula_units_Z   1
loop_
 _symmetry_equiv_pos_site_id
 _symmetry_equiv_pos_as_xyz
  1  'x, y, z'
loop_
 _atom_site_type_symbol
 _atom_site_label
 _atom_site_symmetry_multiplicity
 _atom_site_fract_x
 _atom_site_fract_y
 _atom_site_fract_z
 _atom_site_occupancy
  Dy  Dy0  1  0.50000000  0.50000000  0.00000000  1
  Tl  Tl1  1  0.50000000  0.00000000  0.50000000  1
  Tl  Tl2  1  0.00000000  0.50000000  0.50000000  1
  In  In3  1  0.00000000  0.00000000  0.00000000  1
  S  S4  1  0.59254000  0.93568900  0.00000000  1
  S  S5  1  0.93568900  0.59254000  0.00000000  1
  S  S6  1  0.06431100  0.06431100  0.65685100  1
  S  S7  1  0.40746000  0.40746000  0.34314900  1
