# generated using pymatgen
data_NaMn2FeAg(PO4)3
_symmetry_space_group_name_H-M   'P 1'
_cell_length_a   8.86869965
_cell_length_b   8.86869965
_cell_length_c   6.59264439
_cell_angle_alpha   73.47438623
_cell_angle_beta   73.47438623
_cell_angle_gamma   92.93022488
_symmetry_Int_Tables_number   1
_chemical_formula_structural   NaMn2FeAg(PO4)3
_chemical_formula_sum   'Na2 Mn4 Fe2 Ag2 P6 O24'
_cell_volume   471.63989536
_cell_formula_units_Z   2
loop_
 _symmetry_equiv_pos_site_id
 _symmetry_equiv_pos_as_xyz
  1  'x, y, z'
loop_
 _atom_site_type_symbol
 _atom_site_label
 _atom_site_symmetry_multiplicity
 _atom_site_fract_x
 _atom_site_fract_y
 _atom_site_fract_z
 _atom_site_occupancy
  Na  Na0  1  0.50066800  0.49954800  0.25118800  1
  Na  Na1  1  0.50045200  0.49933200  0.74881200  1
  Mn  Mn2  1  0.26581500  0.73418500  0.50000000  1
  Mn  Mn3  1  0.73014400  0.26985600  0.00000000  1
  Mn  Mn4  1  0.37409800  0.06615400  0.61235600  1
  Mn  Mn5  1  0.93384600  0.62590200  0.38764400  1
  Fe  Fe6  1  0.61865600  0.93606300  0.88321400  1
  Fe  Fe7  1  0.06393700  0.38134400  0.11678600  1
  Ag  Ag8  1  0.98984400  0.01015600  0.50000000  1
  Ag  Ag9  1  0.01466500  0.98533500  0.00000000  1
  P  P10  1  0.71456800  0.28543200  0.50000000  1
  P  P11  1  0.28840800  0.71159200  0.00000000  1
  P  P12  1  0.65193300  0.87295800  0.37924500  1
  P  P13  1  0.12704200  0.34806700  0.62075500  1
  P  P14  1  0.34902700  0.13005500  0.11904900  1
  P  P15  1  0.86994500  0.65097300  0.88095100  1
  O  O16  1  0.60318400  0.94899600  0.57041200  1
  O  O17  1  0.05100400  0.39681600  0.42958800  1
  O  O18  1  0.40839300  0.04949600  0.93399900  1
  O  O19  1  0.95050400  0.59160700  0.06600100  1
  O  O20  1  0.54982900  0.26289200  0.47357800  1
  O  O21  1  0.73710800  0.45017100  0.52642200  1
  O  O22  1  0.46467500  0.73825300  0.99705500  1
  O  O23  1  0.26174700  0.53532500  0.00294500  1
  O  O24  1  0.25883600  0.81923200  0.78843000  1
  O  O25  1  0.18076800  0.74116400  0.21157000  1
  O  O26  1  0.73648600  0.16289500  0.71448800  1
  O  O27  1  0.83710500  0.26351400  0.28551200  1
  O  O28  1  0.31934600  0.00066400  0.34826300  1
  O  O29  1  0.99933600  0.68065400  0.65173700  1
  O  O30  1  0.65811600  0.99718200  0.14952700  1
  O  O31  1  0.00281800  0.34188400  0.85047300  1
  O  O32  1  0.27344300  0.46948100  0.56897400  1
  O  O33  1  0.53051900  0.72655700  0.43102600  1
  O  O34  1  0.72730800  0.52717200  0.92451200  1
  O  O35  1  0.47282800  0.27269200  0.07548800  1
  O  O36  1  0.16329000  0.17456200  0.64510700  1
  O  O37  1  0.82543800  0.83671000  0.35489300  1
  O  O38  1  0.81159100  0.81672100  0.88140700  1
  O  O39  1  0.18327900  0.18840900  0.11859300  1
