# generated using pymatgen
data_Eu2ScNbO7
_symmetry_space_group_name_H-M   'P 1'
_cell_length_a   7.50184545
_cell_length_b   7.50184545
_cell_length_c   7.50184545
_cell_angle_alpha   120.59116073
_cell_angle_beta   119.52904235
_cell_angle_gamma   89.89839814
_symmetry_Int_Tables_number   1
_chemical_formula_structural   Eu2ScNbO7
_chemical_formula_sum   'Eu4 Sc2 Nb2 O14'
_cell_volume   298.22713104
_cell_formula_units_Z   2
loop_
 _symmetry_equiv_pos_site_id
 _symmetry_equiv_pos_as_xyz
  1  'x, y, z'
loop_
 _atom_site_type_symbol
 _atom_site_label
 _atom_site_symmetry_multiplicity
 _atom_site_fract_x
 _atom_site_fract_y
 _atom_site_fract_z
 _atom_site_occupancy
  Eu  Eu0  1  0.50000000  0.50000000  0.50000000  1
  Eu  Eu1  1  0.50000000  0.00000000  0.00000000  1
  Eu  Eu2  1  0.50000000  0.50000000  0.00000000  1
  Eu  Eu3  1  0.00000000  0.50000000  0.50000000  1
  Sc  Sc4  1  0.00000000  0.00000000  0.50000000  1
  Sc  Sc5  1  0.00000000  0.50000000  0.00000000  1
  Nb  Nb6  1  0.00000000  0.00000000  0.00000000  1
  Nb  Nb7  1  0.50000000  0.00000000  0.50000000  1
  O  O8  1  0.37821000  0.62821000  0.75000000  1
  O  O9  1  0.62179000  0.37179000  0.25000000  1
  O  O10  1  0.31809000  0.06809000  0.25000000  1
  O  O11  1  0.90240600  0.65240600  0.25000000  1
  O  O12  1  0.33655400  0.67751600  0.26370800  1
  O  O13  1  0.91380800  0.07284600  0.23629200  1
  O  O14  1  0.33655400  0.07284600  0.65903900  1
  O  O15  1  0.91380800  0.67751600  0.84096100  1
  O  O16  1  0.68191000  0.93191000  0.75000000  1
  O  O17  1  0.09759400  0.34759400  0.75000000  1
  O  O18  1  0.66344600  0.32248400  0.73629200  1
  O  O19  1  0.08619200  0.92715400  0.76370800  1
  O  O20  1  0.66344600  0.92715400  0.34096100  1
  O  O21  1  0.08619200  0.32248400  0.15903900  1
