# generated using pymatgen
data_Dy5Si2BO13
_symmetry_space_group_name_H-M   'P 1'
_cell_length_a   6.77837500
_cell_length_b   9.26475200
_cell_length_c   9.28006307
_cell_angle_alpha   60.36921830
_cell_angle_beta   90.00000000
_cell_angle_gamma   90.00000000
_symmetry_Int_Tables_number   1
_chemical_formula_structural   Dy5Si2BO13
_chemical_formula_sum   'Dy10 Si4 B2 O26'
_cell_volume   506.57615547
_cell_formula_units_Z   2
loop_
 _symmetry_equiv_pos_site_id
 _symmetry_equiv_pos_as_xyz
  1  'x, y, z'
loop_
 _atom_site_type_symbol
 _atom_site_label
 _atom_site_symmetry_multiplicity
 _atom_site_fract_x
 _atom_site_fract_y
 _atom_site_fract_z
 _atom_site_occupancy
  Dy  Dy0  1  0.73987200  0.34468100  0.33250300  1
  Dy  Dy1  1  0.25970700  0.65380300  0.67748300  1
  Dy  Dy2  1  0.74029300  0.65380300  0.67748300  1
  Dy  Dy3  1  0.26012800  0.34468100  0.33250300  1
  Dy  Dy4  1  0.50000000  0.98922300  0.77459800  1
  Dy  Dy5  1  0.50000000  0.24793700  0.98169000  1
  Dy  Dy6  1  0.50000000  0.75415100  0.23382500  1
  Dy  Dy7  1  0.00000000  0.99535800  0.23571200  1
  Dy  Dy8  1  0.00000000  0.76425000  0.98920000  1
  Dy  Dy9  1  0.00000000  0.24231100  0.76334800  1
  Si  Si10  1  0.50000000  0.96985300  0.39938800  1
  Si  Si11  1  0.00000000  0.36765900  0.03302300  1
  Si  Si12  1  0.00000000  0.59882400  0.37394700  1
  Si  Si13  1  0.00000000  0.02935700  0.59801900  1
  B  B14  1  0.50000000  0.63015500  0.97067100  1
  B  B15  1  0.50000000  0.40874700  0.62381000  1
  O  O16  1  0.68064700  0.74056200  0.91321100  1
  O  O17  1  0.68113400  0.35465000  0.73663000  1
  O  O18  1  0.69285500  0.90563700  0.34094200  1
  O  O19  1  0.19256600  0.24572100  0.09203100  1
  O  O20  1  0.19024200  0.65478300  0.24952700  1
  O  O21  1  0.19263600  0.09211700  0.65976400  1
  O  O22  1  0.80743400  0.24572100  0.09203100  1
  O  O23  1  0.80975800  0.65478300  0.24952700  1
  O  O24  1  0.80736400  0.09211700  0.65976400  1
  O  O25  1  0.31935300  0.74056200  0.91321100  1
  O  O26  1  0.31886600  0.35465000  0.73663000  1
  O  O27  1  0.30714500  0.90563700  0.34094200  1
  O  O28  1  0.50000000  0.51915700  0.15459700  1
  O  O29  1  0.50000000  0.34428500  0.50665200  1
  O  O30  1  0.50000000  0.16996300  0.32858900  1
  O  O31  1  0.00000000  0.48629100  0.83263200  1
  O  O32  1  0.00000000  0.67734000  0.49508300  1
  O  O33  1  0.00000000  0.82773100  0.68133500  1
  O  O34  1  0.50000000  0.53359100  0.87987200  1
  O  O35  1  0.50000000  0.59564900  0.53428800  1
  O  O36  1  0.50000000  0.86655800  0.60276200  1
  O  O37  1  0.00000000  0.47164100  0.13283200  1
  O  O38  1  0.00000000  0.39521200  0.47304200  1
  O  O39  1  0.00000000  0.13358700  0.39472500  1
  O  O40  1  0.50000000  0.99784700  0.00531400  1
  O  O41  1  0.00000000  0.99941600  0.99686500  1
