# generated using pymatgen
data_LaCeAl2O6
_symmetry_space_group_name_H-M   'P 1'
_cell_length_a   5.38443252
_cell_length_b   5.38443252
_cell_length_c   5.38443281
_cell_angle_alpha   60.09763848
_cell_angle_beta   60.09763848
_cell_angle_gamma   60.09762702
_symmetry_Int_Tables_number   1
_chemical_formula_structural   LaCeAl2O6
_chemical_formula_sum   'La1 Ce1 Al2 O6'
_cell_volume   110.62786966
_cell_formula_units_Z   1
loop_
 _symmetry_equiv_pos_site_id
 _symmetry_equiv_pos_as_xyz
  1  'x, y, z'
loop_
 _atom_site_type_symbol
 _atom_site_label
 _atom_site_symmetry_multiplicity
 _atom_site_fract_x
 _atom_site_fract_y
 _atom_site_fract_z
 _atom_site_occupancy
  La  La0  1  0.00000000  0.00000000  0.00000000  1
  Ce  Ce1  1  0.50000000  0.50000000  0.50000000  1
  Al  Al2  1  0.74994200  0.74994200  0.74994200  1
  Al  Al3  1  0.25005800  0.25005800  0.25005800  1
  O  O4  1  0.97313800  0.02686200  0.50000000  1
  O  O5  1  0.50000000  0.97313800  0.02686200  1
  O  O6  1  0.02686200  0.50000000  0.97313800  1
  O  O7  1  0.00000000  0.52575300  0.47424700  1
  O  O8  1  0.47424700  0.00000000  0.52575300  1
  O  O9  1  0.52575300  0.47424700  0.00000000  1
