# generated using pymatgen
data_ErCdIn
_symmetry_space_group_name_H-M   'P 1'
_cell_length_a   4.87317941
_cell_length_b   4.87317941
_cell_length_c   7.32692300
_cell_angle_alpha   90.00000000
_cell_angle_beta   90.00000000
_cell_angle_gamma   119.99999204
_symmetry_Int_Tables_number   1
_chemical_formula_structural   ErCdIn
_chemical_formula_sum   'Er2 Cd2 In2'
_cell_volume   150.68745423
_cell_formula_units_Z   2
loop_
 _symmetry_equiv_pos_site_id
 _symmetry_equiv_pos_as_xyz
  1  'x, y, z'
loop_
 _atom_site_type_symbol
 _atom_site_label
 _atom_site_symmetry_multiplicity
 _atom_site_fract_x
 _atom_site_fract_y
 _atom_site_fract_z
 _atom_site_occupancy
  Er  Er0  1  0.00000000  0.00000000  0.26127100  1
  Er  Er1  1  0.00000000  0.00000000  0.73872900  1
  Cd  Cd2  1  0.33333300  0.66666700  0.46759100  1
  Cd  Cd3  1  0.66666700  0.33333300  0.53240900  1
  In  In4  1  0.66666700  0.33333300  0.95321400  1
  In  In5  1  0.33333300  0.66666700  0.04678600  1
