# generated using pymatgen
data_Er2PtAu
_symmetry_space_group_name_H-M   'P 1'
_cell_length_a   4.63395800
_cell_length_b   5.58135900
_cell_length_c   6.96224400
_cell_angle_alpha   90.00000000
_cell_angle_beta   90.00000000
_cell_angle_gamma   90.00000000
_symmetry_Int_Tables_number   1
_chemical_formula_structural   Er2PtAu
_chemical_formula_sum   'Er4 Pt2 Au2'
_cell_volume   180.06996932
_cell_formula_units_Z   2
loop_
 _symmetry_equiv_pos_site_id
 _symmetry_equiv_pos_as_xyz
  1  'x, y, z'
loop_
 _atom_site_type_symbol
 _atom_site_label
 _atom_site_symmetry_multiplicity
 _atom_site_fract_x
 _atom_site_fract_y
 _atom_site_fract_z
 _atom_site_occupancy
  Er  Er0  1  0.25000000  0.85340800  0.68161000  1
  Er  Er1  1  0.25000000  0.64659200  0.18161000  1
  Er  Er2  1  0.75000000  0.12926100  0.31941100  1
  Er  Er3  1  0.75000000  0.37073900  0.81941100  1
  Pt  Pt4  1  0.75000000  0.64988700  0.45686400  1
  Pt  Pt5  1  0.75000000  0.85011300  0.95686400  1
  Au  Au6  1  0.25000000  0.34650700  0.54211500  1
  Au  Au7  1  0.25000000  0.15349300  0.04211500  1
