# generated using pymatgen
data_Er2ThOF10
_symmetry_space_group_name_H-M   'P 1'
_cell_length_a   8.43437041
_cell_length_b   8.43437041
_cell_length_c   8.43437041
_cell_angle_alpha   121.97073075
_cell_angle_beta   121.97073075
_cell_angle_gamma   86.61919475
_symmetry_Int_Tables_number   1
_chemical_formula_structural   Er2ThOF10
_chemical_formula_sum   'Er4 Th2 O2 F20'
_cell_volume   410.85427475
_cell_formula_units_Z   2
loop_
 _symmetry_equiv_pos_site_id
 _symmetry_equiv_pos_as_xyz
  1  'x, y, z'
loop_
 _atom_site_type_symbol
 _atom_site_label
 _atom_site_symmetry_multiplicity
 _atom_site_fract_x
 _atom_site_fract_y
 _atom_site_fract_z
 _atom_site_occupancy
  Er  Er0  1  0.24094200  0.75905800  0.00000000  1
  Er  Er1  1  0.24094200  0.24094200  0.48188400  1
  Er  Er2  1  0.75905800  0.24094200  0.00000000  1
  Er  Er3  1  0.75905800  0.75905800  0.51811600  1
  Th  Th4  1  0.75911700  0.75911700  0.00000000  1
  Th  Th5  1  0.24088300  0.24088300  0.00000000  1
  O  O6  1  0.25000000  0.75000000  0.50000000  1
  O  O7  1  0.75000000  0.25000000  0.50000000  1
  F  F8  1  0.11690900  0.89522000  0.22168900  1
  F  F9  1  0.10478000  0.32647000  0.22168900  1
  F  F10  1  0.10478000  0.88309100  0.77831100  1
  F  F11  1  0.67353000  0.89522000  0.77831100  1
  F  F12  1  0.88309100  0.10478000  0.77831100  1
  F  F13  1  0.89522000  0.67353000  0.77831100  1
  F  F14  1  0.89522000  0.11690900  0.22168900  1
  F  F15  1  0.32647000  0.10478000  0.22168900  1
  F  F16  1  0.18420100  0.50000000  0.68420100  1
  F  F17  1  0.49375700  0.49375700  0.66490500  1
  F  F18  1  0.49375700  0.82885200  0.00000000  1
  F  F19  1  0.50000000  0.18420100  0.68420100  1
  F  F20  1  0.17114800  0.17114800  0.66490500  1
  F  F21  1  0.50624300  0.17114800  0.00000000  1
  F  F22  1  0.50000000  0.81579900  0.31579900  1
  F  F23  1  0.50624300  0.50624300  0.33509500  1
  F  F24  1  0.17114800  0.50624300  0.00000000  1
  F  F25  1  0.81579900  0.50000000  0.31579900  1
  F  F26  1  0.82885200  0.82885200  0.33509500  1
  F  F27  1  0.82885200  0.49375700  0.00000000  1
