# generated using pymatgen
data_DyCu7
_symmetry_space_group_name_H-M   'P 1'
_cell_length_a   4.11155400
_cell_length_b   4.94141668
_cell_length_c   17.06211522
_cell_angle_alpha   89.99999270
_cell_angle_beta   90.00000000
_cell_angle_gamma   90.00000000
_symmetry_Int_Tables_number   1
_chemical_formula_structural   DyCu7
_chemical_formula_sum   'Dy3 Cu21'
_cell_volume   346.64931496
_cell_formula_units_Z   3
loop_
 _symmetry_equiv_pos_site_id
 _symmetry_equiv_pos_as_xyz
  1  'x, y, z'
loop_
 _atom_site_type_symbol
 _atom_site_label
 _atom_site_symmetry_multiplicity
 _atom_site_fract_x
 _atom_site_fract_y
 _atom_site_fract_z
 _atom_site_occupancy
  Dy  Dy0  1  0.00000000  0.49998400  0.24283900  1
  Dy  Dy1  1  0.00000000  0.99999200  0.50000000  1
  Dy  Dy2  1  0.00000000  0.49998400  0.75716100  1
  Cu  Cu3  1  0.00000000  0.99998200  0.15227100  1
  Cu  Cu4  1  0.00000000  0.49998900  0.41548500  1
  Cu  Cu5  1  0.00000000  0.99998800  0.66917100  1
  Cu  Cu6  1  0.00000000  0.49998400  0.92566600  1
  Cu  Cu7  1  0.00000000  0.49998400  0.07433400  1
  Cu  Cu8  1  0.00000000  0.99998800  0.33082900  1
  Cu  Cu9  1  0.00000000  0.49998900  0.58451500  1
  Cu  Cu10  1  0.00000000  0.99998200  0.84772900  1
  Cu  Cu11  1  0.50000000  0.99997800  0.24612700  1
  Cu  Cu12  1  0.50000000  0.49998000  0.50000000  1
  Cu  Cu13  1  0.50000000  0.99997800  0.75387300  1
  Cu  Cu14  1  0.50000000  0.49997500  0.00000000  1
  Cu  Cu15  1  0.50000000  0.25045200  0.12142700  1
  Cu  Cu16  1  0.50000000  0.74988300  0.37289600  1
  Cu  Cu17  1  0.50000000  0.25008900  0.62710300  1
  Cu  Cu18  1  0.50000000  0.74950500  0.87857300  1
  Cu  Cu19  1  0.50000000  0.74950500  0.12142700  1
  Cu  Cu20  1  0.50000000  0.25008900  0.37289700  1
  Cu  Cu21  1  0.50000000  0.74988300  0.62710400  1
  Cu  Cu22  1  0.50000000  0.25045200  0.87857300  1
  Cu  Cu23  1  0.00000000  0.99998300  0.00000000  1
