# generated using pymatgen
data_NdNb3O9
_symmetry_space_group_name_H-M   'P 1'
_cell_length_a   11.80873161
_cell_length_b   5.66509002
_cell_length_c   8.90539385
_cell_angle_alpha   72.01424720
_cell_angle_beta   63.95603120
_cell_angle_gamma   45.64086641
_symmetry_Int_Tables_number   1
_chemical_formula_structural   NdNb3O9
_chemical_formula_sum   'Nd2 Nb6 O18'
_cell_volume   382.69052111
_cell_formula_units_Z   2
loop_
 _symmetry_equiv_pos_site_id
 _symmetry_equiv_pos_as_xyz
  1  'x, y, z'
loop_
 _atom_site_type_symbol
 _atom_site_label
 _atom_site_symmetry_multiplicity
 _atom_site_fract_x
 _atom_site_fract_y
 _atom_site_fract_z
 _atom_site_occupancy
  Nd  Nd0  1  0.34484200  0.95731300  0.00186700  1
  Nd  Nd1  1  0.65515800  0.04268700  0.99813300  1
  Nb  Nb2  1  0.24599400  0.47666700  0.26699000  1
  Nb  Nb3  1  0.07536600  0.53914000  0.75180600  1
  Nb  Nb4  1  0.59714600  0.45363900  0.25987500  1
  Nb  Nb5  1  0.40285400  0.54636100  0.74012500  1
  Nb  Nb6  1  0.92463400  0.46086000  0.24819400  1
  Nb  Nb7  1  0.75400600  0.52333300  0.73301000  1
  O  O8  1  0.09920700  0.99767900  0.23342000  1
  O  O9  1  0.09236700  0.49748700  0.22933800  1
  O  O10  1  0.42945900  0.01356500  0.21091300  1
  O  O11  1  0.35918300  0.50298500  0.00060000  1
  O  O12  1  0.17044000  0.48753300  0.50472900  1
  O  O13  1  0.24684500  0.99869000  0.76987100  1
  O  O14  1  0.41203900  0.53021600  0.24218500  1
  O  O15  1  0.25895000  0.45086100  0.77789300  1
  O  O16  1  0.50000000  0.50000000  0.50000000  1
  O  O17  1  0.75315500  0.00131000  0.23012900  1
  O  O18  1  0.64081700  0.49701500  0.99940000  1
  O  O19  1  0.57054100  0.98643500  0.78908700  1
  O  O20  1  0.74105000  0.54913900  0.22210700  1
  O  O21  1  0.58796100  0.46978400  0.75781500  1
  O  O22  1  0.00000000  0.50000000  0.00000000  1
  O  O23  1  0.82956000  0.51246700  0.49527100  1
  O  O24  1  0.90079300  0.00232100  0.76658000  1
  O  O25  1  0.90763300  0.50251300  0.77066200  1
