# generated using pymatgen
data_CsVWO6
_symmetry_space_group_name_H-M   'P 1'
_cell_length_a   7.24815165
_cell_length_b   7.24815165
_cell_length_c   7.24815165
_cell_angle_alpha   121.13420441
_cell_angle_beta   118.93619155
_cell_angle_gamma   89.94959718
_symmetry_Int_Tables_number   1
_chemical_formula_structural   CsVWO6
_chemical_formula_sum   'Cs2 V2 W2 O12'
_cell_volume   268.98961035
_cell_formula_units_Z   2
loop_
 _symmetry_equiv_pos_site_id
 _symmetry_equiv_pos_as_xyz
  1  'x, y, z'
loop_
 _atom_site_type_symbol
 _atom_site_label
 _atom_site_symmetry_multiplicity
 _atom_site_fract_x
 _atom_site_fract_y
 _atom_site_fract_z
 _atom_site_occupancy
  Cs  Cs0  1  0.37327700  0.62327700  0.75000000  1
  Cs  Cs1  1  0.62672300  0.37672300  0.25000000  1
  V  V2  1  0.00000000  0.00000000  0.50000000  1
  V  V3  1  0.00000000  0.50000000  0.00000000  1
  W  W4  1  0.00000000  0.00000000  0.00000000  1
  W  W5  1  0.50000000  0.00000000  0.50000000  1
  O  O6  1  0.31570500  0.06570500  0.25000000  1
  O  O7  1  0.94600200  0.69600200  0.25000000  1
  O  O8  1  0.30696900  0.68606600  0.24314000  1
  O  O9  1  0.94292600  0.06382800  0.25686000  1
  O  O10  1  0.30696900  0.06382800  0.62090300  1
  O  O11  1  0.94292600  0.68606600  0.87909700  1
  O  O12  1  0.68429500  0.93429500  0.75000000  1
  O  O13  1  0.05399800  0.30399800  0.75000000  1
  O  O14  1  0.69303100  0.31393400  0.75686000  1
  O  O15  1  0.05707400  0.93617200  0.74314000  1
  O  O16  1  0.69303100  0.93617200  0.37909700  1
  O  O17  1  0.05707400  0.31393400  0.12090300  1
