# generated using pymatgen
data_Cu2S
_symmetry_space_group_name_H-M   'P 1'
_cell_length_a   3.96226849
_cell_length_b   3.96226849
_cell_length_c   7.29713560
_cell_angle_alpha   88.50600315
_cell_angle_beta   88.50600315
_cell_angle_gamma   118.65448417
_symmetry_Int_Tables_number   1
_chemical_formula_structural   Cu2S
_chemical_formula_sum   'Cu4 S2'
_cell_volume   100.39982232
_cell_formula_units_Z   2
loop_
 _symmetry_equiv_pos_site_id
 _symmetry_equiv_pos_as_xyz
  1  'x, y, z'
loop_
 _atom_site_type_symbol
 _atom_site_label
 _atom_site_symmetry_multiplicity
 _atom_site_fract_x
 _atom_site_fract_y
 _atom_site_fract_z
 _atom_site_occupancy
  Cu  Cu0  1  0.00000000  0.50000000  0.50000000  1
  Cu  Cu1  1  0.50000000  0.00000000  0.00000000  1
  Cu  Cu2  1  0.01430200  0.98569800  0.25000000  1
  Cu  Cu3  1  0.98569800  0.01430200  0.75000000  1
  S  S4  1  0.36637200  0.63362800  0.25000000  1
  S  S5  1  0.63362800  0.36637200  0.75000000  1
