# generated using pymatgen
data_NdTa3O9
_symmetry_space_group_name_H-M   'P 1'
_cell_length_a   11.99362059
_cell_length_b   8.87228010
_cell_length_c   7.89980623
_cell_angle_alpha   90.00392234
_cell_angle_beta   90.00856153
_cell_angle_gamma   63.23651540
_symmetry_Int_Tables_number   1
_chemical_formula_structural   NdTa3O9
_chemical_formula_sum   'Nd4 Ta12 O36'
_cell_volume   750.57080655
_cell_formula_units_Z   4
loop_
 _symmetry_equiv_pos_site_id
 _symmetry_equiv_pos_as_xyz
  1  'x, y, z'
loop_
 _atom_site_type_symbol
 _atom_site_label
 _atom_site_symmetry_multiplicity
 _atom_site_fract_x
 _atom_site_fract_y
 _atom_site_fract_z
 _atom_site_occupancy
  Nd  Nd0  1  0.02927100  0.50508500  0.99967600  1
  Nd  Nd1  1  0.36146500  0.49730400  0.50001100  1
  Nd  Nd2  1  0.68394400  0.50090300  0.50003200  1
  Nd  Nd3  1  0.85636900  0.00106500  0.49972100  1
  Ta  Ta4  1  0.26224100  0.24299200  0.25202400  1
  Ta  Ta5  1  0.26231700  0.24293900  0.74780600  1
  Ta  Ta6  1  0.09738800  0.75224500  0.24905500  1
  Ta  Ta7  1  0.09743600  0.75216700  0.75084900  1
  Ta  Ta8  1  0.58862900  0.24630700  0.24285300  1
  Ta  Ta9  1  0.58876700  0.24619600  0.75690800  1
  Ta  Ta10  1  0.42568200  0.75785000  0.24366100  1
  Ta  Ta11  1  0.42574000  0.75781900  0.75630100  1
  Ta  Ta12  1  0.92904400  0.25058600  0.24340300  1
  Ta  Ta13  1  0.92899900  0.25042500  0.75661200  1
  Ta  Ta14  1  0.75397100  0.75469300  0.24675700  1
  Ta  Ta15  1  0.75405900  0.75453800  0.75353700  1
  O  O16  1  0.07787900  0.27125900  0.22273500  1
  O  O17  1  0.07785300  0.27117500  0.77712100  1
  O  O18  1  0.33628300  0.00205300  0.25020500  1
  O  O19  1  0.24289600  0.27020000  0.99991500  1
  O  O20  1  0.07756500  0.75012900  0.00000100  1
  O  O21  1  0.15598500  0.50741700  0.75967500  1
  O  O22  1  0.24278500  0.27171100  0.49992700  1
  O  O23  1  0.15575700  0.50758800  0.24015600  1
  O  O24  1  0.07350100  0.75555300  0.50003400  1
  O  O25  1  0.40874200  0.27580900  0.26044100  1
  O  O26  1  0.40885100  0.27568800  0.73947400  1
  O  O27  1  0.26107300  0.72880500  0.72984500  1
  O  O28  1  0.26098900  0.72898400  0.27025400  1
  O  O29  1  0.66643500  0.99825600  0.26133700  1
  O  O30  1  0.59159100  0.25025200  0.99992300  1
  O  O31  1  0.42140400  0.74222400  0.00000000  1
  O  O32  1  0.33632400  0.00200600  0.74967500  1
  O  O33  1  0.50484900  0.49674900  0.72724600  1
  O  O34  1  0.56605500  0.25735200  0.49997000  1
  O  O35  1  0.50464300  0.49681000  0.27265200  1
  O  O36  1  0.42082200  0.73164200  0.50002200  1
  O  O37  1  0.74918000  0.24287800  0.70187500  1
  O  O38  1  0.74907900  0.24296000  0.29803100  1
  O  O39  1  0.59070600  0.73242400  0.26999400  1
  O  O40  1  0.59072500  0.73252300  0.73025800  1
  O  O41  1  0.99294500  0.00084700  0.26518900  1
  O  O42  1  0.76334100  0.72453400  0.00018200  1
  O  O43  1  0.66686600  0.99808500  0.73875800  1
  O  O44  1  0.90333900  0.25325000  0.00001000  1
  O  O45  1  0.75347500  0.73632000  0.50015900  1
  O  O46  1  0.82472200  0.49381000  0.26262300  1
  O  O47  1  0.91623500  0.24410300  0.49997300  1
  O  O48  1  0.82459900  0.49365100  0.73756500  1
  O  O49  1  0.91607100  0.74899800  0.74855300  1
  O  O50  1  0.91566300  0.75015800  0.25225100  1
  O  O51  1  0.99278500  0.00068400  0.73476700  1
