# generated using pymatgen
data_Nb8Pb6O25
_symmetry_space_group_name_H-M   'P 1'
_cell_length_a   7.58789678
_cell_length_b   7.58789678
_cell_length_c   10.67161573
_cell_angle_alpha   89.93756886
_cell_angle_beta   89.93756886
_cell_angle_gamma   90.25963016
_symmetry_Int_Tables_number   1
_chemical_formula_structural   Nb8Pb6O25
_chemical_formula_sum   'Nb8 Pb6 O25'
_cell_volume   614.42380157
_cell_formula_units_Z   1
loop_
 _symmetry_equiv_pos_site_id
 _symmetry_equiv_pos_as_xyz
  1  'x, y, z'
loop_
 _atom_site_type_symbol
 _atom_site_label
 _atom_site_symmetry_multiplicity
 _atom_site_fract_x
 _atom_site_fract_y
 _atom_site_fract_z
 _atom_site_occupancy
  Nb  Nb0  1  0.99893200  0.74787300  0.62742100  1
  Nb  Nb1  1  0.99792300  0.24670500  0.62624500  1
  Nb  Nb2  1  0.50439600  0.24614300  0.12363700  1
  Nb  Nb3  1  0.50840400  0.74984800  0.12175200  1
  Nb  Nb4  1  0.75385700  0.49560400  0.87636300  1
  Nb  Nb5  1  0.25212700  0.00106800  0.37257900  1
  Nb  Nb6  1  0.75329500  0.00207700  0.37375500  1
  Nb  Nb7  1  0.25015200  0.49159600  0.87824800  1
  Pb  Pb8  1  0.24824100  0.50040900  0.36906000  1
  Pb  Pb9  1  0.75088900  0.50148900  0.36894100  1
  Pb  Pb10  1  0.49851100  0.24911100  0.63105900  1
  Pb  Pb11  1  0.22890000  0.98703200  0.88956300  1
  Pb  Pb12  1  0.49959100  0.75175900  0.63094000  1
  Pb  Pb13  1  0.01296800  0.77110000  0.11043700  1
  O  O14  1  0.67979500  0.32020500  0.00000000  1
  O  O15  1  0.99912600  0.99123000  0.31552700  1
  O  O16  1  0.19485200  0.80514800  0.50000000  1
  O  O17  1  0.68699600  0.81186200  0.25109500  1
  O  O18  1  0.80641400  0.80777000  0.50014100  1
  O  O19  1  0.69093200  0.68530900  0.00356900  1
  O  O20  1  0.49821500  0.50109100  0.19609900  1
  O  O21  1  0.00238500  0.49941800  0.55634500  1
  O  O22  1  0.50044400  0.49955600  0.50000000  1
  O  O23  1  0.49890900  0.50178500  0.80390100  1
  O  O24  1  0.80963300  0.31510600  0.74649500  1
  O  O25  1  0.18813800  0.31300400  0.74890500  1
  O  O26  1  0.31469100  0.30906800  0.99643100  1
  O  O27  1  0.80749700  0.19250300  0.50000000  1
  O  O28  1  0.68489400  0.19036700  0.25350500  1
  O  O29  1  0.19223000  0.19358600  0.49985900  1
  O  O30  1  0.00877000  0.00087400  0.68447300  1
  O  O31  1  0.50058200  0.99761500  0.44365500  1
  O  O32  1  0.48917600  0.99973000  0.06591800  1
  O  O33  1  0.30861500  0.81010700  0.24947600  1
  O  O34  1  0.31412200  0.68587800  0.00000000  1
  O  O35  1  0.80887400  0.68363700  0.74445100  1
  O  O36  1  0.18989300  0.69138500  0.75052400  1
  O  O37  1  0.00027000  0.51082400  0.93408200  1
  O  O38  1  0.31636300  0.19112600  0.25554900  1
