# generated using pymatgen
data_Re3Se2Br5
_symmetry_space_group_name_H-M   'P 1'
_cell_length_a   10.74526400
_cell_length_b   10.79521928
_cell_length_c   15.36893107
_cell_angle_alpha   86.07391030
_cell_angle_beta   86.49458348
_cell_angle_gamma   78.47949101
_symmetry_Int_Tables_number   1
_chemical_formula_structural   Re3Se2Br5
_chemical_formula_sum   'Re12 Se8 Br20'
_cell_volume   1740.68528310
_cell_formula_units_Z   4
loop_
 _symmetry_equiv_pos_site_id
 _symmetry_equiv_pos_as_xyz
  1  'x, y, z'
loop_
 _atom_site_type_symbol
 _atom_site_label
 _atom_site_symmetry_multiplicity
 _atom_site_fract_x
 _atom_site_fract_y
 _atom_site_fract_z
 _atom_site_occupancy
  Re  Re0  1  0.97806700  0.98519200  0.75003800  1
  Re  Re1  1  0.83421500  0.02092300  0.88051600  1
  Re  Re2  1  0.01615100  0.18208000  0.15052100  1
  Re  Re3  1  0.58170900  0.32578400  0.49738400  1
  Re  Re4  1  0.33775400  0.42693100  0.50226900  1
  Re  Re5  1  0.50115400  0.52816100  0.38990300  1
  Re  Re6  1  0.47547400  0.45954800  0.63089400  1
  Re  Re7  1  0.63330800  0.55106500  0.51326700  1
  Re  Re8  1  0.39789000  0.65239400  0.51798300  1
  Re  Re9  1  0.03019100  0.84648300  0.86491200  1
  Re  Re10  1  0.20719600  0.00881800  0.14107700  1
  Re  Re11  1  0.99181900  0.97394100  0.22377600  1
  Se  Se12  1  0.13156900  0.09935700  0.28157500  1
  Se  Se13  1  0.81700900  0.15642500  0.22634400  1
  Se  Se14  1  0.42371800  0.24930600  0.60874000  1
  Se  Se15  1  0.84346200  0.21696000  0.91749700  1
  Se  Se16  1  0.72926400  0.42118700  0.38826100  1
  Se  Se17  1  0.24356900  0.56179900  0.62616000  1
  Se  Se18  1  0.16573500  0.80290500  0.16602000  1
  Se  Se19  1  0.51324400  0.68233700  0.26574400  1
  Br  Br20  1  0.62774600  0.00095800  0.83644800  1
  Br  Br21  1  0.10454500  0.14315000  0.73596200  1
  Br  Br22  1  0.70642400  0.10472000  0.47841900  1
  Br  Br23  1  0.45241400  0.29890000  0.36359000  1
  Br  Br24  1  0.18762900  0.19470200  0.02388800  1
  Br  Br25  1  0.14298200  0.33735700  0.48155500  1
  Br  Br26  1  0.72013100  0.34728300  0.62801900  1
  Br  Br27  1  0.99805400  0.64371000  0.82552600  1
  Br  Br28  1  0.46154800  0.43368600  0.79501900  1
  Br  Br29  1  0.62984200  0.60757300  0.13833500  1
  Br  Br30  1  0.96196900  0.41679600  0.14083300  1
  Br  Br31  1  0.25185500  0.62278300  0.39572100  1
  Br  Br32  1  0.81644100  0.65710000  0.50424400  1
  Br  Br33  1  0.85088300  0.84908600  0.00137200  1
  Br  Br34  1  0.52964100  0.68836000  0.64447700  1
  Br  Br35  1  0.22722800  0.88154600  0.91401800  1
  Br  Br36  1  0.31788100  0.88384200  0.50134900  1
  Br  Br37  1  0.84365600  0.82815100  0.25489200  1
  Br  Br38  1  0.88548700  0.88395900  0.64575000  1
  Br  Br39  1  0.43114800  0.02473800  0.14770400  1
