# generated using pymatgen
data_Cu6PdN2
_symmetry_space_group_name_H-M   'P 1'
_cell_length_a   3.83542900
_cell_length_b   3.83542900
_cell_length_c   7.70871700
_cell_angle_alpha   90.00000000
_cell_angle_beta   90.00000000
_cell_angle_gamma   90.00000000
_symmetry_Int_Tables_number   1
_chemical_formula_structural   Cu6PdN2
_chemical_formula_sum   'Cu6 Pd1 N2'
_cell_volume   113.39920179
_cell_formula_units_Z   1
loop_
 _symmetry_equiv_pos_site_id
 _symmetry_equiv_pos_as_xyz
  1  'x, y, z'
loop_
 _atom_site_type_symbol
 _atom_site_label
 _atom_site_symmetry_multiplicity
 _atom_site_fract_x
 _atom_site_fract_y
 _atom_site_fract_z
 _atom_site_occupancy
  Cu  Cu0  1  0.00000000  0.50000000  0.74992000  1
  Cu  Cu1  1  0.00000000  0.50000000  0.25008000  1
  Cu  Cu2  1  0.50000000  0.00000000  0.74992000  1
  Cu  Cu3  1  0.50000000  0.00000000  0.25008000  1
  Cu  Cu4  1  0.00000000  0.00000000  0.00000000  1
  Cu  Cu5  1  0.00000000  0.00000000  0.50000000  1
  Pd  Pd6  1  0.50000000  0.50000000  0.00000000  1
  N  N7  1  0.00000000  0.00000000  0.74355200  1
  N  N8  1  0.00000000  0.00000000  0.25644800  1
