# generated using pymatgen
data_Dy(InCu)6
_symmetry_space_group_name_H-M   'P 1'
_cell_length_a   7.05438452
_cell_length_b   7.05438452
_cell_length_c   7.05438452
_cell_angle_alpha   133.49370507
_cell_angle_beta   99.18163315
_cell_angle_gamma   98.75214469
_symmetry_Int_Tables_number   1
_chemical_formula_structural   Dy(InCu)6
_chemical_formula_sum   'Dy1 In6 Cu6'
_cell_volume   233.98459854
_cell_formula_units_Z   1
loop_
 _symmetry_equiv_pos_site_id
 _symmetry_equiv_pos_as_xyz
  1  'x, y, z'
loop_
 _atom_site_type_symbol
 _atom_site_label
 _atom_site_symmetry_multiplicity
 _atom_site_fract_x
 _atom_site_fract_y
 _atom_site_fract_z
 _atom_site_occupancy
  Dy  Dy0  1  0.00000000  0.00000000  0.00000000  1
  In  In1  1  0.33564700  0.00000000  0.33564700  1
  In  In2  1  0.66435300  0.00000000  0.66435300  1
  In  In3  1  0.34181400  0.34181400  0.00000000  1
  In  In4  1  0.65818600  0.65818600  0.00000000  1
  In  In5  1  0.81421400  0.31421400  0.50000000  1
  In  In6  1  0.18578600  0.68578600  0.50000000  1
  Cu  Cu7  1  0.00000000  0.50000000  0.00000000  1
  Cu  Cu8  1  0.00000000  0.00000000  0.50000000  1
  Cu  Cu9  1  0.50000000  0.00000000  0.00000000  1
  Cu  Cu10  1  0.50000000  0.50000000  0.50000000  1
  Cu  Cu11  1  0.76518300  0.50000000  0.26518300  1
  Cu  Cu12  1  0.23481700  0.50000000  0.73481700  1
