# generated using pymatgen
data_Sm6MnS10
_symmetry_space_group_name_H-M   'P 1'
_cell_length_a   7.30997500
_cell_length_b   7.32106173
_cell_length_c   30.16611145
_cell_angle_alpha   94.21580766
_cell_angle_beta   95.07400908
_cell_angle_gamma   108.87375112
_symmetry_Int_Tables_number   1
_chemical_formula_structural   Sm6MnS10
_chemical_formula_sum   'Sm24 Mn4 S40'
_cell_volume   1512.64882033
_cell_formula_units_Z   4
loop_
 _symmetry_equiv_pos_site_id
 _symmetry_equiv_pos_as_xyz
  1  'x, y, z'
loop_
 _atom_site_type_symbol
 _atom_site_label
 _atom_site_symmetry_multiplicity
 _atom_site_fract_x
 _atom_site_fract_y
 _atom_site_fract_z
 _atom_site_occupancy
  Sm  Sm0  1  0.82219700  0.19642100  0.02507600  1
  Sm  Sm1  1  0.42346100  0.79288700  0.22439300  1
  Sm  Sm2  1  0.00318100  0.63235000  0.12554600  1
  Sm  Sm3  1  0.46727600  0.59026100  0.07581500  1
  Sm  Sm4  1  0.60258400  0.23550200  0.32590900  1
  Sm  Sm5  1  0.02421800  0.38504800  0.43116700  1
  Sm  Sm6  1  0.07363600  0.20065800  0.27271500  1
  Sm  Sm7  1  0.82288900  0.07881200  0.15048400  1
  Sm  Sm8  1  0.18813200  0.82801300  0.52481700  1
  Sm  Sm9  1  0.63252500  0.00697000  0.62378000  1
  Sm  Sm10  1  0.00961100  0.87905500  0.37453800  1
  Sm  Sm11  1  0.67779700  0.80830400  0.47390100  1
  Sm  Sm12  1  0.42365700  0.67401400  0.34992100  1
  Sm  Sm13  1  0.80305700  0.42926600  0.72433700  1
  Sm  Sm14  1  0.22493900  0.59848900  0.82630800  1
  Sm  Sm15  1  0.26877600  0.39712300  0.67001400  1
  Sm  Sm16  1  0.59817200  0.45836100  0.57022700  1
  Sm  Sm17  1  0.40069800  0.02049200  0.92400900  1
  Sm  Sm18  1  0.18957400  0.07604300  0.77909400  1
  Sm  Sm19  1  0.62891000  0.87566400  0.75349500  1
  Sm  Sm20  1  0.07899500  0.82306900  0.64839600  1
  Sm  Sm21  1  0.80451600  0.68340200  0.97311600  1
  Sm  Sm22  1  0.21561200  0.45794300  0.94880100  1
  Sm  Sm23  1  0.68173000  0.42851200  0.85240100  1
  Mn  Mn24  1  0.40342500  0.26527800  0.17345300  1
  Mn  Mn25  1  0.28360100  0.03249000  0.05036500  1
  Mn  Mn26  1  0.86583900  0.61395600  0.24900800  1
  Mn  Mn27  1  0.47309400  0.23761300  0.45673900  1
  S  S28  1  0.17518000  0.29042700  0.10576300  1
  S  S29  1  0.66914900  0.30858400  0.10002800  1
  S  S30  1  0.08138300  0.57396200  0.02970200  1
  S  S31  1  0.76281500  0.89156200  0.29777400  1
  S  S32  1  0.66360900  0.64780500  0.17602900  1
  S  S33  1  0.26714600  0.91147300  0.30003100  1
  S  S34  1  0.12128500  0.98253700  0.19608600  1
  S  S35  1  0.66118100  0.17822000  0.22601300  1
  S  S36  1  0.36929700  0.49389900  0.49599700  1
  S  S37  1  0.84396900  0.85408900  0.07258100  1
  S  S38  1  0.84906800  0.50819200  0.49881000  1
  S  S39  1  0.26437500  0.26461200  0.37244500  1
  S  S40  1  0.98343800  0.49266000  0.32208600  1
  S  S41  1  0.38721500  0.88691400  0.12375400  1
  S  S42  1  0.70890100  0.56632400  0.39689500  1
  S  S43  1  0.44833200  0.45896400  0.27180800  1
  S  S44  1  0.27803500  0.76311900  0.42699900  1
  S  S45  1  0.07248900  0.47160600  0.20310300  1
  S  S46  1  0.56759700  0.08391000  0.52360400  1
  S  S47  1  0.84809300  0.84245300  0.57172100  1
  S  S48  1  0.30337300  0.14466700  0.60041000  1
  S  S49  1  0.05982400  0.05068900  0.46715500  1
  S  S50  1  0.54368300  0.69793500  0.90115100  1
  S  S51  1  0.89044100  0.39753900  0.63167400  1
  S  S52  1  0.68497700  0.05987700  0.40043800  1
  S  S53  1  0.19312900  0.68684100  0.72837100  1
  S  S54  1  0.45759100  0.45677700  0.77106400  1
  S  S55  1  0.90152700  0.74150400  0.79883500  1
  S  S56  1  0.65458000  0.66565500  0.67275000  1
  S  S57  1  0.47570400  0.98395700  0.82847400  1
  S  S58  1  0.31261800  0.66661200  0.60046600  1
  S  S59  1  0.78837200  0.28956900  0.93179000  1
  S  S60  1  0.08386000  0.06051000  0.98141700  1
  S  S61  1  0.50962900  0.36971700  0.99981200  1
  S  S62  1  0.26665000  0.26213300  0.86975300  1
  S  S63  1  0.95838400  0.09812300  0.69960600  1
  S  S64  1  0.89971300  0.25920500  0.79824000  1
  S  S65  1  0.45967200  0.10100700  0.70137000  1
  S  S66  1  0.48519600  0.86218200  0.00192300  1
  S  S67  1  0.05641900  0.69319000  0.90124400  1
