# generated using pymatgen
data_Dy9B5S21
_symmetry_space_group_name_H-M   'P 1'
_cell_length_a   11.19470979
_cell_length_b   11.19470979
_cell_length_c   11.19471017
_cell_angle_alpha   94.26483004
_cell_angle_beta   94.26483004
_cell_angle_gamma   94.26482825
_symmetry_Int_Tables_number   1
_chemical_formula_structural   Dy9B5S21
_chemical_formula_sum   'Dy18 B10 S42'
_cell_volume   1390.66933938
_cell_formula_units_Z   2
loop_
 _symmetry_equiv_pos_site_id
 _symmetry_equiv_pos_as_xyz
  1  'x, y, z'
loop_
 _atom_site_type_symbol
 _atom_site_label
 _atom_site_symmetry_multiplicity
 _atom_site_fract_x
 _atom_site_fract_y
 _atom_site_fract_z
 _atom_site_occupancy
  Dy  Dy0  1  0.24608000  0.48205200  0.09364200  1
  Dy  Dy1  1  0.56846100  0.79927200  0.41030100  1
  Dy  Dy2  1  0.91297700  0.13393400  0.77598300  1
  Dy  Dy3  1  0.41030100  0.56846100  0.79927200  1
  Dy  Dy4  1  0.77598300  0.91297700  0.13393400  1
  Dy  Dy5  1  0.09364200  0.24608000  0.48205200  1
  Dy  Dy6  1  0.13393400  0.77598300  0.91297700  1
  Dy  Dy7  1  0.48205200  0.09364200  0.24608000  1
  Dy  Dy8  1  0.79927200  0.41030100  0.56846100  1
  Dy  Dy9  1  0.12122600  0.88489000  0.27323700  1
  Dy  Dy10  1  0.46631500  0.24911400  0.60742100  1
  Dy  Dy11  1  0.80071700  0.56557700  0.95437500  1
  Dy  Dy12  1  0.95437500  0.80071700  0.56557700  1
  Dy  Dy13  1  0.27323700  0.12122600  0.88489000  1
  Dy  Dy14  1  0.60742100  0.46631500  0.24911400  1
  Dy  Dy15  1  0.24911400  0.60742100  0.46631500  1
  Dy  Dy16  1  0.56557700  0.95437500  0.80071700  1
  Dy  Dy17  1  0.88489000  0.27323700  0.12122600  1
  B  B18  1  0.90939600  0.57220300  0.24606000  1
  B  B19  1  0.24606000  0.90939600  0.57220300  1
  B  B20  1  0.57220300  0.24606000  0.90939600  1
  B  B21  1  0.74502500  0.07120100  0.41122500  1
  B  B22  1  0.07120100  0.41122500  0.74502500  1
  B  B23  1  0.41122500  0.74502500  0.07120100  1
  B  B24  1  0.80593000  0.80593000  0.80593000  1
  B  B25  1  0.13226000  0.13226000  0.13226000  1
  B  B26  1  0.30613100  0.30613100  0.30613100  1
  B  B27  1  0.63192500  0.63192500  0.63192500  1
  S  S28  1  0.67669000  0.35846700  0.02136100  1
  S  S29  1  0.02136100  0.67669000  0.35846700  1
  S  S30  1  0.35846700  0.02136100  0.67669000  1
  S  S31  1  0.85729300  0.17556100  0.52347400  1
  S  S32  1  0.17556100  0.52347400  0.85729300  1
  S  S33  1  0.52347400  0.85729300  0.17556100  1
  S  S34  1  0.80430800  0.91248700  0.38297300  1
  S  S35  1  0.13060700  0.25217900  0.72306500  1
  S  S36  1  0.46943300  0.58630300  0.04373400  1
  S  S37  1  0.72306500  0.13060700  0.25217900  1
  S  S38  1  0.04373400  0.46943300  0.58630300  1
  S  S39  1  0.38297300  0.80430800  0.91248700  1
  S  S40  1  0.58630300  0.04373400  0.46943300  1
  S  S41  1  0.91248700  0.38297300  0.80430800  1
  S  S42  1  0.25217900  0.72306500  0.13060700  1
  S  S43  1  0.76548000  0.64803400  0.18999400  1
  S  S44  1  0.10444300  0.98547900  0.51155800  1
  S  S45  1  0.42931300  0.31929700  0.85154700  1
  S  S46  1  0.85154700  0.42931300  0.31929700  1
  S  S47  1  0.18999400  0.76548000  0.64803400  1
  S  S48  1  0.51155800  0.10444300  0.98547900  1
  S  S49  1  0.98547900  0.51155800  0.10444300  1
  S  S50  1  0.31929700  0.85154700  0.42931300  1
  S  S51  1  0.64803400  0.18999400  0.76548000  1
  S  S52  1  0.78266400  0.91517900  0.69420500  1
  S  S53  1  0.11350800  0.24694100  0.02542700  1
  S  S54  1  0.44087200  0.59558000  0.33715800  1
  S  S55  1  0.02542700  0.11350800  0.24694100  1
  S  S56  1  0.33715800  0.44087200  0.59558000  1
  S  S57  1  0.69420500  0.78266400  0.91517900  1
  S  S58  1  0.59558000  0.33715800  0.44087200  1
  S  S59  1  0.91517900  0.69420500  0.78266400  1
  S  S60  1  0.24694100  0.02542700  0.11350800  1
  S  S61  1  0.97667600  0.81964000  0.07813700  1
  S  S62  1  0.31210200  0.17960100  0.40052000  1
  S  S63  1  0.64229300  0.51049600  0.73227000  1
  S  S64  1  0.73227000  0.64229300  0.51049600  1
  S  S65  1  0.07813700  0.97667600  0.81964000  1
  S  S66  1  0.40052000  0.31210200  0.17960100  1
  S  S67  1  0.17960100  0.40052000  0.31210200  1
  S  S68  1  0.51049600  0.73227000  0.64229300  1
  S  S69  1  0.81964000  0.07813700  0.97667600  1
