# generated using pymatgen
data_Er2VFeO6
_symmetry_space_group_name_H-M   'P 1'
_cell_length_a   5.61371400
_cell_length_b   5.23141400
_cell_length_c   9.13638642
_cell_angle_alpha   55.61403562
_cell_angle_beta   90.00000000
_cell_angle_gamma   90.00000000
_symmetry_Int_Tables_number   1
_chemical_formula_structural   Er2VFeO6
_chemical_formula_sum   'Er4 V2 Fe2 O12'
_cell_volume   221.42688539
_cell_formula_units_Z   2
loop_
 _symmetry_equiv_pos_site_id
 _symmetry_equiv_pos_as_xyz
  1  'x, y, z'
loop_
 _atom_site_type_symbol
 _atom_site_label
 _atom_site_symmetry_multiplicity
 _atom_site_fract_x
 _atom_site_fract_y
 _atom_site_fract_z
 _atom_site_occupancy
  Er  Er0  1  0.92677900  0.22640100  0.75197800  1
  Er  Er1  1  0.42677900  0.77359900  0.74802200  1
  Er  Er2  1  0.07322100  0.77359900  0.24802200  1
  Er  Er3  1  0.57322100  0.22640100  0.25197800  1
  V  V4  1  0.50000000  0.00000000  0.00000000  1
  V  V5  1  0.00000000  0.00000000  0.50000000  1
  Fe  Fe6  1  0.50000000  0.50000000  0.50000000  1
  Fe  Fe7  1  0.00000000  0.50000000  0.00000000  1
  O  O8  1  0.54157500  0.36805400  0.74657300  1
  O  O9  1  0.04157500  0.63194600  0.75342700  1
  O  O10  1  0.45842500  0.63194600  0.25342700  1
  O  O11  1  0.95842500  0.36805400  0.24657300  1
  O  O12  1  0.68923500  0.13493900  0.55724800  1
  O  O13  1  0.18923500  0.86506100  0.94275200  1
  O  O14  1  0.30632000  0.25766100  0.05646100  1
  O  O15  1  0.80632000  0.74233900  0.44353900  1
  O  O16  1  0.31076500  0.86506100  0.44275200  1
  O  O17  1  0.81076500  0.13493900  0.05724800  1
  O  O18  1  0.69368000  0.74233900  0.94353900  1
  O  O19  1  0.19368000  0.25766100  0.55646100  1
