# generated using pymatgen
data_La2Ti3O9
_symmetry_space_group_name_H-M   'P 1'
_cell_length_a   3.84732700
_cell_length_b   3.70379200
_cell_length_c   13.92914103
_cell_angle_alpha   82.35983156
_cell_angle_beta   82.06187758
_cell_angle_gamma   90.00000000
_symmetry_Int_Tables_number   1
_chemical_formula_structural   La2Ti3O9
_chemical_formula_sum   'La2 Ti3 O9'
_cell_volume   194.80488434
_cell_formula_units_Z   1
loop_
 _symmetry_equiv_pos_site_id
 _symmetry_equiv_pos_as_xyz
  1  'x, y, z'
loop_
 _atom_site_type_symbol
 _atom_site_label
 _atom_site_symmetry_multiplicity
 _atom_site_fract_x
 _atom_site_fract_y
 _atom_site_fract_z
 _atom_site_occupancy
  La  La0  1  0.40090700  0.40090700  0.19818500  1
  La  La1  1  0.59909300  0.59909300  0.80181500  1
  Ti  Ti2  1  0.17945200  0.17945200  0.64109500  1
  Ti  Ti3  1  0.82054800  0.82054800  0.35890500  1
  Ti  Ti4  1  0.00000000  0.00000000  0.00000000  1
  O  O5  1  0.65351800  0.15351800  0.69296400  1
  O  O6  1  0.15160900  0.65160900  0.69678300  1
  O  O7  1  0.34648200  0.84648200  0.30703600  1
  O  O8  1  0.84839100  0.34839100  0.30321700  1
  O  O9  1  0.24144500  0.24144500  0.51711100  1
  O  O10  1  0.75855500  0.75855500  0.48288900  1
  O  O11  1  0.06889900  0.06889900  0.86220100  1
  O  O12  1  0.93110100  0.93110100  0.13779900  1
  O  O13  1  0.50000000  0.00000000  0.00000000  1
