# generated using pymatgen
data_CuBi5S8
_symmetry_space_group_name_H-M   'P 1'
_cell_length_a   6.97552390
_cell_length_b   6.97552390
_cell_length_c   14.22277681
_cell_angle_alpha   66.30750893
_cell_angle_beta   66.30750893
_cell_angle_gamma   33.86504058
_symmetry_Int_Tables_number   1
_chemical_formula_structural   CuBi5S8
_chemical_formula_sum   'Cu1 Bi5 S8'
_cell_volume   349.96868916
_cell_formula_units_Z   1
loop_
 _symmetry_equiv_pos_site_id
 _symmetry_equiv_pos_as_xyz
  1  'x, y, z'
loop_
 _atom_site_type_symbol
 _atom_site_label
 _atom_site_symmetry_multiplicity
 _atom_site_fract_x
 _atom_site_fract_y
 _atom_site_fract_z
 _atom_site_occupancy
  Cu  Cu0  1  0.69405300  0.30594700  0.50000000  1
  Bi  Bi1  1  0.34632000  0.34148800  0.84675000  1
  Bi  Bi2  1  0.65851200  0.65368000  0.15325000  1
  Bi  Bi3  1  0.72505400  0.70387600  0.63556800  1
  Bi  Bi4  1  0.29612400  0.27494600  0.36443200  1
  Bi  Bi5  1  0.00068500  0.99931500  0.00000000  1
  S  S6  1  0.66130900  0.66371300  0.92838300  1
  S  S7  1  0.33628700  0.33869100  0.07161700  1
  S  S8  1  0.99300500  0.99277100  0.80393400  1
  S  S9  1  0.00722900  0.00699500  0.19606600  1
  S  S10  1  0.35854800  0.35395000  0.65321600  1
  S  S11  1  0.64605000  0.64145200  0.34678400  1
  S  S12  1  0.10454300  0.14671800  0.54932000  1
  S  S13  1  0.85328200  0.89545700  0.45068000  1
