# generated using pymatgen
data_La3Gd(BrO)4
_symmetry_space_group_name_H-M   'P 1'
_cell_length_a   4.10789400
_cell_length_b   4.10789400
_cell_length_c   15.34292700
_cell_angle_alpha   90.00000000
_cell_angle_beta   90.00000000
_cell_angle_gamma   90.00000000
_symmetry_Int_Tables_number   1
_chemical_formula_structural   La3Gd(BrO)4
_chemical_formula_sum   'La3 Gd1 Br4 O4'
_cell_volume   258.90871891
_cell_formula_units_Z   1
loop_
 _symmetry_equiv_pos_site_id
 _symmetry_equiv_pos_as_xyz
  1  'x, y, z'
loop_
 _atom_site_type_symbol
 _atom_site_label
 _atom_site_symmetry_multiplicity
 _atom_site_fract_x
 _atom_site_fract_y
 _atom_site_fract_z
 _atom_site_occupancy
  La  La0  1  0.50000000  0.50000000  0.57918600  1
  La  La1  1  0.00000000  0.00000000  0.41979600  1
  La  La2  1  0.00000000  0.00000000  0.92282800  1
  Gd  Gd3  1  0.50000000  0.50000000  0.07412700  1
  Br  Br4  1  0.50000000  0.50000000  0.31902500  1
  Br  Br5  1  0.50000000  0.50000000  0.82158100  1
  Br  Br6  1  0.00000000  0.00000000  0.17696900  1
  Br  Br7  1  0.00000000  0.00000000  0.68127200  1
  O  O8  1  0.50000000  0.00000000  0.00257800  1
  O  O9  1  0.50000000  0.00000000  0.50003000  1
  O  O10  1  0.00000000  0.50000000  0.00257800  1
  O  O11  1  0.00000000  0.50000000  0.50003000  1
