# generated using pymatgen
data_Dy12Si5S28
_symmetry_space_group_name_H-M   'P 1'
_cell_length_a   9.86330800
_cell_length_b   11.29474001
_cell_length_c   11.35280331
_cell_angle_alpha   119.79670251
_cell_angle_beta   115.73952487
_cell_angle_gamma   90.00268858
_symmetry_Int_Tables_number   1
_chemical_formula_structural   Dy12Si5S28
_chemical_formula_sum   'Dy12 Si5 S28'
_cell_volume   950.19642971
_cell_formula_units_Z   1
loop_
 _symmetry_equiv_pos_site_id
 _symmetry_equiv_pos_as_xyz
  1  'x, y, z'
loop_
 _atom_site_type_symbol
 _atom_site_label
 _atom_site_symmetry_multiplicity
 _atom_site_fract_x
 _atom_site_fract_y
 _atom_site_fract_z
 _atom_site_occupancy
  Dy  Dy0  1  0.76194600  0.70065600  0.63577700  1
  Dy  Dy1  1  0.77415000  0.19102700  0.65342400  1
  Dy  Dy2  1  0.34751500  0.42485500  0.12061200  1
  Dy  Dy3  1  0.36249800  0.94506900  0.12610400  1
  Dy  Dy4  1  0.87811600  0.47666200  0.22467900  1
  Dy  Dy5  1  0.87704300  0.00288000  0.24006000  1
  Dy  Dy6  1  0.22713300  0.30733100  0.34412000  1
  Dy  Dy7  1  0.23460100  0.79967000  0.36564400  1
  Dy  Dy8  1  0.63492800  0.55313200  0.87166300  1
  Dy  Dy9  1  0.65638900  0.07570400  0.88182800  1
  Dy  Dy10  1  0.12925500  0.50033300  0.76544600  1
  Dy  Dy11  1  0.11839700  0.02103500  0.77331500  1
  Si  Si12  1  0.66465800  0.25029600  0.33438100  1
  Si  Si13  1  0.66819500  0.74880900  0.33148700  1
  Si  Si14  1  0.33298600  0.66535400  0.66652600  1
  Si  Si15  1  0.33375800  0.16459300  0.66686100  1
  Si  Si16  1  0.99933900  0.75923900  0.99968200  1
  S  S17  1  0.66648800  0.43547300  0.33334100  1
  S  S18  1  0.66713100  0.93529900  0.33312200  1
  S  S19  1  0.32836800  0.34500500  0.65604400  1
  S  S20  1  0.33827400  0.85583300  0.67678000  1
  S  S21  1  0.88974200  0.25149600  0.48921300  1
  S  S22  1  0.89686100  0.74360100  0.47357500  1
  S  S23  1  0.52307600  0.21728200  0.42152800  1
  S  S24  1  0.51307200  0.70780000  0.40160400  1
  S  S25  1  0.59053900  0.06110900  0.10724200  1
  S  S26  1  0.58428300  0.55860000  0.10451900  1
  S  S27  1  0.10632500  0.51772100  0.52256000  1
  S  S28  1  0.10587800  0.01378100  0.51736900  1
  S  S29  1  0.48316500  0.55093700  0.58982400  1
  S  S30  1  0.47773500  0.04689800  0.58310100  1
  S  S31  1  0.41301600  0.70296000  0.89478400  1
  S  S32  1  0.41412000  0.20209200  0.89294000  1
  S  S33  1  0.85294700  0.53486400  0.77066900  1
  S  S34  1  0.83030100  0.99934800  0.74010400  1
  S  S35  1  0.25856400  0.17429100  0.08895900  1
  S  S36  1  0.22935100  0.69080600  0.08339500  1
  S  S37  1  0.91299900  0.21543400  0.16996700  1
  S  S38  1  0.91649100  0.72236200  0.14747400  1
  S  S39  1  0.16693200  0.51158400  0.25718300  1
  S  S40  1  0.15393800  0.98676300  0.23251400  1
  S  S41  1  0.76748600  0.83171700  0.92189200  1
  S  S42  1  0.74338800  0.33799900  0.90965900  1
  S  S43  1  0.07827800  0.79370900  0.84531200  1
  S  S44  1  0.09034500  0.29959000  0.83371700  1
