# generated using pymatgen
data_Cu2SnSe3
_symmetry_space_group_name_H-M   'P 1'
_cell_length_a   7.08207926
_cell_length_b   7.08207926
_cell_length_c   7.08207926
_cell_angle_alpha   146.21476243
_cell_angle_beta   132.07323024
_cell_angle_gamma   59.92007014
_symmetry_Int_Tables_number   1
_chemical_formula_structural   Cu2SnSe3
_chemical_formula_sum   'Cu2 Sn1 Se3'
_cell_volume   145.27846660
_cell_formula_units_Z   1
loop_
 _symmetry_equiv_pos_site_id
 _symmetry_equiv_pos_as_xyz
  1  'x, y, z'
loop_
 _atom_site_type_symbol
 _atom_site_label
 _atom_site_symmetry_multiplicity
 _atom_site_fract_x
 _atom_site_fract_y
 _atom_site_fract_z
 _atom_site_occupancy
  Cu  Cu0  1  0.83765200  0.83038500  0.00726700  1
  Cu  Cu1  1  0.17688100  0.16961500  0.00726700  1
  Sn  Sn2  1  0.48221400  0.50000000  0.98221400  1
  Se  Se3  1  0.05675600  0.32219800  0.73455800  1
  Se  Se4  1  0.41236000  0.67780200  0.73455800  1
  Se  Se5  1  0.78413400  0.00000000  0.78413400  1
