# generated using pymatgen
data_NaTi2O4
_symmetry_space_group_name_H-M   'P 1'
_cell_length_a   10.59710000
_cell_length_b   7.67126400
_cell_length_c   9.27361500
_cell_angle_alpha   90.00000000
_cell_angle_beta   90.00000000
_cell_angle_gamma   90.00000000
_symmetry_Int_Tables_number   1
_chemical_formula_structural   NaTi2O4
_chemical_formula_sum   'Na4 Ti8 O16'
_cell_volume   753.88139132
_cell_formula_units_Z   4
loop_
 _symmetry_equiv_pos_site_id
 _symmetry_equiv_pos_as_xyz
  1  'x, y, z'
loop_
 _atom_site_type_symbol
 _atom_site_label
 _atom_site_symmetry_multiplicity
 _atom_site_fract_x
 _atom_site_fract_y
 _atom_site_fract_z
 _atom_site_occupancy
  Na  Na0  1  0.25000000  0.19702100  0.43957300  1
  Na  Na1  1  0.25000000  0.69702100  0.06042700  1
  Na  Na2  1  0.75000000  0.30297900  0.93957300  1
  Na  Na3  1  0.75000000  0.80297900  0.56042700  1
  Ti  Ti4  1  0.75000000  0.30690800  0.51878200  1
  Ti  Ti5  1  0.75000000  0.54561000  0.24636300  1
  Ti  Ti6  1  0.25000000  0.19309200  0.01878200  1
  Ti  Ti7  1  0.25000000  0.95439000  0.74636300  1
  Ti  Ti8  1  0.25000000  0.45439000  0.75363700  1
  Ti  Ti9  1  0.25000000  0.69309200  0.48121800  1
  Ti  Ti10  1  0.75000000  0.04561000  0.25363700  1
  Ti  Ti11  1  0.75000000  0.80690800  0.98121800  1
  O  O12  1  0.75000000  0.81394100  0.80036400  1
  O  O13  1  0.75000000  0.07288600  0.46030900  1
  O  O14  1  0.75000000  0.30051300  0.24639800  1
  O  O15  1  0.75000000  0.53649200  0.45469700  1
  O  O16  1  0.25000000  0.92711400  0.53969100  1
  O  O17  1  0.25000000  0.19948700  0.74639800  1
  O  O18  1  0.25000000  0.68605900  0.30036400  1
  O  O19  1  0.25000000  0.46350800  0.54530300  1
  O  O20  1  0.25000000  0.69948700  0.75360200  1
  O  O21  1  0.25000000  0.18605900  0.19963600  1
  O  O22  1  0.25000000  0.96350800  0.95469700  1
  O  O23  1  0.25000000  0.42711400  0.96030900  1
  O  O24  1  0.75000000  0.31394100  0.69963600  1
  O  O25  1  0.75000000  0.57288600  0.03969100  1
  O  O26  1  0.75000000  0.80051300  0.25360200  1
  O  O27  1  0.75000000  0.03649200  0.04530300  1
