# generated using pymatgen
data_Nd20Mn20O59
_symmetry_space_group_name_H-M   'P 1'
_cell_length_a   9.44110000
_cell_length_b   11.17337165
_cell_length_c   13.04427361
_cell_angle_alpha   73.79980009
_cell_angle_beta   76.08642176
_cell_angle_gamma   74.15521557
_symmetry_Int_Tables_number   1
_chemical_formula_structural   Nd20Mn20O59
_chemical_formula_sum   'Nd20 Mn20 O59'
_cell_volume   1250.91988773
_cell_formula_units_Z   1
loop_
 _symmetry_equiv_pos_site_id
 _symmetry_equiv_pos_as_xyz
  1  'x, y, z'
loop_
 _atom_site_type_symbol
 _atom_site_label
 _atom_site_symmetry_multiplicity
 _atom_site_fract_x
 _atom_site_fract_y
 _atom_site_fract_z
 _atom_site_occupancy
  Nd  Nd0  1  0.85780700  0.89196100  0.01793900  1
  Nd  Nd1  1  0.82825600  0.41998200  0.07784100  1
  Nd  Nd2  1  0.25961500  0.49154500  0.21665000  1
  Nd  Nd3  1  0.22892300  0.02179700  0.27688900  1
  Nd  Nd4  1  0.57107500  0.17896300  0.12316100  1
  Nd  Nd5  1  0.65890100  0.09135300  0.41580600  1
  Nd  Nd6  1  0.54102400  0.70895700  0.18241700  1
  Nd  Nd7  1  0.62979600  0.62279200  0.47563200  1
  Nd  Nd8  1  0.97221200  0.77933300  0.32243900  1
  Nd  Nd9  1  0.05990900  0.68948900  0.61594100  1
  Nd  Nd10  1  0.94300900  0.30876400  0.38273600  1
  Nd  Nd11  1  0.02520200  0.21886200  0.67594700  1
  Nd  Nd12  1  0.36748900  0.38234100  0.52288900  1
  Nd  Nd13  1  0.44930300  0.30024500  0.82026900  1
  Nd  Nd14  1  0.34098500  0.90791000  0.58331600  1
  Nd  Nd15  1  0.43236800  0.82149600  0.87530900  1
  Nd  Nd16  1  0.78579200  0.96294000  0.72465100  1
  Nd  Nd17  1  0.74218000  0.50699800  0.78342600  1
  Nd  Nd18  1  0.16931600  0.58047500  0.92425900  1
  Nd  Nd19  1  0.14142500  0.10857300  0.98274100  1
  Mn  Mn20  1  0.20102600  0.80018600  0.09925900  1
  Mn  Mn21  1  0.49995300  0.50025000  0.00052300  1
  Mn  Mn22  1  0.60017200  0.39966700  0.30151000  1
  Mn  Mn23  1  0.90019000  0.09985000  0.19952800  1
  Mn  Mn24  1  0.19941300  0.29999200  0.10074100  1
  Mn  Mn25  1  0.50076200  0.00161600  0.99844000  1
  Mn  Mn26  1  0.99982300  0.99885900  0.49921500  1
  Mn  Mn27  1  0.60025300  0.90033300  0.29925100  1
  Mn  Mn28  1  0.30084200  0.70100700  0.39906800  1
  Mn  Mn29  1  0.39891300  0.60109900  0.70043000  1
  Mn  Mn30  1  0.90113400  0.59965600  0.19979100  1
  Mn  Mn31  1  0.70192500  0.30526900  0.59872300  1
  Mn  Mn32  1  0.00068000  0.50198100  0.49794800  1
  Mn  Mn33  1  0.79861600  0.19899900  0.89930800  1
  Mn  Mn34  1  0.30076500  0.19960300  0.40135100  1
  Mn  Mn35  1  0.10001300  0.89918700  0.80183800  1
  Mn  Mn36  1  0.39324200  0.09906200  0.70190800  1
  Mn  Mn37  1  0.70071500  0.79927800  0.59908400  1
  Mn  Mn38  1  0.79913700  0.69739400  0.90326700  1
  Mn  Mn39  1  0.09855000  0.40071100  0.79989300  1
  O  O40  1  0.39429600  0.85738800  0.05628300  1
  O  O41  1  0.79071000  0.65973400  0.07935300  1
  O  O42  1  0.54997500  0.49939600  0.15929100  1
  O  O43  1  0.79567500  0.45470100  0.25925700  1
  O  O44  1  0.07682700  0.47094500  0.10509500  1
  O  O45  1  0.31966000  0.63269300  0.02438700  1
  O  O46  1  0.01650500  0.23294200  0.11818300  1
  O  O47  1  0.38354000  0.36642300  0.08032000  1
  O  O48  1  0.94913000  0.10012700  0.35972600  1
  O  O49  1  0.19081700  0.25999000  0.27890000  1
  O  O50  1  0.32202000  0.12910800  0.09425100  1
  O  O51  1  0.08099900  0.96778800  0.17556600  1
  O  O52  1  0.19416400  0.05446000  0.45990200  1
  O  O53  1  0.47733100  0.07109500  0.30532700  1
  O  O54  1  0.71958200  0.23224200  0.22441700  1
  O  O55  1  0.85108300  0.10076600  0.04053900  1
  O  O56  1  0.60918200  0.94038700  0.12094200  1
  O  O57  1  0.41720800  0.83396300  0.31857900  1
  O  O58  1  0.78378400  0.96638300  0.28063200  1
  O  O59  1  0.34937000  0.69921200  0.55989100  1
  O  O60  1  0.59018500  0.86048600  0.47982500  1
  O  O61  1  0.72304000  0.72920300  0.29500000  1
  O  O62  1  0.48127200  0.56771700  0.37640200  1
  O  O63  1  0.00619400  0.74460300  0.14067900  1
  O  O64  1  0.59537800  0.65387400  0.65869500  1
  O  O65  1  0.12033300  0.83362000  0.42298700  1
  O  O66  1  0.87708800  0.67356600  0.50398000  1
  O  O67  1  0.25222800  0.70111900  0.23951400  1
  O  O68  1  0.01102800  0.54031000  0.31918700  1
  O  O69  1  0.82178600  0.43893300  0.51516800  1
  O  O70  1  0.18289900  0.56816500  0.47920500  1
  O  O71  1  0.99039200  0.46018900  0.67918500  1
  O  O72  1  0.74266700  0.29521600  0.75688000  1
  O  O73  1  0.87419200  0.15719700  0.58363100  1
  O  O74  1  0.12209200  0.32723600  0.49592500  1
  O  O75  1  0.40665500  0.34375200  0.34200300  1
  O  O76  1  0.99442000  0.25543700  0.85601600  1
  O  O77  1  0.51095700  0.42782100  0.63000000  1
  O  O78  1  0.28510100  0.27637700  0.70555000  1
  O  O79  1  0.65007700  0.29948600  0.44567800  1
  O  O80  1  0.41076300  0.13944300  0.52573400  1
  O  O81  1  0.20844500  0.03070000  0.71885700  1
  O  O82  1  0.15041000  0.89995100  0.95919400  1
  O  O83  1  0.39704100  0.06519300  0.87177900  1
  O  O84  1  0.53594400  0.93166500  0.69593700  1
  O  O85  1  0.28377900  0.76837900  0.77512100  1
  O  O86  1  0.80609900  0.94368900  0.53975300  1
  O  O87  1  0.67738400  0.86946400  0.90617100  1
  O  O88  1  0.91703400  0.03122100  0.82618800  1
  O  O89  1  0.04918300  0.89672200  0.64014300  1
  O  O90  1  0.81145700  0.73819300  0.72025000  1
  O  O91  1  0.61662500  0.63323900  0.91773900  1
  O  O92  1  0.98155500  0.76715300  0.87982100  1
  O  O93  1  0.92167200  0.52771900  0.89610800  1
  O  O94  1  0.68072900  0.36787500  0.97468100  1
  O  O95  1  0.20334300  0.54625500  0.74336500  1
  O  O96  1  0.44813600  0.50237900  0.84184400  1
  O  O97  1  0.20677300  0.34136300  0.92215200  1
  O  O98  1  0.60230700  0.14733500  0.94069600  1
