# generated using pymatgen
data_CsMnH5(SO5)2
_symmetry_space_group_name_H-M   'P 1'
_cell_length_a   4.86305724
_cell_length_b   5.98443283
_cell_length_c   8.77713585
_cell_angle_alpha   104.21347921
_cell_angle_beta   95.92559047
_cell_angle_gamma   94.39694936
_symmetry_Int_Tables_number   1
_chemical_formula_structural   CsMnH5(SO5)2
_chemical_formula_sum   'Cs1 Mn1 H5 S2 O10'
_cell_volume   244.91280903
_cell_formula_units_Z   1
loop_
 _symmetry_equiv_pos_site_id
 _symmetry_equiv_pos_as_xyz
  1  'x, y, z'
loop_
 _atom_site_type_symbol
 _atom_site_label
 _atom_site_symmetry_multiplicity
 _atom_site_fract_x
 _atom_site_fract_y
 _atom_site_fract_z
 _atom_site_occupancy
  Cs  Cs0  1  0.99899800  0.00460800  0.49450400  1
  Mn  Mn1  1  0.00042000  0.00617000  0.00628800  1
  H  H2  1  0.65049900  0.27214200  0.84620900  1
  H  H3  1  0.35018700  0.72614700  0.15640400  1
  H  H4  1  0.96462500  0.34974500  0.83607400  1
  H  H5  1  0.03309100  0.64731200  0.16410300  1
  H  H6  1  0.50015800  0.53091000  0.51749500  1
  S  S7  1  0.43196100  0.68725500  0.76824500  1
  S  S8  1  0.56785900  0.31709600  0.23783000  1
  O  O9  1  0.27060800  0.88563500  0.81760400  1
  O  O10  1  0.72969200  0.11558300  0.18569100  1
  O  O11  1  0.27982700  0.45947000  0.75308700  1
  O  O12  1  0.72380100  0.54106100  0.24173100  1
  O  O13  1  0.69880300  0.71624300  0.87050800  1
  O  O14  1  0.30476100  0.28727800  0.12818400  1
  O  O15  1  0.49550800  0.69751300  0.59781000  1
  O  O16  1  0.50333000  0.31581200  0.40250100  1
  O  O17  1  0.83592500  0.21898400  0.84442500  1
  O  O18  1  0.16294600  0.77603400  0.15230600  1
