# generated using pymatgen
data_Cu2SnSe3
_symmetry_space_group_name_H-M   'P 1'
_cell_length_a   7.04373071
_cell_length_b   7.04373071
_cell_length_c   12.84727044
_cell_angle_alpha   79.36795887
_cell_angle_beta   100.63204113
_cell_angle_gamma   70.91525107
_symmetry_Int_Tables_number   1
_chemical_formula_structural   Cu2SnSe3
_chemical_formula_sum   'Cu8 Sn4 Se12'
_cell_volume   571.09310012
_cell_formula_units_Z   4
loop_
 _symmetry_equiv_pos_site_id
 _symmetry_equiv_pos_as_xyz
  1  'x, y, z'
loop_
 _atom_site_type_symbol
 _atom_site_label
 _atom_site_symmetry_multiplicity
 _atom_site_fract_x
 _atom_site_fract_y
 _atom_site_fract_z
 _atom_site_occupancy
  Cu  Cu0  1  0.26434700  0.24345000  0.49957800  1
  Cu  Cu1  1  0.90794400  0.57461000  0.83333300  1
  Cu  Cu2  1  0.57678300  0.93101400  0.16708900  1
  Cu  Cu3  1  0.34810200  0.65969500  0.66708900  1
  Cu  Cu4  1  0.99302800  0.01476900  0.99957800  1
  Cu  Cu5  1  0.65794400  0.32461000  0.33333300  1
  Cu  Cu6  1  0.41736200  0.08402800  0.83333300  1
  Cu  Cu7  1  0.16736200  0.83402800  0.33333300  1
  Sn  Sn8  1  0.09880800  0.40022600  0.17352800  1
  Sn  Sn9  1  0.73355900  0.76547500  0.49313900  1
  Sn  Sn10  1  0.82375300  0.17528100  0.67352800  1
  Sn  Sn11  1  0.50861400  0.49042000  0.99313900  1
  Se  Se12  1  0.10513000  0.64858400  0.98926200  1
  Se  Se13  1  0.79841100  0.96940000  0.32255900  1
  Se  Se14  1  0.43067500  0.29899700  0.66654800  1
  Se  Se15  1  0.63233100  0.09734100  0.00011800  1
  Se  Se16  1  0.30273300  0.46507800  0.34410800  1
  Se  Se17  1  0.98191700  0.77179700  0.67740500  1
  Se  Se18  1  0.05918500  0.20862600  0.84410800  1
  Se  Se19  1  0.69920200  0.55451200  0.17740500  1
  Se  Se20  1  0.34746000  0.88221200  0.50011800  1
  Se  Se21  1  0.88784500  0.36586900  0.48926200  1
  Se  Se22  1  0.54195900  0.72585200  0.82255900  1
  Se  Se23  1  0.21554600  0.01412600  0.16654800  1
