# generated using pymatgen
data_CuBi3PbS6
_symmetry_space_group_name_H-M   'P 1'
_cell_length_a   4.06291100
_cell_length_b   11.21371600
_cell_length_c   11.66076000
_cell_angle_alpha   90.00000000
_cell_angle_beta   90.00000000
_cell_angle_gamma   90.00000000
_symmetry_Int_Tables_number   1
_chemical_formula_structural   CuBi3PbS6
_chemical_formula_sum   'Cu2 Bi6 Pb2 S12'
_cell_volume   531.26807467
_cell_formula_units_Z   2
loop_
 _symmetry_equiv_pos_site_id
 _symmetry_equiv_pos_as_xyz
  1  'x, y, z'
loop_
 _atom_site_type_symbol
 _atom_site_label
 _atom_site_symmetry_multiplicity
 _atom_site_fract_x
 _atom_site_fract_y
 _atom_site_fract_z
 _atom_site_occupancy
  Cu  Cu0  1  0.00000000  0.78926900  0.51204600  1
  Cu  Cu1  1  0.50000000  0.28926900  0.48795400  1
  Bi  Bi2  1  0.00000000  0.32096100  0.73967000  1
  Bi  Bi3  1  0.00000000  0.17965000  0.22583400  1
  Bi  Bi4  1  0.50000000  0.67965000  0.77416600  1
  Bi  Bi5  1  0.50000000  0.82096100  0.26033000  1
  Bi  Bi6  1  0.00000000  0.97863600  0.91203000  1
  Bi  Bi7  1  0.50000000  0.47863600  0.08797000  1
  Pb  Pb8  1  0.00000000  0.51778200  0.41262100  1
  Pb  Pb9  1  0.50000000  0.01778200  0.58737900  1
  S  S10  1  0.00000000  0.85890500  0.70769700  1
  S  S11  1  0.00000000  0.63000500  0.20032800  1
  S  S12  1  0.50000000  0.13000500  0.79967200  1
  S  S13  1  0.50000000  0.35890500  0.29230300  1
  S  S14  1  0.00000000  0.55053200  0.87159500  1
  S  S15  1  0.00000000  0.93999600  0.36828800  1
  S  S16  1  0.50000000  0.43999600  0.63171200  1
  S  S17  1  0.50000000  0.05053200  0.12840500  1
  S  S18  1  0.00000000  0.20682900  0.52945100  1
  S  S19  1  0.00000000  0.31603700  0.03710200  1
  S  S20  1  0.50000000  0.81603700  0.96289800  1
  S  S21  1  0.50000000  0.70682900  0.47054900  1
