# generated using pymatgen
data_Sm4(OF2)3
_symmetry_space_group_name_H-M   'P 1'
_cell_length_a   3.70391600
_cell_length_b   4.68142336
_cell_length_c   47.45330470
_cell_angle_alpha   91.41874027
_cell_angle_beta   90.00000000
_cell_angle_gamma   90.00000000
_symmetry_Int_Tables_number   1
_chemical_formula_structural   Sm4(OF2)3
_chemical_formula_sum   'Sm16 O12 F24'
_cell_volume   822.56903022
_cell_formula_units_Z   4
loop_
 _symmetry_equiv_pos_site_id
 _symmetry_equiv_pos_as_xyz
  1  'x, y, z'
loop_
 _atom_site_type_symbol
 _atom_site_label
 _atom_site_symmetry_multiplicity
 _atom_site_fract_x
 _atom_site_fract_y
 _atom_site_fract_z
 _atom_site_occupancy
  Sm  Sm0  1  0.25000000  0.09931500  0.04204100  1
  Sm  Sm1  1  0.25000000  0.17198700  0.16325500  1
  Sm  Sm2  1  0.25000000  0.19328700  0.27926500  1
  Sm  Sm3  1  0.25000000  0.21481400  0.39556000  1
  Sm  Sm4  1  0.25000000  0.24879700  0.51144400  1
  Sm  Sm5  1  0.25000000  0.29232200  0.63326100  1
  Sm  Sm6  1  0.25000000  0.34362900  0.77910300  1
  Sm  Sm7  1  0.25000000  0.13554400  0.91039800  1
  Sm  Sm8  1  0.75000000  0.65983100  0.11703500  1
  Sm  Sm9  1  0.75000000  0.70535900  0.34936400  1
  Sm  Sm10  1  0.75000000  0.68611000  0.23312600  1
  Sm  Sm11  1  0.75000000  0.73321100  0.46553600  1
  Sm  Sm12  1  0.75000000  0.76605300  0.58086800  1
  Sm  Sm13  1  0.75000000  0.81605600  0.72687400  1
  Sm  Sm14  1  0.75000000  0.72584800  0.85141000  1
  Sm  Sm15  1  0.75000000  0.66771000  0.98024500  1
  O  O16  1  0.25000000  0.76669000  0.00906100  1
  O  O17  1  0.25000000  0.66637900  0.14264800  1
  O  O18  1  0.25000000  0.69178200  0.25898100  1
  O  O19  1  0.25000000  0.70961100  0.37524800  1
  O  O20  1  0.25000000  0.73916800  0.49139300  1
  O  O21  1  0.25000000  0.67609700  0.60329000  1
  O  O22  1  0.25000000  0.71631400  0.75015500  1
  O  O23  1  0.25000000  0.88463800  0.86707300  1
  O  O24  1  0.75000000  0.16386200  0.13476900  1
  O  O25  1  0.75000000  0.18830800  0.25035200  1
  O  O26  1  0.75000000  0.20761800  0.36665400  1
  O  O27  1  0.75000000  0.23784000  0.48258600  1
  F  F28  1  0.25000000  0.80139400  0.94901100  1
  F  F29  1  0.75000000  0.35934500  0.08050900  1
  F  F30  1  0.75000000  0.86617500  0.06488300  1
  F  F31  1  0.75000000  0.42871300  0.19073000  1
  F  F32  1  0.75000000  0.44583000  0.30706400  1
  F  F33  1  0.75000000  0.59377600  0.79844900  1
  F  F34  1  0.75000000  0.93389500  0.19134500  1
  F  F35  1  0.75000000  0.95151600  0.30736100  1
  F  F36  1  0.75000000  0.46708700  0.42361100  1
  F  F37  1  0.75000000  0.50539500  0.53884300  1
  F  F38  1  0.75000000  0.15973000  0.82553900  1
  F  F39  1  0.75000000  0.47897500  0.65503500  1
  F  F40  1  0.75000000  0.97289400  0.42337400  1
  F  F41  1  0.75000000  0.01101100  0.53923500  1
  F  F42  1  0.75000000  0.06469900  0.77312800  1
  F  F43  1  0.75000000  0.98641700  0.68597700  1
  F  F44  1  0.75000000  0.26976700  0.59130200  1
  F  F45  1  0.75000000  0.32453000  0.73142500  1
  F  F46  1  0.75000000  0.36579000  0.93369000  1
  F  F47  1  0.75000000  0.98766100  0.63152300  1
  F  F48  1  0.75000000  0.15844200  0.97988000  1
  F  F49  1  0.75000000  0.33641700  0.87998000  1
  F  F50  1  0.75000000  0.33542500  0.02770500  1
  F  F51  1  0.75000000  0.85193800  0.90640800  1
