# generated using pymatgen
data_CsNaSiO3
_symmetry_space_group_name_H-M   'P 1'
_cell_length_a   8.60276772
_cell_length_b   8.60276772
_cell_length_c   8.60276773
_cell_angle_alpha   90.91256042
_cell_angle_beta   90.91256042
_cell_angle_gamma   90.91255819
_symmetry_Int_Tables_number   1
_chemical_formula_structural   CsNaSiO3
_chemical_formula_sum   'Cs6 Na6 Si6 O18'
_cell_volume   636.42543975
_cell_formula_units_Z   6
loop_
 _symmetry_equiv_pos_site_id
 _symmetry_equiv_pos_as_xyz
  1  'x, y, z'
loop_
 _atom_site_type_symbol
 _atom_site_label
 _atom_site_symmetry_multiplicity
 _atom_site_fract_x
 _atom_site_fract_y
 _atom_site_fract_z
 _atom_site_occupancy
  Cs  Cs0  1  0.34165900  0.34165900  0.34165900  1
  Cs  Cs1  1  0.65942700  0.65942700  0.65942700  1
  Cs  Cs2  1  0.50300200  0.99934300  0.99934300  1
  Cs  Cs3  1  0.99934300  0.99934300  0.50300200  1
  Cs  Cs4  1  0.99934300  0.50300200  0.99934300  1
  Cs  Cs5  1  0.01589900  0.01589900  0.01589900  1
  Na  Na6  1  0.63093600  0.36914500  0.99989100  1
  Na  Na7  1  0.36914500  0.99989100  0.63093600  1
  Na  Na8  1  0.99989100  0.63093600  0.36914500  1
  Na  Na9  1  0.63093600  0.99989100  0.36914500  1
  Na  Na10  1  0.99989100  0.36914500  0.63093600  1
  Na  Na11  1  0.36914500  0.63093600  0.99989100  1
  Si  Si12  1  0.67222000  0.21000600  0.67222000  1
  Si  Si13  1  0.21000600  0.67222000  0.67222000  1
  Si  Si14  1  0.67222000  0.67222000  0.21000600  1
  Si  Si15  1  0.32786100  0.79012000  0.32786100  1
  Si  Si16  1  0.79012000  0.32786100  0.32786100  1
  Si  Si17  1  0.32786100  0.32786100  0.79012000  1
  O  O18  1  0.79901900  0.27455500  0.79901900  1
  O  O19  1  0.27455500  0.79901900  0.79901900  1
  O  O20  1  0.79901900  0.79901900  0.27455500  1
  O  O21  1  0.20099500  0.72596900  0.20099500  1
  O  O22  1  0.72596900  0.20099500  0.20099500  1
  O  O23  1  0.20099500  0.20099500  0.72596900  1
  O  O24  1  0.50007000  0.28771000  0.71266000  1
  O  O25  1  0.28771000  0.71266000  0.50007000  1
  O  O26  1  0.71266000  0.50007000  0.28771000  1
  O  O27  1  0.50007000  0.71266000  0.28771000  1
  O  O28  1  0.71266000  0.28771000  0.50007000  1
  O  O29  1  0.28771000  0.50007000  0.71266000  1
  O  O30  1  0.64714400  0.02382100  0.64714400  1
  O  O31  1  0.02382100  0.64714400  0.64714400  1
  O  O32  1  0.64714400  0.64714400  0.02382100  1
  O  O33  1  0.35170600  0.97667500  0.35170600  1
  O  O34  1  0.97667500  0.35170600  0.35170600  1
  O  O35  1  0.35170600  0.35170600  0.97667500  1
