# generated using pymatgen
data_Fe4(AsO7)3
_symmetry_space_group_name_H-M   'P 1'
_cell_length_a   8.34348804
_cell_length_b   8.34348804
_cell_length_c   7.86664500
_cell_angle_alpha   90.00000000
_cell_angle_beta   90.00000000
_cell_angle_gamma   92.15525337
_symmetry_Int_Tables_number   1
_chemical_formula_structural   Fe4(AsO7)3
_chemical_formula_sum   'Fe4 As3 O21'
_cell_volume   547.23959838
_cell_formula_units_Z   1
loop_
 _symmetry_equiv_pos_site_id
 _symmetry_equiv_pos_as_xyz
  1  'x, y, z'
loop_
 _atom_site_type_symbol
 _atom_site_label
 _atom_site_symmetry_multiplicity
 _atom_site_fract_x
 _atom_site_fract_y
 _atom_site_fract_z
 _atom_site_occupancy
  Fe  Fe0  1  0.86464200  0.13535800  0.83877700  1
  Fe  Fe1  1  0.80976700  0.80976700  0.13332200  1
  Fe  Fe2  1  0.19023300  0.19023300  0.13332200  1
  Fe  Fe3  1  0.13535800  0.86464200  0.83877700  1
  As  As4  1  0.00000000  0.00000000  0.47351400  1
  As  As5  1  0.00000000  0.50000000  0.98360100  1
  As  As6  1  0.50000000  0.00000000  0.98360100  1
  O  O7  1  0.19377400  0.80622600  0.19633600  1
  O  O8  1  0.09140700  0.09140700  0.93870700  1
  O  O9  1  0.90859300  0.90859300  0.93870700  1
  O  O10  1  0.80622600  0.19377400  0.19633600  1
  O  O11  1  0.63623500  0.10634600  0.86230000  1
  O  O12  1  0.88382400  0.11617600  0.59876200  1
  O  O13  1  0.89365400  0.36376500  0.86230000  1
  O  O14  1  0.59353300  0.86466500  0.11266800  1
  O  O15  1  0.87826200  0.87826200  0.35008500  1
  O  O16  1  0.86466500  0.59353300  0.11266800  1
  O  O17  1  0.40646700  0.13533500  0.11266800  1
  O  O18  1  0.12173800  0.12173800  0.35008500  1
  O  O19  1  0.13533500  0.40646700  0.11266800  1
  O  O20  1  0.36376500  0.89365400  0.86230000  1
  O  O21  1  0.11617600  0.88382400  0.59876200  1
  O  O22  1  0.10634600  0.63623500  0.86230000  1
  O  O23  1  0.28413300  0.71586700  0.27055700  1
  O  O24  1  0.40496300  0.40496300  0.78474000  1
  O  O25  1  0.59503700  0.59503700  0.78474000  1
  O  O26  1  0.71586700  0.28413300  0.27055700  1
  O  O27  1  0.50000000  0.50000000  0.86883600  1
