# generated using pymatgen
data_CsLa2Ti2NbO10
_symmetry_space_group_name_H-M   'P 1'
_cell_length_a   3.90175137
_cell_length_b   3.90175137
_cell_length_c   15.69065940
_cell_angle_alpha   89.60689220
_cell_angle_beta   90.39310780
_cell_angle_gamma   89.95130635
_symmetry_Int_Tables_number   1
_chemical_formula_structural   CsLa2Ti2NbO10
_chemical_formula_sum   'Cs1 La2 Ti2 Nb1 O10'
_cell_volume   238.85798272
_cell_formula_units_Z   1
loop_
 _symmetry_equiv_pos_site_id
 _symmetry_equiv_pos_as_xyz
  1  'x, y, z'
loop_
 _atom_site_type_symbol
 _atom_site_label
 _atom_site_symmetry_multiplicity
 _atom_site_fract_x
 _atom_site_fract_y
 _atom_site_fract_z
 _atom_site_occupancy
  Cs  Cs0  1  0.50003900  0.49996100  0.50945900  1
  La  La1  1  0.50747300  0.49252700  0.84621700  1
  La  La2  1  0.50356300  0.49643700  0.12793600  1
  Ti  Ti3  1  0.98522200  0.01477800  0.99769500  1
  Ti  Ti4  1  0.00066700  0.99933300  0.71596600  1
  Nb  Nb5  1  0.00094900  0.99905100  0.28023500  1
  O  O6  1  0.99060400  0.00939600  0.87881700  1
  O  O7  1  0.98836300  0.01163700  0.12734200  1
  O  O8  1  0.49940100  0.99955900  0.75155600  1
  O  O9  1  0.00044100  0.50059900  0.75155600  1
  O  O10  1  0.49815800  0.00350700  0.24846100  1
  O  O11  1  0.99649300  0.50184200  0.24846100  1
  O  O12  1  0.99930800  0.00069200  0.60772200  1
  O  O13  1  0.00135600  0.99864400  0.39431900  1
  O  O14  1  0.47465600  0.05169300  0.00712900  1
  O  O15  1  0.94830700  0.52534400  0.00712900  1
