# generated using pymatgen
data_CsBa2Co2F9
_symmetry_space_group_name_H-M   'P 1'
_cell_length_a   7.96310093
_cell_length_b   7.96310093
_cell_length_c   7.96310101
_cell_angle_alpha   44.31315379
_cell_angle_beta   44.31315379
_cell_angle_gamma   44.31315708
_symmetry_Int_Tables_number   1
_chemical_formula_structural   CsBa2Co2F9
_chemical_formula_sum   'Cs1 Ba2 Co2 F9'
_cell_volume   223.96378266
_cell_formula_units_Z   1
loop_
 _symmetry_equiv_pos_site_id
 _symmetry_equiv_pos_as_xyz
  1  'x, y, z'
loop_
 _atom_site_type_symbol
 _atom_site_label
 _atom_site_symmetry_multiplicity
 _atom_site_fract_x
 _atom_site_fract_y
 _atom_site_fract_z
 _atom_site_occupancy
  Cs  Cs0  1  0.21449000  0.21449000  0.21449000  1
  Ba  Ba1  1  0.99915300  0.99915300  0.99915300  1
  Ba  Ba2  1  0.79302600  0.79302600  0.79302600  1
  Co  Co3  1  0.38944300  0.38944300  0.38944300  1
  Co  Co4  1  0.60542200  0.60542200  0.60542200  1
  F  F5  1  0.26562600  0.77171800  0.26562600  1
  F  F6  1  0.77171800  0.26562600  0.26562600  1
  F  F7  1  0.26562600  0.26562600  0.77171800  1
  F  F8  1  0.73448600  0.21790100  0.73448600  1
  F  F9  1  0.21790100  0.73448600  0.73448600  1
  F  F10  1  0.73448600  0.73448600  0.21790100  1
  F  F11  1  0.98761500  0.51050500  0.51050500  1
  F  F12  1  0.51050500  0.51050500  0.98761500  1
  F  F13  1  0.51050500  0.98761500  0.51050500  1
