# generated using pymatgen
data_Cs2U2O7
_symmetry_space_group_name_H-M   'P 1'
_cell_length_a   4.33216900
_cell_length_b   7.60385031
_cell_length_c   7.75272220
_cell_angle_alpha   111.48475024
_cell_angle_beta   90.00000000
_cell_angle_gamma   73.44910936
_symmetry_Int_Tables_number   1
_chemical_formula_structural   Cs2U2O7
_chemical_formula_sum   'Cs2 U2 O7'
_cell_volume   226.22861689
_cell_formula_units_Z   1
loop_
 _symmetry_equiv_pos_site_id
 _symmetry_equiv_pos_as_xyz
  1  'x, y, z'
loop_
 _atom_site_type_symbol
 _atom_site_label
 _atom_site_symmetry_multiplicity
 _atom_site_fract_x
 _atom_site_fract_y
 _atom_site_fract_z
 _atom_site_occupancy
  Cs  Cs0  1  0.61278400  0.78372000  0.57037400  1
  Cs  Cs1  1  0.39650400  0.21628000  0.42962600  1
  U  U2  1  0.82931200  0.29144000  0.99276400  1
  U  U3  1  0.12075200  0.70856000  0.00723600  1
  O  O4  1  0.79698000  0.38687500  0.25493000  1
  O  O5  1  0.18385500  0.61312500  0.74507000  1
  O  O6  1  0.67149700  0.61632300  0.00406900  1
  O  O7  1  0.28782100  0.38367700  0.99593100  1
  O  O8  1  0.07453500  0.82368800  0.26980100  1
  O  O9  1  0.89822300  0.17631200  0.73019900  1
  O  O10  1  0.88673800  0.00000000  0.00000000  1
