# generated using pymatgen
data_CrCo3
_symmetry_space_group_name_H-M   'P 1'
_cell_length_a   2.50434742
_cell_length_b   2.50434742
_cell_length_c   8.00011800
_cell_angle_alpha   90.00000000
_cell_angle_beta   90.00000000
_cell_angle_gamma   120.00352465
_symmetry_Int_Tables_number   1
_chemical_formula_structural   CrCo3
_chemical_formula_sum   'Cr1 Co3'
_cell_volume   43.45109774
_cell_formula_units_Z   1
loop_
 _symmetry_equiv_pos_site_id
 _symmetry_equiv_pos_as_xyz
  1  'x, y, z'
loop_
 _atom_site_type_symbol
 _atom_site_label
 _atom_site_symmetry_multiplicity
 _atom_site_fract_x
 _atom_site_fract_y
 _atom_site_fract_z
 _atom_site_occupancy
  Cr  Cr0  1  0.66668000  0.33332000  0.37500000  1
  Co  Co1  1  0.66668300  0.33331700  0.87500000  1
  Co  Co2  1  0.33331900  0.66668100  0.12570400  1
  Co  Co3  1  0.33331900  0.66668100  0.62429600  1
