data_image0
_chemical_formula_structural       Ag3Ca3P3
_chemical_formula_sum              "Ag3 Ca3 P3"
_cell_length_a       7.06422
_cell_length_b       7.06421
_cell_length_c       4.19964
_cell_angle_alpha    90
_cell_angle_beta     90
_cell_angle_gamma    120.005

_space_group_name_H-M_alt    "P 1"
_space_group_IT_number       1

loop_
  _space_group_symop_operation_xyz
  'x, y, z'

loop_
  _atom_site_type_symbol
  _atom_site_label
  _atom_site_symmetry_multiplicity
  _atom_site_fract_x
  _atom_site_fract_y
  _atom_site_fract_z
  _atom_site_occupancy
  Ag  Ag1       1.0  0.25200  0.00000  0.00000  1.0000
  Ag  Ag2       1.0  0.00000  0.25200  0.00000  1.0000
  Ag  Ag3       1.0  0.74800  0.74800  0.00000  1.0000
  Ca  Ca1       1.0  0.58800  0.00001  0.50000  1.0000
  Ca  Ca2       1.0  0.41200  0.41200  0.50000  1.0000
  Ca  Ca3       1.0  0.00001  0.58800  0.50000  1.0000
  P   P1        1.0  0.66700  0.33300  0.00000  1.0000
  P   P2        1.0  0.33300  0.66700  0.00000  1.0000
  P   P3        1.0  0.00006  0.00006  0.50000  1.0000
