# generated using pymatgen
data_K7Mo12H29Pt2O59
_symmetry_space_group_name_H-M   'P 1'
_cell_length_a   10.39705900
_cell_length_b   12.30268255
_cell_length_c   12.62453624
_cell_angle_alpha   111.75651507
_cell_angle_beta   109.77003780
_cell_angle_gamma   84.78124662
_symmetry_Int_Tables_number   1
_chemical_formula_structural   K7Mo12H29Pt2O59
_chemical_formula_sum   'K7 Mo12 H29 Pt2 O59'
_cell_volume   1410.30177842
_cell_formula_units_Z   1
loop_
 _symmetry_equiv_pos_site_id
 _symmetry_equiv_pos_as_xyz
  1  'x, y, z'
loop_
 _atom_site_type_symbol
 _atom_site_label
 _atom_site_symmetry_multiplicity
 _atom_site_fract_x
 _atom_site_fract_y
 _atom_site_fract_z
 _atom_site_occupancy
  K  K0  1  0.24567800  0.09325000  0.87307500  1
  K  K1  1  0.75501800  0.90531600  0.12526800  1
  K  K2  1  0.57709100  0.36580500  0.17310600  1
  K  K3  1  0.42249100  0.63724500  0.82666700  1
  K  K4  1  0.00088800  0.99901200  0.49835800  1
  K  K5  1  0.07884200  0.43099500  0.15016800  1
  K  K6  1  0.92325600  0.57248000  0.85203400  1
  Mo  Mo7  1  0.47147100  0.31865000  0.80703500  1
  Mo  Mo8  1  0.52876300  0.68279700  0.19370900  1
  Mo  Mo9  1  0.02932200  0.22015300  0.33763900  1
  Mo  Mo10  1  0.97069400  0.77975100  0.66187400  1
  Mo  Mo11  1  0.70116600  0.22789800  0.67359900  1
  Mo  Mo12  1  0.30192100  0.77542500  0.33024400  1
  Mo  Mo13  1  0.13476300  0.31332300  0.64617000  1
  Mo  Mo14  1  0.86525500  0.68690000  0.35419800  1
  Mo  Mo15  1  0.60671000  0.14006300  0.36803200  1
  Mo  Mo16  1  0.39143100  0.85996400  0.62715200  1
  Mo  Mo17  1  0.26908600  0.13518400  0.19858900  1
  Mo  Mo18  1  0.73038300  0.86386700  0.80116000  1
  H  H19  1  0.15400700  0.37944400  0.90200000  1
  H  H20  1  0.84650000  0.62149300  0.09917700  1
  H  H21  1  0.24684400  0.48585500  0.00460000  1
  H  H22  1  0.75358000  0.51548600  0.99631200  1
  H  H23  1  0.74867500  0.25663800  0.97627900  1
  H  H24  1  0.25224100  0.74284500  0.02448600  1
  H  H25  1  0.24297000  0.40953900  0.50911100  1
  H  H26  1  0.76016900  0.59028500  0.49055000  1
  H  H27  1  0.40578500  0.41473300  0.36233700  1
  H  H28  1  0.59475500  0.58706300  0.63875600  1
  H  H29  1  0.96459700  0.12368900  0.94178800  1
  H  H30  1  0.03587500  0.87537700  0.05818800  1
  H  H31  1  0.31133700  0.10383200  0.62576600  1
  H  H32  1  0.68662300  0.89569300  0.37448300  1
  H  H33  1  0.81621900  0.41543800  0.42550600  1
  H  H34  1  0.18409200  0.58318000  0.57430500  1
  H  H35  1  0.42292500  0.53496000  0.34720800  1
  H  H36  1  0.57601700  0.46562300  0.65082800  1
  H  H37  1  0.21543600  0.02186300  0.35122700  1
  H  H38  1  0.78268000  0.97757900  0.64852300  1
  H  H39  1  0.95820000  0.18981700  0.85753800  1
  H  H40  1  0.04395500  0.80882500  0.14250800  1
  H  H41  1  0.42292700  0.94715200  0.22991700  1
  H  H42  1  0.57910000  0.05190200  0.77057900  1
  H  H43  1  0.76291500  0.15692300  0.02270600  1
  H  H44  1  0.23575600  0.84289300  0.97821100  1
  H  H45  1  0.73130600  0.42060000  0.50900200  1
  H  H46  1  0.26890900  0.58111800  0.49188800  1
  H  H47  1  0.50129000  0.01611200  0.50009200  1
  Pt  Pt48  1  0.37195800  0.21093500  0.50060100  1
  Pt  Pt49  1  0.62653800  0.78772500  0.49967900  1
  O  O50  1  0.15210600  0.45344300  0.96695600  1
  O  O51  1  0.84828000  0.54786200  0.03370200  1
  O  O52  1  0.03653100  0.19904700  0.48616400  1
  O  O53  1  0.96397600  0.80161000  0.51407800  1
  O  O54  1  0.92691000  0.34075900  0.34678500  1
  O  O55  1  0.07452300  0.66005700  0.65400600  1
  O  O56  1  0.73878000  0.45455500  0.45238200  1
  O  O57  1  0.26132000  0.54465900  0.54668800  1
  O  O58  1  0.43729400  0.02929500  0.23736100  1
  O  O59  1  0.56309100  0.97036800  0.76334100  1
  O  O60  1  0.74981700  0.24135000  0.04688600  1
  O  O61  1  0.25005500  0.75862200  0.95388700  1
  O  O62  1  0.17480900  0.00764600  0.09075000  1
  O  O63  1  0.82511700  0.99112200  0.90929300  1
  O  O64  1  0.10621700  0.24286000  0.73471500  1
  O  O65  1  0.89340200  0.75828500  0.26605500  1
  O  O66  1  0.51561900  0.31978200  0.64433600  1
  O  O67  1  0.48413000  0.67868900  0.35615900  1
  O  O68  1  0.13120100  0.24205400  0.23871400  1
  O  O69  1  0.86833900  0.75743300  0.76034200  1
  O  O70  1  0.70821800  0.01411800  0.36287600  1
  O  O71  1  0.28961000  0.98645700  0.63515500  1
  O  O72  1  0.22343900  0.10551800  0.35314800  1
  O  O73  1  0.77505300  0.89452600  0.64656500  1
  O  O74  1  0.02528400  0.42846400  0.65427100  1
  O  O75  1  0.97479600  0.57177300  0.34526200  1
  O  O76  1  0.31910700  0.18867800  0.63246000  1
  O  O77  1  0.68024000  0.81144900  0.36845000  1
  O  O78  1  0.36823700  0.46068400  0.31107700  1
  O  O79  1  0.63292000  0.53848300  0.68728000  1
  O  O80  1  0.42288400  0.26148300  0.89638800  1
  O  O81  1  0.57750700  0.73917700  0.10385100  1
  O  O82  1  0.32957800  0.19688000  0.11985300  1
  O  O83  1  0.67118700  0.80102500  0.87981300  1
  O  O84  1  0.70186800  0.24893500  0.52287400  1
  O  O85  1  0.29200400  0.74829500  0.47576600  1
  O  O86  1  0.64132900  0.19412200  0.27192100  1
  O  O87  1  0.36332700  0.80541900  0.72647200  1
  O  O88  1  0.42502900  0.23441700  0.37030100  1
  O  O89  1  0.57465100  0.76420400  0.62946700  1
  O  O90  1  0.58201000  0.43932600  0.90608700  1
  O  O91  1  0.41739700  0.56250200  0.09462400  1
  O  O92  1  0.81060900  0.34404600  0.77950400  1
  O  O93  1  0.19406800  0.65810500  0.22257300  1
  O  O94  1  0.92503000  0.09806400  0.23537800  1
  O  O95  1  0.07385000  0.90252800  0.76454200  1
  O  O96  1  0.21725400  0.32654100  0.49879000  1
  O  O97  1  0.78557400  0.67305900  0.50091200  1
  O  O98  1  0.80470400  0.10310600  0.66120600  1
  O  O99  1  0.19632000  0.89931500  0.34036200  1
  O  O100  1  0.50306400  0.99968300  0.99185800  1
  O  O101  1  0.00986300  0.18760700  0.93731300  1
  O  O102  1  0.99095300  0.81162600  0.06323000  1
  O  O103  1  0.60924400  0.19631000  0.77324500  1
  O  O104  1  0.39473400  0.80687800  0.22983000  1
  O  O105  1  0.52540300  0.09845700  0.50321800  1
  O  O106  1  0.47211200  0.89694800  0.49842500  1
  O  O107  1  0.30682100  0.40187500  0.75372400  1
  O  O108  1  0.69329400  0.59862300  0.24609900  1
