# generated using pymatgen
data_GdFe10Mo2N
_symmetry_space_group_name_H-M   'P 1'
_cell_length_a   4.79289700
_cell_length_b   6.56255202
_cell_length_c   6.56255202
_cell_angle_alpha   98.24006711
_cell_angle_beta   111.41805341
_cell_angle_gamma   68.58194659
_symmetry_Int_Tables_number   1
_chemical_formula_structural   GdFe10Mo2N
_chemical_formula_sum   'Gd1 Fe10 Mo2 N1'
_cell_volume   178.87884920
_cell_formula_units_Z   1
loop_
 _symmetry_equiv_pos_site_id
 _symmetry_equiv_pos_as_xyz
  1  'x, y, z'
loop_
 _atom_site_type_symbol
 _atom_site_label
 _atom_site_symmetry_multiplicity
 _atom_site_fract_x
 _atom_site_fract_y
 _atom_site_fract_z
 _atom_site_occupancy
  Gd  Gd0  1  0.00000000  0.00000000  0.00000000  1
  Fe  Fe1  1  0.72016800  0.77983200  0.22016800  1
  Fe  Fe2  1  0.27983200  0.22016800  0.77983200  1
  Fe  Fe3  1  0.50000000  0.77817600  0.77817600  1
  Fe  Fe4  1  0.50000000  0.22182400  0.22182400  1
  Fe  Fe5  1  0.50000000  0.00000000  0.50000000  1
  Fe  Fe6  1  0.00000000  0.00000000  0.50000000  1
  Fe  Fe7  1  0.50000000  0.50000000  0.00000000  1
  Fe  Fe8  1  0.00000000  0.50000000  0.00000000  1
  Fe  Fe9  1  0.63984500  0.36015500  0.63984500  1
  Fe  Fe10  1  0.36015500  0.63984500  0.36015500  1
  Mo  Mo11  1  0.00000000  0.35737400  0.35737400  1
  Mo  Mo12  1  0.00000000  0.64262600  0.64262600  1
  N  N13  1  0.50000000  0.00000000  0.00000000  1
