# generated using pymatgen
data_Cr7Cd3(InS8)2
_symmetry_space_group_name_H-M   'P 1'
_cell_length_a   7.32668700
_cell_length_b   7.42964200
_cell_length_c   10.44049230
_cell_angle_alpha   88.80985926
_cell_angle_beta   90.00000000
_cell_angle_gamma   90.00000000
_symmetry_Int_Tables_number   1
_chemical_formula_structural   Cr7Cd3(InS8)2
_chemical_formula_sum   'Cr7 Cd3 In2 S16'
_cell_volume   568.20206060
_cell_formula_units_Z   1
loop_
 _symmetry_equiv_pos_site_id
 _symmetry_equiv_pos_as_xyz
  1  'x, y, z'
loop_
 _atom_site_type_symbol
 _atom_site_label
 _atom_site_symmetry_multiplicity
 _atom_site_fract_x
 _atom_site_fract_y
 _atom_site_fract_z
 _atom_site_occupancy
  Cr  Cr0  1  0.50000000  0.24810400  0.87456300  1
  Cr  Cr1  1  0.74696900  0.74932800  0.75221400  1
  Cr  Cr2  1  0.25195700  0.25067100  0.24714700  1
  Cr  Cr3  1  0.25303100  0.74932800  0.75221400  1
  Cr  Cr4  1  0.74804300  0.25067100  0.24714700  1
  Cr  Cr5  1  0.00000000  0.49860000  0.99840800  1
  Cr  Cr6  1  0.50000000  0.00117000  0.50201000  1
  Cd  Cd7  1  0.00000000  0.25311000  0.62735200  1
  Cd  Cd8  1  0.50000000  0.75349500  0.12603800  1
  Cd  Cd9  1  0.00000000  0.74689800  0.37373900  1
  In  In10  1  0.00000000  0.00219700  0.99881100  1
  In  In11  1  0.50000000  0.49842200  0.50187100  1
  S  S12  1  0.72852500  0.23296800  0.47972100  1
  S  S13  1  0.22721300  0.73332100  0.98112400  1
  S  S14  1  0.27147500  0.23296800  0.47972100  1
  S  S15  1  0.77278700  0.73332100  0.98112400  1
  S  S16  1  0.00000000  0.96007500  0.75226200  1
  S  S17  1  0.50000000  0.46149900  0.25281800  1
  S  S18  1  0.00000000  0.53229600  0.76586500  1
  S  S19  1  0.50000000  0.03135800  0.26603500  1
  S  S20  1  0.27363300  0.76632700  0.52135100  1
  S  S21  1  0.75900600  0.26726500  0.01183800  1
  S  S22  1  0.72636700  0.76632700  0.52135100  1
  S  S23  1  0.24099400  0.26726500  0.01183800  1
  S  S24  1  0.00000000  0.04011200  0.24530800  1
  S  S25  1  0.50000000  0.52509400  0.75531100  1
  S  S26  1  0.00000000  0.46731900  0.23209400  1
  S  S27  1  0.50000000  0.98048800  0.74072300  1
