# generated using pymatgen
data_Cu2HgI4
_symmetry_space_group_name_H-M   'P 1'
_cell_length_a   20.06987095
_cell_length_b   20.06987095
_cell_length_c   8.15492000
_cell_angle_alpha   90.00000000
_cell_angle_beta   90.00000000
_cell_angle_gamma   119.99690442
_symmetry_Int_Tables_number   1
_chemical_formula_structural   Cu2HgI4
_chemical_formula_sum   'Cu2 Hg1 I4'
_cell_volume   2844.80853686
_cell_formula_units_Z   1
loop_
 _symmetry_equiv_pos_site_id
 _symmetry_equiv_pos_as_xyz
  1  'x, y, z'
loop_
 _atom_site_type_symbol
 _atom_site_label
 _atom_site_symmetry_multiplicity
 _atom_site_fract_x
 _atom_site_fract_y
 _atom_site_fract_z
 _atom_site_occupancy
  Cu  Cu0  1  0.00000000  0.50000000  0.00000000  1
  Cu  Cu1  1  0.50000000  0.00000000  0.00000000  1
  Hg  Hg2  1  0.50000000  0.50000000  0.00000000  1
  I  I3  1  0.66664900  0.33335100  0.83593000  1
  I  I4  1  0.33335100  0.66664900  0.83593000  1
  I  I5  1  0.33335100  0.66664900  0.16407000  1
  I  I6  1  0.66664900  0.33335100  0.16407000  1
