# generated using pymatgen
data_Eu(GaGe2)2
_symmetry_space_group_name_H-M   'P 1'
_cell_length_a   5.97070760
_cell_length_b   5.97070760
_cell_length_c   13.02686500
_cell_angle_alpha   90.00000000
_cell_angle_beta   90.00000000
_cell_angle_gamma   136.87322931
_symmetry_Int_Tables_number   1
_chemical_formula_structural   Eu(GaGe2)2
_chemical_formula_sum   'Eu2 Ga4 Ge8'
_cell_volume   317.47023423
_cell_formula_units_Z   2
loop_
 _symmetry_equiv_pos_site_id
 _symmetry_equiv_pos_as_xyz
  1  'x, y, z'
loop_
 _atom_site_type_symbol
 _atom_site_label
 _atom_site_symmetry_multiplicity
 _atom_site_fract_x
 _atom_site_fract_y
 _atom_site_fract_z
 _atom_site_occupancy
  Eu  Eu0  1  0.79226400  0.20773600  0.25000000  1
  Eu  Eu1  1  0.20773600  0.79226400  0.75000000  1
  Ga  Ga2  1  0.06305800  0.93694200  0.15442100  1
  Ga  Ga3  1  0.93694200  0.06305800  0.84557900  1
  Ga  Ga4  1  0.06305800  0.93694200  0.34557900  1
  Ga  Ga5  1  0.93694200  0.06305800  0.65442100  1
  Ge  Ge6  1  0.25195600  0.74804400  0.04984300  1
  Ge  Ge7  1  0.74804400  0.25195600  0.95015700  1
  Ge  Ge8  1  0.25195600  0.74804400  0.45015700  1
  Ge  Ge9  1  0.74804400  0.25195600  0.54984300  1
  Ge  Ge10  1  0.47407000  0.52593000  0.09459500  1
  Ge  Ge11  1  0.52593000  0.47407000  0.90540500  1
  Ge  Ge12  1  0.47407000  0.52593000  0.40540500  1
  Ge  Ge13  1  0.52593000  0.47407000  0.59459500  1
