# generated using pymatgen
data_Co7Ge4
_symmetry_space_group_name_H-M   'P 1'
_cell_length_a   3.98980793
_cell_length_b   3.98980793
_cell_length_c   9.91480800
_cell_angle_alpha   90.00000000
_cell_angle_beta   90.00000000
_cell_angle_gamma   119.99999879
_symmetry_Int_Tables_number   1
_chemical_formula_structural   Co7Ge4
_chemical_formula_sum   'Co7 Ge4'
_cell_volume   136.68439136
_cell_formula_units_Z   1
loop_
 _symmetry_equiv_pos_site_id
 _symmetry_equiv_pos_as_xyz
  1  'x, y, z'
loop_
 _atom_site_type_symbol
 _atom_site_label
 _atom_site_symmetry_multiplicity
 _atom_site_fract_x
 _atom_site_fract_y
 _atom_site_fract_z
 _atom_site_occupancy
  Co  Co0  1  0.00000000  0.00000000  0.88003000  1
  Co  Co1  1  0.00000000  0.00000000  0.37430000  1
  Co  Co2  1  0.00000000  0.00000000  0.11997000  1
  Co  Co3  1  0.00000000  0.00000000  0.62570000  1
  Co  Co4  1  0.66666700  0.33333300  0.50000000  1
  Co  Co5  1  0.33333300  0.66666700  0.75637900  1
  Co  Co6  1  0.33333300  0.66666700  0.24362100  1
  Ge  Ge7  1  0.66666700  0.33333300  0.75066600  1
  Ge  Ge8  1  0.66666700  0.33333300  0.24933400  1
  Ge  Ge9  1  0.33333300  0.66666700  0.00000000  1
  Ge  Ge10  1  0.33333300  0.66666700  0.50000000  1
