# generated using pymatgen
data_Cr(ReO3)2
_symmetry_space_group_name_H-M   'P 1'
_cell_length_a   6.77726142
_cell_length_b   6.77729961
_cell_length_c   9.75198642
_cell_angle_alpha   69.67189424
_cell_angle_beta   69.67129381
_cell_angle_gamma   89.99704671
_symmetry_Int_Tables_number   1
_chemical_formula_structural   Cr(ReO3)2
_chemical_formula_sum   'Cr4 Re8 O24'
_cell_volume   390.14076784
_cell_formula_units_Z   4
loop_
 _symmetry_equiv_pos_site_id
 _symmetry_equiv_pos_as_xyz
  1  'x, y, z'
loop_
 _atom_site_type_symbol
 _atom_site_label
 _atom_site_symmetry_multiplicity
 _atom_site_fract_x
 _atom_site_fract_y
 _atom_site_fract_z
 _atom_site_occupancy
  Cr  Cr0  1  0.41668700  0.91666100  0.16665100  1
  Cr  Cr1  1  0.16665000  0.16668500  0.66665600  1
  Cr  Cr2  1  0.91668800  0.41665900  0.16665000  1
  Cr  Cr3  1  0.66666600  0.66668800  0.66664300  1
  Re  Re4  1  0.24282500  0.74286400  0.51425300  1
  Re  Re5  1  0.74282300  0.24286600  0.51425100  1
  Re  Re6  1  0.09089200  0.59091600  0.81823800  1
  Re  Re7  1  0.59090200  0.09091700  0.81822400  1
  Re  Re8  1  0.49285600  0.49282600  0.01424300  1
  Re  Re9  1  0.99286000  0.99283400  0.01423100  1
  Re  Re10  1  0.34092400  0.34090600  0.31824400  1
  Re  Re11  1  0.84092400  0.84091000  0.31823400  1
  O  O12  1  0.69681400  0.91666600  0.16683900  1
  O  O13  1  0.19682600  0.41667500  0.16683500  1
  O  O14  1  0.13638600  0.91653200  0.16681800  1
  O  O15  1  0.63637200  0.41652000  0.16682000  1
  O  O16  1  0.16653000  0.88641500  0.66679400  1
  O  O17  1  0.66653300  0.38638800  0.66682300  1
  O  O18  1  0.16667000  0.44680300  0.66681000  1
  O  O19  1  0.66664900  0.94679800  0.66683700  1
  O  O20  1  0.54880600  0.75229700  0.49522600  1
  O  O21  1  0.04880300  0.25229800  0.49524100  1
  O  O22  1  0.37695100  0.58075100  0.83843400  1
  O  O23  1  0.87693000  0.08074900  0.83843100  1
  O  O24  1  0.95602200  0.75243200  0.49517900  1
  O  O25  1  0.45599300  0.25242000  0.49519700  1
  O  O26  1  0.78469600  0.58080200  0.83836800  1
  O  O27  1  0.28471800  0.08080400  0.83836500  1
  O  O28  1  0.33078800  0.03465300  0.33838900  1
  O  O29  1  0.83079400  0.53470200  0.33837300  1
  O  O30  1  0.00244800  0.70602600  0.99517600  1
  O  O31  1  0.50245400  0.20600000  0.99516700  1
  O  O32  1  0.00232400  0.29881000  0.99522500  1
  O  O33  1  0.50232300  0.79884100  0.99521400  1
  O  O34  1  0.33073300  0.62696000  0.33847100  1
  O  O35  1  0.83074200  0.12693200  0.33845100  1
