# generated using pymatgen
data_CrAu
_symmetry_space_group_name_H-M   'P 1'
_cell_length_a   4.68590864
_cell_length_b   4.68590864
_cell_length_c   4.68590874
_cell_angle_alpha   36.82364046
_cell_angle_beta   36.82364046
_cell_angle_gamma   36.82364542
_symmetry_Int_Tables_number   1
_chemical_formula_structural   CrAu
_chemical_formula_sum   'Cr1 Au1'
_cell_volume   33.10750400
_cell_formula_units_Z   1
loop_
 _symmetry_equiv_pos_site_id
 _symmetry_equiv_pos_as_xyz
  1  'x, y, z'
loop_
 _atom_site_type_symbol
 _atom_site_label
 _atom_site_symmetry_multiplicity
 _atom_site_fract_x
 _atom_site_fract_y
 _atom_site_fract_z
 _atom_site_occupancy
  Cr  Cr0  1  0.50000000  0.50000000  0.50000000  1
  Au  Au1  1  0.00000000  0.00000000  0.00000000  1
