# generated using pymatgen
data_Cr9FeB6
_symmetry_space_group_name_H-M   'P 1'
_cell_length_a   6.29976196
_cell_length_b   6.29976196
_cell_length_c   6.29976196
_cell_angle_alpha   129.40285320
_cell_angle_beta   129.40285320
_cell_angle_gamma   74.36322383
_symmetry_Int_Tables_number   1
_chemical_formula_structural   Cr9FeB6
_chemical_formula_sum   'Cr9 Fe1 B6'
_cell_volume   145.50499707
_cell_formula_units_Z   1
loop_
 _symmetry_equiv_pos_site_id
 _symmetry_equiv_pos_as_xyz
  1  'x, y, z'
loop_
 _atom_site_type_symbol
 _atom_site_label
 _atom_site_symmetry_multiplicity
 _atom_site_fract_x
 _atom_site_fract_y
 _atom_site_fract_z
 _atom_site_occupancy
  Cr  Cr0  1  0.52152700  0.02503200  0.84217600  1
  Cr  Cr1  1  0.18285600  0.67935100  0.15782400  1
  Cr  Cr2  1  0.02503200  0.18285600  0.50350500  1
  Cr  Cr3  1  0.67935100  0.52152700  0.49649500  1
  Cr  Cr4  1  0.47847300  0.97496800  0.15782400  1
  Cr  Cr5  1  0.81714400  0.32064900  0.84217600  1
  Cr  Cr6  1  0.97496800  0.81714400  0.49649500  1
  Cr  Cr7  1  0.32064900  0.47847300  0.50350500  1
  Cr  Cr8  1  0.50000000  0.50000000  0.00000000  1
  Fe  Fe9  1  0.00000000  0.00000000  0.00000000  1
  B  B10  1  0.88434200  0.37637300  0.26071500  1
  B  B11  1  0.11565800  0.62362700  0.73928500  1
  B  B12  1  0.37637300  0.11565800  0.49203200  1
  B  B13  1  0.62362700  0.88434200  0.50796800  1
  B  B14  1  0.25121600  0.25121600  0.00000000  1
  B  B15  1  0.74878400  0.74878400  0.00000000  1
