# generated using pymatgen
data_DyFe5Bi4O15
_symmetry_space_group_name_H-M   'P 1'
_cell_length_a   5.60474800
_cell_length_b   5.69507802
_cell_length_c   20.29924461
_cell_angle_alpha   96.74271722
_cell_angle_beta   97.93469689
_cell_angle_gamma   89.99500995
_symmetry_Int_Tables_number   1
_chemical_formula_structural   DyFe5Bi4O15
_chemical_formula_sum   'Dy2 Fe10 Bi8 O30'
_cell_volume   637.21365899
_cell_formula_units_Z   2
loop_
 _symmetry_equiv_pos_site_id
 _symmetry_equiv_pos_as_xyz
  1  'x, y, z'
loop_
 _atom_site_type_symbol
 _atom_site_label
 _atom_site_symmetry_multiplicity
 _atom_site_fract_x
 _atom_site_fract_y
 _atom_site_fract_z
 _atom_site_occupancy
  Dy  Dy0  1  0.54866900  0.99472000  0.08989800  1
  Dy  Dy1  1  0.94656400  0.40102700  0.89176500  1
  Fe  Fe2  1  0.90377100  0.91112600  0.80454800  1
  Fe  Fe3  1  0.30141100  0.30756400  0.60183800  1
  Fe  Fe4  1  0.69943900  0.70690400  0.39983300  1
  Fe  Fe5  1  0.09892300  0.11008400  0.19884000  1
  Fe  Fe6  1  0.50072000  0.50564800  0.00207800  1
  Fe  Fe7  1  0.00325800  0.00395600  0.00138700  1
  Fe  Fe8  1  0.39958000  0.40528900  0.80402900  1
  Fe  Fe9  1  0.80126900  0.80695600  0.60182000  1
  Fe  Fe10  1  0.19922600  0.20596000  0.39999300  1
  Fe  Fe11  1  0.59870900  0.61024600  0.19920200  1
  Bi  Bi12  1  0.44872200  0.90008600  0.89234400  1
  Bi  Bi13  1  0.84783400  0.29538700  0.69182000  1
  Bi  Bi14  1  0.24664100  0.69176200  0.49012300  1
  Bi  Bi15  1  0.64391800  0.09896700  0.28902500  1
  Bi  Bi16  1  0.04149400  0.49964700  0.08874700  1
  Bi  Bi17  1  0.34655800  0.79675500  0.69142200  1
  Bi  Bi18  1  0.74284500  0.19190900  0.49017000  1
  Bi  Bi19  1  0.14158800  0.59715300  0.28917400  1
  O  O20  1  0.40412300  0.93570200  0.18761000  1
  O  O21  1  0.81104300  0.33187500  0.98982100  1
  O  O22  1  0.20903200  0.72856400  0.79605800  1
  O  O23  1  0.59461500  0.11628700  0.59430500  1
  O  O24  1  0.99830500  0.52291900  0.39250400  1
  O  O25  1  0.94725200  0.10509600  0.10355500  1
  O  O26  1  0.34980100  0.49526000  0.90715500  1
  O  O27  1  0.77640000  0.90007600  0.70669700  1
  O  O28  1  0.17341800  0.30094300  0.50383500  1
  O  O29  1  0.57157400  0.70726000  0.30217600  1
  O  O30  1  0.88700100  0.86379400  0.22291400  1
  O  O31  1  0.30727200  0.24647300  0.03214700  1
  O  O32  1  0.70557700  0.65235200  0.83370800  1
  O  O33  1  0.08518700  0.06369000  0.62566700  1
  O  O34  1  0.48782400  0.45843000  0.42352300  1
  O  O35  1  0.22852600  0.20160800  0.30258000  1
  O  O36  1  0.63348500  0.59610400  0.10378500  1
  O  O37  1  0.03701400  0.00291300  0.90630000  1
  O  O38  1  0.43169900  0.40578100  0.70696300  1
  O  O39  1  0.83023200  0.80079900  0.50379400  1
  O  O40  1  0.29367000  0.42547900  0.19279700  1
  O  O41  1  0.69845000  0.81796700  0.99456100  1
  O  O42  1  0.08682600  0.22888200  0.79484900  1
  O  O43  1  0.49873000  0.61726700  0.59415300  1
  O  O44  1  0.89204300  0.02371900  0.39258400  1
  O  O45  1  0.83587100  0.36381500  0.22443800  1
  O  O46  1  0.23609400  0.75471200  0.02660500  1
  O  O47  1  0.63225500  0.15670200  0.82844500  1
  O  O48  1  0.04095000  0.56325700  0.62582600  1
  O  O49  1  0.43526400  0.95849800  0.42392900  1
