# generated using pymatgen
data_NaMg2Fe3P4(H9O13)2
_symmetry_space_group_name_H-M   'P 1'
_cell_length_a   13.26476900
_cell_length_b   9.54239900
_cell_length_c   12.65444256
_cell_angle_alpha   55.49257837
_cell_angle_beta   90.00000000
_cell_angle_gamma   90.00000000
_symmetry_Int_Tables_number   1
_chemical_formula_structural   NaMg2Fe3P4(H9O13)2
_chemical_formula_sum   'Na2 Mg4 Fe6 P8 H36 O52'
_cell_volume   1319.94346088
_cell_formula_units_Z   2
loop_
 _symmetry_equiv_pos_site_id
 _symmetry_equiv_pos_as_xyz
  1  'x, y, z'
loop_
 _atom_site_type_symbol
 _atom_site_label
 _atom_site_symmetry_multiplicity
 _atom_site_fract_x
 _atom_site_fract_y
 _atom_site_fract_z
 _atom_site_occupancy
  Na  Na0  1  0.86287800  0.00000000  0.75000000  1
  Na  Na1  1  0.13712200  0.00000000  0.25000000  1
  Mg  Mg2  1  0.00000000  0.50000000  0.00000000  1
  Mg  Mg3  1  0.00000000  0.50000000  0.50000000  1
  Mg  Mg4  1  0.47972900  0.50000000  0.25000000  1
  Mg  Mg5  1  0.52027100  0.50000000  0.75000000  1
  Fe  Fe6  1  0.00000000  0.00000000  0.00000000  1
  Fe  Fe7  1  0.00000000  0.00000000  0.50000000  1
  Fe  Fe8  1  0.40530600  0.00000000  0.25000000  1
  Fe  Fe9  1  0.50000000  0.00000000  0.50000000  1
  Fe  Fe10  1  0.50000000  0.00000000  0.00000000  1
  Fe  Fe11  1  0.59469400  0.00000000  0.75000000  1
  P  P12  1  0.67553300  0.71280400  0.04871000  1
  P  P13  1  0.67553300  0.28719600  0.45129000  1
  P  P14  1  0.71211900  0.05600200  0.36818500  1
  P  P15  1  0.71211900  0.94399800  0.13181500  1
  P  P16  1  0.28788100  0.05600200  0.86818500  1
  P  P17  1  0.28788100  0.94399800  0.63181500  1
  P  P18  1  0.32446700  0.71280400  0.54871000  1
  P  P19  1  0.32446700  0.28719600  0.95129000  1
  H  H20  1  0.10203700  0.56873700  0.80610200  1
  H  H21  1  0.10203700  0.43126300  0.69389800  1
  H  H22  1  0.25402200  0.57778300  0.60761300  1
  H  H23  1  0.25402200  0.42221700  0.89238700  1
  H  H24  1  0.65358600  0.16690100  0.84089700  1
  H  H25  1  0.65358600  0.83309900  0.65910300  1
  H  H26  1  0.24654900  0.17327300  0.66385400  1
  H  H27  1  0.24654900  0.82672700  0.83614600  1
  H  H28  1  0.29670300  0.53075900  0.32423800  1
  H  H29  1  0.29670300  0.46924100  0.17576200  1
  H  H30  1  0.87301200  0.16878900  0.03886300  1
  H  H31  1  0.87301200  0.83121100  0.46113700  1
  H  H32  1  0.62609300  0.60951100  0.87521700  1
  H  H33  1  0.62609300  0.39048900  0.62478300  1
  H  H34  1  0.93903600  0.19256300  0.17672200  1
  H  H35  1  0.93903600  0.80743700  0.32327800  1
  H  H36  1  0.90430200  0.76060600  0.69020800  1
  H  H37  1  0.90430200  0.23939400  0.80979200  1
  H  H38  1  0.09569800  0.76060600  0.19020800  1
  H  H39  1  0.09569800  0.23939400  0.30979200  1
  H  H40  1  0.06096400  0.19256300  0.67672200  1
  H  H41  1  0.06096400  0.80743700  0.82327800  1
  H  H42  1  0.37390700  0.60951100  0.37521700  1
  H  H43  1  0.37390700  0.39048900  0.12478300  1
  H  H44  1  0.12698800  0.16878900  0.53886300  1
  H  H45  1  0.12698800  0.83121100  0.96113700  1
  H  H46  1  0.70329700  0.53075900  0.82423800  1
  H  H47  1  0.70329700  0.46924100  0.67576200  1
  H  H48  1  0.75345100  0.17327300  0.16385400  1
  H  H49  1  0.75345100  0.82672700  0.33614600  1
  H  H50  1  0.34641400  0.16690100  0.34089700  1
  H  H51  1  0.34641400  0.83309900  0.15910300  1
  H  H52  1  0.74597800  0.57778300  0.10761300  1
  H  H53  1  0.74597800  0.42221700  0.39238700  1
  H  H54  1  0.89796300  0.56873700  0.30610200  1
  H  H55  1  0.89796300  0.43126300  0.19389800  1
  O  O56  1  0.94819600  0.20692600  0.01268900  1
  O  O57  1  0.94819600  0.79307400  0.48731100  1
  O  O58  1  0.26450200  0.85844100  0.55443300  1
  O  O59  1  0.26450200  0.14155900  0.94556700  1
  O  O60  1  0.07128900  0.12619000  0.33912100  1
  O  O61  1  0.07128900  0.87381000  0.16087900  1
  O  O62  1  0.23921100  0.19362100  0.73383200  1
  O  O63  1  0.23921100  0.80637900  0.76616800  1
  O  O64  1  0.76874200  0.88761900  0.43423500  1
  O  O65  1  0.76874200  0.11238100  0.06576500  1
  O  O66  1  0.89598500  0.49524900  0.39899100  1
  O  O67  1  0.89598500  0.50475100  0.10100900  1
  O  O68  1  0.42482900  0.67404400  0.61932000  1
  O  O69  1  0.42482900  0.32595600  0.88068000  1
  O  O70  1  0.40712300  0.89460600  0.15232900  1
  O  O71  1  0.40712300  0.10539400  0.34767100  1
  O  O72  1  0.81167000  0.46608300  0.71558500  1
  O  O73  1  0.81167000  0.53391700  0.78441500  1
  O  O74  1  0.66690700  0.22184700  0.59241000  1
  O  O75  1  0.66690700  0.77815300  0.90759000  1
  O  O76  1  0.99482700  0.21460500  0.11727200  1
  O  O77  1  0.99482700  0.78539500  0.38272800  1
  O  O78  1  0.60045900  0.96579100  0.13906500  1
  O  O79  1  0.60045900  0.03420900  0.36093500  1
  O  O80  1  0.62720400  0.46630500  0.65423300  1
  O  O81  1  0.62720400  0.53369500  0.84576700  1
  O  O82  1  0.37279600  0.46630500  0.15423300  1
  O  O83  1  0.37279600  0.53369500  0.34576700  1
  O  O84  1  0.39954100  0.96579100  0.63906500  1
  O  O85  1  0.39954100  0.03420900  0.86093500  1
  O  O86  1  0.00517300  0.21460500  0.61727200  1
  O  O87  1  0.00517300  0.78539500  0.88272800  1
  O  O88  1  0.33309300  0.22184700  0.09241000  1
  O  O89  1  0.33309300  0.77815300  0.40759000  1
  O  O90  1  0.18833000  0.46608300  0.21558500  1
  O  O91  1  0.18833000  0.53391700  0.28441500  1
  O  O92  1  0.59287700  0.89460600  0.65232900  1
  O  O93  1  0.59287700  0.10539400  0.84767100  1
  O  O94  1  0.57517100  0.67404400  0.11932000  1
  O  O95  1  0.57517100  0.32595600  0.38068000  1
  O  O96  1  0.10401500  0.49524900  0.89899100  1
  O  O97  1  0.10401500  0.50475100  0.60100900  1
  O  O98  1  0.23125800  0.88761900  0.93423500  1
  O  O99  1  0.23125800  0.11238100  0.56576500  1
  O  O100  1  0.76078900  0.19362100  0.23383200  1
  O  O101  1  0.76078900  0.80637900  0.26616800  1
  O  O102  1  0.92871100  0.12619000  0.83912100  1
  O  O103  1  0.92871100  0.87381000  0.66087900  1
  O  O104  1  0.73549800  0.85844100  0.05443300  1
  O  O105  1  0.73549800  0.14155900  0.44556700  1
  O  O106  1  0.05180400  0.20692600  0.51268900  1
  O  O107  1  0.05180400  0.79307400  0.98731100  1
