# generated using pymatgen
data_CrIr3
_symmetry_space_group_name_H-M   'P 1'
_cell_length_a   8.94432096
_cell_length_b   8.94432096
_cell_length_c   8.94432112
_cell_angle_alpha   17.40081405
_cell_angle_beta   17.40081405
_cell_angle_gamma   17.40081232
_symmetry_Int_Tables_number   1
_chemical_formula_structural   CrIr3
_chemical_formula_sum   'Cr1 Ir3'
_cell_volume   55.84673417
_cell_formula_units_Z   1
loop_
 _symmetry_equiv_pos_site_id
 _symmetry_equiv_pos_as_xyz
  1  'x, y, z'
loop_
 _atom_site_type_symbol
 _atom_site_label
 _atom_site_symmetry_multiplicity
 _atom_site_fract_x
 _atom_site_fract_y
 _atom_site_fract_z
 _atom_site_occupancy
  Cr  Cr0  1  0.00000000  0.00000000  0.00000000  1
  Ir  Ir1  1  0.25448400  0.25448400  0.25448400  1
  Ir  Ir2  1  0.50000000  0.50000000  0.50000000  1
  Ir  Ir3  1  0.74551600  0.74551600  0.74551600  1
