# generated using pymatgen
data_CuH16PtC4N4O11
_symmetry_space_group_name_H-M   'P 1'
_cell_length_a   9.20552694
_cell_length_b   9.20552694
_cell_length_c   7.46208615
_cell_angle_alpha   66.13290555
_cell_angle_beta   66.13290555
_cell_angle_gamma   44.53000695
_symmetry_Int_Tables_number   1
_chemical_formula_structural   CuH16PtC4N4O11
_chemical_formula_sum   'Cu1 H16 Pt1 C4 N4 O11'
_cell_volume   398.82550170
_cell_formula_units_Z   1
loop_
 _symmetry_equiv_pos_site_id
 _symmetry_equiv_pos_as_xyz
  1  'x, y, z'
loop_
 _atom_site_type_symbol
 _atom_site_label
 _atom_site_symmetry_multiplicity
 _atom_site_fract_x
 _atom_site_fract_y
 _atom_site_fract_z
 _atom_site_occupancy
  Cu  Cu0  1  0.53223200  0.46776800  0.50000000  1
  H  H1  1  0.82342000  0.37702900  0.01523000  1
  H  H2  1  0.37900800  0.82291000  0.78397600  1
  H  H3  1  0.62297100  0.17658000  0.98477000  1
  H  H4  1  0.17709000  0.62099200  0.21602400  1
  H  H5  1  0.77829800  0.38958700  0.81199800  1
  H  H6  1  0.39144800  0.77777800  0.01928400  1
  H  H7  1  0.61041300  0.22170200  0.18800200  1
  H  H8  1  0.22222200  0.60855200  0.98071600  1
  H  H9  1  0.78319900  0.82121800  0.79906000  1
  H  H10  1  0.81869600  0.78401500  0.59538100  1
  H  H11  1  0.17878200  0.21680100  0.20094000  1
  H  H12  1  0.21598500  0.18130400  0.40461900  1
  H  H13  1  0.00752700  0.30477900  0.81133400  1
  H  H14  1  0.30432300  0.00798700  0.87698000  1
  H  H15  1  0.69522100  0.99247300  0.18866600  1
  H  H16  1  0.99201300  0.69567700  0.12302000  1
  Pt  Pt17  1  0.00061000  0.99939000  0.00000000  1
  C  C18  1  0.33010500  0.32871100  0.56734000  1
  C  C19  1  0.32568800  0.33299900  0.77414600  1
  C  C20  1  0.67128900  0.66989500  0.43266000  1
  C  C21  1  0.66700100  0.67431200  0.22585400  1
  N  N22  1  0.88929600  0.30242000  0.89901500  1
  N  N23  1  0.30346500  0.88888000  0.90901400  1
  N  N24  1  0.69758000  0.11070400  0.10098500  1
  N  N25  1  0.11112000  0.69653500  0.09098600  1
  O  O26  1  0.40300000  0.40777400  0.41498300  1
  O  O27  1  0.40573000  0.40440200  0.77532600  1
  O  O28  1  0.59222600  0.59700000  0.58501700  1
  O  O29  1  0.59559800  0.59427000  0.22467400  1
  O  O30  1  0.85406200  0.82639800  0.66053200  1
  O  O31  1  0.17360200  0.14593800  0.33946800  1
  O  O32  1  0.26155400  0.25520800  0.55873000  1
  O  O33  1  0.24610800  0.27016500  0.92392100  1
  O  O34  1  0.74479200  0.73844600  0.44127000  1
  O  O35  1  0.72983500  0.75389200  0.07607900  1
  O  O36  1  0.79999400  0.20000600  0.50000000  1
