# generated using pymatgen
data_Cr2SbAs
_symmetry_space_group_name_H-M   'P 1'
_cell_length_a   3.81247508
_cell_length_b   3.81247508
_cell_length_c   5.87213600
_cell_angle_alpha   90.00000000
_cell_angle_beta   90.00000000
_cell_angle_gamma   119.99998396
_symmetry_Int_Tables_number   1
_chemical_formula_structural   Cr2SbAs
_chemical_formula_sum   'Cr2 Sb1 As1'
_cell_volume   73.91640452
_cell_formula_units_Z   1
loop_
 _symmetry_equiv_pos_site_id
 _symmetry_equiv_pos_as_xyz
  1  'x, y, z'
loop_
 _atom_site_type_symbol
 _atom_site_label
 _atom_site_symmetry_multiplicity
 _atom_site_fract_x
 _atom_site_fract_y
 _atom_site_fract_z
 _atom_site_occupancy
  Cr  Cr0  1  0.00000000  0.00000000  0.73390000  1
  Cr  Cr1  1  0.00000000  0.00000000  0.26610000  1
  Sb  Sb2  1  0.33333300  0.66666700  0.00000000  1
  As  As3  1  0.66666700  0.33333300  0.50000000  1
