# generated using pymatgen
data_Dy2MnCoO6
_symmetry_space_group_name_H-M   'P 1'
_cell_length_a   3.77657611
_cell_length_b   5.74227200
_cell_length_c   12.26915550
_cell_angle_alpha   90.00000000
_cell_angle_beta   98.95963877
_cell_angle_gamma   90.00000000
_symmetry_Int_Tables_number   1
_chemical_formula_structural   Dy2MnCoO6
_chemical_formula_sum   'Dy4 Mn2 Co2 O12'
_cell_volume   262.82395389
_cell_formula_units_Z   2
loop_
 _symmetry_equiv_pos_site_id
 _symmetry_equiv_pos_as_xyz
  1  'x, y, z'
loop_
 _atom_site_type_symbol
 _atom_site_label
 _atom_site_symmetry_multiplicity
 _atom_site_fract_x
 _atom_site_fract_y
 _atom_site_fract_z
 _atom_site_occupancy
  Dy  Dy0  1  0.58096700  0.64037200  0.24040800  1
  Dy  Dy1  1  0.91903300  0.14037200  0.25959200  1
  Dy  Dy2  1  0.41903300  0.35962800  0.75959200  1
  Dy  Dy3  1  0.08096700  0.85962800  0.74040800  1
  Mn  Mn4  1  0.50000000  0.50000000  0.50000000  1
  Mn  Mn5  1  0.00000000  0.00000000  0.00000000  1
  Co  Co6  1  0.50000000  0.50000000  0.00000000  1
  Co  Co7  1  0.00000000  0.00000000  0.50000000  1
  O  O8  1  0.77918700  0.73687200  0.07462000  1
  O  O9  1  0.72081300  0.23687200  0.42538000  1
  O  O10  1  0.26562800  0.24092300  0.58097600  1
  O  O11  1  0.23437200  0.74092300  0.91902400  1
  O  O12  1  0.22081300  0.26312800  0.92538000  1
  O  O13  1  0.27918700  0.76312800  0.57462000  1
  O  O14  1  0.73437200  0.75907700  0.41902400  1
  O  O15  1  0.76562800  0.25907700  0.08097600  1
  O  O16  1  0.37324600  0.98006800  0.21680300  1
  O  O17  1  0.12675400  0.48006800  0.28319700  1
  O  O18  1  0.62675400  0.01993200  0.78319700  1
  O  O19  1  0.87324600  0.51993200  0.71680300  1
