# generated using pymatgen
data_Cr4CoNiS8
_symmetry_space_group_name_H-M   'P 1'
_cell_length_a   6.89400262
_cell_length_b   6.89400262
_cell_length_c   6.89400262
_cell_angle_alpha   60.00000000
_cell_angle_beta   60.00000000
_cell_angle_gamma   60.00000000
_symmetry_Int_Tables_number   1
_chemical_formula_structural   Cr4CoNiS8
_chemical_formula_sum   'Cr4 Co1 Ni1 S8'
_cell_volume   231.68575584
_cell_formula_units_Z   1
loop_
 _symmetry_equiv_pos_site_id
 _symmetry_equiv_pos_as_xyz
  1  'x, y, z'
loop_
 _atom_site_type_symbol
 _atom_site_label
 _atom_site_symmetry_multiplicity
 _atom_site_fract_x
 _atom_site_fract_y
 _atom_site_fract_z
 _atom_site_occupancy
  Cr  Cr0  1  0.62375000  0.12541700  0.12541700  1
  Cr  Cr1  1  0.12541700  0.62375000  0.12541700  1
  Cr  Cr2  1  0.12541700  0.12541700  0.62375000  1
  Cr  Cr3  1  0.12541700  0.12541700  0.12541700  1
  Co  Co4  1  0.75000000  0.75000000  0.75000000  1
  Ni  Ni5  1  0.50000000  0.50000000  0.50000000  1
  S  S6  1  0.35870200  0.88043300  0.88043300  1
  S  S7  1  0.88043300  0.35870200  0.88043300  1
  S  S8  1  0.88043300  0.88043300  0.35870200  1
  S  S9  1  0.88043300  0.88043300  0.88043300  1
  S  S10  1  0.89168600  0.36943800  0.36943800  1
  S  S11  1  0.36943800  0.89168600  0.36943800  1
  S  S12  1  0.36943800  0.36943800  0.89168600  1
  S  S13  1  0.36943800  0.36943800  0.36943800  1
