data_image0
_chemical_formula_structural       Al3Mg3Y3
_chemical_formula_sum              "Al3 Mg3 Y3"
_cell_length_a       7.3697
_cell_length_b       7.3697
_cell_length_c       4.53958
_cell_angle_alpha    90
_cell_angle_beta     90
_cell_angle_gamma    120.001

_space_group_name_H-M_alt    "P 1"
_space_group_IT_number       1

loop_
  _space_group_symop_operation_xyz
  'x, y, z'

loop_
  _atom_site_type_symbol
  _atom_site_label
  _atom_site_symmetry_multiplicity
  _atom_site_fract_x
  _atom_site_fract_y
  _atom_site_fract_z
  _atom_site_occupancy
  Al  Al1       1.0  0.00000  0.00000  0.00000  1.0000
  Al  Al2       1.0  0.66700  0.33300  0.50000  1.0000
  Al  Al3       1.0  0.33300  0.66700  0.50000  1.0000
  Mg  Mg1       1.0  0.24100  0.00000  0.50000  1.0000
  Mg  Mg2       1.0  0.00000  0.24100  0.50000  1.0000
  Mg  Mg3       1.0  0.75900  0.75900  0.50000  1.0000
  Y   Y1        1.0  0.56600  0.00002  0.00000  1.0000
  Y   Y2        1.0  0.43400  0.43400  0.00000  1.0000
  Y   Y3        1.0  0.00002  0.56600  0.00000  1.0000
