# generated using pymatgen
data_CeIrPt
_symmetry_space_group_name_H-M   'P 1'
_cell_length_a   5.43750950
_cell_length_b   5.43750950
_cell_length_c   5.43750950
_cell_angle_alpha   120.75206715
_cell_angle_beta   119.43955621
_cell_angle_gamma   89.83789843
_symmetry_Int_Tables_number   1
_chemical_formula_structural   CeIrPt
_chemical_formula_sum   'Ce2 Ir2 Pt2'
_cell_volume   113.49646399
_cell_formula_units_Z   2
loop_
 _symmetry_equiv_pos_site_id
 _symmetry_equiv_pos_as_xyz
  1  'x, y, z'
loop_
 _atom_site_type_symbol
 _atom_site_label
 _atom_site_symmetry_multiplicity
 _atom_site_fract_x
 _atom_site_fract_y
 _atom_site_fract_z
 _atom_site_occupancy
  Ce  Ce0  1  0.12333200  0.87333200  0.25000000  1
  Ce  Ce1  1  0.87666800  0.12666800  0.75000000  1
  Ir  Ir2  1  0.00000000  0.50000000  0.50000000  1
  Ir  Ir3  1  0.50000000  0.50000000  0.00000000  1
  Pt  Pt4  1  0.50000000  0.00000000  0.00000000  1
  Pt  Pt5  1  0.50000000  0.50000000  0.50000000  1
