# generated using pymatgen
data_CeIrOs
_symmetry_space_group_name_H-M   'P 1'
_cell_length_a   5.45977351
_cell_length_b   5.45977351
_cell_length_c   5.45977351
_cell_angle_alpha   123.97569070
_cell_angle_beta   119.81785526
_cell_angle_gamma   86.78485204
_symmetry_Int_Tables_number   1
_chemical_formula_structural   CeIrOs
_chemical_formula_sum   'Ce2 Ir2 Os2'
_cell_volume   111.39466848
_cell_formula_units_Z   2
loop_
 _symmetry_equiv_pos_site_id
 _symmetry_equiv_pos_as_xyz
  1  'x, y, z'
loop_
 _atom_site_type_symbol
 _atom_site_label
 _atom_site_symmetry_multiplicity
 _atom_site_fract_x
 _atom_site_fract_y
 _atom_site_fract_z
 _atom_site_occupancy
  Ce  Ce0  1  0.12564700  0.87564700  0.25000000  1
  Ce  Ce1  1  0.87435300  0.12435300  0.75000000  1
  Ir  Ir2  1  0.00000000  0.50000000  0.50000000  1
  Ir  Ir3  1  0.50000000  0.50000000  0.00000000  1
  Os  Os4  1  0.50000000  0.00000000  0.00000000  1
  Os  Os5  1  0.50000000  0.50000000  0.50000000  1
