# generated using pymatgen
data_CeSiBRh3
_symmetry_space_group_name_H-M   'P 1'
_cell_length_a   5.53335165
_cell_length_b   5.53335165
_cell_length_c   3.44893200
_cell_angle_alpha   90.00000000
_cell_angle_beta   90.00000000
_cell_angle_gamma   119.99999586
_symmetry_Int_Tables_number   1
_chemical_formula_structural   CeSiBRh3
_chemical_formula_sum   'Ce1 Si1 B1 Rh3'
_cell_volume   91.45170864
_cell_formula_units_Z   1
loop_
 _symmetry_equiv_pos_site_id
 _symmetry_equiv_pos_as_xyz
  1  'x, y, z'
loop_
 _atom_site_type_symbol
 _atom_site_label
 _atom_site_symmetry_multiplicity
 _atom_site_fract_x
 _atom_site_fract_y
 _atom_site_fract_z
 _atom_site_occupancy
  Ce  Ce0  1  0.33333300  0.66666700  0.00000000  1
  Si  Si1  1  0.00000000  0.00000000  0.00000000  1
  B  B2  1  0.66666700  0.33333300  0.00000000  1
  Rh  Rh3  1  0.82718100  0.65436200  0.50000000  1
  Rh  Rh4  1  0.34563800  0.17281900  0.50000000  1
  Rh  Rh5  1  0.82718100  0.17281900  0.50000000  1
