# generated using pymatgen
data_CeTh2O6
_symmetry_space_group_name_H-M   'P 1'
_cell_length_a   3.94422967
_cell_length_b   3.94422967
_cell_length_c   9.63804700
_cell_angle_alpha   90.00000000
_cell_angle_beta   90.00000000
_cell_angle_gamma   119.99999450
_symmetry_Int_Tables_number   1
_chemical_formula_structural   CeTh2O6
_chemical_formula_sum   'Ce1 Th2 O6'
_cell_volume   129.85063790
_cell_formula_units_Z   1
loop_
 _symmetry_equiv_pos_site_id
 _symmetry_equiv_pos_as_xyz
  1  'x, y, z'
loop_
 _atom_site_type_symbol
 _atom_site_label
 _atom_site_symmetry_multiplicity
 _atom_site_fract_x
 _atom_site_fract_y
 _atom_site_fract_z
 _atom_site_occupancy
  Ce  Ce0  1  0.00000000  0.00000000  0.00000000  1
  Th  Th1  1  0.33333300  0.66666700  0.66973200  1
  Th  Th2  1  0.66666700  0.33333300  0.33026800  1
  O  O3  1  0.00000000  0.00000000  0.24551500  1
  O  O4  1  0.33333300  0.66666700  0.92064500  1
  O  O5  1  0.66666700  0.33333300  0.58395400  1
  O  O6  1  0.66666700  0.33333300  0.07935500  1
  O  O7  1  0.00000000  0.00000000  0.75448500  1
  O  O8  1  0.33333300  0.66666700  0.41604600  1
