# generated using pymatgen
data_K2P4PtBrO11
_symmetry_space_group_name_H-M   'P 1'
_cell_length_a   11.60327402
_cell_length_b   10.32972996
_cell_length_c   10.19120762
_cell_angle_alpha   68.86131905
_cell_angle_beta   56.13352788
_cell_angle_gamma   55.00515306
_symmetry_Int_Tables_number   1
_chemical_formula_structural   K2P4PtBrO11
_chemical_formula_sum   'K4 P8 Pt2 Br2 O22'
_cell_volume   829.37406098
_cell_formula_units_Z   2
loop_
 _symmetry_equiv_pos_site_id
 _symmetry_equiv_pos_as_xyz
  1  'x, y, z'
loop_
 _atom_site_type_symbol
 _atom_site_label
 _atom_site_symmetry_multiplicity
 _atom_site_fract_x
 _atom_site_fract_y
 _atom_site_fract_z
 _atom_site_occupancy
  K  K0  1  0.20468500  0.29531500  0.29531500  1
  K  K1  1  0.70468500  0.79531500  0.79531500  1
  K  K2  1  0.69213500  0.72194500  0.30786500  1
  K  K3  1  0.27805500  0.30786500  0.72194500  1
  P  P4  1  0.20375300  0.02621400  0.61204000  1
  P  P5  1  0.55510100  0.14061500  0.29506200  1
  P  P6  1  0.85938500  0.44489900  0.99077800  1
  P  P7  1  0.97378600  0.79624700  0.84200700  1
  P  P8  1  0.70493800  0.99077800  0.44489900  1
  P  P9  1  0.38796000  0.84200700  0.79624700  1
  P  P10  1  0.15799300  0.61204000  0.02621400  1
  P  P11  1  0.00922200  0.29506200  0.14061500  1
  Pt  Pt12  1  0.99054000  0.00946000  0.85053600  1
  Pt  Pt13  1  0.14946400  0.85053600  0.00946000  1
  Br  Br14  1  0.75911700  0.24088300  0.83881200  1
  Br  Br15  1  0.16118800  0.83881200  0.24088300  1
  O  O16  1  0.21233700  0.98809300  0.47871000  1
  O  O17  1  0.48825100  0.31568600  0.25863900  1
  O  O18  1  0.18128600  0.18064500  0.62222500  1
  O  O19  1  0.51539300  0.05442700  0.24871500  1
  O  O20  1  0.94557300  0.48460700  0.81853500  1
  O  O21  1  0.81935500  0.81871400  0.98415600  1
  O  O22  1  0.01190700  0.78766300  0.67914100  1
  O  O23  1  0.68431400  0.51174900  0.06257600  1
  O  O24  1  0.74136100  0.06257600  0.51174900  1
  O  O25  1  0.52129000  0.67914100  0.78766300  1
  O  O26  1  0.75128500  0.81853500  0.48460700  1
  O  O27  1  0.37777500  0.98415600  0.81871400  1
  O  O28  1  0.01584400  0.62222500  0.18064500  1
  O  O29  1  0.18146500  0.24871500  0.05442700  1
  O  O30  1  0.93742400  0.25863900  0.31568600  1
  O  O31  1  0.32085900  0.47871000  0.98809300  1
  O  O32  1  0.51534600  0.09804000  0.48465400  1
  O  O33  1  0.90196000  0.48465400  0.09804000  1
  O  O34  1  0.34804500  0.87105200  0.65195500  1
  O  O35  1  0.74545400  0.04047700  0.25454600  1
  O  O36  1  0.95952300  0.25454600  0.04047700  1
  O  O37  1  0.12894800  0.65195500  0.87105200  1
