# generated using pymatgen
data_Lu4IO13
_symmetry_space_group_name_H-M   'P 1'
_cell_length_a   8.31426600
_cell_length_b   12.92535300
_cell_length_c   13.37027600
_cell_angle_alpha   90.00000000
_cell_angle_beta   90.00000000
_cell_angle_gamma   90.00000000
_symmetry_Int_Tables_number   1
_chemical_formula_structural   Lu4IO13
_chemical_formula_sum   'Lu16 I4 O52'
_cell_volume   1436.83434361
_cell_formula_units_Z   4
loop_
 _symmetry_equiv_pos_site_id
 _symmetry_equiv_pos_as_xyz
  1  'x, y, z'
loop_
 _atom_site_type_symbol
 _atom_site_label
 _atom_site_symmetry_multiplicity
 _atom_site_fract_x
 _atom_site_fract_y
 _atom_site_fract_z
 _atom_site_occupancy
  Lu  Lu0  1  0.31323900  0.22345500  0.75000000  1
  Lu  Lu1  1  0.68676100  0.77654500  0.25000000  1
  Lu  Lu2  1  0.31323900  0.27654500  0.25000000  1
  Lu  Lu3  1  0.68676100  0.72345500  0.75000000  1
  Lu  Lu4  1  0.45403200  0.25000000  0.50000000  1
  Lu  Lu5  1  0.54596800  0.75000000  0.00000000  1
  Lu  Lu6  1  0.54596800  0.75000000  0.50000000  1
  Lu  Lu7  1  0.45403200  0.25000000  0.00000000  1
  Lu  Lu8  1  0.61689300  0.52219700  0.60180200  1
  Lu  Lu9  1  0.38310700  0.47780300  0.10180200  1
  Lu  Lu10  1  0.61689300  0.97780300  0.39819800  1
  Lu  Lu11  1  0.38310700  0.02219700  0.89819800  1
  Lu  Lu12  1  0.38310700  0.47780300  0.39819800  1
  Lu  Lu13  1  0.61689300  0.52219700  0.89819800  1
  Lu  Lu14  1  0.38310700  0.02219700  0.60180200  1
  Lu  Lu15  1  0.61689300  0.97780300  0.10180200  1
  I  I16  1  0.96646100  0.44223600  0.75000000  1
  I  I17  1  0.03353900  0.55776400  0.25000000  1
  I  I18  1  0.96646100  0.05776400  0.25000000  1
  I  I19  1  0.03353900  0.94223600  0.75000000  1
  O  O20  1  0.53825300  0.28950000  0.66672400  1
  O  O21  1  0.46174700  0.71050000  0.16672400  1
  O  O22  1  0.53825300  0.21050000  0.33327600  1
  O  O23  1  0.46174700  0.78950000  0.83327600  1
  O  O24  1  0.46174700  0.71050000  0.33327600  1
  O  O25  1  0.53825300  0.28950000  0.83327600  1
  O  O26  1  0.46174700  0.78950000  0.66672400  1
  O  O27  1  0.53825300  0.21050000  0.16672400  1
  O  O28  1  0.44166900  0.59632100  0.51211900  1
  O  O29  1  0.55833100  0.40367900  0.01211900  1
  O  O30  1  0.44166900  0.90367900  0.48788100  1
  O  O31  1  0.55833100  0.09632100  0.98788100  1
  O  O32  1  0.55833100  0.40367900  0.48788100  1
  O  O33  1  0.44166900  0.59632100  0.98788100  1
  O  O34  1  0.55833100  0.09632100  0.51211900  1
  O  O35  1  0.44166900  0.90367900  0.01211900  1
  O  O36  1  0.76108500  0.40049000  0.75000000  1
  O  O37  1  0.23891500  0.59951000  0.25000000  1
  O  O38  1  0.76108500  0.09951000  0.25000000  1
  O  O39  1  0.23891500  0.90049000  0.75000000  1
  O  O40  1  0.09147800  0.32764100  0.75000000  1
  O  O41  1  0.90852200  0.67235900  0.25000000  1
  O  O42  1  0.09147800  0.17235900  0.25000000  1
  O  O43  1  0.90852200  0.82764100  0.75000000  1
  O  O44  1  0.57516700  0.57631400  0.75000000  1
  O  O45  1  0.42483300  0.42368600  0.25000000  1
  O  O46  1  0.57516700  0.92368600  0.25000000  1
  O  O47  1  0.42483300  0.07631400  0.75000000  1
  O  O48  1  0.45208300  0.37624200  0.67374100  1
  O  O49  1  0.54791700  0.62375800  0.17374100  1
  O  O50  1  0.45208300  0.12375800  0.32625900  1
  O  O51  1  0.54791700  0.87624200  0.82625900  1
  O  O52  1  0.54791700  0.62375800  0.32625900  1
  O  O53  1  0.45208300  0.37624200  0.82625900  1
  O  O54  1  0.54791700  0.87624200  0.67374100  1
  O  O55  1  0.45208300  0.12375800  0.17374100  1
  O  O56  1  0.71787000  0.67709800  0.59643100  1
  O  O57  1  0.28213000  0.32290200  0.09643100  1
  O  O58  1  0.71787000  0.82290200  0.40356900  1
  O  O59  1  0.28213000  0.17709800  0.90356900  1
  O  O60  1  0.28213000  0.32290200  0.40356900  1
  O  O61  1  0.71787000  0.67709800  0.90356900  1
  O  O62  1  0.28213000  0.17709800  0.59643100  1
  O  O63  1  0.71787000  0.82290200  0.09643100  1
  O  O64  1  0.98102900  0.51602700  0.63660000  1
  O  O65  1  0.01897100  0.48397300  0.13660000  1
  O  O66  1  0.98102900  0.98397300  0.36340000  1
  O  O67  1  0.01897100  0.01602700  0.86340000  1
  O  O68  1  0.01897100  0.48397300  0.36340000  1
  O  O69  1  0.98102900  0.51602700  0.86340000  1
  O  O70  1  0.01897100  0.01602700  0.63660000  1
  O  O71  1  0.98102900  0.98397300  0.13660000  1
