# generated using pymatgen
data_Cu2Bi8Pb3Se3S13
_symmetry_space_group_name_H-M   'P 1'
_cell_length_a   13.63977060
_cell_length_b   13.63977060
_cell_length_c   16.65780078
_cell_angle_alpha   53.78102423
_cell_angle_beta   53.78102423
_cell_angle_gamma   17.90530699
_symmetry_Int_Tables_number   1
_chemical_formula_structural   Cu2Bi8Pb3Se3S13
_chemical_formula_sum   'Cu2 Bi8 Pb3 Se3 S13'
_cell_volume   763.54660916
_cell_formula_units_Z   1
loop_
 _symmetry_equiv_pos_site_id
 _symmetry_equiv_pos_as_xyz
  1  'x, y, z'
loop_
 _atom_site_type_symbol
 _atom_site_label
 _atom_site_symmetry_multiplicity
 _atom_site_fract_x
 _atom_site_fract_y
 _atom_site_fract_z
 _atom_site_occupancy
  Cu  Cu0  1  0.95356200  0.95356200  0.48436300  1
  Cu  Cu1  1  0.04679100  0.04679100  0.51354400  1
  Bi  Bi2  1  0.68738800  0.68738800  0.48338600  1
  Bi  Bi3  1  0.31349500  0.31349500  0.51557700  1
  Bi  Bi4  1  0.35036300  0.35036300  0.23043900  1
  Bi  Bi5  1  0.64988700  0.64988700  0.77057400  1
  Bi  Bi6  1  0.17924500  0.17924500  0.01905200  1
  Bi  Bi7  1  0.82153700  0.82153700  0.98017800  1
  Bi  Bi8  1  0.64128000  0.64128000  0.26958800  1
  Bi  Bi9  1  0.35849500  0.35849500  0.72904900  1
  Pb  Pb10  1  0.99997900  0.99997900  0.00653500  1
  Pb  Pb11  1  0.97109800  0.97109800  0.27706800  1
  Pb  Pb12  1  0.02944400  0.02944400  0.71884200  1
  Se  Se13  1  0.51859500  0.51859500  0.86052800  1
  Se  Se14  1  0.21080800  0.21080800  0.35128400  1
  Se  Se15  1  0.78976000  0.78976000  0.64807900  1
  S  S16  1  0.43083400  0.43083400  0.44145200  1
  S  S17  1  0.57045300  0.57045300  0.55450800  1
  S  S18  1  0.06381100  0.06381100  0.36114900  1
  S  S19  1  0.93613100  0.93613100  0.63701100  1
  S  S20  1  0.84120000  0.84120000  0.36865800  1
  S  S21  1  0.15835400  0.15835400  0.63201500  1
  S  S22  1  0.60701100  0.60701100  0.15032300  1
  S  S23  1  0.39264300  0.39264300  0.84847600  1
  S  S24  1  0.86290700  0.86290700  0.11673700  1
  S  S25  1  0.13950200  0.13950200  0.88221700  1
  S  S26  1  0.23521500  0.23521500  0.10930400  1
  S  S27  1  0.76525400  0.76525400  0.89078300  1
  S  S28  1  0.47495800  0.47495800  0.14928000  1
