# generated using pymatgen
data_CeNdC4
_symmetry_space_group_name_H-M   'P 1'
_cell_length_a   3.80974100
_cell_length_b   3.80974100
_cell_length_c   6.40087600
_cell_angle_alpha   90.00000000
_cell_angle_beta   90.00000000
_cell_angle_gamma   90.00000000
_symmetry_Int_Tables_number   1
_chemical_formula_structural   CeNdC4
_chemical_formula_sum   'Ce1 Nd1 C4'
_cell_volume   92.90312389
_cell_formula_units_Z   1
loop_
 _symmetry_equiv_pos_site_id
 _symmetry_equiv_pos_as_xyz
  1  'x, y, z'
loop_
 _atom_site_type_symbol
 _atom_site_label
 _atom_site_symmetry_multiplicity
 _atom_site_fract_x
 _atom_site_fract_y
 _atom_site_fract_z
 _atom_site_occupancy
  Ce  Ce0  1  0.00000000  0.00000000  0.00000000  1
  Nd  Nd1  1  0.50000000  0.50000000  0.50000000  1
  C  C2  1  0.00000000  0.00000000  0.60173800  1
  C  C3  1  0.50000000  0.50000000  0.10177500  1
  C  C4  1  0.50000000  0.50000000  0.89822500  1
  C  C5  1  0.00000000  0.00000000  0.39826200  1
