# generated using pymatgen
data_CoH15Br2(N3O)2
_symmetry_space_group_name_H-M   'P 1'
_cell_length_a   7.25532034
_cell_length_b   7.25532034
_cell_length_c   11.48388117
_cell_angle_alpha   86.26295206
_cell_angle_beta   86.26295206
_cell_angle_gamma   78.94298084
_symmetry_Int_Tables_number   1
_chemical_formula_structural   CoH15Br2(N3O)2
_chemical_formula_sum   'Co2 H30 Br4 N12 O4'
_cell_volume   591.16761184
_cell_formula_units_Z   2
loop_
 _symmetry_equiv_pos_site_id
 _symmetry_equiv_pos_as_xyz
  1  'x, y, z'
loop_
 _atom_site_type_symbol
 _atom_site_label
 _atom_site_symmetry_multiplicity
 _atom_site_fract_x
 _atom_site_fract_y
 _atom_site_fract_z
 _atom_site_occupancy
  Co  Co0  1  0.71216100  0.28798900  0.24988000  1
  Co  Co1  1  0.28798900  0.71216100  0.74988000  1
  H  H2  1  0.03018400  0.41589200  0.27718700  1
  H  H3  1  0.58665400  0.96956200  0.22024800  1
  H  H4  1  0.96956200  0.58665400  0.72024800  1
  H  H5  1  0.41589200  0.03018400  0.77718700  1
  H  H6  1  0.91212500  0.54786000  0.17151300  1
  H  H7  1  0.45447700  0.08565500  0.32686500  1
  H  H8  1  0.08565500  0.45447700  0.82686500  1
  H  H9  1  0.54786000  0.91212500  0.67151300  1
  H  H10  1  0.74100900  0.43970400  0.03517600  1
  H  H11  1  0.56203700  0.25795200  0.46455900  1
  H  H12  1  0.25795200  0.56203700  0.96455900  1
  H  H13  1  0.43970400  0.74100900  0.53517600  1
  H  H14  1  0.84506500  0.57667900  0.31072700  1
  H  H15  1  0.42418700  0.15466000  0.18849500  1
  H  H16  1  0.15466000  0.42418700  0.68849500  1
  H  H17  1  0.57667900  0.84506500  0.81072700  1
  H  H18  1  0.59502500  0.28914300  0.03834700  1
  H  H19  1  0.71276100  0.40428800  0.46124000  1
  H  H20  1  0.40428800  0.71276100  0.96124000  1
  H  H21  1  0.28914300  0.59502500  0.53834700  1
  H  H22  1  0.82522500  0.21208000  0.02906700  1
  H  H23  1  0.79021700  0.17361100  0.46877700  1
  H  H24  1  0.17361100  0.79021700  0.96877700  1
  H  H25  1  0.21208000  0.82522500  0.52906700  1
  H  H26  1  0.98626500  0.03236300  0.17174400  1
  H  H27  1  0.03236300  0.98626500  0.67174400  1
  H  H28  1  0.89466100  0.95247900  0.29832700  1
  H  H29  1  0.95247900  0.89466100  0.79832700  1
  H  H30  1  0.03966100  0.10015500  0.29952900  1
  H  H31  1  0.10015500  0.03966100  0.79952900  1
  Br  Br32  1  0.19894900  0.20963700  0.47943600  1
  Br  Br33  1  0.78630700  0.79586400  0.00868000  1
  Br  Br34  1  0.79586400  0.78630700  0.50868000  1
  Br  Br35  1  0.20963700  0.19894900  0.97943600  1
  N  N36  1  0.49684300  0.50155200  0.24950300  1
  N  N37  1  0.50155200  0.49684300  0.74950300  1
  N  N38  1  0.89884800  0.47720500  0.25148300  1
  N  N39  1  0.52468000  0.10015000  0.24677000  1
  N  N40  1  0.10015000  0.52468000  0.74677000  1
  N  N41  1  0.47720500  0.89884800  0.75148300  1
  N  N42  1  0.93305300  0.06830300  0.25394100  1
  N  N43  1  0.06830300  0.93305300  0.75394100  1
  N  N44  1  0.72040200  0.30865300  0.06707100  1
  N  N45  1  0.69254600  0.27914100  0.43238900  1
  N  N46  1  0.27914100  0.69254600  0.93238900  1
  N  N47  1  0.30865300  0.72040200  0.56707100  1
  O  O48  1  0.36475800  0.49621000  0.18744700  1
  O  O49  1  0.50156400  0.63355000  0.31159800  1
  O  O50  1  0.63355000  0.50156400  0.81159800  1
  O  O51  1  0.49621000  0.36475800  0.68744700  1
