# generated using pymatgen
data_NaCa3Fe4(SiO3)8
_symmetry_space_group_name_H-M   'P 1'
_cell_length_a   7.70031409
_cell_length_b   7.70031409
_cell_length_c   9.98506993
_cell_angle_alpha   62.79150036
_cell_angle_beta   62.79150036
_cell_angle_gamma   72.03905514
_symmetry_Int_Tables_number   1
_chemical_formula_structural   NaCa3Fe4(SiO3)8
_chemical_formula_sum   'Na1 Ca3 Fe4 Si8 O24'
_cell_volume   464.58095635
_cell_formula_units_Z   1
loop_
 _symmetry_equiv_pos_site_id
 _symmetry_equiv_pos_as_xyz
  1  'x, y, z'
loop_
 _atom_site_type_symbol
 _atom_site_label
 _atom_site_symmetry_multiplicity
 _atom_site_fract_x
 _atom_site_fract_y
 _atom_site_fract_z
 _atom_site_occupancy
  Na  Na0  1  0.67251900  0.32748100  0.50000000  1
  Ca  Ca1  1  0.17279600  0.82720400  0.00000000  1
  Ca  Ca2  1  0.32576900  0.18016500  0.24742400  1
  Ca  Ca3  1  0.81983500  0.67423100  0.75257600  1
  Fe  Fe4  1  0.78289800  0.21710200  0.00000000  1
  Fe  Fe5  1  0.72069400  0.77492400  0.25435700  1
  Fe  Fe6  1  0.28262800  0.71737200  0.50000000  1
  Fe  Fe7  1  0.22507600  0.27930600  0.74564300  1
  Si  Si8  1  0.52389200  0.96245100  0.54480400  1
  Si  Si9  1  0.45982800  0.52730500  0.79104100  1
  Si  Si10  1  0.02773400  0.45782300  0.04252700  1
  Si  Si11  1  0.03754900  0.47610800  0.45519600  1
  Si  Si12  1  0.95984100  0.02442700  0.29663500  1
  Si  Si13  1  0.97557300  0.04015900  0.70336500  1
  Si  Si14  1  0.54217700  0.97226600  0.95747300  1
  Si  Si15  1  0.47269500  0.54017200  0.20895900  1
  O  O16  1  0.92090200  0.98456400  0.16750800  1
  O  O17  1  0.47362100  0.91147300  0.42437000  1
  O  O18  1  0.48598300  0.76800500  0.72279200  1
  O  O19  1  0.65889600  0.41302600  0.82361000  1
  O  O20  1  0.40466000  0.50133900  0.66317900  1
  O  O21  1  0.58697400  0.34110400  0.17639000  1
  O  O22  1  0.26978300  0.48379100  0.97099300  1
  O  O23  1  0.23199500  0.51401700  0.27720800  1
  O  O24  1  0.91579900  0.65737000  0.07346400  1
  O  O25  1  0.98857000  0.41581200  0.91381100  1
  O  O26  1  0.84122000  0.59273300  0.42304600  1
  O  O27  1  0.99519700  0.26287400  0.21857900  1
  O  O28  1  0.02070400  0.23389300  0.52751700  1
  O  O29  1  0.15868400  0.91064200  0.33519400  1
  O  O30  1  0.01543600  0.07909800  0.83249200  1
  O  O31  1  0.08935800  0.84131600  0.66480600  1
  O  O32  1  0.76610700  0.97929600  0.47248300  1
  O  O33  1  0.73712600  0.00480300  0.78142100  1
  O  O34  1  0.40726700  0.15878000  0.57695400  1
  O  O35  1  0.58418800  0.01143000  0.08618900  1
  O  O36  1  0.34263000  0.08420100  0.92653600  1
  O  O37  1  0.51620900  0.73021700  0.02900700  1
  O  O38  1  0.49866100  0.59534000  0.33682100  1
  O  O39  1  0.08852700  0.52637900  0.57563000  1
