# generated using pymatgen
data_Cs2ZrFe2(MoO4)6
_symmetry_space_group_name_H-M   'P 1'
_cell_length_a   8.79218300
_cell_length_b   8.79429662
_cell_length_c   8.83017880
_cell_angle_alpha   99.33068005
_cell_angle_beta   99.10363388
_cell_angle_gamma   99.54140306
_symmetry_Int_Tables_number   1
_chemical_formula_structural   Cs2ZrFe2(MoO4)6
_chemical_formula_sum   'Cs2 Zr1 Fe2 Mo6 O24'
_cell_volume   652.27539143
_cell_formula_units_Z   1
loop_
 _symmetry_equiv_pos_site_id
 _symmetry_equiv_pos_as_xyz
  1  'x, y, z'
loop_
 _atom_site_type_symbol
 _atom_site_label
 _atom_site_symmetry_multiplicity
 _atom_site_fract_x
 _atom_site_fract_y
 _atom_site_fract_z
 _atom_site_occupancy
  Cs  Cs0  1  0.17504000  0.17533900  0.17851900  1
  Cs  Cs1  1  0.82496000  0.82466100  0.82148100  1
  Zr  Zr2  1  0.50000000  0.50000000  0.00000000  1
  Fe  Fe3  1  0.50000000  0.00000000  0.50000000  1
  Fe  Fe4  1  0.00000000  0.50000000  0.50000000  1
  Mo  Mo5  1  0.67645600  0.20902900  0.23131800  1
  Mo  Mo6  1  0.20837200  0.22263400  0.66678300  1
  Mo  Mo7  1  0.22284700  0.67663800  0.21796900  1
  Mo  Mo8  1  0.32354400  0.79097100  0.76868200  1
  Mo  Mo9  1  0.79162800  0.77736600  0.33321700  1
  Mo  Mo10  1  0.77715300  0.32336200  0.78203100  1
  O  O11  1  0.54884900  0.15753700  0.36489100  1
  O  O12  1  0.15868500  0.36061300  0.54418400  1
  O  O13  1  0.35764200  0.54611600  0.16616900  1
  O  O14  1  0.45115100  0.84246300  0.63510900  1
  O  O15  1  0.84131500  0.63938700  0.45581600  1
  O  O16  1  0.64235800  0.45388400  0.83383100  1
  O  O17  1  0.86566100  0.31763200  0.33803400  1
  O  O18  1  0.31198800  0.33121400  0.86088000  1
  O  O19  1  0.33617200  0.86615400  0.32020800  1
  O  O20  1  0.13433900  0.68236800  0.66196600  1
  O  O21  1  0.68801200  0.66878600  0.13912000  1
  O  O22  1  0.66382800  0.13384600  0.67979200  1
  O  O23  1  0.70244700  0.04022900  0.11323900  1
  O  O24  1  0.03832900  0.10405100  0.69163800  1
  O  O25  1  0.10803100  0.70092300  0.04735500  1
  O  O26  1  0.29755300  0.95977100  0.88676100  1
  O  O27  1  0.96167100  0.89594900  0.30836200  1
  O  O28  1  0.89196900  0.29907700  0.95264500  1
  O  O29  1  0.57274800  0.32648000  0.11259500  1
  O  O30  1  0.33041700  0.10899200  0.56920800  1
  O  O31  1  0.10548400  0.57444000  0.33437100  1
  O  O32  1  0.42725200  0.67352000  0.88740500  1
  O  O33  1  0.66958300  0.89100800  0.43079200  1
  O  O34  1  0.89451600  0.42556000  0.66562900  1
