# generated using pymatgen
data_Cr3Si3Pb10(ClO12)2
_symmetry_space_group_name_H-M   'P 1'
_cell_length_a   7.45779400
_cell_length_b   10.31498400
_cell_length_c   10.35878081
_cell_angle_alpha   60.14805330
_cell_angle_beta   90.00000000
_cell_angle_gamma   90.00000000
_symmetry_Int_Tables_number   1
_chemical_formula_structural   Cr3Si3Pb10(ClO12)2
_chemical_formula_sum   'Cr3 Si3 Pb10 Cl2 O24'
_cell_volume   691.13709323
_cell_formula_units_Z   1
loop_
 _symmetry_equiv_pos_site_id
 _symmetry_equiv_pos_as_xyz
  1  'x, y, z'
loop_
 _atom_site_type_symbol
 _atom_site_label
 _atom_site_symmetry_multiplicity
 _atom_site_fract_x
 _atom_site_fract_y
 _atom_site_fract_z
 _atom_site_occupancy
  Cr  Cr0  1  0.00000000  0.59335500  0.02988400  1
  Cr  Cr1  1  0.50000000  0.62304500  0.40435900  1
  Cr  Cr2  1  0.50000000  0.96656500  0.62093200  1
  Si  Si3  1  0.00000000  0.38493800  0.58436900  1
  Si  Si4  1  0.00000000  0.02405800  0.38084500  1
  Si  Si5  1  0.50000000  0.40947400  0.97168400  1
  Pb  Pb6  1  0.24486100  0.31151400  0.34012500  1
  Pb  Pb7  1  0.76312100  0.64431800  0.67439200  1
  Pb  Pb8  1  0.23687900  0.64431800  0.67439200  1
  Pb  Pb9  1  0.75513900  0.31151400  0.34012500  1
  Pb  Pb10  1  0.50000000  0.25455000  0.77571100  1
  Pb  Pb11  1  0.50000000  0.03877400  0.23428300  1
  Pb  Pb12  1  0.50000000  0.74879000  0.98807800  1
  Pb  Pb13  1  0.00000000  0.74351600  0.26954500  1
  Pb  Pb14  1  0.00000000  0.04807900  0.73138500  1
  Pb  Pb15  1  0.00000000  0.22902300  0.02080100  1
  Cl  Cl16  1  0.74594200  0.99580200  0.00559900  1
  Cl  Cl17  1  0.25405800  0.99580200  0.00559900  1
  O  O18  1  0.00000000  0.48617300  0.39950300  1
  O  O19  1  0.00000000  0.11572600  0.47724100  1
  O  O20  1  0.00000000  0.40476900  0.12124700  1
  O  O21  1  0.50000000  0.52349900  0.59290400  1
  O  O22  1  0.50000000  0.88214000  0.51868400  1
  O  O23  1  0.50000000  0.59466100  0.89247300  1
  O  O24  1  0.82300400  0.27251000  0.63590100  1
  O  O25  1  0.82216400  0.09485300  0.26963300  1
  O  O26  1  0.82007800  0.64635400  0.08603200  1
  O  O27  1  0.31978700  0.73192900  0.35581200  1
  O  O28  1  0.32176700  0.90905200  0.73208000  1
  O  O29  1  0.32193700  0.36524100  0.90444000  1
  O  O30  1  0.68021300  0.73192900  0.35581200  1
  O  O31  1  0.67823300  0.90905200  0.73208000  1
  O  O32  1  0.67806300  0.36524100  0.90444000  1
  O  O33  1  0.17699600  0.27251000  0.63590100  1
  O  O34  1  0.17783600  0.09485300  0.26963300  1
  O  O35  1  0.17992200  0.64635400  0.08603200  1
  O  O36  1  0.00000000  0.49676300  0.65729900  1
  O  O37  1  0.00000000  0.84052600  0.48321600  1
  O  O38  1  0.00000000  0.66000200  0.84568200  1
  O  O39  1  0.50000000  0.51508800  0.32759700  1
  O  O40  1  0.50000000  0.15337800  0.50776600  1
  O  O41  1  0.50000000  0.31996200  0.15648200  1
