# generated using pymatgen
data_Na2UO3
_symmetry_space_group_name_H-M   'P 1'
_cell_length_a   3.68171964
_cell_length_b   5.79176466
_cell_length_c   6.54101917
_cell_angle_alpha   118.92969045
_cell_angle_beta   102.13694918
_cell_angle_gamma   90.99986825
_symmetry_Int_Tables_number   1
_chemical_formula_structural   Na2UO3
_chemical_formula_sum   'Na2 U1 O3'
_cell_volume   118.18200611
_cell_formula_units_Z   1
loop_
 _symmetry_equiv_pos_site_id
 _symmetry_equiv_pos_as_xyz
  1  'x, y, z'
loop_
 _atom_site_type_symbol
 _atom_site_label
 _atom_site_symmetry_multiplicity
 _atom_site_fract_x
 _atom_site_fract_y
 _atom_site_fract_z
 _atom_site_occupancy
  Na  Na0  1  0.42665700  0.26397400  0.63297900  1
  Na  Na1  1  0.69792300  0.72628800  0.34286300  1
  U  U2  1  0.06706100  0.94249900  0.95143400  1
  O  O3  1  0.17176900  0.89036600  0.23293400  1
  O  O4  1  0.50689000  0.71944800  0.79260200  1
  O  O5  1  0.96920000  0.09852400  0.74078800  1
