# generated using pymatgen
data_Na2N2O3
_symmetry_space_group_name_H-M   'P 1'
_cell_length_a   6.50034723
_cell_length_b   6.50034723
_cell_length_c   12.23639392
_cell_angle_alpha   71.64622524
_cell_angle_beta   71.64622524
_cell_angle_gamma   38.95376471
_symmetry_Int_Tables_number   1
_chemical_formula_structural   Na2N2O3
_chemical_formula_sum   'Na6 N6 O9'
_cell_volume   306.39446833
_cell_formula_units_Z   3
loop_
 _symmetry_equiv_pos_site_id
 _symmetry_equiv_pos_as_xyz
  1  'x, y, z'
loop_
 _atom_site_type_symbol
 _atom_site_label
 _atom_site_symmetry_multiplicity
 _atom_site_fract_x
 _atom_site_fract_y
 _atom_site_fract_z
 _atom_site_occupancy
  Na  Na0  1  0.93688700  0.72548300  0.59466100  1
  Na  Na1  1  0.67426400  0.29746300  0.78051000  1
  Na  Na2  1  0.26885700  0.05615800  0.92881900  1
  Na  Na3  1  0.94384200  0.73114300  0.07118100  1
  Na  Na4  1  0.70253700  0.32573600  0.21949000  1
  Na  Na5  1  0.27451700  0.06311300  0.40533900  1
  N  N6  1  0.37102700  0.98304600  0.65602300  1
  N  N7  1  0.73553000  0.26447000  0.00000000  1
  N  N8  1  0.04304500  0.60453400  0.81429800  1
  N  N9  1  0.01695400  0.62897300  0.34397700  1
  N  N10  1  0.39546600  0.95695500  0.18570200  1
  N  N11  1  0.72818300  0.27181700  0.50000000  1
  O  O12  1  0.34779000  0.87423000  0.75980200  1
  O  O13  1  0.10030500  0.22604600  0.61190000  1
  O  O14  1  0.44289900  0.55710100  0.00000000  1
  O  O15  1  0.80623000  0.81891200  0.88386900  1
  O  O16  1  0.12577000  0.65221000  0.24019800  1
  O  O17  1  0.77395400  0.89969500  0.38810000  1
  O  O18  1  0.18108800  0.19377000  0.11613100  1
  O  O19  1  0.51798100  0.37033000  0.58965100  1
  O  O20  1  0.62967000  0.48201900  0.41034900  1
