# generated using pymatgen
data_Ce2MnSi4Pd3
_symmetry_space_group_name_H-M   'P 1'
_cell_length_a   4.14375800
_cell_length_b   4.14375800
_cell_length_c   10.21037600
_cell_angle_alpha   90.00000000
_cell_angle_beta   90.00000000
_cell_angle_gamma   90.00000000
_symmetry_Int_Tables_number   1
_chemical_formula_structural   Ce2MnSi4Pd3
_chemical_formula_sum   'Ce2 Mn1 Si4 Pd3'
_cell_volume   175.31961320
_cell_formula_units_Z   1
loop_
 _symmetry_equiv_pos_site_id
 _symmetry_equiv_pos_as_xyz
  1  'x, y, z'
loop_
 _atom_site_type_symbol
 _atom_site_label
 _atom_site_symmetry_multiplicity
 _atom_site_fract_x
 _atom_site_fract_y
 _atom_site_fract_z
 _atom_site_occupancy
  Ce  Ce0  1  0.00000000  0.00000000  0.00164300  1
  Ce  Ce1  1  0.50000000  0.50000000  0.49835700  1
  Mn  Mn2  1  0.00000000  0.50000000  0.25000000  1
  Si  Si3  1  0.50000000  0.50000000  0.11513500  1
  Si  Si4  1  0.00000000  0.00000000  0.61710100  1
  Si  Si5  1  0.00000000  0.00000000  0.38486500  1
  Si  Si6  1  0.50000000  0.50000000  0.88289900  1
  Pd  Pd7  1  0.50000000  0.00000000  0.75000000  1
  Pd  Pd8  1  0.50000000  0.00000000  0.25000000  1
  Pd  Pd9  1  0.00000000  0.50000000  0.75000000  1
