# generated using pymatgen
data_CdInAgTe3
_symmetry_space_group_name_H-M   'P 1'
_cell_length_a   8.06604210
_cell_length_b   8.06604210
_cell_length_c   6.60724511
_cell_angle_alpha   65.86033626
_cell_angle_beta   65.86033626
_cell_angle_gamma   33.48476014
_symmetry_Int_Tables_number   1
_chemical_formula_structural   CdInAgTe3
_chemical_formula_sum   'Cd1 In1 Ag1 Te3'
_cell_volume   214.45229342
_cell_formula_units_Z   1
loop_
 _symmetry_equiv_pos_site_id
 _symmetry_equiv_pos_as_xyz
  1  'x, y, z'
loop_
 _atom_site_type_symbol
 _atom_site_label
 _atom_site_symmetry_multiplicity
 _atom_site_fract_x
 _atom_site_fract_y
 _atom_site_fract_z
 _atom_site_occupancy
  Cd  Cd0  1  0.66415200  0.66415200  0.33561500  1
  In  In1  1  0.33514500  0.33514500  0.65527400  1
  Ag  Ag2  1  0.00063500  0.00063500  0.00540500  1
  Te  Te3  1  0.49960000  0.49960000  0.24559700  1
  Te  Te4  1  0.16454400  0.16454400  0.59075100  1
  Te  Te5  1  0.83592700  0.83592700  0.91735700  1
