# generated using pymatgen
data_CeY(AlPd)2
_symmetry_space_group_name_H-M   'P 1'
_cell_length_a   4.14127200
_cell_length_b   7.22149800
_cell_length_c   12.37029683
_cell_angle_alpha   89.70332760
_cell_angle_beta   90.00000000
_cell_angle_gamma   90.00000000
_symmetry_Int_Tables_number   1
_chemical_formula_structural   CeY(AlPd)2
_chemical_formula_sum   'Ce3 Y3 Al6 Pd6'
_cell_volume   369.94345666
_cell_formula_units_Z   3
loop_
 _symmetry_equiv_pos_site_id
 _symmetry_equiv_pos_as_xyz
  1  'x, y, z'
loop_
 _atom_site_type_symbol
 _atom_site_label
 _atom_site_symmetry_multiplicity
 _atom_site_fract_x
 _atom_site_fract_y
 _atom_site_fract_z
 _atom_site_occupancy
  Ce  Ce0  1  0.50000000  0.92013700  0.49942400  1
  Ce  Ce1  1  0.50000000  0.42112300  0.00103400  1
  Ce  Ce2  1  0.50000000  0.78895500  0.78915300  1
  Y  Y3  1  0.50000000  0.29063200  0.29219500  1
  Y  Y4  1  0.50000000  0.29131800  0.70791800  1
  Y  Y5  1  0.50000000  0.79068600  0.20907000  1
  Al  Al6  1  0.00000000  0.76972300  0.00187900  1
  Al  Al7  1  0.00000000  0.26808300  0.49931000  1
  Al  Al8  1  0.00000000  0.61387400  0.61637500  1
  Al  Al9  1  0.00000000  0.11660000  0.11992300  1
  Al  Al10  1  0.00000000  0.11984900  0.88166800  1
  Al  Al11  1  0.00000000  0.61502500  0.38017600  1
  Pd  Pd12  1  0.00000000  0.99405100  0.66500200  1
  Pd  Pd13  1  0.00000000  0.49678100  0.16523600  1
  Pd  Pd14  1  0.00000000  0.50197900  0.83623100  1
  Pd  Pd15  1  0.00000000  0.99748000  0.33587900  1
  Pd  Pd16  1  0.50000000  0.00161600  0.99938500  1
  Pd  Pd17  1  0.50000000  0.50228600  0.50014200  1
