# generated using pymatgen
data_NaCa2SiO4F
_symmetry_space_group_name_H-M   'P 1'
_cell_length_a   7.79583711
_cell_length_b   9.34365096
_cell_length_c   7.36401813
_cell_angle_alpha   97.76286290
_cell_angle_beta   89.29449446
_cell_angle_gamma   85.22781262
_symmetry_Int_Tables_number   1
_chemical_formula_structural   NaCa2SiO4F
_chemical_formula_sum   'Na4 Ca8 Si4 O16 F4'
_cell_volume   529.49771797
_cell_formula_units_Z   4
loop_
 _symmetry_equiv_pos_site_id
 _symmetry_equiv_pos_as_xyz
  1  'x, y, z'
loop_
 _atom_site_type_symbol
 _atom_site_label
 _atom_site_symmetry_multiplicity
 _atom_site_fract_x
 _atom_site_fract_y
 _atom_site_fract_z
 _atom_site_occupancy
  Na  Na0  1  0.18066800  0.46127400  0.40361800  1
  Na  Na1  1  0.97413200  0.01840800  0.56655500  1
  Na  Na2  1  0.44615900  0.52932400  0.09152800  1
  Na  Na3  1  0.95870400  0.93777600  0.03071100  1
  Ca  Ca4  1  0.97164100  0.53500300  0.08581500  1
  Ca  Ca5  1  0.50162900  0.43368200  0.68117500  1
  Ca  Ca6  1  0.56654300  0.93766800  0.00239000  1
  Ca  Ca7  1  0.69514900  0.27071400  0.23928600  1
  Ca  Ca8  1  0.27747900  0.81401700  0.74809200  1
  Ca  Ca9  1  0.44121800  0.08251400  0.53300400  1
  Ca  Ca10  1  0.80059700  0.66241100  0.68393500  1
  Ca  Ca11  1  0.26078100  0.15935300  0.06822100  1
  Si  Si12  1  0.69747100  0.74306100  0.28628800  1
  Si  Si13  1  0.78560400  0.23949500  0.83082400  1
  Si  Si14  1  0.27084600  0.80507800  0.26362200  1
  Si  Si15  1  0.13837600  0.35605500  0.76202500  1
  O  O16  1  0.69502500  0.22334600  0.62780900  1
  O  O17  1  0.00101700  0.23065500  0.78775800  1
  O  O18  1  0.76675500  0.10918100  0.95459700  1
  O  O19  1  0.71385500  0.39505200  0.95331800  1
  O  O20  1  0.49549600  0.11601800  0.23419600  1
  O  O21  1  0.78304700  0.60311500  0.36714100  1
  O  O22  1  0.49104300  0.75983900  0.24909800  1
  O  O23  1  0.79627800  0.76854300  0.10036600  1
  O  O24  1  0.25097100  0.38091900  0.94919900  1
  O  O25  1  0.38279900  0.02622900  0.81335600  1
  O  O26  1  0.02674800  0.51102600  0.74631500  1
  O  O27  1  0.52175000  0.66985300  0.76910000  1
  O  O28  1  0.26787000  0.30104900  0.58832300  1
  O  O29  1  0.23295300  0.89587500  0.09056200  1
  O  O30  1  0.18513700  0.65114400  0.23944700  1
  O  O31  1  0.23605400  0.90396300  0.46207000  1
  F  F32  1  0.97619100  0.83876500  0.74202800  1
  F  F33  1  0.48713600  0.43698300  0.36842900  1
  F  F34  1  0.72094100  0.88371800  0.45299700  1
  F  F35  1  0.00193500  0.30889600  0.22680100  1
