# generated using pymatgen
data_Ce2BPd6
_symmetry_space_group_name_H-M   'P 1'
_cell_length_a   4.36615500
_cell_length_b   4.36615500
_cell_length_c   8.23623200
_cell_angle_alpha   90.00000000
_cell_angle_beta   90.00000000
_cell_angle_gamma   90.00000000
_symmetry_Int_Tables_number   1
_chemical_formula_structural   Ce2BPd6
_chemical_formula_sum   'Ce2 B1 Pd6'
_cell_volume   157.00983960
_cell_formula_units_Z   1
loop_
 _symmetry_equiv_pos_site_id
 _symmetry_equiv_pos_as_xyz
  1  'x, y, z'
loop_
 _atom_site_type_symbol
 _atom_site_label
 _atom_site_symmetry_multiplicity
 _atom_site_fract_x
 _atom_site_fract_y
 _atom_site_fract_z
 _atom_site_occupancy
  Ce  Ce0  1  0.00000000  0.00000000  0.99632900  1
  Ce  Ce1  1  0.00000000  0.00000000  0.50367100  1
  B  B2  1  0.50000000  0.50000000  0.25000000  1
  Pd  Pd3  1  0.50000000  0.50000000  0.98759400  1
  Pd  Pd4  1  0.50000000  0.50000000  0.51240600  1
  Pd  Pd5  1  0.50000000  0.00000000  0.25000000  1
  Pd  Pd6  1  0.50000000  0.00000000  0.75000000  1
  Pd  Pd7  1  0.00000000  0.50000000  0.25000000  1
  Pd  Pd8  1  0.00000000  0.50000000  0.75000000  1
