# generated using pymatgen
data_Cs2Sn4Se9O
_symmetry_space_group_name_H-M   'P 1'
_cell_length_a   12.81323500
_cell_length_b   12.82548100
_cell_length_c   14.11045700
_cell_angle_alpha   90.00000000
_cell_angle_beta   90.00000000
_cell_angle_gamma   90.00000000
_symmetry_Int_Tables_number   1
_chemical_formula_structural   Cs2Sn4Se9O
_chemical_formula_sum   'Cs8 Sn16 Se36 O4'
_cell_volume   2318.85467931
_cell_formula_units_Z   4
loop_
 _symmetry_equiv_pos_site_id
 _symmetry_equiv_pos_as_xyz
  1  'x, y, z'
loop_
 _atom_site_type_symbol
 _atom_site_label
 _atom_site_symmetry_multiplicity
 _atom_site_fract_x
 _atom_site_fract_y
 _atom_site_fract_z
 _atom_site_occupancy
  Cs  Cs0  1  0.24960600  0.43439900  0.43370300  1
  Cs  Cs1  1  0.24960600  0.06560100  0.93370300  1
  Cs  Cs2  1  0.74960600  0.56560100  0.56629700  1
  Cs  Cs3  1  0.74960600  0.93439900  0.06629700  1
  Cs  Cs4  1  0.82466000  0.46020700  0.93980500  1
  Cs  Cs5  1  0.32466000  0.53979300  0.06019500  1
  Cs  Cs6  1  0.32466000  0.96020700  0.56019500  1
  Cs  Cs7  1  0.82466000  0.03979300  0.43980500  1
  Sn  Sn8  1  0.10511800  0.17754400  0.23552500  1
  Sn  Sn9  1  0.39628800  0.32133800  0.73542000  1
  Sn  Sn10  1  0.60511800  0.82245600  0.76447500  1
  Sn  Sn11  1  0.89628800  0.67866200  0.26458000  1
  Sn  Sn12  1  0.89628800  0.82133800  0.76458000  1
  Sn  Sn13  1  0.60511800  0.67754400  0.26447500  1
  Sn  Sn14  1  0.39628800  0.17866200  0.23542000  1
  Sn  Sn15  1  0.10511800  0.32245600  0.73552500  1
  Sn  Sn16  1  0.91167600  0.36939400  0.32374300  1
  Sn  Sn17  1  0.58721200  0.13308000  0.82375000  1
  Sn  Sn18  1  0.41167600  0.63060600  0.67625700  1
  Sn  Sn19  1  0.08721200  0.86692000  0.17625000  1
  Sn  Sn20  1  0.08721200  0.63308000  0.67625000  1
  Sn  Sn21  1  0.41167600  0.86939400  0.17625700  1
  Sn  Sn22  1  0.58721200  0.36692000  0.32375000  1
  Sn  Sn23  1  0.91167600  0.13060600  0.82374300  1
  Se  Se24  1  0.94756600  0.31305400  0.15499700  1
  Se  Se25  1  0.55023100  0.18360400  0.65405300  1
  Se  Se26  1  0.44756600  0.68694600  0.84500300  1
  Se  Se27  1  0.05023100  0.81639600  0.34594700  1
  Se  Se28  1  0.05023100  0.68360400  0.84594700  1
  Se  Se29  1  0.44756600  0.81305400  0.34500300  1
  Se  Se30  1  0.55023100  0.31639600  0.15405300  1
  Se  Se31  1  0.94756600  0.18694600  0.65499700  1
  Se  Se32  1  0.00934400  0.04519400  0.12530400  1
  Se  Se33  1  0.49020300  0.45411800  0.62417700  1
  Se  Se34  1  0.50934400  0.95480600  0.87469600  1
  Se  Se35  1  0.99020300  0.54588200  0.37582300  1
  Se  Se36  1  0.99020300  0.95411800  0.87582300  1
  Se  Se37  1  0.50934400  0.54519400  0.37469600  1
  Se  Se38  1  0.49020300  0.04588200  0.12417700  1
  Se  Se39  1  0.00934400  0.45480600  0.62530400  1
  Se  Se40  1  0.24943500  0.28866900  0.15460100  1
  Se  Se41  1  0.24943500  0.21133100  0.65460100  1
  Se  Se42  1  0.74943500  0.71133100  0.84539900  1
  Se  Se43  1  0.74943500  0.78866900  0.34539900  1
  Se  Se44  1  0.04044100  0.23514700  0.40307900  1
  Se  Se45  1  0.45950600  0.26616000  0.90371400  1
  Se  Se46  1  0.54044100  0.76485300  0.59692100  1
  Se  Se47  1  0.95950600  0.73384000  0.09628600  1
  Se  Se48  1  0.95950600  0.76616000  0.59628600  1
  Se  Se49  1  0.54044100  0.73514700  0.09692100  1
  Se  Se50  1  0.45950600  0.23384000  0.40371400  1
  Se  Se51  1  0.04044100  0.26485300  0.90307900  1
  Se  Se52  1  0.74981200  0.32233900  0.42383100  1
  Se  Se53  1  0.74981200  0.17766100  0.92383100  1
  Se  Se54  1  0.24981200  0.67766100  0.57616900  1
  Se  Se55  1  0.24981200  0.82233900  0.07616900  1
  Se  Se56  1  0.25048900  0.04398400  0.30345400  1
  Se  Se57  1  0.25048900  0.45601600  0.80345400  1
  Se  Se58  1  0.75048900  0.95601600  0.69654600  1
  Se  Se59  1  0.75048900  0.54398400  0.19654600  1
  O  O60  1  0.25521100  0.61645600  0.27965500  1
  O  O61  1  0.25521100  0.88354400  0.77965500  1
  O  O62  1  0.75521100  0.38354400  0.72034500  1
  O  O63  1  0.75521100  0.11645600  0.22034500  1
