# generated using pymatgen
data_CeAl(CuNi)2
_symmetry_space_group_name_H-M   'P 1'
_cell_length_a   5.15297433
_cell_length_b   5.15297433
_cell_length_c   3.96945900
_cell_angle_alpha   90.00000000
_cell_angle_beta   90.00000000
_cell_angle_gamma   119.69273216
_symmetry_Int_Tables_number   1
_chemical_formula_structural   CeAl(CuNi)2
_chemical_formula_sum   'Ce1 Al1 Cu2 Ni2'
_cell_volume   91.56179070
_cell_formula_units_Z   1
loop_
 _symmetry_equiv_pos_site_id
 _symmetry_equiv_pos_as_xyz
  1  'x, y, z'
loop_
 _atom_site_type_symbol
 _atom_site_label
 _atom_site_symmetry_multiplicity
 _atom_site_fract_x
 _atom_site_fract_y
 _atom_site_fract_z
 _atom_site_occupancy
  Ce  Ce0  1  0.00233500  0.99766500  0.00000000  1
  Al  Al1  1  0.67184000  0.32816000  0.00000000  1
  Cu  Cu2  1  0.33215700  0.66784300  0.00000000  1
  Cu  Cu3  1  0.49701300  0.50298700  0.50000000  1
  Ni  Ni4  1  0.99858500  0.50301000  0.50000000  1
  Ni  Ni5  1  0.49699000  0.00141500  0.50000000  1
