# generated using pymatgen
data_CeFeCu
_symmetry_space_group_name_H-M   'P 1'
_cell_length_a   5.21192806
_cell_length_b   5.21192806
_cell_length_c   5.21192806
_cell_angle_alpha   93.14110788
_cell_angle_beta   56.16594150
_cell_angle_gamma   119.86814798
_symmetry_Int_Tables_number   1
_chemical_formula_structural   CeFeCu
_chemical_formula_sum   'Ce2 Fe2 Cu2'
_cell_volume   96.99485924
_cell_formula_units_Z   2
loop_
 _symmetry_equiv_pos_site_id
 _symmetry_equiv_pos_as_xyz
  1  'x, y, z'
loop_
 _atom_site_type_symbol
 _atom_site_label
 _atom_site_symmetry_multiplicity
 _atom_site_fract_x
 _atom_site_fract_y
 _atom_site_fract_z
 _atom_site_occupancy
  Ce  Ce0  1  0.50000000  0.75842000  0.74158000  1
  Ce  Ce1  1  0.00000000  0.99158000  0.00842000  1
  Fe  Fe2  1  0.25000000  0.87500000  0.37500000  1
  Fe  Fe3  1  0.75000000  0.37500000  0.37500000  1
  Cu  Cu4  1  0.75000000  0.37500000  0.87500000  1
  Cu  Cu5  1  0.25000000  0.37500000  0.37500000  1
