# generated using pymatgen
data_CdHg2
_symmetry_space_group_name_H-M   'P 1'
_cell_length_a   3.38890900
_cell_length_b   3.29294909
_cell_length_c   8.76488957
_cell_angle_alpha   84.29086710
_cell_angle_beta   101.14677624
_cell_angle_gamma   120.96876190
_symmetry_Int_Tables_number   1
_chemical_formula_structural   CdHg2
_chemical_formula_sum   'Cd1 Hg2'
_cell_volume   82.28638662
_cell_formula_units_Z   1
loop_
 _symmetry_equiv_pos_site_id
 _symmetry_equiv_pos_as_xyz
  1  'x, y, z'
loop_
 _atom_site_type_symbol
 _atom_site_label
 _atom_site_symmetry_multiplicity
 _atom_site_fract_x
 _atom_site_fract_y
 _atom_site_fract_z
 _atom_site_occupancy
  Cd  Cd0  1  0.00000000  0.00000000  0.00000000  1
  Hg  Hg1  1  0.66494300  0.00000000  0.32988500  1
  Hg  Hg2  1  0.33505700  0.00000000  0.67011500  1
