# generated using pymatgen
data_Ce(ZnGa)2
_symmetry_space_group_name_H-M   'P 1'
_cell_length_a   4.29210000
_cell_length_b   4.29210000
_cell_length_c   6.05570856
_cell_angle_alpha   69.24426588
_cell_angle_beta   69.24426588
_cell_angle_gamma   90.00000000
_symmetry_Int_Tables_number   1
_chemical_formula_structural   Ce(ZnGa)2
_chemical_formula_sum   'Ce1 Zn2 Ga2'
_cell_volume   96.53709804
_cell_formula_units_Z   1
loop_
 _symmetry_equiv_pos_site_id
 _symmetry_equiv_pos_as_xyz
  1  'x, y, z'
loop_
 _atom_site_type_symbol
 _atom_site_label
 _atom_site_symmetry_multiplicity
 _atom_site_fract_x
 _atom_site_fract_y
 _atom_site_fract_z
 _atom_site_occupancy
  Ce  Ce0  1  0.00000000  0.00000000  0.00000000  1
  Zn  Zn1  1  0.38537900  0.38537900  0.22924100  1
  Zn  Zn2  1  0.61462100  0.61462100  0.77075900  1
  Ga  Ga3  1  0.75000000  0.25000000  0.50000000  1
  Ga  Ga4  1  0.25000000  0.75000000  0.50000000  1
