# generated using pymatgen
data_CdHg4Se5
_symmetry_space_group_name_H-M   'P 1'
_cell_length_a   16.92715829
_cell_length_b   16.92715829
_cell_length_c   16.92715849
_cell_angle_alpha   13.94042879
_cell_angle_beta   13.94042879
_cell_angle_gamma   13.94042688
_symmetry_Int_Tables_number   1
_chemical_formula_structural   CdHg4Se5
_chemical_formula_sum   'Cd1 Hg4 Se5'
_cell_volume   244.98531058
_cell_formula_units_Z   1
loop_
 _symmetry_equiv_pos_site_id
 _symmetry_equiv_pos_as_xyz
  1  'x, y, z'
loop_
 _atom_site_type_symbol
 _atom_site_label
 _atom_site_symmetry_multiplicity
 _atom_site_fract_x
 _atom_site_fract_y
 _atom_site_fract_z
 _atom_site_occupancy
  Cd  Cd0  1  0.00000000  0.00000000  0.00000000  1
  Hg  Hg1  1  0.59982800  0.59982800  0.59982800  1
  Hg  Hg2  1  0.19996200  0.19996200  0.19996200  1
  Hg  Hg3  1  0.80003800  0.80003800  0.80003800  1
  Hg  Hg4  1  0.40017200  0.40017200  0.40017200  1
  Se  Se5  1  0.69929800  0.69929800  0.69929800  1
  Se  Se6  1  0.50000000  0.50000000  0.50000000  1
  Se  Se7  1  0.09993000  0.09993000  0.09993000  1
  Se  Se8  1  0.30070200  0.30070200  0.30070200  1
  Se  Se9  1  0.90007000  0.90007000  0.90007000  1
