# generated using pymatgen
data_Cd3Si2Pb3O10
_symmetry_space_group_name_H-M   'P 1'
_cell_length_a   7.40546181
_cell_length_b   7.40546181
_cell_length_c   5.79376000
_cell_angle_alpha   90.00000000
_cell_angle_beta   90.00000000
_cell_angle_gamma   119.99999831
_symmetry_Int_Tables_number   1
_chemical_formula_structural   Cd3Si2Pb3O10
_chemical_formula_sum   'Cd3 Si2 Pb3 O10'
_cell_volume   275.16641995
_cell_formula_units_Z   1
loop_
 _symmetry_equiv_pos_site_id
 _symmetry_equiv_pos_as_xyz
  1  'x, y, z'
loop_
 _atom_site_type_symbol
 _atom_site_label
 _atom_site_symmetry_multiplicity
 _atom_site_fract_x
 _atom_site_fract_y
 _atom_site_fract_z
 _atom_site_occupancy
  Cd  Cd0  1  0.15153100  0.30306200  0.99619600  1
  Cd  Cd1  1  0.15153100  0.84846900  0.99619600  1
  Cd  Cd2  1  0.69693800  0.84846900  0.99619600  1
  Si  Si3  1  0.33333300  0.66666700  0.49702100  1
  Si  Si4  1  0.66666700  0.33333300  0.02181700  1
  Pb  Pb5  1  0.84356300  0.68712700  0.49418400  1
  Pb  Pb6  1  0.84356300  0.15643700  0.49418400  1
  Pb  Pb7  1  0.31287300  0.15643700  0.49418400  1
  O  O8  1  0.21342400  0.42684900  0.39062000  1
  O  O9  1  0.21342400  0.78657600  0.39062000  1
  O  O10  1  0.57315100  0.78657600  0.39062000  1
  O  O11  1  0.00000000  0.00000000  0.74702500  1
  O  O12  1  0.33333300  0.66666700  0.78947800  1
  O  O13  1  0.00000000  0.00000000  0.23135600  1
  O  O14  1  0.66666700  0.33333300  0.30329200  1
  O  O15  1  0.79006700  0.58013500  0.93234200  1
  O  O16  1  0.79006700  0.20993300  0.93234200  1
  O  O17  1  0.41986500  0.20993300  0.93234200  1
