# generated using pymatgen
data_Ce3SnO8
_symmetry_space_group_name_H-M   'P 1'
_cell_length_a   12.70972521
_cell_length_b   12.70972521
_cell_length_c   12.70972503
_cell_angle_alpha   17.24263188
_cell_angle_beta   17.24263188
_cell_angle_gamma   17.24262943
_symmetry_Int_Tables_number   1
_chemical_formula_structural   Ce3SnO8
_chemical_formula_sum   'Ce3 Sn1 O8'
_cell_volume   157.40383324
_cell_formula_units_Z   1
loop_
 _symmetry_equiv_pos_site_id
 _symmetry_equiv_pos_as_xyz
  1  'x, y, z'
loop_
 _atom_site_type_symbol
 _atom_site_label
 _atom_site_symmetry_multiplicity
 _atom_site_fract_x
 _atom_site_fract_y
 _atom_site_fract_z
 _atom_site_occupancy
  Ce  Ce0  1  0.25210800  0.25210800  0.25210800  1
  Ce  Ce1  1  0.50000000  0.50000000  0.50000000  1
  Ce  Ce2  1  0.74789200  0.74789200  0.74789200  1
  Sn  Sn3  1  0.00000000  0.00000000  0.00000000  1
  O  O4  1  0.81184000  0.81184000  0.81184000  1
  O  O5  1  0.05858700  0.05858700  0.05858700  1
  O  O6  1  0.31564000  0.31564000  0.31564000  1
  O  O7  1  0.56396600  0.56396600  0.56396600  1
  O  O8  1  0.43603400  0.43603400  0.43603400  1
  O  O9  1  0.68436000  0.68436000  0.68436000  1
  O  O10  1  0.94141300  0.94141300  0.94141300  1
  O  O11  1  0.18816000  0.18816000  0.18816000  1
