# generated using pymatgen
data_Ce4ZrO10
_symmetry_space_group_name_H-M   'P 1'
_cell_length_a   15.68822488
_cell_length_b   15.68822488
_cell_length_c   15.68822429
_cell_angle_alpha   14.04142848
_cell_angle_beta   14.04142848
_cell_angle_gamma   14.04142808
_symmetry_Int_Tables_number   1
_chemical_formula_structural   Ce4ZrO10
_chemical_formula_sum   'Ce4 Zr1 O10'
_cell_volume   197.82696877
_cell_formula_units_Z   1
loop_
 _symmetry_equiv_pos_site_id
 _symmetry_equiv_pos_as_xyz
  1  'x, y, z'
loop_
 _atom_site_type_symbol
 _atom_site_label
 _atom_site_symmetry_multiplicity
 _atom_site_fract_x
 _atom_site_fract_y
 _atom_site_fract_z
 _atom_site_occupancy
  Ce  Ce0  1  0.60277500  0.60277500  0.60277500  1
  Ce  Ce1  1  0.20081100  0.20081100  0.20081100  1
  Ce  Ce2  1  0.79918900  0.79918900  0.79918900  1
  Ce  Ce3  1  0.39722500  0.39722500  0.39722500  1
  Zr  Zr4  1  0.00000000  0.00000000  0.00000000  1
  O  O5  1  0.04647700  0.04647700  0.04647700  1
  O  O6  1  0.44880200  0.44880200  0.44880200  1
  O  O7  1  0.85023400  0.85023400  0.85023400  1
  O  O8  1  0.65286800  0.65286800  0.65286800  1
  O  O9  1  0.25240900  0.25240900  0.25240900  1
  O  O10  1  0.34713200  0.34713200  0.34713200  1
  O  O11  1  0.74759100  0.74759100  0.74759100  1
  O  O12  1  0.14976600  0.14976600  0.14976600  1
  O  O13  1  0.95352300  0.95352300  0.95352300  1
  O  O14  1  0.55119800  0.55119800  0.55119800  1
