# generated using pymatgen
data_CdGa4HgTe8
_symmetry_space_group_name_H-M   'P 1'
_cell_length_a   6.05274300
_cell_length_b   7.71791171
_cell_length_c   11.52674368
_cell_angle_alpha   75.19766655
_cell_angle_beta   74.77844483
_cell_angle_gamma   66.91332614
_symmetry_Int_Tables_number   1
_chemical_formula_structural   CdGa4HgTe8
_chemical_formula_sum   'Cd1 Ga4 Hg1 Te8'
_cell_volume   470.85466535
_cell_formula_units_Z   1
loop_
 _symmetry_equiv_pos_site_id
 _symmetry_equiv_pos_as_xyz
  1  'x, y, z'
loop_
 _atom_site_type_symbol
 _atom_site_label
 _atom_site_symmetry_multiplicity
 _atom_site_fract_x
 _atom_site_fract_y
 _atom_site_fract_z
 _atom_site_occupancy
  Cd  Cd0  1  0.99996200  0.50000000  0.50000000  1
  Ga  Ga1  1  0.25057300  0.37514400  0.12485400  1
  Ga  Ga2  1  0.24944700  0.87494500  0.62505900  1
  Ga  Ga3  1  0.75057100  0.62485600  0.87514600  1
  Ga  Ga4  1  0.74945100  0.12505500  0.37494100  1
  Hg  Hg5  1  0.00046700  0.00000000  0.00000000  1
  Te  Te6  1  0.59669600  0.54818400  0.70132300  1
  Te  Te7  1  0.59595800  0.04719900  0.20194600  1
  Te  Te8  1  0.15551000  0.32648300  0.92258400  1
  Te  Te9  1  0.15323000  0.82596600  0.42305700  1
  Te  Te10  1  0.40457700  0.67351700  0.07741600  1
  Te  Te11  1  0.40225200  0.17403400  0.57694300  1
  Te  Te12  1  0.84620300  0.45181600  0.29867700  1
  Te  Te13  1  0.84510300  0.95280100  0.79805400  1
