# generated using pymatgen
data_CeYFe17
_symmetry_space_group_name_H-M   'P 1'
_cell_length_a   8.48627994
_cell_length_b   8.48627994
_cell_length_c   8.31019100
_cell_angle_alpha   90.00000000
_cell_angle_beta   90.00000000
_cell_angle_gamma   119.99999957
_symmetry_Int_Tables_number   1
_chemical_formula_structural   CeYFe17
_chemical_formula_sum   'Ce2 Y2 Fe34'
_cell_volume   518.29419839
_cell_formula_units_Z   2
loop_
 _symmetry_equiv_pos_site_id
 _symmetry_equiv_pos_as_xyz
  1  'x, y, z'
loop_
 _atom_site_type_symbol
 _atom_site_label
 _atom_site_symmetry_multiplicity
 _atom_site_fract_x
 _atom_site_fract_y
 _atom_site_fract_z
 _atom_site_occupancy
  Ce  Ce0  1  0.33333300  0.66666700  0.75000000  1
  Ce  Ce1  1  0.66666700  0.33333300  0.25000000  1
  Y  Y2  1  0.00000000  0.00000000  0.25000000  1
  Y  Y3  1  0.00000000  0.00000000  0.75000000  1
  Fe  Fe4  1  0.33333300  0.66666700  0.39337900  1
  Fe  Fe5  1  0.66666700  0.33333300  0.60662100  1
  Fe  Fe6  1  0.66666700  0.33333300  0.89337900  1
  Fe  Fe7  1  0.33333300  0.66666700  0.10662100  1
  Fe  Fe8  1  0.16572400  0.83427600  0.51328600  1
  Fe  Fe9  1  0.16572400  0.33144900  0.51328600  1
  Fe  Fe10  1  0.66855100  0.83427600  0.51328600  1
  Fe  Fe11  1  0.83427600  0.16572400  0.48671400  1
  Fe  Fe12  1  0.83427600  0.66855100  0.48671400  1
  Fe  Fe13  1  0.33144900  0.16572400  0.48671400  1
  Fe  Fe14  1  0.83427600  0.16572400  0.01328600  1
  Fe  Fe15  1  0.83427600  0.66855100  0.01328600  1
  Fe  Fe16  1  0.33144900  0.16572400  0.01328600  1
  Fe  Fe17  1  0.16572400  0.83427600  0.98671400  1
  Fe  Fe18  1  0.16572400  0.33144900  0.98671400  1
  Fe  Fe19  1  0.66855100  0.83427600  0.98671400  1
  Fe  Fe20  1  0.50000000  0.50000000  0.50000000  1
  Fe  Fe21  1  0.50000000  0.00000000  0.50000000  1
  Fe  Fe22  1  0.00000000  0.50000000  0.50000000  1
  Fe  Fe23  1  0.50000000  0.50000000  0.00000000  1
  Fe  Fe24  1  0.50000000  0.00000000  0.00000000  1
  Fe  Fe25  1  0.00000000  0.50000000  0.00000000  1
  Fe  Fe26  1  0.32932700  0.36777600  0.25000000  1
  Fe  Fe27  1  0.63222400  0.96155000  0.25000000  1
  Fe  Fe28  1  0.03845000  0.67067300  0.25000000  1
  Fe  Fe29  1  0.63222400  0.67067300  0.25000000  1
  Fe  Fe30  1  0.03845000  0.36777600  0.25000000  1
  Fe  Fe31  1  0.32932700  0.96155000  0.25000000  1
  Fe  Fe32  1  0.67067300  0.63222400  0.75000000  1
  Fe  Fe33  1  0.36777600  0.03845000  0.75000000  1
  Fe  Fe34  1  0.96155000  0.32932700  0.75000000  1
  Fe  Fe35  1  0.36777600  0.32932700  0.75000000  1
  Fe  Fe36  1  0.96155000  0.63222400  0.75000000  1
  Fe  Fe37  1  0.67067300  0.03845000  0.75000000  1
