# generated using pymatgen
data_Na4MgAl2(Si3O8)3
_symmetry_space_group_name_H-M   'P 1'
_cell_length_a   5.30582573
_cell_length_b   25.80646034
_cell_length_c   20.97406347
_cell_angle_alpha   17.83121845
_cell_angle_beta   73.70767186
_cell_angle_gamma   76.82029828
_symmetry_Int_Tables_number   1
_chemical_formula_structural   Na4MgAl2(Si3O8)3
_chemical_formula_sum   'Na8 Mg2 Al4 Si18 O48'
_cell_volume   836.60557986
_cell_formula_units_Z   2
loop_
 _symmetry_equiv_pos_site_id
 _symmetry_equiv_pos_as_xyz
  1  'x, y, z'
loop_
 _atom_site_type_symbol
 _atom_site_label
 _atom_site_symmetry_multiplicity
 _atom_site_fract_x
 _atom_site_fract_y
 _atom_site_fract_z
 _atom_site_occupancy
  Na  Na0  1  0.25041500  0.20152000  0.29909000  1
  Na  Na1  1  0.25045500  0.44989300  0.30069100  1
  Na  Na2  1  0.24954500  0.70106300  0.29835200  1
  Na  Na3  1  0.24958500  0.95273900  0.29665200  1
  Na  Na4  1  0.74980400  0.04883000  0.70023700  1
  Na  Na5  1  0.75019600  0.29696400  0.70396900  1
  Na  Na6  1  0.75012600  0.54880800  0.70208100  1
  Na  Na7  1  0.74987400  0.80058500  0.69852600  1
  Mg  Mg8  1  0.75033000  0.15576700  0.09374500  1
  Mg  Mg9  1  0.74967000  0.40479100  0.09569700  1
  Al  Al10  1  0.24889400  0.09397700  0.90630800  1
  Al  Al11  1  0.74875000  0.65421700  0.09610200  1
  Al  Al12  1  0.75125000  0.90485500  0.09482700  1
  Al  Al13  1  0.25110600  0.84454700  0.90516800  1
  Si  Si14  1  0.26702400  0.01066300  0.38484900  1
  Si  Si15  1  0.26715500  0.26409000  0.38062800  1
  Si  Si16  1  0.22852300  0.05184000  0.80272200  1
  Si  Si17  1  0.27147700  0.51096200  0.38447700  1
  Si  Si18  1  0.77785700  0.19800300  0.19588800  1
  Si  Si19  1  0.23284500  0.30352500  0.80175800  1
  Si  Si20  1  0.27104400  0.75761400  0.38857000  1
  Si  Si21  1  0.77858300  0.45012900  0.19491100  1
  Si  Si22  1  0.24887100  0.34409500  0.90602000  1
  Si  Si23  1  0.23297600  0.55168600  0.80280200  1
  Si  Si24  1  0.72728800  0.23804600  0.61687900  1
  Si  Si25  1  0.77271200  0.69789600  0.19717900  1
  Si  Si26  1  0.25112900  0.59432700  0.90555800  1
  Si  Si27  1  0.22895600  0.79998100  0.80383600  1
  Si  Si28  1  0.72141700  0.49021100  0.61474800  1
  Si  Si29  1  0.77169900  0.94554100  0.19832400  1
  Si  Si30  1  0.72214300  0.73578400  0.62032600  1
  Si  Si31  1  0.72830100  0.98326900  0.62286600  1
  O  O32  1  0.34362300  0.12751000  0.17780400  1
  O  O33  1  0.00838600  0.17108500  0.65293400  1
  O  O34  1  0.21134800  0.05880500  0.62108900  1
  O  O35  1  0.70873200  0.08467400  0.08994100  1
  O  O36  1  0.34057000  0.38069900  0.17411500  1
  O  O37  1  0.49837700  0.06769900  0.35475300  1
  O  O38  1  0.87408200  0.01755600  0.03551200  1
  O  O39  1  0.00308500  0.41915700  0.65920400  1
  O  O40  1  0.20835600  0.30613500  0.62519800  1
  O  O41  1  0.70629700  0.33393300  0.09184500  1
  O  O42  1  0.37000400  0.61823200  0.18660000  1
  O  O43  1  0.49691500  0.32587900  0.34576000  1
  O  O44  1  0.90353900  0.28174400  0.02069200  1
  O  O45  1  0.00162300  0.66260400  0.66494400  1
  O  O46  1  0.15943000  0.24032600  0.95486000  1
  O  O47  1  0.50872300  0.18192300  0.64130400  1
  O  O48  1  0.28865200  0.16859400  0.90151100  1
  O  O49  1  0.19932400  0.54907900  0.63675400  1
  O  O50  1  0.79126800  0.18390300  0.39148300  1
  O  O51  1  0.70710200  0.58082100  0.10068900  1
  O  O52  1  0.37127600  0.86485200  0.19049500  1
  O  O53  1  0.49161400  0.56912300  0.35685800  1
  O  O54  1  0.90196900  0.53510900  0.01825200  1
  O  O55  1  0.98720200  0.07378400  0.35519800  1
  O  O56  1  0.00701200  0.91467900  0.65866100  1
  O  O57  1  0.15637700  0.48813800  0.95654800  1
  O  O58  1  0.51202000  0.43689700  0.63343900  1
  O  O59  1  0.62583000  0.12911700  0.81685300  1
  O  O60  1  0.29802800  0.42047900  0.89493800  1
  O  O61  1  0.20197200  0.80131300  0.63327000  1
  O  O62  1  0.79077100  0.44281200  0.37670300  1
  O  O63  1  0.70922900  0.83184000  0.09864600  1
  O  O64  1  0.49298800  0.81136000  0.36530000  1
  O  O65  1  0.87417000  0.77105600  0.03297400  1
  O  O66  1  0.98798000  0.32756900  0.35209500  1
  O  O67  1  0.12872400  0.72554600  0.96910700  1
  O  O68  1  0.51279800  0.68174800  0.63927000  1
  O  O69  1  0.59803100  0.39183000  0.80480900  1
  O  O70  1  0.30067600  0.67074300  0.89342500  1
  O  O71  1  0.79289800  0.69384100  0.37464900  1
  O  O72  1  0.99127700  0.57837600  0.34839800  1
  O  O73  1  0.12999600  0.97789600  0.96727100  1
  O  O74  1  0.50963600  0.92635300  0.64765500  1
  O  O75  1  0.59646100  0.63661500  0.81094900  1
  O  O76  1  0.29164400  0.91880100  0.89986600  1
  O  O77  1  0.79370300  0.93548900  0.38873300  1
  O  O78  1  0.99036400  0.82436900  0.35162200  1
  O  O79  1  0.62591800  0.87369100  0.82324100  1
