# generated using pymatgen
data_Ce3Th3Si4
_symmetry_space_group_name_H-M   'P 1'
_cell_length_a   7.74370059
_cell_length_b   7.74370059
_cell_length_c   4.15573500
_cell_angle_alpha   90.00000000
_cell_angle_beta   90.00000000
_cell_angle_gamma   90.13321456
_symmetry_Int_Tables_number   1
_chemical_formula_structural   Ce3Th3Si4
_chemical_formula_sum   'Ce3 Th3 Si4'
_cell_volume   249.19755540
_cell_formula_units_Z   1
loop_
 _symmetry_equiv_pos_site_id
 _symmetry_equiv_pos_as_xyz
  1  'x, y, z'
loop_
 _atom_site_type_symbol
 _atom_site_label
 _atom_site_symmetry_multiplicity
 _atom_site_fract_x
 _atom_site_fract_y
 _atom_site_fract_z
 _atom_site_occupancy
  Ce  Ce0  1  0.50136400  0.99742100  0.00000000  1
  Ce  Ce1  1  0.99742100  0.50136400  0.00000000  1
  Ce  Ce2  1  0.68109700  0.68109700  0.50000000  1
  Th  Th3  1  0.31971500  0.31971500  0.50000000  1
  Th  Th4  1  0.17986700  0.81952700  0.50000000  1
  Th  Th5  1  0.81952700  0.17986700  0.50000000  1
  Si  Si6  1  0.11354500  0.11354500  0.00000000  1
  Si  Si7  1  0.88514800  0.88514800  0.00000000  1
  Si  Si8  1  0.61396100  0.38835500  0.00000000  1
  Si  Si9  1  0.38835500  0.61396100  0.00000000  1
