# generated using pymatgen
data_CsNb2(SiO3)8
_symmetry_space_group_name_H-M   'P 1'
_cell_length_a   7.58633600
_cell_length_b   9.13945733
_cell_length_c   9.90633394
_cell_angle_alpha   89.85917430
_cell_angle_beta   108.37192842
_cell_angle_gamma   90.97170654
_symmetry_Int_Tables_number   1
_chemical_formula_structural   CsNb2(SiO3)8
_chemical_formula_sum   'Cs1 Nb2 Si8 O24'
_cell_volume   651.75019349
_cell_formula_units_Z   1
loop_
 _symmetry_equiv_pos_site_id
 _symmetry_equiv_pos_as_xyz
  1  'x, y, z'
loop_
 _atom_site_type_symbol
 _atom_site_label
 _atom_site_symmetry_multiplicity
 _atom_site_fract_x
 _atom_site_fract_y
 _atom_site_fract_z
 _atom_site_occupancy
  Cs  Cs0  1  0.00000000  0.50000000  0.50000000  1
  Nb  Nb1  1  0.08723400  0.24553700  0.90403900  1
  Nb  Nb2  1  0.91276600  0.75446300  0.09596100  1
  Si  Si3  1  0.43504500  0.24794500  0.73879600  1
  Si  Si4  1  0.56495500  0.75205500  0.26120400  1
  Si  Si5  1  0.27710600  0.00413000  0.19003900  1
  Si  Si6  1  0.73615900  0.49825700  0.80793600  1
  Si  Si7  1  0.72289400  0.99587000  0.80996100  1
  Si  Si8  1  0.26384100  0.50174300  0.19206400  1
  Si  Si9  1  0.41958600  0.25435300  0.41769900  1
  Si  Si10  1  0.58041400  0.74564700  0.58230100  1
  O  O11  1  0.98585500  0.27396400  0.07499100  1
  O  O12  1  0.01414500  0.72603600  0.92500900  1
  O  O13  1  0.09403800  0.90354100  0.18473600  1
  O  O14  1  0.91276200  0.39929800  0.80623000  1
  O  O15  1  0.90596200  0.09645900  0.81526400  1
  O  O16  1  0.08723800  0.60070200  0.19377000  1
  O  O17  1  0.24813100  0.25363700  0.78725600  1
  O  O18  1  0.75186900  0.74636300  0.21274400  1
  O  O19  1  0.31109200  0.39887800  0.33409200  1
  O  O20  1  0.67073700  0.89552000  0.66716300  1
  O  O21  1  0.68890800  0.60112200  0.66590800  1
  O  O22  1  0.32926300  0.10448000  0.33283700  1
  O  O23  1  0.36559000  0.24935300  0.56579000  1
  O  O24  1  0.63441000  0.75064700  0.43421000  1
  O  O25  1  0.44250100  0.60550800  0.19864400  1
  O  O26  1  0.54929700  0.10150500  0.80237600  1
  O  O27  1  0.55749900  0.39449200  0.80135600  1
  O  O28  1  0.45070300  0.89849500  0.19762400  1
  O  O29  1  0.77564600  0.59475700  0.95396700  1
  O  O30  1  0.23337200  0.10183900  0.04540900  1
  O  O31  1  0.22435400  0.40524300  0.04603300  1
  O  O32  1  0.76662800  0.89816100  0.95459100  1
  O  O33  1  0.63849500  0.27706500  0.43761900  1
  O  O34  1  0.36150500  0.72293500  0.56238100  1
