# generated using pymatgen
data_Cd4Si(SeS)3
_symmetry_space_group_name_H-M   'P 1'
_cell_length_a   7.31724600
_cell_length_b   7.35094029
_cell_length_c   12.82695454
_cell_angle_alpha   90.07977971
_cell_angle_beta   73.42744580
_cell_angle_gamma   119.84848887
_symmetry_Int_Tables_number   1
_chemical_formula_structural   Cd4Si(SeS)3
_chemical_formula_sum   'Cd8 Si2 Se6 S6'
_cell_volume   565.30167343
_cell_formula_units_Z   2
loop_
 _symmetry_equiv_pos_site_id
 _symmetry_equiv_pos_as_xyz
  1  'x, y, z'
loop_
 _atom_site_type_symbol
 _atom_site_label
 _atom_site_symmetry_multiplicity
 _atom_site_fract_x
 _atom_site_fract_y
 _atom_site_fract_z
 _atom_site_occupancy
  Cd  Cd0  1  0.43026100  0.50658800  0.50320100  1
  Cd  Cd1  1  0.07312600  0.00658800  0.00320100  1
  Cd  Cd2  1  0.05454000  0.80838000  0.49846500  1
  Cd  Cd3  1  0.75537600  0.30838000  0.99846500  1
  Cd  Cd4  1  0.41160600  0.58072400  0.15256100  1
  Cd  Cd5  1  0.51655800  0.08072400  0.65256100  1
  Cd  Cd6  1  0.75537000  0.05906800  0.30778600  1
  Cd  Cd7  1  0.49591200  0.55906800  0.80778600  1
  Si  Si8  1  0.92317700  0.61674800  0.24601200  1
  Si  Si9  1  0.94755800  0.11674800  0.74601200  1
  Se  Se10  1  0.06650200  0.94410200  0.29683900  1
  Se  Se11  1  0.08076200  0.44410200  0.79683900  1
  Se  Se12  1  0.54505300  0.41769400  0.29592400  1
  Se  Se13  1  0.07671700  0.91769400  0.79592400  1
  Se  Se14  1  0.07795800  0.65516600  0.05950800  1
  Se  Se15  1  0.01769900  0.15516600  0.55950800  1
  S  S16  1  0.70831600  0.98850800  0.11588300  1
  S  S17  1  0.66430900  0.48850800  0.61588300  1
  S  S18  1  0.03893700  0.45117500  0.32022000  1
  S  S19  1  0.59201800  0.95117500  0.82022000  1
  S  S20  1  0.43538400  0.36184600  0.99359900  1
  S  S21  1  0.43286200  0.86184600  0.49359900  1
