# generated using pymatgen
data_CdGa4As4Se
_symmetry_space_group_name_H-M   'P 1'
_cell_length_a   4.11288801
_cell_length_b   4.11288801
_cell_length_c   17.14604274
_cell_angle_alpha   83.11153881
_cell_angle_beta   90.00000000
_cell_angle_gamma   120.00000000
_symmetry_Int_Tables_number   1
_chemical_formula_structural   CdGa4As4Se
_chemical_formula_sum   'Cd1 Ga4 As4 Se1'
_cell_volume   248.76140382
_cell_formula_units_Z   1
loop_
 _symmetry_equiv_pos_site_id
 _symmetry_equiv_pos_as_xyz
  1  'x, y, z'
loop_
 _atom_site_type_symbol
 _atom_site_label
 _atom_site_symmetry_multiplicity
 _atom_site_fract_x
 _atom_site_fract_y
 _atom_site_fract_z
 _atom_site_occupancy
  Cd  Cd0  1  0.99779200  0.99558500  0.00662300  1
  Ga  Ga1  1  0.59758500  0.19516900  0.20724600  1
  Ga  Ga2  1  0.19930600  0.39861300  0.40208100  1
  Ga  Ga3  1  0.80091600  0.60183200  0.59725200  1
  Ga  Ga4  1  0.40297000  0.80594000  0.79109000  1
  As  As5  1  0.94648700  0.89297400  0.16054000  1
  As  As6  1  0.54840900  0.09681800  0.35477300  1
  As  As7  1  0.15008500  0.30017000  0.54974500  1
  As  As8  1  0.75172600  0.50345200  0.74482100  1
  Se  Se9  1  0.35472400  0.70944700  0.93582900  1
