# generated using pymatgen
data_NaCa2GeO4F
_symmetry_space_group_name_H-M   'P 1'
_cell_length_a   5.55342868
_cell_length_b   7.39620651
_cell_length_c   12.70011497
_cell_angle_alpha   89.90406342
_cell_angle_beta   90.31856619
_cell_angle_gamma   90.07766950
_symmetry_Int_Tables_number   1
_chemical_formula_structural   NaCa2GeO4F
_chemical_formula_sum   'Na4 Ca8 Ge4 O16 F4'
_cell_volume   521.63913299
_cell_formula_units_Z   4
loop_
 _symmetry_equiv_pos_site_id
 _symmetry_equiv_pos_as_xyz
  1  'x, y, z'
loop_
 _atom_site_type_symbol
 _atom_site_label
 _atom_site_symmetry_multiplicity
 _atom_site_fract_x
 _atom_site_fract_y
 _atom_site_fract_z
 _atom_site_occupancy
  Na  Na0  1  0.23209100  0.23660500  0.41559500  1
  Na  Na1  1  0.22790500  0.00223700  0.66248700  1
  Na  Na2  1  0.73306400  0.50150500  0.82824400  1
  Na  Na3  1  0.77506100  0.00141600  0.34016900  1
  Ca  Ca4  1  0.22433500  0.50713100  0.66841100  1
  Ca  Ca5  1  0.27487200  0.01569800  0.17783200  1
  Ca  Ca6  1  0.27366900  0.49543600  0.17297800  1
  Ca  Ca7  1  0.27238600  0.74389600  0.90385800  1
  Ca  Ca8  1  0.73008600  0.25196800  0.08985800  1
  Ca  Ca9  1  0.72546700  0.98923600  0.82448500  1
  Ca  Ca10  1  0.77993100  0.47809100  0.33793400  1
  Ca  Ca11  1  0.77195300  0.75700000  0.59290400  1
  Ge  Ge12  1  0.20168300  0.24577200  0.91618200  1
  Ge  Ge13  1  0.29634900  0.74530100  0.41586200  1
  Ge  Ge14  1  0.69818700  0.25511300  0.58258300  1
  Ge  Ge15  1  0.79597300  0.75703000  0.08271800  1
  O  O16  1  0.12367300  0.75547100  0.08137600  1
  O  O17  1  0.18128900  0.74352800  0.54641500  1
  O  O18  1  0.21664700  0.94222700  0.34560400  1
  O  O19  1  0.18845400  0.55354300  0.34375800  1
  O  O20  1  0.31313800  0.04745200  0.85606100  1
  O  O21  1  0.28472200  0.44589000  0.84919600  1
  O  O22  1  0.31012100  0.25768300  0.04955800  1
  O  O23  1  0.37843000  0.26551100  0.58643700  1
  O  O24  1  0.62002000  0.72744500  0.42394900  1
  O  O25  1  0.68952700  0.75272400  0.95116100  1
  O  O26  1  0.69992400  0.55743300  0.15153300  1
  O  O27  1  0.69492500  0.95417100  0.14856300  1
  O  O28  1  0.78952000  0.05525900  0.65165400  1
  O  O29  1  0.81174500  0.45336600  0.64793100  1
  O  O30  1  0.80138300  0.24821300  0.45171700  1
  O  O31  1  0.87911100  0.23160400  0.92200000  1
  F  F32  1  0.00678600  0.25918000  0.22642200  1
  F  F33  1  0.49568800  0.74708300  0.73824000  1
  F  F34  1  0.50505500  0.26260500  0.25216000  1
  F  F35  1  0.99683000  0.75618000  0.76416300  1
