# generated using pymatgen
data_Ce2AlFe3
_symmetry_space_group_name_H-M   'P 1'
_cell_length_a   5.14569560
_cell_length_b   5.14569560
_cell_length_c   5.14569602
_cell_angle_alpha   61.58570489
_cell_angle_beta   61.58570489
_cell_angle_gamma   61.58569677
_symmetry_Int_Tables_number   1
_chemical_formula_structural   Ce2AlFe3
_chemical_formula_sum   'Ce2 Al1 Fe3'
_cell_volume   99.76960314
_cell_formula_units_Z   1
loop_
 _symmetry_equiv_pos_site_id
 _symmetry_equiv_pos_as_xyz
  1  'x, y, z'
loop_
 _atom_site_type_symbol
 _atom_site_label
 _atom_site_symmetry_multiplicity
 _atom_site_fract_x
 _atom_site_fract_y
 _atom_site_fract_z
 _atom_site_occupancy
  Ce  Ce0  1  0.61797300  0.61797300  0.61797300  1
  Ce  Ce1  1  0.38202700  0.38202700  0.38202700  1
  Al  Al2  1  0.00000000  0.00000000  0.00000000  1
  Fe  Fe3  1  0.00000000  0.50000000  0.00000000  1
  Fe  Fe4  1  0.50000000  0.00000000  0.00000000  1
  Fe  Fe5  1  0.00000000  0.00000000  0.50000000  1
