# generated using pymatgen
data_Ce2Al3GaPd4
_symmetry_space_group_name_H-M   'P 1'
_cell_length_a   4.29070200
_cell_length_b   4.29070200
_cell_length_c   10.41949200
_cell_angle_alpha   90.00000000
_cell_angle_beta   90.00000000
_cell_angle_gamma   90.00000000
_symmetry_Int_Tables_number   1
_chemical_formula_structural   Ce2Al3GaPd4
_chemical_formula_sum   'Ce2 Al3 Ga1 Pd4'
_cell_volume   191.82413612
_cell_formula_units_Z   1
loop_
 _symmetry_equiv_pos_site_id
 _symmetry_equiv_pos_as_xyz
  1  'x, y, z'
loop_
 _atom_site_type_symbol
 _atom_site_label
 _atom_site_symmetry_multiplicity
 _atom_site_fract_x
 _atom_site_fract_y
 _atom_site_fract_z
 _atom_site_occupancy
  Ce  Ce0  1  0.50000000  0.00000000  0.25498800  1
  Ce  Ce1  1  0.00000000  0.50000000  0.74501200  1
  Al  Al2  1  0.00000000  0.00000000  0.50000000  1
  Al  Al3  1  0.50000000  0.00000000  0.87504300  1
  Al  Al4  1  0.00000000  0.50000000  0.12495700  1
  Ga  Ga5  1  0.50000000  0.50000000  0.50000000  1
  Pd  Pd6  1  0.50000000  0.50000000  0.00000000  1
  Pd  Pd7  1  0.00000000  0.00000000  0.00000000  1
  Pd  Pd8  1  0.50000000  0.00000000  0.63612500  1
  Pd  Pd9  1  0.00000000  0.50000000  0.36387500  1
