# generated using pymatgen
data_Ce4SnO10
_symmetry_space_group_name_H-M   'P 1'
_cell_length_a   10.15541097
_cell_length_b   10.15541097
_cell_length_c   10.15541097
_cell_angle_alpha   158.35067461
_cell_angle_beta   149.05586932
_cell_angle_gamma   38.08204603
_symmetry_Int_Tables_number   1
_chemical_formula_structural   Ce4SnO10
_chemical_formula_sum   'Ce4 Sn1 O10'
_cell_volume   198.40612297
_cell_formula_units_Z   1
loop_
 _symmetry_equiv_pos_site_id
 _symmetry_equiv_pos_as_xyz
  1  'x, y, z'
loop_
 _atom_site_type_symbol
 _atom_site_label
 _atom_site_symmetry_multiplicity
 _atom_site_fract_x
 _atom_site_fract_y
 _atom_site_fract_z
 _atom_site_occupancy
  Ce  Ce0  1  0.59782400  0.59782400  0.00000000  1
  Ce  Ce1  1  0.19866300  0.19866300  0.00000000  1
  Ce  Ce2  1  0.80133700  0.80133700  0.00000000  1
  Ce  Ce3  1  0.40217600  0.40217600  0.00000000  1
  Sn  Sn4  1  0.00000000  0.00000000  0.00000000  1
  O  O5  1  0.54944800  0.30089100  0.24855700  1
  O  O6  1  0.14847400  0.90499100  0.24348300  1
  O  O7  1  0.76527800  0.50000000  0.26527800  1
  O  O8  1  0.33849200  0.09500900  0.24348300  1
  O  O9  1  0.94766600  0.69910900  0.24855700  1
  O  O10  1  0.05233400  0.30089100  0.75144300  1
  O  O11  1  0.66150800  0.90499100  0.75651700  1
  O  O12  1  0.23472200  0.50000000  0.73472200  1
  O  O13  1  0.85152600  0.09500900  0.75651700  1
  O  O14  1  0.45055200  0.69910900  0.75144300  1
