# generated using pymatgen
data_Cd2In3Ag3Te8
_symmetry_space_group_name_H-M   'P 1'
_cell_length_a   6.60644700
_cell_length_b   6.60644700
_cell_length_c   12.99935000
_cell_angle_alpha   90.00000000
_cell_angle_beta   90.00000000
_cell_angle_gamma   90.00000000
_symmetry_Int_Tables_number   1
_chemical_formula_structural   Cd2In3Ag3Te8
_chemical_formula_sum   'Cd2 In3 Ag3 Te8'
_cell_volume   567.35847619
_cell_formula_units_Z   1
loop_
 _symmetry_equiv_pos_site_id
 _symmetry_equiv_pos_as_xyz
  1  'x, y, z'
loop_
 _atom_site_type_symbol
 _atom_site_label
 _atom_site_symmetry_multiplicity
 _atom_site_fract_x
 _atom_site_fract_y
 _atom_site_fract_z
 _atom_site_occupancy
  Cd  Cd0  1  0.50000000  0.50000000  0.50000000  1
  Cd  Cd1  1  0.00000000  0.00000000  0.50000000  1
  In  In2  1  0.50000000  0.00000000  0.24954400  1
  In  In3  1  0.00000000  0.50000000  0.75045600  1
  In  In4  1  0.50000000  0.50000000  0.00000000  1
  Ag  Ag5  1  0.00000000  0.50000000  0.24976000  1
  Ag  Ag6  1  0.50000000  0.00000000  0.75024000  1
  Ag  Ag7  1  0.00000000  0.00000000  0.00000000  1
  Te  Te8  1  0.75272400  0.25092300  0.37292800  1
  Te  Te9  1  0.24871500  0.75489500  0.87527200  1
  Te  Te10  1  0.24727600  0.74907700  0.37292800  1
  Te  Te11  1  0.75128500  0.24510500  0.87527200  1
  Te  Te12  1  0.24510500  0.24871500  0.12472800  1
  Te  Te13  1  0.74907700  0.75272400  0.62707200  1
  Te  Te14  1  0.75489500  0.75128500  0.12472800  1
  Te  Te15  1  0.25092300  0.24727600  0.62707200  1
