# generated using pymatgen
data_Cd3(CuP5)2
_symmetry_space_group_name_H-M   'P 1'
_cell_length_a   7.46923032
_cell_length_b   7.46923032
_cell_length_c   7.46922993
_cell_angle_alpha   60.15507820
_cell_angle_beta   60.15507820
_cell_angle_gamma   60.15508359
_symmetry_Int_Tables_number   1
_chemical_formula_structural   Cd3(CuP5)2
_chemical_formula_sum   'Cd3 Cu2 P10'
_cell_volume   295.68913182
_cell_formula_units_Z   1
loop_
 _symmetry_equiv_pos_site_id
 _symmetry_equiv_pos_as_xyz
  1  'x, y, z'
loop_
 _atom_site_type_symbol
 _atom_site_label
 _atom_site_symmetry_multiplicity
 _atom_site_fract_x
 _atom_site_fract_y
 _atom_site_fract_z
 _atom_site_occupancy
  Cd  Cd0  1  0.40416100  0.40416100  0.78719700  1
  Cd  Cd1  1  0.78719700  0.40416100  0.40416100  1
  Cd  Cd2  1  0.40416100  0.78719700  0.40416100  1
  Cu  Cu3  1  0.00098000  0.00098000  0.00098000  1
  Cu  Cu4  1  0.39004800  0.39004800  0.39004800  1
  P  P5  1  0.00855400  0.50793000  0.50793000  1
  P  P6  1  0.50793000  0.50793000  0.00855400  1
  P  P7  1  0.50793000  0.00855400  0.50793000  1
  P  P8  1  0.51245700  0.98810500  0.98810500  1
  P  P9  1  0.98810500  0.51245700  0.98810500  1
  P  P10  1  0.98810500  0.98810500  0.51245700  1
  P  P11  1  0.87122200  0.87122200  0.38565600  1
  P  P12  1  0.87122200  0.38565600  0.87122200  1
  P  P13  1  0.38565600  0.87122200  0.87122200  1
  P  P14  1  0.87227100  0.87227100  0.87227100  1
