# generated using pymatgen
data_CeCdIn
_symmetry_space_group_name_H-M   'P 1'
_cell_length_a   4.99974596
_cell_length_b   4.99974596
_cell_length_c   7.34932100
_cell_angle_alpha   90.00000000
_cell_angle_beta   90.00000000
_cell_angle_gamma   119.99999944
_symmetry_Int_Tables_number   1
_chemical_formula_structural   CeCdIn
_chemical_formula_sum   'Ce2 Cd2 In2'
_cell_volume   159.10129946
_cell_formula_units_Z   2
loop_
 _symmetry_equiv_pos_site_id
 _symmetry_equiv_pos_as_xyz
  1  'x, y, z'
loop_
 _atom_site_type_symbol
 _atom_site_label
 _atom_site_symmetry_multiplicity
 _atom_site_fract_x
 _atom_site_fract_y
 _atom_site_fract_z
 _atom_site_occupancy
  Ce  Ce0  1  0.00000000  0.00000000  0.25992600  1
  Ce  Ce1  1  0.00000000  0.00000000  0.74007400  1
  Cd  Cd2  1  0.66666700  0.33333300  0.47936400  1
  Cd  Cd3  1  0.33333300  0.66666700  0.52063600  1
  In  In4  1  0.33333300  0.66666700  0.95851600  1
  In  In5  1  0.66666700  0.33333300  0.04148400  1
