# generated using pymatgen
data_CaLa3(CoO4)2
_symmetry_space_group_name_H-M   'P 1'
_cell_length_a   6.90853845
_cell_length_b   7.65217236
_cell_length_c   7.65640461
_cell_angle_alpha   89.87017828
_cell_angle_beta   73.91184482
_cell_angle_gamma   73.89404355
_symmetry_Int_Tables_number   1
_chemical_formula_structural   CaLa3(CoO4)2
_chemical_formula_sum   'Ca2 La6 Co4 O16'
_cell_volume   372.41970754
_cell_formula_units_Z   2
loop_
 _symmetry_equiv_pos_site_id
 _symmetry_equiv_pos_as_xyz
  1  'x, y, z'
loop_
 _atom_site_type_symbol
 _atom_site_label
 _atom_site_symmetry_multiplicity
 _atom_site_fract_x
 _atom_site_fract_y
 _atom_site_fract_z
 _atom_site_occupancy
  Ca  Ca0  1  0.71777000  0.82248100  0.31714700  1
  Ca  Ca1  1  0.71432500  0.32169800  0.82128800  1
  La  La2  1  0.72273100  0.31905100  0.32098900  1
  La  La3  1  0.72371200  0.81703600  0.81870100  1
  La  La4  1  0.28442700  0.67729600  0.67472200  1
  La  La5  1  0.28510700  0.17667300  0.17757200  1
  La  La6  1  0.28093800  0.68033700  0.17961600  1
  La  La7  1  0.27712200  0.17656000  0.67972900  1
  Co  Co8  1  0.98759200  0.50167400  0.49995000  1
  Co  Co9  1  0.98912000  0.00050600  0.00079700  1
  Co  Co10  1  0.98626900  0.00162800  0.50083900  1
  Co  Co11  1  0.99385700  0.49909000  0.99899600  1
  O  O12  1  0.35278600  0.90662800  0.40758200  1
  O  O13  1  0.34562600  0.40767100  0.91073000  1
  O  O14  1  0.36035100  0.40949400  0.40497500  1
  O  O15  1  0.36079800  0.90865500  0.90748500  1
  O  O16  1  0.64674200  0.58086200  0.58674400  1
  O  O17  1  0.64759100  0.08216300  0.08392000  1
  O  O18  1  0.65035500  0.58526700  0.08207300  1
  O  O19  1  0.64595200  0.08482700  0.58224300  1
  O  O20  1  0.00563500  0.25357700  0.49791400  1
  O  O21  1  0.00518100  0.75180400  0.99581100  1
  O  O22  1  0.00553900  0.99511300  0.75369800  1
  O  O23  1  0.00030600  0.50019300  0.25303900  1
  O  O24  1  0.00573500  0.73979200  0.49801200  1
  O  O25  1  0.99682500  0.24245900  0.00111400  1
  O  O26  1  0.00682600  0.99734500  0.23872200  1
  O  O27  1  0.00077900  0.49612100  0.74159200  1
