# generated using pymatgen
data_CaUF6
_symmetry_space_group_name_H-M   'P 1'
_cell_length_a   4.07818182
_cell_length_b   4.07818182
_cell_length_c   7.15140500
_cell_angle_alpha   90.00000000
_cell_angle_beta   90.00000000
_cell_angle_gamma   119.99999700
_symmetry_Int_Tables_number   1
_chemical_formula_structural   CaUF6
_chemical_formula_sum   'Ca1 U1 F6'
_cell_volume   103.00425994
_cell_formula_units_Z   1
loop_
 _symmetry_equiv_pos_site_id
 _symmetry_equiv_pos_as_xyz
  1  'x, y, z'
loop_
 _atom_site_type_symbol
 _atom_site_label
 _atom_site_symmetry_multiplicity
 _atom_site_fract_x
 _atom_site_fract_y
 _atom_site_fract_z
 _atom_site_occupancy
  Ca  Ca0  1  0.33333300  0.66666700  0.00000000  1
  U  U1  1  0.00000000  0.00000000  0.50000000  1
  F  F2  1  0.66666700  0.33333300  0.00000000  1
  F  F3  1  0.66666700  0.33333300  0.50000000  1
  F  F4  1  0.33333300  0.66666700  0.66341600  1
  F  F5  1  0.00000000  0.00000000  0.79959900  1
  F  F6  1  0.00000000  0.00000000  0.20040100  1
  F  F7  1  0.33333300  0.66666700  0.33658400  1
