# generated using pymatgen
data_CeAgPb
_symmetry_space_group_name_H-M   'P 1'
_cell_length_a   5.54164805
_cell_length_b   5.54164805
_cell_length_c   8.76592700
_cell_angle_alpha   90.00000000
_cell_angle_beta   90.00000000
_cell_angle_gamma   120.00000055
_symmetry_Int_Tables_number   1
_chemical_formula_structural   CeAgPb
_chemical_formula_sum   'Ce2 Ag2 Pb2'
_cell_volume   233.13439925
_cell_formula_units_Z   2
loop_
 _symmetry_equiv_pos_site_id
 _symmetry_equiv_pos_as_xyz
  1  'x, y, z'
loop_
 _atom_site_type_symbol
 _atom_site_label
 _atom_site_symmetry_multiplicity
 _atom_site_fract_x
 _atom_site_fract_y
 _atom_site_fract_z
 _atom_site_occupancy
  Ce  Ce0  1  0.00000000  0.00000000  0.25095700  1
  Ce  Ce1  1  0.00000000  0.00000000  0.74904300  1
  Ag  Ag2  1  0.33333300  0.66666700  0.45526500  1
  Ag  Ag3  1  0.66666700  0.33333300  0.54473500  1
  Pb  Pb4  1  0.66666700  0.33333300  0.95472200  1
  Pb  Pb5  1  0.33333300  0.66666700  0.04527800  1
