# generated using pymatgen
data_Ca4ZnAg3
_symmetry_space_group_name_H-M   'P 1'
_cell_length_a   4.07163100
_cell_length_b   4.66809700
_cell_length_c   11.42433300
_cell_angle_alpha   90.00000000
_cell_angle_beta   90.00000000
_cell_angle_gamma   90.00000000
_symmetry_Int_Tables_number   1
_chemical_formula_structural   Ca4ZnAg3
_chemical_formula_sum   'Ca4 Zn1 Ag3'
_cell_volume   217.13965210
_cell_formula_units_Z   1
loop_
 _symmetry_equiv_pos_site_id
 _symmetry_equiv_pos_as_xyz
  1  'x, y, z'
loop_
 _atom_site_type_symbol
 _atom_site_label
 _atom_site_symmetry_multiplicity
 _atom_site_fract_x
 _atom_site_fract_y
 _atom_site_fract_z
 _atom_site_occupancy
  Ca  Ca0  1  0.50000000  0.50000000  0.14379900  1
  Ca  Ca1  1  0.00000000  0.50000000  0.64206500  1
  Ca  Ca2  1  0.00000000  0.00000000  0.35799900  1
  Ca  Ca3  1  0.50000000  0.00000000  0.85679200  1
  Zn  Zn4  1  0.50000000  0.50000000  0.42953600  1
  Ag  Ag5  1  0.00000000  0.50000000  0.92549000  1
  Ag  Ag6  1  0.00000000  0.00000000  0.07451900  1
  Ag  Ag7  1  0.50000000  0.00000000  0.56980000  1
