# generated using pymatgen
data_CaThNb2O8
_symmetry_space_group_name_H-M   'P 1'
_cell_length_a   6.74136002
_cell_length_b   6.74136002
_cell_length_c   5.21441793
_cell_angle_alpha   69.03903220
_cell_angle_beta   69.03903220
_cell_angle_gamma   114.54196680
_symmetry_Int_Tables_number   1
_chemical_formula_structural   CaThNb2O8
_chemical_formula_sum   'Ca1 Th1 Nb2 O8'
_cell_volume   161.63358492
_cell_formula_units_Z   1
loop_
 _symmetry_equiv_pos_site_id
 _symmetry_equiv_pos_as_xyz
  1  'x, y, z'
loop_
 _atom_site_type_symbol
 _atom_site_label
 _atom_site_symmetry_multiplicity
 _atom_site_fract_x
 _atom_site_fract_y
 _atom_site_fract_z
 _atom_site_occupancy
  Ca  Ca0  1  0.62915700  0.37084300  0.00000000  1
  Th  Th1  1  0.37154800  0.62845200  0.50000000  1
  Nb  Nb2  1  0.10701100  0.89298900  0.00000000  1
  Nb  Nb3  1  0.89468500  0.10531500  0.50000000  1
  O  O4  1  0.78882700  0.72832400  0.44155600  1
  O  O5  1  0.71993900  0.78991500  0.94971400  1
  O  O6  1  0.21008500  0.28006100  0.05028600  1
  O  O7  1  0.27167600  0.21117300  0.55844400  1
  O  O8  1  0.05886600  0.63817800  0.90651900  1
  O  O9  1  0.63307800  0.04669300  0.41654100  1
  O  O10  1  0.95330700  0.36692200  0.58345900  1
  O  O11  1  0.36182200  0.94113400  0.09348100  1
