# generated using pymatgen
data_Ce2Si9Ni17
_symmetry_space_group_name_H-M   'P 1'
_cell_length_a   8.02086343
_cell_length_b   7.87435202
_cell_length_c   7.81843086
_cell_angle_alpha   61.47542905
_cell_angle_beta   59.60563329
_cell_angle_gamma   58.91893766
_symmetry_Int_Tables_number   1
_chemical_formula_structural   Ce2Si9Ni17
_chemical_formula_sum   'Ce2 Si9 Ni17'
_cell_volume   348.79634200
_cell_formula_units_Z   1
loop_
 _symmetry_equiv_pos_site_id
 _symmetry_equiv_pos_as_xyz
  1  'x, y, z'
loop_
 _atom_site_type_symbol
 _atom_site_label
 _atom_site_symmetry_multiplicity
 _atom_site_fract_x
 _atom_site_fract_y
 _atom_site_fract_z
 _atom_site_occupancy
  Ce  Ce0  1  0.25000000  0.25000000  0.25000000  1
  Ce  Ce1  1  0.75000000  0.75000000  0.75000000  1
  Si  Si2  1  0.69790000  0.05912400  0.94087600  1
  Si  Si3  1  0.05912400  0.69790000  0.30210000  1
  Si  Si4  1  0.20987700  0.55641500  0.79012300  1
  Si  Si5  1  0.55641500  0.20987700  0.44358500  1
  Si  Si6  1  0.30210000  0.94087600  0.05912400  1
  Si  Si7  1  0.94087600  0.30210000  0.69790000  1
  Si  Si8  1  0.79012300  0.44358500  0.20987700  1
  Si  Si9  1  0.44358500  0.79012300  0.55641500  1
  Si  Si10  1  0.00000000  0.00000000  0.00000000  1
  Ni  Ni11  1  0.71419900  0.28580100  0.05958800  1
  Ni  Ni12  1  0.28580100  0.71419900  0.94041200  1
  Ni  Ni13  1  0.20362200  0.79637800  0.43485600  1
  Ni  Ni14  1  0.79637800  0.20362200  0.56514400  1
  Ni  Ni15  1  0.43485600  0.56514400  0.20362200  1
  Ni  Ni16  1  0.56514400  0.43485600  0.79637800  1
  Ni  Ni17  1  0.05958800  0.94041200  0.71419900  1
  Ni  Ni18  1  0.94041200  0.05958800  0.28580100  1
  Ni  Ni19  1  0.44166600  0.18811600  0.81188400  1
  Ni  Ni20  1  0.18811600  0.44166600  0.55833400  1
  Ni  Ni21  1  0.94178300  0.68792200  0.05821700  1
  Ni  Ni22  1  0.68792200  0.94178300  0.31207800  1
  Ni  Ni23  1  0.55833400  0.81188400  0.18811600  1
  Ni  Ni24  1  0.81188400  0.55833400  0.44166600  1
  Ni  Ni25  1  0.05821700  0.31207800  0.94178300  1
  Ni  Ni26  1  0.31207800  0.05821700  0.68792200  1
  Ni  Ni27  1  0.50000000  0.50000000  0.50000000  1
