# generated using pymatgen
data_Ce2CoGe4Ru3
_symmetry_space_group_name_H-M   'P 1'
_cell_length_a   4.20685600
_cell_length_b   4.20685600
_cell_length_c   10.06844500
_cell_angle_alpha   90.00000000
_cell_angle_beta   90.00000000
_cell_angle_gamma   90.00000000
_symmetry_Int_Tables_number   1
_chemical_formula_structural   Ce2CoGe4Ru3
_chemical_formula_sum   'Ce2 Co1 Ge4 Ru3'
_cell_volume   178.18768884
_cell_formula_units_Z   1
loop_
 _symmetry_equiv_pos_site_id
 _symmetry_equiv_pos_as_xyz
  1  'x, y, z'
loop_
 _atom_site_type_symbol
 _atom_site_label
 _atom_site_symmetry_multiplicity
 _atom_site_fract_x
 _atom_site_fract_y
 _atom_site_fract_z
 _atom_site_occupancy
  Ce  Ce0  1  0.50000000  0.00000000  0.74965200  1
  Ce  Ce1  1  0.00000000  0.50000000  0.25034800  1
  Co  Co2  1  0.50000000  0.50000000  0.00000000  1
  Ge  Ge3  1  0.00000000  0.50000000  0.88090500  1
  Ge  Ge4  1  0.50000000  0.00000000  0.37782100  1
  Ge  Ge5  1  0.50000000  0.00000000  0.11909500  1
  Ge  Ge6  1  0.00000000  0.50000000  0.62217900  1
  Ru  Ru7  1  0.00000000  0.00000000  0.50000000  1
  Ru  Ru8  1  0.00000000  0.00000000  0.00000000  1
  Ru  Ru9  1  0.50000000  0.50000000  0.50000000  1
