# generated using pymatgen
data_Na5Mg4Fe8(PO4)12
_symmetry_space_group_name_H-M   'P 1'
_cell_length_a   12.91658082
_cell_length_b   9.28905275
_cell_length_c   9.28905277
_cell_angle_alpha   85.67883231
_cell_angle_beta   63.87665839
_cell_angle_gamma   63.87666242
_symmetry_Int_Tables_number   1
_chemical_formula_structural   Na5Mg4Fe8(PO4)12
_chemical_formula_sum   'Na5 Mg4 Fe8 P12 O48'
_cell_volume   888.69134898
_cell_formula_units_Z   1
loop_
 _symmetry_equiv_pos_site_id
 _symmetry_equiv_pos_as_xyz
  1  'x, y, z'
loop_
 _atom_site_type_symbol
 _atom_site_label
 _atom_site_symmetry_multiplicity
 _atom_site_fract_x
 _atom_site_fract_y
 _atom_site_fract_z
 _atom_site_occupancy
  Na  Na0  1  0.99846800  0.50047600  0.50132700  1
  Na  Na1  1  0.24826800  0.50101700  0.50207800  1
  Na  Na2  1  0.37500000  0.00644100  0.99355900  1
  Na  Na3  1  0.50173200  0.49792200  0.49898300  1
  Na  Na4  1  0.75153200  0.49867300  0.49952400  1
  Mg  Mg5  1  0.12340500  0.26160800  0.73824400  1
  Mg  Mg6  1  0.37500000  0.73387600  0.26612400  1
  Mg  Mg7  1  0.62659500  0.26175600  0.73839200  1
  Mg  Mg8  1  0.87500000  0.73811600  0.26188400  1
  Fe  Fe9  1  0.09499200  0.06132000  0.36741900  1
  Fe  Fe10  1  0.34621100  0.37501900  0.06258300  1
  Fe  Fe11  1  0.15181400  0.63395400  0.93936200  1
  Fe  Fe12  1  0.59818600  0.06063800  0.36604600  1
  Fe  Fe13  1  0.40378900  0.93741700  0.62498100  1
  Fe  Fe14  1  0.84664400  0.36619900  0.06087400  1
  Fe  Fe15  1  0.65500800  0.63258100  0.93868000  1
  Fe  Fe16  1  0.90335600  0.93912600  0.63380100  1
  P  P17  1  0.07368100  0.35047900  0.12734400  1
  P  P18  1  0.12446200  0.71182300  0.28994600  1
  P  P19  1  0.32272400  0.12809800  0.34758400  1
  P  P20  1  0.17852700  0.86888100  0.64979700  1
  P  P21  1  0.37500000  0.28788800  0.71211200  1
  P  P22  1  0.57147300  0.35020300  0.13111900  1
  P  P23  1  0.42727600  0.65241600  0.87190200  1
  P  P24  1  0.62553800  0.71005400  0.28817700  1
  P  P25  1  0.81993700  0.13101500  0.35234800  1
  P  P26  1  0.67631900  0.87265600  0.64952100  1
  P  P27  1  0.87500000  0.28993900  0.71006100  1
  P  P28  1  0.93006300  0.64765200  0.86898500  1
  O  O29  1  0.03112700  0.33097100  0.99853500  1
  O  O30  1  0.13359300  0.18397200  0.17734900  1
  O  O31  1  0.18459800  0.40550600  0.04170600  1
  O  O32  1  0.05669200  0.73838500  0.17953600  1
  O  O33  1  0.28814400  0.99482600  0.31964300  1
  O  O34  1  0.20952700  0.26707000  0.48263300  1
  O  O35  1  0.02415100  0.73863200  0.46885400  1
  O  O36  1  0.37198700  0.18758100  0.18082200  1
  O  O37  1  0.22536200  0.53109300  0.26192900  1
  O  O38  1  0.04435300  0.51231300  0.72966200  1
  O  O39  1  0.19405000  0.81900500  0.26029900  1
  O  O40  1  0.43474000  0.04521400  0.39979200  1
  O  O41  1  0.06532600  0.95291600  0.60267800  1
  O  O42  1  0.30798800  0.17520700  0.74230500  1
  O  O43  1  0.52980800  0.33278200  0.99975600  1
  O  O44  1  0.45793400  0.48465400  0.27055900  1
  O  O45  1  0.27435800  0.46676000  0.74013100  1
  O  O46  1  0.13123500  0.80977900  0.81506600  1
  O  O47  1  0.61876500  0.18493400  0.19022100  1
  O  O48  1  0.47564200  0.25986900  0.53324000  1
  O  O49  1  0.29206600  0.72944100  0.51534600  1
  O  O50  1  0.22019200  0.00024400  0.66721800  1
  O  O51  1  0.44201200  0.25769500  0.82479300  1
  O  O52  1  0.68467400  0.39732200  0.04708400  1
  O  O53  1  0.31526000  0.60020800  0.95478600  1
  O  O54  1  0.55595000  0.73970100  0.18099500  1
  O  O55  1  0.77897000  0.00058600  0.33006400  1
  O  O56  1  0.70564700  0.27033800  0.48768700  1
  O  O57  1  0.52463800  0.73807100  0.46890700  1
  O  O58  1  0.37801300  0.81917800  0.81241900  1
  O  O59  1  0.87107400  0.19100800  0.18896900  1
  O  O60  1  0.72584900  0.53114600  0.26136800  1
  O  O61  1  0.54047300  0.51736700  0.73293000  1
  O  O62  1  0.46185600  0.68035700  0.00517400  1
  O  O63  1  0.69330800  0.82046400  0.26161500  1
  O  O64  1  0.93081400  0.04351000  0.40361300  1
  O  O65  1  0.56540200  0.95829400  0.59449400  1
  O  O66  1  0.80725100  0.17887900  0.73857300  1
  O  O67  1  0.96052200  0.48312500  0.26920300  1
  O  O68  1  0.77376200  0.46831600  0.73855200  1
  O  O69  1  0.61640700  0.82265100  0.81602800  1
  O  O70  1  0.97623800  0.26144800  0.53168400  1
  O  O71  1  0.78947800  0.73079700  0.51687500  1
  O  O72  1  0.71887300  0.00146500  0.66902900  1
  O  O73  1  0.94274900  0.26142700  0.82112100  1
  O  O74  1  0.81918600  0.59638700  0.95649000  1
  O  O75  1  0.87892600  0.81103100  0.80899200  1
  O  O76  1  0.97103000  0.66993600  0.99941400  1
