# generated using pymatgen
data_Ca8ZnCo3(Si2O7)4
_symmetry_space_group_name_H-M   'P 1'
_cell_length_a   11.19217200
_cell_length_b   11.19217200
_cell_length_c   5.06234100
_cell_angle_alpha   90.00000000
_cell_angle_beta   90.00000000
_cell_angle_gamma   90.00000000
_symmetry_Int_Tables_number   1
_chemical_formula_structural   Ca8ZnCo3(Si2O7)4
_chemical_formula_sum   'Ca8 Zn1 Co3 Si8 O28'
_cell_volume   634.13269793
_cell_formula_units_Z   1
loop_
 _symmetry_equiv_pos_site_id
 _symmetry_equiv_pos_as_xyz
  1  'x, y, z'
loop_
 _atom_site_type_symbol
 _atom_site_label
 _atom_site_symmetry_multiplicity
 _atom_site_fract_x
 _atom_site_fract_y
 _atom_site_fract_z
 _atom_site_occupancy
  Ca  Ca0  1  0.24995900  0.58095600  0.50377900  1
  Ca  Ca1  1  0.74995500  0.08100100  0.50386500  1
  Ca  Ca2  1  0.41904400  0.24995900  0.49622100  1
  Ca  Ca3  1  0.91899900  0.74995500  0.49613500  1
  Ca  Ca4  1  0.75004100  0.41904400  0.50377900  1
  Ca  Ca5  1  0.25004500  0.91899900  0.50386500  1
  Ca  Ca6  1  0.58095600  0.75004100  0.49622100  1
  Ca  Ca7  1  0.08100100  0.25004500  0.49613500  1
  Zn  Zn8  1  0.50000000  0.50000000  0.00000000  1
  Co  Co9  1  0.00000000  0.00000000  0.00000000  1
  Co  Co10  1  0.00000000  0.50000000  0.99986800  1
  Co  Co11  1  0.50000000  0.00000000  0.00013200  1
  Si  Si12  1  0.25010100  0.39092400  0.93750600  1
  Si  Si13  1  0.74998700  0.89084600  0.93705700  1
  Si  Si14  1  0.60907600  0.25010100  0.06249400  1
  Si  Si15  1  0.10915400  0.74998700  0.06294300  1
  Si  Si16  1  0.74989900  0.60907600  0.93750600  1
  Si  Si17  1  0.25001300  0.10915400  0.93705700  1
  Si  Si18  1  0.39092400  0.74989900  0.06249400  1
  Si  Si19  1  0.89084600  0.25001300  0.06294300  1
  O  O20  1  0.25007100  0.74991100  0.17798100  1
  O  O21  1  0.74992900  0.25008900  0.17798100  1
  O  O22  1  0.74991100  0.74992900  0.82201900  1
  O  O23  1  0.25008900  0.25007100  0.82201900  1
  O  O24  1  0.36558300  0.44858000  0.78185800  1
  O  O25  1  0.86540700  0.94847100  0.78131200  1
  O  O26  1  0.55143100  0.13476900  0.21855500  1
  O  O27  1  0.05153100  0.63456800  0.21868900  1
  O  O28  1  0.63441700  0.55142000  0.78185800  1
  O  O29  1  0.13459300  0.05152900  0.78131200  1
  O  O30  1  0.44856900  0.86523100  0.21855500  1
  O  O31  1  0.94846900  0.36543200  0.21868900  1
  O  O32  1  0.44858000  0.63441700  0.21814200  1
  O  O33  1  0.94847100  0.13459300  0.21868800  1
  O  O34  1  0.86523100  0.55143100  0.78144500  1
  O  O35  1  0.36543200  0.05153100  0.78131100  1
  O  O36  1  0.55142000  0.36558300  0.21814200  1
  O  O37  1  0.05152900  0.86540700  0.21868800  1
  O  O38  1  0.13476900  0.44856900  0.78144500  1
  O  O39  1  0.63456800  0.94846900  0.78131100  1
  O  O40  1  0.24976900  0.39288200  0.25617600  1
  O  O41  1  0.74998100  0.89299500  0.25575500  1
  O  O42  1  0.60711800  0.24976900  0.74382400  1
  O  O43  1  0.10700500  0.74998100  0.74424500  1
  O  O44  1  0.75023100  0.60711800  0.25617600  1
  O  O45  1  0.25001900  0.10700500  0.25575500  1
  O  O46  1  0.39288200  0.75023100  0.74382400  1
  O  O47  1  0.89299500  0.25001900  0.74424500  1
