# generated using pymatgen
data_Cd5Ge(PO6)2
_symmetry_space_group_name_H-M   'P 1'
_cell_length_a   6.88569600
_cell_length_b   10.40004900
_cell_length_c   15.31513400
_cell_angle_alpha   90.00000000
_cell_angle_beta   90.00000000
_cell_angle_gamma   90.00000000
_symmetry_Int_Tables_number   1
_chemical_formula_structural   Cd5Ge(PO6)2
_chemical_formula_sum   'Cd20 Ge4 P8 O48'
_cell_volume   1096.74087931
_cell_formula_units_Z   4
loop_
 _symmetry_equiv_pos_site_id
 _symmetry_equiv_pos_as_xyz
  1  'x, y, z'
loop_
 _atom_site_type_symbol
 _atom_site_label
 _atom_site_symmetry_multiplicity
 _atom_site_fract_x
 _atom_site_fract_y
 _atom_site_fract_z
 _atom_site_occupancy
  Cd  Cd0  1  0.08779000  0.66293800  0.85957500  1
  Cd  Cd1  1  0.58779000  0.83706200  0.14042500  1
  Cd  Cd2  1  0.41221000  0.33706200  0.35957500  1
  Cd  Cd3  1  0.91221000  0.16293800  0.64042500  1
  Cd  Cd4  1  0.40564500  0.33560000  0.63919900  1
  Cd  Cd5  1  0.90564500  0.16440000  0.36080100  1
  Cd  Cd6  1  0.09435500  0.66440000  0.13919900  1
  Cd  Cd7  1  0.59435500  0.83560000  0.86080100  1
  Cd  Cd8  1  0.19589600  0.72038300  0.49859600  1
  Cd  Cd9  1  0.69589600  0.77961700  0.50140400  1
  Cd  Cd10  1  0.30410400  0.27961700  0.99859600  1
  Cd  Cd11  1  0.80410400  0.22038300  0.00140400  1
  Cd  Cd12  1  0.89341500  0.55529300  0.65994400  1
  Cd  Cd13  1  0.39341500  0.94470700  0.34005600  1
  Cd  Cd14  1  0.60658500  0.44470700  0.15994400  1
  Cd  Cd15  1  0.10658500  0.05529300  0.84005600  1
  Cd  Cd16  1  0.60572200  0.44915000  0.84087000  1
  Cd  Cd17  1  0.10572200  0.05085000  0.15913000  1
  Cd  Cd18  1  0.89427800  0.55085000  0.34087000  1
  Cd  Cd19  1  0.39427800  0.94915000  0.65913000  1
  Ge  Ge20  1  0.89457200  0.86720600  0.68019600  1
  Ge  Ge21  1  0.39457200  0.63279400  0.31980400  1
  Ge  Ge22  1  0.60542800  0.13279400  0.18019600  1
  Ge  Ge23  1  0.10542800  0.36720600  0.81980400  1
  P  P24  1  0.24046900  0.08780300  0.49922000  1
  P  P25  1  0.74046900  0.41219700  0.50078000  1
  P  P26  1  0.25953100  0.91219700  0.99922000  1
  P  P27  1  0.75953100  0.58780300  0.00078000  1
  P  P28  1  0.60583200  0.13234300  0.82173600  1
  P  P29  1  0.10583200  0.36765700  0.17826400  1
  P  P30  1  0.89416800  0.86765700  0.32173600  1
  P  P31  1  0.39416800  0.63234300  0.67826400  1
  O  O32  1  0.08316300  0.98113900  0.70053600  1
  O  O33  1  0.58316300  0.51886100  0.29946400  1
  O  O34  1  0.41683700  0.01886100  0.20053600  1
  O  O35  1  0.91683700  0.48113900  0.79946400  1
  O  O36  1  0.43704300  0.03393600  0.80342000  1
  O  O37  1  0.93704300  0.46606400  0.19658000  1
  O  O38  1  0.06295700  0.96606400  0.30342000  1
  O  O39  1  0.56295700  0.53393600  0.69658000  1
  O  O40  1  0.95274800  0.75379800  0.59530800  1
  O  O41  1  0.45274800  0.74620200  0.40469200  1
  O  O42  1  0.54725200  0.24620200  0.09530800  1
  O  O43  1  0.04725200  0.25379800  0.90469200  1
  O  O44  1  0.54805800  0.23164100  0.89503100  1
  O  O45  1  0.04805800  0.26835900  0.10496900  1
  O  O46  1  0.95194200  0.76835900  0.39503100  1
  O  O47  1  0.45194200  0.73164100  0.60496900  1
  O  O48  1  0.70947400  0.96331700  0.63280000  1
  O  O49  1  0.20947400  0.53668300  0.36720000  1
  O  O50  1  0.79052600  0.03668300  0.13280000  1
  O  O51  1  0.29052600  0.46331700  0.86720000  1
  O  O52  1  0.77415200  0.04762700  0.85860000  1
  O  O53  1  0.27415200  0.45237300  0.14140000  1
  O  O54  1  0.72584800  0.95237300  0.35860000  1
  O  O55  1  0.22584800  0.54762700  0.64140000  1
  O  O56  1  0.01718400  0.11386800  0.49879300  1
  O  O57  1  0.51718400  0.38613200  0.50120700  1
  O  O58  1  0.48281600  0.88613200  0.99879300  1
  O  O59  1  0.98281600  0.61386800  0.00120700  1
  O  O60  1  0.33191000  0.14370400  0.58356800  1
  O  O61  1  0.83191000  0.35629600  0.41643200  1
  O  O62  1  0.16809000  0.85629600  0.08356800  1
  O  O63  1  0.66809000  0.64370400  0.91643200  1
  O  O64  1  0.17023600  0.85772300  0.91310800  1
  O  O65  1  0.67023600  0.64227700  0.08689200  1
  O  O66  1  0.32976400  0.14227700  0.41310800  1
  O  O67  1  0.82976400  0.35772300  0.58689200  1
  O  O68  1  0.28800900  0.94103600  0.50043300  1
  O  O69  1  0.78800900  0.55896400  0.49956700  1
  O  O70  1  0.21199100  0.05896400  0.00043300  1
  O  O71  1  0.71199100  0.44103600  0.99956700  1
  O  O72  1  0.83901500  0.77184000  0.77188200  1
  O  O73  1  0.33901500  0.72816000  0.22811800  1
  O  O74  1  0.66098500  0.22816000  0.27188200  1
  O  O75  1  0.16098500  0.27184000  0.72811800  1
  O  O76  1  0.65785600  0.21393200  0.73993900  1
  O  O77  1  0.15785600  0.28606800  0.26006100  1
  O  O78  1  0.84214400  0.78606800  0.23993900  1
  O  O79  1  0.34214400  0.71393200  0.76006100  1
