# generated using pymatgen
data_NaCaAlFe(SiO3)4
_symmetry_space_group_name_H-M   'P 1'
_cell_length_a   5.34818156
_cell_length_b   8.89168500
_cell_length_c   19.23617250
_cell_angle_alpha   90.00000000
_cell_angle_beta   104.23858470
_cell_angle_gamma   90.00000000
_symmetry_Int_Tables_number   1
_chemical_formula_structural   NaCaAlFe(SiO3)4
_chemical_formula_sum   'Na4 Ca4 Al4 Fe4 Si16 O48'
_cell_volume   886.66199942
_cell_formula_units_Z   4
loop_
 _symmetry_equiv_pos_site_id
 _symmetry_equiv_pos_as_xyz
  1  'x, y, z'
loop_
 _atom_site_type_symbol
 _atom_site_label
 _atom_site_symmetry_multiplicity
 _atom_site_fract_x
 _atom_site_fract_y
 _atom_site_fract_z
 _atom_site_occupancy
  Na  Na0  1  0.00000000  0.45487500  0.37500000  1
  Na  Na1  1  0.50133400  0.95567900  0.62317800  1
  Na  Na2  1  0.50000000  0.04622600  0.37500000  1
  Na  Na3  1  0.49866600  0.95567900  0.12682200  1
  Ca  Ca4  1  0.99331700  0.54522100  0.12693800  1
  Ca  Ca5  1  0.50000000  0.04990300  0.87500000  1
  Ca  Ca6  1  0.00000000  0.45534100  0.87500000  1
  Ca  Ca7  1  0.00668300  0.54522100  0.62306200  1
  Al  Al8  1  0.99669700  0.14931500  0.62058500  1
  Al  Al9  1  0.00330300  0.14931500  0.12941500  1
  Al  Al10  1  0.50000000  0.65103100  0.37500000  1
  Al  Al11  1  0.00000000  0.84965600  0.37500000  1
  Fe  Fe12  1  0.50000000  0.65778000  0.87500000  1
  Fe  Fe13  1  0.49803400  0.33983800  0.62019800  1
  Fe  Fe14  1  0.50196600  0.33983800  0.12980200  1
  Fe  Fe15  1  0.00000000  0.84219700  0.87500000  1
  Si  Si16  1  0.19790900  0.15500100  0.98544300  1
  Si  Si17  1  0.19613400  0.84933800  0.72653100  1
  Si  Si18  1  0.29295700  0.33691900  0.76516800  1
  Si  Si19  1  0.18519700  0.15463600  0.47747500  1
  Si  Si20  1  0.30415900  0.66520200  0.51560300  1
  Si  Si21  1  0.19573500  0.84641300  0.23254800  1
  Si  Si22  1  0.30526800  0.33894400  0.27321900  1
  Si  Si23  1  0.70704300  0.33691900  0.98483200  1
  Si  Si24  1  0.30498900  0.66175800  0.02236600  1
  Si  Si25  1  0.69501100  0.66175800  0.72763400  1
  Si  Si26  1  0.80209100  0.15500100  0.76455700  1
  Si  Si27  1  0.69473200  0.33894400  0.47678100  1
  Si  Si28  1  0.80426500  0.84641300  0.51745200  1
  Si  Si29  1  0.69584100  0.66520200  0.23439700  1
  Si  Si30  1  0.81480300  0.15463600  0.27252500  1
  Si  Si31  1  0.80386600  0.84933800  0.02346900  1
  O  O32  1  0.09058900  0.23437900  0.80199100  1
  O  O33  1  0.22016600  0.99701200  0.94842100  1
  O  O34  1  0.22585000  0.65939100  0.93525300  1
  O  O35  1  0.08664100  0.76080400  0.54829400  1
  O  O36  1  0.27865100  0.84846800  0.81374500  1
  O  O37  1  0.18484000  0.01005800  0.68695000  1
  O  O38  1  0.19685100  0.32092600  0.67820100  1
  O  O39  1  0.28407300  0.49963100  0.80011000  1
  O  O40  1  0.41391100  0.26140100  0.95520100  1
  O  O41  1  0.09001000  0.24508300  0.30608500  1
  O  O42  1  0.24846800  0.16187900  0.56556600  1
  O  O43  1  0.17581100  0.98951900  0.44138400  1
  O  O44  1  0.23246900  0.68227500  0.42730400  1
  O  O45  1  0.28939900  0.50148900  0.54890300  1
  O  O46  1  0.40986600  0.74433000  0.69641000  1
  O  O47  1  0.08328200  0.75800900  0.05332000  1
  O  O48  1  0.26859400  0.82456600  0.32065700  1
  O  O49  1  0.19367400  0.00934100  0.19592300  1
  O  O50  1  0.20266600  0.32739900  0.18536300  1
  O  O51  1  0.32740200  0.50610500  0.30847200  1
  O  O52  1  0.41728500  0.24796000  0.45169700  1
  O  O53  1  0.58608900  0.26140100  0.79479900  1
  O  O54  1  0.71592700  0.49963100  0.94989000  1
  O  O55  1  0.25272800  0.16470200  0.07251500  1
  O  O56  1  0.72134900  0.84846800  0.93625500  1
  O  O57  1  0.30311000  0.49919400  0.05976200  1
  O  O58  1  0.40933600  0.74430900  0.20183900  1
  O  O59  1  0.59066400  0.74430900  0.54816100  1
  O  O60  1  0.69689000  0.49919400  0.69023800  1
  O  O61  1  0.77415000  0.65939100  0.81474700  1
  O  O62  1  0.77983400  0.99701200  0.80157900  1
  O  O63  1  0.74727200  0.16470200  0.67748500  1
  O  O64  1  0.90941100  0.23437900  0.94800900  1
  O  O65  1  0.58271500  0.24796000  0.29830300  1
  O  O66  1  0.67259800  0.50610500  0.44152800  1
  O  O67  1  0.79733400  0.32739900  0.56463700  1
  O  O68  1  0.80632600  0.00934100  0.55407700  1
  O  O69  1  0.73140600  0.82456600  0.42934300  1
  O  O70  1  0.91671800  0.75800900  0.69668000  1
  O  O71  1  0.59013400  0.74433000  0.05359000  1
  O  O72  1  0.71060100  0.50148900  0.20109700  1
  O  O73  1  0.76753100  0.68227500  0.32269600  1
  O  O74  1  0.82418900  0.98951900  0.30861600  1
  O  O75  1  0.75153200  0.16187900  0.18443400  1
  O  O76  1  0.90999000  0.24508300  0.44391500  1
  O  O77  1  0.80314900  0.32092600  0.07179900  1
  O  O78  1  0.81516000  0.01005800  0.06305000  1
  O  O79  1  0.91335900  0.76080400  0.20170600  1
