# generated using pymatgen
data_CaTa4O14
_symmetry_space_group_name_H-M   'P 1'
_cell_length_a   7.52676143
_cell_length_b   7.52676143
_cell_length_c   7.52676153
_cell_angle_alpha   59.25841213
_cell_angle_beta   59.25841213
_cell_angle_gamma   59.25841030
_symmetry_Int_Tables_number   1
_chemical_formula_structural   CaTa4O14
_chemical_formula_sum   'Ca1 Ta4 O14'
_cell_volume   296.42271146
_cell_formula_units_Z   1
loop_
 _symmetry_equiv_pos_site_id
 _symmetry_equiv_pos_as_xyz
  1  'x, y, z'
loop_
 _atom_site_type_symbol
 _atom_site_label
 _atom_site_symmetry_multiplicity
 _atom_site_fract_x
 _atom_site_fract_y
 _atom_site_fract_z
 _atom_site_occupancy
  Ca  Ca0  1  0.50000000  0.50000000  0.50000000  1
  Ta  Ta1  1  0.00000000  0.00000000  0.00000000  1
  Ta  Ta2  1  0.50000000  0.00000000  0.00000000  1
  Ta  Ta3  1  0.00000000  0.00000000  0.50000000  1
  Ta  Ta4  1  0.00000000  0.50000000  0.00000000  1
  O  O5  1  0.92335300  0.31664400  0.31664400  1
  O  O6  1  0.31072500  0.94022600  0.94022600  1
  O  O7  1  0.31664400  0.31664400  0.92335300  1
  O  O8  1  0.94022600  0.94022600  0.31072500  1
  O  O9  1  0.94022600  0.31072500  0.94022600  1
  O  O10  1  0.31664400  0.92335300  0.31664400  1
  O  O11  1  0.07664700  0.68335600  0.68335600  1
  O  O12  1  0.68927500  0.05977400  0.05977400  1
  O  O13  1  0.68335600  0.68335600  0.07664700  1
  O  O14  1  0.05977400  0.05977400  0.68927500  1
  O  O15  1  0.05977400  0.68927500  0.05977400  1
  O  O16  1  0.68335600  0.07664700  0.68335600  1
  O  O17  1  0.36489700  0.36489700  0.36489700  1
  O  O18  1  0.63510300  0.63510300  0.63510300  1
