# generated using pymatgen
data_CaMgS2
_symmetry_space_group_name_H-M   'P 1'
_cell_length_a   6.69212717
_cell_length_b   6.69212717
_cell_length_c   6.69212760
_cell_angle_alpha   33.66633223
_cell_angle_beta   33.66633223
_cell_angle_gamma   33.66633808
_symmetry_Int_Tables_number   1
_chemical_formula_structural   CaMgS2
_chemical_formula_sum   'Ca1 Mg1 S2'
_cell_volume   82.05219526
_cell_formula_units_Z   1
loop_
 _symmetry_equiv_pos_site_id
 _symmetry_equiv_pos_as_xyz
  1  'x, y, z'
loop_
 _atom_site_type_symbol
 _atom_site_label
 _atom_site_symmetry_multiplicity
 _atom_site_fract_x
 _atom_site_fract_y
 _atom_site_fract_z
 _atom_site_occupancy
  Ca  Ca0  1  0.00000000  0.00000000  0.00000000  1
  Mg  Mg1  1  0.50000000  0.50000000  0.50000000  1
  S  S2  1  0.24289700  0.24289700  0.24289700  1
  S  S3  1  0.75710300  0.75710300  0.75710300  1
