# generated using pymatgen
data_Cd2Ga2Se5
_symmetry_space_group_name_H-M   'P 1'
_cell_length_a   6.74063700
_cell_length_b   7.22394300
_cell_length_c   10.85031011
_cell_angle_alpha   70.81457721
_cell_angle_beta   90.00000000
_cell_angle_gamma   90.00000000
_symmetry_Int_Tables_number   1
_chemical_formula_structural   Cd2Ga2Se5
_chemical_formula_sum   'Cd4 Ga4 Se10'
_cell_volume   499.00049383
_cell_formula_units_Z   2
loop_
 _symmetry_equiv_pos_site_id
 _symmetry_equiv_pos_as_xyz
  1  'x, y, z'
loop_
 _atom_site_type_symbol
 _atom_site_label
 _atom_site_symmetry_multiplicity
 _atom_site_fract_x
 _atom_site_fract_y
 _atom_site_fract_z
 _atom_site_occupancy
  Cd  Cd0  1  0.51188500  0.65510600  0.88084500  1
  Cd  Cd1  1  0.48791900  0.42762900  0.31755800  1
  Cd  Cd2  1  0.01188500  0.34489400  0.11915500  1
  Cd  Cd3  1  0.98791900  0.57237100  0.68244200  1
  Ga  Ga4  1  0.50577900  0.85031600  0.49508800  1
  Ga  Ga5  1  0.50084100  0.02076500  0.10328600  1
  Ga  Ga6  1  0.00084100  0.97923500  0.89671400  1
  Ga  Ga7  1  0.00577900  0.14968400  0.50491200  1
  Se  Se8  1  0.10903700  0.65005500  0.90021900  1
  Se  Se9  1  0.14127400  0.21566100  0.69984200  1
  Se  Se10  1  0.13916400  0.85440400  0.47375600  1
  Se  Se11  1  0.09435100  0.44374300  0.32739100  1
  Se  Se12  1  0.13474900  0.00070400  0.10238800  1
  Se  Se13  1  0.60903700  0.34994500  0.09978100  1
  Se  Se14  1  0.63474900  0.99929600  0.89761200  1
  Se  Se15  1  0.59435100  0.55625700  0.67260900  1
  Se  Se16  1  0.63916400  0.14559600  0.52624400  1
  Se  Se17  1  0.64127400  0.78433900  0.30015800  1
