# generated using pymatgen
data_CaLaGa3O7
_symmetry_space_group_name_H-M   'P 1'
_cell_length_a   8.02792103
_cell_length_b   8.02792103
_cell_length_c   5.31461400
_cell_angle_alpha   90.00000000
_cell_angle_beta   90.00000000
_cell_angle_gamma   91.06334774
_symmetry_Int_Tables_number   1
_chemical_formula_structural   CaLaGa3O7
_chemical_formula_sum   'Ca2 La2 Ga6 O14'
_cell_volume   342.45468629
_cell_formula_units_Z   2
loop_
 _symmetry_equiv_pos_site_id
 _symmetry_equiv_pos_as_xyz
  1  'x, y, z'
loop_
 _atom_site_type_symbol
 _atom_site_label
 _atom_site_symmetry_multiplicity
 _atom_site_fract_x
 _atom_site_fract_y
 _atom_site_fract_z
 _atom_site_occupancy
  Ca  Ca0  1  0.65980800  0.65980800  0.48558500  1
  Ca  Ca1  1  0.34019200  0.34019200  0.48558500  1
  La  La2  1  0.83552600  0.16447400  0.50741500  1
  La  La3  1  0.16447400  0.83552600  0.50741500  1
  Ga  Ga4  1  0.50000000  0.00000000  0.00509100  1
  Ga  Ga5  1  0.00000000  0.50000000  0.00509100  1
  Ga  Ga6  1  0.85209900  0.85209900  0.03392600  1
  Ga  Ga7  1  0.64081300  0.35918700  0.96436400  1
  Ga  Ga8  1  0.14790100  0.14790100  0.03392600  1
  Ga  Ga9  1  0.35918700  0.64081300  0.96436400  1
  O  O10  1  0.66117200  0.91139600  0.21299200  1
  O  O11  1  0.84061500  0.40771100  0.79158400  1
  O  O12  1  0.33882800  0.08860400  0.21299200  1
  O  O13  1  0.15938500  0.59228800  0.79158400  1
  O  O14  1  0.40771100  0.84061500  0.79158400  1
  O  O15  1  0.08860400  0.33882800  0.21299200  1
  O  O16  1  0.59228800  0.15938500  0.79158400  1
  O  O17  1  0.91139600  0.66117200  0.21299200  1
  O  O18  1  0.50000000  0.50000000  0.79605200  1
  O  O19  1  0.00000000  0.00000000  0.19716600  1
  O  O20  1  0.86193400  0.86193400  0.69200800  1
  O  O21  1  0.64284000  0.35716000  0.30585000  1
  O  O22  1  0.13806600  0.13806600  0.69200800  1
  O  O23  1  0.35716000  0.64284000  0.30585000  1
