# generated using pymatgen
data_CaY3Ti4O12
_symmetry_space_group_name_H-M   'P 1'
_cell_length_a   7.72033900
_cell_length_b   5.35155300
_cell_length_c   5.64787814
_cell_angle_alpha   89.90890095
_cell_angle_beta   90.00000000
_cell_angle_gamma   90.00000000
_symmetry_Int_Tables_number   1
_chemical_formula_structural   CaY3Ti4O12
_chemical_formula_sum   'Ca1 Y3 Ti4 O12'
_cell_volume   233.34632751
_cell_formula_units_Z   1
loop_
 _symmetry_equiv_pos_site_id
 _symmetry_equiv_pos_as_xyz
  1  'x, y, z'
loop_
 _atom_site_type_symbol
 _atom_site_label
 _atom_site_symmetry_multiplicity
 _atom_site_fract_x
 _atom_site_fract_y
 _atom_site_fract_z
 _atom_site_occupancy
  Ca  Ca0  1  0.00000000  0.01598000  0.93868800  1
  Y  Y1  1  0.00000000  0.47979600  0.43197000  1
  Y  Y2  1  0.50000000  0.98197300  0.06864800  1
  Y  Y3  1  0.50000000  0.51801200  0.56976600  1
  Ti  Ti4  1  0.24774800  0.00185000  0.50148800  1
  Ti  Ti5  1  0.75271700  0.49802200  0.99992000  1
  Ti  Ti6  1  0.75225200  0.00185000  0.50148800  1
  Ti  Ti7  1  0.24728300  0.49802200  0.99992000  1
  O  O8  1  0.00000000  0.59257700  0.03509300  1
  O  O9  1  0.00000000  0.89267800  0.53046000  1
  O  O10  1  0.50000000  0.38835800  0.96219900  1
  O  O11  1  0.50000000  0.10747600  0.46285700  1
  O  O12  1  0.68922700  0.80330300  0.80021300  1
  O  O13  1  0.30687000  0.69569000  0.29991700  1
  O  O14  1  0.20006500  0.19947600  0.20519100  1
  O  O15  1  0.80006500  0.31323400  0.69343000  1
  O  O16  1  0.79993500  0.19947600  0.20519100  1
  O  O17  1  0.19993500  0.31323400  0.69343000  1
  O  O18  1  0.31077300  0.80330300  0.80021300  1
  O  O19  1  0.69313000  0.69569000  0.29991700  1
