# generated using pymatgen
data_CeNd3(Fe14B)2
_symmetry_space_group_name_H-M   'P 1'
_cell_length_a   8.75140877
_cell_length_b   8.75140877
_cell_length_c   12.09601200
_cell_angle_alpha   90.00000000
_cell_angle_beta   90.00000000
_cell_angle_gamma   90.04821237
_symmetry_Int_Tables_number   1
_chemical_formula_structural   CeNd3(Fe14B)2
_chemical_formula_sum   'Ce2 Nd6 Fe56 B4'
_cell_volume   926.39882448
_cell_formula_units_Z   2
loop_
 _symmetry_equiv_pos_site_id
 _symmetry_equiv_pos_as_xyz
  1  'x, y, z'
loop_
 _atom_site_type_symbol
 _atom_site_label
 _atom_site_symmetry_multiplicity
 _atom_site_fract_x
 _atom_site_fract_y
 _atom_site_fract_z
 _atom_site_occupancy
  Ce  Ce0  1  0.23173700  0.76826300  0.50000000  1
  Ce  Ce1  1  0.76826300  0.23173700  0.50000000  1
  Nd  Nd2  1  0.26808300  0.26808300  0.00000000  1
  Nd  Nd3  1  0.73191700  0.73191700  0.00000000  1
  Nd  Nd4  1  0.64191100  0.64191100  0.50000000  1
  Nd  Nd5  1  0.35808900  0.35808900  0.50000000  1
  Nd  Nd6  1  0.85850100  0.14149900  0.00000000  1
  Nd  Nd7  1  0.14149900  0.85850100  0.00000000  1
  Fe  Fe8  1  0.18264400  0.81735600  0.25448100  1
  Fe  Fe9  1  0.81735600  0.18264400  0.25448100  1
  Fe  Fe10  1  0.31722200  0.31722200  0.75406700  1
  Fe  Fe11  1  0.68277800  0.68277800  0.75406700  1
  Fe  Fe12  1  0.81735600  0.18264400  0.74551900  1
  Fe  Fe13  1  0.18264400  0.81735600  0.74551900  1
  Fe  Fe14  1  0.68277800  0.68277800  0.24593300  1
  Fe  Fe15  1  0.31722200  0.31722200  0.24593300  1
  Fe  Fe16  1  0.40186800  0.59813200  0.29531400  1
  Fe  Fe17  1  0.59813200  0.40186800  0.29531400  1
  Fe  Fe18  1  0.09787700  0.09787700  0.79484000  1
  Fe  Fe19  1  0.90212300  0.90212300  0.79484000  1
  Fe  Fe20  1  0.59813200  0.40186800  0.70468600  1
  Fe  Fe21  1  0.40186800  0.59813200  0.70468600  1
  Fe  Fe22  1  0.90212300  0.90212300  0.20516000  1
  Fe  Fe23  1  0.09787700  0.09787700  0.20516000  1
  Fe  Fe24  1  0.14002900  0.53758600  0.32393200  1
  Fe  Fe25  1  0.85997100  0.46241400  0.32393200  1
  Fe  Fe26  1  0.36035100  0.03695400  0.82370300  1
  Fe  Fe27  1  0.63964900  0.96304600  0.82370300  1
  Fe  Fe28  1  0.85997100  0.46241400  0.67606800  1
  Fe  Fe29  1  0.14002900  0.53758600  0.67606800  1
  Fe  Fe30  1  0.63964900  0.96304600  0.17629700  1
  Fe  Fe31  1  0.36035100  0.03695400  0.17629700  1
  Fe  Fe32  1  0.53758600  0.14002900  0.32393200  1
  Fe  Fe33  1  0.46241400  0.85997100  0.32393200  1
  Fe  Fe34  1  0.03695400  0.36035100  0.82370300  1
  Fe  Fe35  1  0.96304600  0.63964900  0.82370300  1
  Fe  Fe36  1  0.46241400  0.85997100  0.67606800  1
  Fe  Fe37  1  0.53758600  0.14002900  0.67606800  1
  Fe  Fe38  1  0.96304600  0.63964900  0.17629700  1
  Fe  Fe39  1  0.03695400  0.36035100  0.17629700  1
  Fe  Fe40  1  0.50000000  0.50000000  0.11399100  1
  Fe  Fe41  1  0.00000000  0.00000000  0.61367700  1
  Fe  Fe42  1  0.50000000  0.50000000  0.88600900  1
  Fe  Fe43  1  0.00000000  0.00000000  0.38632300  1
  Fe  Fe44  1  0.93273500  0.72442000  0.37284100  1
  Fe  Fe45  1  0.06726500  0.27558000  0.37284100  1
  Fe  Fe46  1  0.56753000  0.22430600  0.87261300  1
  Fe  Fe47  1  0.43247000  0.77569400  0.87261300  1
  Fe  Fe48  1  0.06726500  0.27558000  0.62715900  1
  Fe  Fe49  1  0.93273500  0.72442000  0.62715900  1
  Fe  Fe50  1  0.43247000  0.77569400  0.12738700  1
  Fe  Fe51  1  0.56753000  0.22430600  0.12738700  1
  Fe  Fe52  1  0.72442000  0.93273500  0.37284100  1
  Fe  Fe53  1  0.27558000  0.06726500  0.37284100  1
  Fe  Fe54  1  0.22430600  0.56753000  0.87261300  1
  Fe  Fe55  1  0.77569400  0.43247000  0.87261300  1
  Fe  Fe56  1  0.27558000  0.06726500  0.62715900  1
  Fe  Fe57  1  0.72442000  0.93273500  0.62715900  1
  Fe  Fe58  1  0.77569400  0.43247000  0.12738700  1
  Fe  Fe59  1  0.22430600  0.56753000  0.12738700  1
  Fe  Fe60  1  0.00000000  0.50000000  0.50000000  1
  Fe  Fe61  1  0.50000000  0.00000000  0.00000000  1
  Fe  Fe62  1  0.50000000  0.00000000  0.50000000  1
  Fe  Fe63  1  0.00000000  0.50000000  0.00000000  1
  B  B64  1  0.87399400  0.87399400  0.50000000  1
  B  B65  1  0.12600600  0.12600600  0.50000000  1
  B  B66  1  0.62599100  0.37400900  0.00000000  1
  B  B67  1  0.37400900  0.62599100  0.00000000  1
