# generated using pymatgen
data_CaGaCu
_symmetry_space_group_name_H-M   'P 1'
_cell_length_a   5.51412167
_cell_length_b   5.51412167
_cell_length_c   7.22041764
_cell_angle_alpha   52.00976642
_cell_angle_beta   52.00976642
_cell_angle_gamma   47.74074828
_symmetry_Int_Tables_number   1
_chemical_formula_structural   CaGaCu
_chemical_formula_sum   'Ca2 Ga2 Cu2'
_cell_volume   120.16509190
_cell_formula_units_Z   2
loop_
 _symmetry_equiv_pos_site_id
 _symmetry_equiv_pos_as_xyz
  1  'x, y, z'
loop_
 _atom_site_type_symbol
 _atom_site_label
 _atom_site_symmetry_multiplicity
 _atom_site_fract_x
 _atom_site_fract_y
 _atom_site_fract_z
 _atom_site_occupancy
  Ca  Ca0  1  0.55200700  0.55200700  0.69366900  1
  Ca  Ca1  1  0.44799300  0.44799300  0.30633100  1
  Ga  Ga2  1  0.82966300  0.82966300  0.10812600  1
  Ga  Ga3  1  0.17033700  0.17033700  0.89187400  1
  Cu  Cu4  1  0.16514600  0.16514600  0.27286600  1
  Cu  Cu5  1  0.83485400  0.83485400  0.72713400  1
