# generated using pymatgen
data_Ca8(YbSe4)3
_symmetry_space_group_name_H-M   'P 1'
_cell_length_a   5.94096300
_cell_length_b   5.94096300
_cell_length_c   17.86001000
_cell_angle_alpha   90.00000000
_cell_angle_beta   90.00000000
_cell_angle_gamma   90.00000000
_symmetry_Int_Tables_number   1
_chemical_formula_structural   Ca8(YbSe4)3
_chemical_formula_sum   'Ca8 Yb3 Se12'
_cell_volume   630.36979177
_cell_formula_units_Z   1
loop_
 _symmetry_equiv_pos_site_id
 _symmetry_equiv_pos_as_xyz
  1  'x, y, z'
loop_
 _atom_site_type_symbol
 _atom_site_label
 _atom_site_symmetry_multiplicity
 _atom_site_fract_x
 _atom_site_fract_y
 _atom_site_fract_z
 _atom_site_occupancy
  Ca  Ca0  1  0.00000000  0.00000000  0.33262100  1
  Ca  Ca1  1  0.00000000  0.50000000  0.50000100  1
  Ca  Ca2  1  0.00000000  0.00000000  0.66737900  1
  Ca  Ca3  1  0.00000000  0.50000000  0.83430700  1
  Ca  Ca4  1  0.50000000  0.00000000  0.16569300  1
  Ca  Ca5  1  0.50000000  0.50000000  0.33293700  1
  Ca  Ca6  1  0.50000000  0.00000000  0.49999900  1
  Ca  Ca7  1  0.50000000  0.50000000  0.66706300  1
  Yb  Yb8  1  0.00000000  0.50000000  0.16583500  1
  Yb  Yb9  1  0.50000000  0.50000000  0.00000000  1
  Yb  Yb10  1  0.50000000  0.00000000  0.83416500  1
  Se  Se11  1  0.50000000  0.50000000  0.16662000  1
  Se  Se12  1  0.50000000  0.00000000  0.33370300  1
  Se  Se13  1  0.00000000  0.00000000  0.16632100  1
  Se  Se14  1  0.50000000  0.50000000  0.50000000  1
  Se  Se15  1  0.50000000  0.00000000  0.66675300  1
  Se  Se16  1  0.00000000  0.50000000  0.33324700  1
  Se  Se17  1  0.00000000  0.00000000  0.50000000  1
  Se  Se18  1  0.50000000  0.50000000  0.83338000  1
  Se  Se19  1  0.50000000  0.00000000  0.99962700  1
  Se  Se20  1  0.00000000  0.50000000  0.66629700  1
  Se  Se21  1  0.00000000  0.00000000  0.83368000  1
  Se  Se22  1  0.00000000  0.50000000  0.00037300  1
