# generated using pymatgen
data_CaNdGa3O7
_symmetry_space_group_name_H-M   'P 1'
_cell_length_a   7.97461800
_cell_length_b   5.29260000
_cell_length_c   7.99480250
_cell_angle_alpha   89.72289406
_cell_angle_beta   90.00000000
_cell_angle_gamma   90.00000000
_symmetry_Int_Tables_number   1
_chemical_formula_structural   CaNdGa3O7
_chemical_formula_sum   'Ca2 Nd2 Ga6 O14'
_cell_volume   337.42839142
_cell_formula_units_Z   2
loop_
 _symmetry_equiv_pos_site_id
 _symmetry_equiv_pos_as_xyz
  1  'x, y, z'
loop_
 _atom_site_type_symbol
 _atom_site_label
 _atom_site_symmetry_multiplicity
 _atom_site_fract_x
 _atom_site_fract_y
 _atom_site_fract_z
 _atom_site_occupancy
  Ca  Ca0  1  0.33712500  0.48624200  0.92026700  1
  Ca  Ca1  1  0.83712500  0.51375800  0.07973300  1
  Nd  Nd2  1  0.65946000  0.48581700  0.59486400  1
  Nd  Nd3  1  0.15946000  0.51418300  0.40513600  1
  Ga  Ga4  1  0.49897100  0.00035300  0.25068500  1
  Ga  Ga5  1  0.99897100  0.99964700  0.74931500  1
  Ga  Ga6  1  0.14416400  0.03732000  0.10486900  1
  Ga  Ga7  1  0.64416400  0.96268000  0.89513100  1
  Ga  Ga8  1  0.85594800  0.03515400  0.39334400  1
  Ga  Ga9  1  0.35594800  0.96484600  0.60665600  1
  O  O10  1  0.49542300  0.79470300  0.75313400  1
  O  O11  1  0.99542300  0.20529700  0.24686600  1
  O  O12  1  0.41248400  0.78197100  0.41228400  1
  O  O13  1  0.91248400  0.21802900  0.58771600  1
  O  O14  1  0.59737900  0.79432900  0.09368300  1
  O  O15  1  0.09737900  0.20567100  0.90631700  1
  O  O16  1  0.33714700  0.21781100  0.16811800  1
  O  O17  1  0.83714700  0.78218900  0.83188200  1
  O  O18  1  0.65613200  0.20676100  0.35300300  1
  O  O19  1  0.15613200  0.79323900  0.64699700  1
  O  O20  1  0.14198800  0.69415200  0.12143900  1
  O  O21  1  0.64198800  0.30584800  0.87856100  1
  O  O22  1  0.86378000  0.69117600  0.40049300  1
  O  O23  1  0.36378000  0.30882400  0.59950700  1
