# generated using pymatgen
data_Ca6Br2N3Cl
_symmetry_space_group_name_H-M   'P 1'
_cell_length_a   3.70076791
_cell_length_b   3.70076791
_cell_length_c   20.51449900
_cell_angle_alpha   90.00000000
_cell_angle_beta   90.00000000
_cell_angle_gamma   119.99999843
_symmetry_Int_Tables_number   1
_chemical_formula_structural   Ca6Br2N3Cl
_chemical_formula_sum   'Ca6 Br2 N3 Cl1'
_cell_volume   243.31856890
_cell_formula_units_Z   1
loop_
 _symmetry_equiv_pos_site_id
 _symmetry_equiv_pos_as_xyz
  1  'x, y, z'
loop_
 _atom_site_type_symbol
 _atom_site_label
 _atom_site_symmetry_multiplicity
 _atom_site_fract_x
 _atom_site_fract_y
 _atom_site_fract_z
 _atom_site_occupancy
  Ca  Ca0  1  0.66666700  0.33333300  0.10282200  1
  Ca  Ca1  1  0.33333300  0.66666700  0.44062200  1
  Ca  Ca2  1  0.00000000  0.00000000  0.77755900  1
  Ca  Ca3  1  0.00000000  0.00000000  0.22244100  1
  Ca  Ca4  1  0.66666700  0.33333300  0.55937800  1
  Ca  Ca5  1  0.33333300  0.66666700  0.89717800  1
  Br  Br6  1  0.66666700  0.33333300  0.33190800  1
  Br  Br7  1  0.33333300  0.66666700  0.66809200  1
  N  N8  1  0.33333300  0.66666700  0.16267900  1
  N  N9  1  0.00000000  0.00000000  0.50000000  1
  N  N10  1  0.66666700  0.33333300  0.83732100  1
  Cl  Cl11  1  0.00000000  0.00000000  0.00000000  1
