# generated using pymatgen
data_CaPb3Se4
_symmetry_space_group_name_H-M   'P 1'
_cell_length_a   7.57007994
_cell_length_b   7.57007994
_cell_length_c   4.36099000
_cell_angle_alpha   90.00000000
_cell_angle_beta   90.00000000
_cell_angle_gamma   109.40490409
_symmetry_Int_Tables_number   1
_chemical_formula_structural   CaPb3Se4
_chemical_formula_sum   'Ca1 Pb3 Se4'
_cell_volume   235.71496424
_cell_formula_units_Z   1
loop_
 _symmetry_equiv_pos_site_id
 _symmetry_equiv_pos_as_xyz
  1  'x, y, z'
loop_
 _atom_site_type_symbol
 _atom_site_label
 _atom_site_symmetry_multiplicity
 _atom_site_fract_x
 _atom_site_fract_y
 _atom_site_fract_z
 _atom_site_occupancy
  Ca  Ca0  1  0.50000000  0.50000000  0.00000000  1
  Pb  Pb1  1  0.50000000  0.00000000  0.50000000  1
  Pb  Pb2  1  0.00000000  0.50000000  0.50000000  1
  Pb  Pb3  1  0.00000000  0.00000000  0.00000000  1
  Se  Se4  1  0.25485000  0.74515000  0.00000000  1
  Se  Se5  1  0.74515000  0.25485000  0.00000000  1
  Se  Se6  1  0.74068000  0.74068000  0.50000000  1
  Se  Se7  1  0.25932000  0.25932000  0.50000000  1
