# generated using pymatgen
data_Ca4MnFe3O10
_symmetry_space_group_name_H-M   'P 1'
_cell_length_a   5.44072300
_cell_length_b   5.63235100
_cell_length_c   16.19781733
_cell_angle_alpha   69.73191990
_cell_angle_beta   90.00000000
_cell_angle_gamma   90.00000000
_symmetry_Int_Tables_number   1
_chemical_formula_structural   Ca4MnFe3O10
_chemical_formula_sum   'Ca8 Mn2 Fe6 O20'
_cell_volume   465.63290047
_cell_formula_units_Z   2
loop_
 _symmetry_equiv_pos_site_id
 _symmetry_equiv_pos_as_xyz
  1  'x, y, z'
loop_
 _atom_site_type_symbol
 _atom_site_label
 _atom_site_symmetry_multiplicity
 _atom_site_fract_x
 _atom_site_fract_y
 _atom_site_fract_z
 _atom_site_occupancy
  Ca  Ca0  1  0.52028000  0.13391600  0.89089700  1
  Ca  Ca1  1  0.02028000  0.86608400  0.60910300  1
  Ca  Ca2  1  0.47678400  0.58433000  0.39082900  1
  Ca  Ca3  1  0.97678400  0.41567000  0.10917100  1
  Ca  Ca4  1  0.47972000  0.86608400  0.10910300  1
  Ca  Ca5  1  0.97972000  0.13391600  0.39089700  1
  Ca  Ca6  1  0.52321600  0.41567000  0.60917100  1
  Ca  Ca7  1  0.02321600  0.58433000  0.89082900  1
  Mn  Mn8  1  0.50000000  0.50000000  0.00000000  1
  Mn  Mn9  1  0.00000000  0.50000000  0.50000000  1
  Fe  Fe10  1  0.55149000  0.81637400  0.74767500  1
  Fe  Fe11  1  0.05149000  0.18362600  0.75232500  1
  Fe  Fe12  1  0.44851000  0.18362600  0.25232500  1
  Fe  Fe13  1  0.94851000  0.81637400  0.24767500  1
  Fe  Fe14  1  0.50000000  0.00000000  0.50000000  1
  Fe  Fe15  1  0.00000000  0.00000000  0.00000000  1
  O  O16  1  0.46376300  0.56562800  0.85212200  1
  O  O17  1  0.96376300  0.43437200  0.64787800  1
  O  O18  1  0.52684800  0.20512000  0.36349900  1
  O  O19  1  0.02684800  0.79488000  0.13650100  1
  O  O20  1  0.53623700  0.43437200  0.14787800  1
  O  O21  1  0.03623700  0.56562800  0.35212200  1
  O  O22  1  0.47315200  0.79488000  0.63650100  1
  O  O23  1  0.97315200  0.20512000  0.86349900  1
  O  O24  1  0.23470900  0.25434600  0.01554900  1
  O  O25  1  0.73470900  0.74565400  0.48445100  1
  O  O26  1  0.76913100  0.21975600  0.51603800  1
  O  O27  1  0.26913100  0.78024400  0.98396200  1
  O  O28  1  0.76529100  0.74565400  0.98445100  1
  O  O29  1  0.26529100  0.25434600  0.51554900  1
  O  O30  1  0.23086900  0.78024400  0.48396200  1
  O  O31  1  0.73086900  0.21975600  0.01603800  1
  O  O32  1  0.40936700  0.13241100  0.74980700  1
  O  O33  1  0.90936700  0.86758900  0.75019300  1
  O  O34  1  0.59063300  0.86758900  0.25019300  1
  O  O35  1  0.09063300  0.13241100  0.24980700  1
