# generated using pymatgen
data_Ca2IrPtO6
_symmetry_space_group_name_H-M   'P 1'
_cell_length_a   5.21506594
_cell_length_b   5.21506594
_cell_length_c   7.41421535
_cell_angle_alpha   89.79125224
_cell_angle_beta   89.79125224
_cell_angle_gamma   35.81898056
_symmetry_Int_Tables_number   1
_chemical_formula_structural   Ca2IrPtO6
_chemical_formula_sum   'Ca2 Ir1 Pt1 O6'
_cell_volume   118.00637663
_cell_formula_units_Z   1
loop_
 _symmetry_equiv_pos_site_id
 _symmetry_equiv_pos_as_xyz
  1  'x, y, z'
loop_
 _atom_site_type_symbol
 _atom_site_label
 _atom_site_symmetry_multiplicity
 _atom_site_fract_x
 _atom_site_fract_y
 _atom_site_fract_z
 _atom_site_occupancy
  Ca  Ca0  1  0.74945700  0.74945700  0.25392600  1
  Ca  Ca1  1  0.25054300  0.25054300  0.74607400  1
  Ir  Ir2  1  0.00000000  0.00000000  0.50000000  1
  Pt  Pt3  1  0.00000000  0.00000000  0.00000000  1
  O  O4  1  0.37056600  0.37056600  0.04475400  1
  O  O5  1  0.62943400  0.62943400  0.95524600  1
  O  O6  1  0.37548000  0.37548000  0.44967600  1
  O  O7  1  0.62452000  0.62452000  0.55032400  1
  O  O8  1  0.08135500  0.08135500  0.25323900  1
  O  O9  1  0.91864500  0.91864500  0.74676100  1
