# generated using pymatgen
data_Na7Sr6Nd7Ti20O60
_symmetry_space_group_name_H-M   'P 1'
_cell_length_a   5.55122939
_cell_length_b   5.55122938
_cell_length_c   55.79316891
_cell_angle_alpha   89.86946228
_cell_angle_beta   119.82814963
_cell_angle_gamma   120.15712714
_symmetry_Int_Tables_number   1
_chemical_formula_structural   Na7Sr6Nd7Ti20O60
_chemical_formula_sum   'Na7 Sr6 Nd7 Ti20 O60'
_cell_volume   1217.38764399
_cell_formula_units_Z   1
loop_
 _symmetry_equiv_pos_site_id
 _symmetry_equiv_pos_as_xyz
  1  'x, y, z'
loop_
 _atom_site_type_symbol
 _atom_site_label
 _atom_site_symmetry_multiplicity
 _atom_site_fract_x
 _atom_site_fract_y
 _atom_site_fract_z
 _atom_site_occupancy
  Na  Na0  1  0.46030074  0.23324996  0.96935507  1
  Na  Na1  1  0.45735652  0.22885618  0.86862127  1
  Na  Na2  1  0.48246458  0.23946913  0.77219337  1
  Na  Na3  1  0.49940864  0.24919092  0.67485996  1
  Na  Na4  1  0.51426089  0.25905837  0.57733193  1
  Na  Na5  1  0.53330069  0.27788400  0.48111847  1
  Na  Na6  1  0.52510838  0.28133614  0.38064445  1
  Sr  Sr7  1  0.47579662  0.73347438  0.82092710  1
  Sr  Sr8  1  0.49488959  0.74700200  0.72418916  1
  Sr  Sr9  1  0.50580537  0.75410974  0.62599151  1
  Sr  Sr10  1  0.52525620  0.76457005  0.52898262  1
  Sr  Sr11  1  0.50135074  0.75184995  0.22532007  1
  Sr  Sr12  1  0.50430600  0.74949884  0.12538048  1
  Nd  Nd13  1  0.46512943  0.70175233  0.91668818  1
  Nd  Nd14  1  0.55754230  0.76441117  0.43219535  1
  Nd  Nd15  1  0.53485868  0.75804270  0.32929014  1
  Nd  Nd16  1  0.49799125  0.26586609  0.27638573  1
  Nd  Nd17  1  0.48571423  0.25026375  0.17359780  1
  Nd  Nd18  1  0.47941927  0.71181975  0.01912390  1
  Nd  Nd19  1  0.48124330  0.24816372  0.07294070  1
  Ti  Ti20  1  0.97053905  0.48954825  0.94600873  1
  Ti  Ti21  1  0.96101896  0.48481602  0.84458350  1
  Ti  Ti22  1  0.98351544  0.98459298  0.89681084  1
  Ti  Ti23  1  0.98461346  0.49105089  0.74756643  1
  Ti  Ti24  1  0.97864582  0.98562007  0.79642659  1
  Ti  Ti25  1  0.00415915  0.50196533  0.65061245  1
  Ti  Ti26  1  0.99699800  0.99693735  0.69939354  1
  Ti  Ti27  1  0.02373519  0.51190363  0.55356388  1
  Ti  Ti28  1  0.01344082  0.00934095  0.60227818  1
  Ti  Ti29  1  0.02364636  0.51075972  0.45344061  1
  Ti  Ti30  1  0.03056743  0.02117683  0.50517443  1
  Ti  Ti31  1  0.02961197  0.51123573  0.35408477  1
  Ti  Ti32  1  0.01930151  0.01879430  0.40380958  1
  Ti  Ti33  1  0.00507110  0.50321087  0.25082820  1
  Ti  Ti34  1  0.01269917  0.00736068  0.30200598  1
  Ti  Ti35  1  0.99953009  0.49940488  0.14989350  1
  Ti  Ti36  1  0.00396270  0.00219233  0.20061550  1
  Ti  Ti37  1  0.98946650  0.48916226  0.04786288  1
  Ti  Ti38  1  0.99752393  0.99352600  0.09910499  1
  Ti  Ti39  1  0.97943373  0.98343210  0.99628658  1
  O  O40  1  0.08073853  0.76267131  0.98434098  1
  O  O41  1  0.01117150  0.79320782  0.93102370  1
  O  O42  1  0.04005807  0.24794028  0.97678490  1
  O  O43  1  0.06347290  0.75934677  0.88228197  1
  O  O44  1  0.51990876  0.72779098  0.97678490  1
  O  O45  1  0.01175822  0.78110654  0.82875545  1
  O  O46  1  0.03496052  0.24896954  0.87674413  1
  O  O47  1  0.51702916  0.29906549  0.93102370  1
  O  O48  1  0.03346161  0.75264935  0.77861110  1
  O  O49  1  0.51847176  0.73248078  0.87674413  1
  O  O50  1  0.00458257  0.77039615  0.72710659  1
  O  O51  1  0.00740343  0.23627202  0.77386859  1
  O  O52  1  0.50644797  0.27579629  0.82875545  1
  O  O53  1  0.95617539  0.26208574  0.92182611  1
  O  O54  1  0.02941190  0.75055432  0.67799662  1
  O  O55  1  0.50241385  0.73128244  0.77386859  1
  O  O56  1  0.00223144  0.76794666  0.62678545  1
  O  O57  1  0.00352169  0.23563810  0.67357545  1
  O  O58  1  0.50066979  0.26648337  0.72710659  1
  O  O59  1  0.96067375  0.25540187  0.82160756  1
  O  O60  1  0.03233363  0.74832973  0.57806634  1
  O  O61  1  0.50011639  0.73223280  0.67357545  1
  O  O62  1  0.99108743  0.76583597  0.52590568  1
  O  O63  1  0.00141347  0.23235931  0.57303921  1
  O  O64  1  0.49990787  0.26562309  0.62678545  1
  O  O65  1  0.96252706  0.25109337  0.72136204  1
  O  O66  1  0.01993018  0.74056427  0.47604945  1
  O  O67  1  0.49803274  0.72897858  0.57303921  1
  O  O68  1  0.96696072  0.76574553  0.42466086  1
  O  O69  1  0.97827475  0.21017789  0.46932253  1
  O  O70  1  0.49322080  0.26796934  0.52590568  1
  O  O71  1  0.96319093  0.24947304  0.62126640  1
  O  O72  1  0.05361676  0.73670858  0.37903253  1
  O  O73  1  0.48304746  0.71495060  0.46932253  1
  O  O74  1  0.96067023  0.75579647  0.32406027  1
  O  O75  1  0.97191363  0.19355702  0.36737695  1
  O  O76  1  0.48086310  0.27964790  0.42466086  1
  O  O77  1  0.94902745  0.24609241  0.51951199  1
  O  O78  1  0.08118651  0.74063922  0.28218257  1
  O  O79  1  0.48021250  0.70185589  0.36737695  1
  O  O80  1  0.01149517  0.79424855  0.22952767  1
  O  O81  1  0.00222462  0.20540574  0.26978568  1
  O  O82  1  0.48480619  0.27993243  0.32406027  1
  O  O83  1  0.92643140  0.24016927  0.41666007  1
  O  O84  1  0.05727717  0.75121183  0.18084890  1
  O  O85  1  0.49245110  0.69563222  0.26978568  1
  O  O86  1  0.01762598  0.80048593  0.13017629  1
  O  O87  1  0.01460431  0.21955227  0.17199629  1
  O  O88  1  0.50102812  0.28378150  0.22952767  1
  O  O89  1  0.91308527  0.23464610  0.31477314  1
  O  O90  1  0.06859855  0.75807202  0.08266706  1
  O  O91  1  0.50041063  0.70535859  0.17199629  1
  O  O92  1  0.02463554  0.80606541  0.03240036  1
  O  O93  1  0.01460713  0.21834774  0.07254952  1
  O  O94  1  0.50127699  0.28413695  0.13017629  1
  O  O95  1  0.91061879  0.24764009  0.21582589  1
  O  O96  1  0.50714746  0.71088807  0.07254952  1
  O  O97  1  0.51793816  0.29936803  0.03240036  1
  O  O98  1  0.91877061  0.25409319  0.11728638  1
  O  O99  1  0.95388654  0.26034697  0.02142335  1
