# generated using pymatgen
data_BeZn3O4
_symmetry_space_group_name_H-M   'P 1'
_cell_length_a   5.39693132
_cell_length_b   5.39693132
_cell_length_c   5.39693132
_cell_angle_alpha   131.56490438
_cell_angle_beta   131.56490438
_cell_angle_gamma   70.91708731
_symmetry_Int_Tables_number   1
_chemical_formula_structural   BeZn3O4
_chemical_formula_sum   'Be1 Zn3 O4'
_cell_volume   86.18009943
_cell_formula_units_Z   1
loop_
 _symmetry_equiv_pos_site_id
 _symmetry_equiv_pos_as_xyz
  1  'x, y, z'
loop_
 _atom_site_type_symbol
 _atom_site_label
 _atom_site_symmetry_multiplicity
 _atom_site_fract_x
 _atom_site_fract_y
 _atom_site_fract_z
 _atom_site_occupancy
  Be  Be0  1  0.00000000  0.00000000  0.00000000  1
  Zn  Zn1  1  0.50000000  0.50000000  0.00000000  1
  Zn  Zn2  1  0.25000000  0.75000000  0.50000000  1
  Zn  Zn3  1  0.75000000  0.25000000  0.50000000  1
  O  O4  1  0.67059700  0.67059700  0.56337900  1
  O  O5  1  0.10721700  0.10721700  0.43662100  1
  O  O6  1  0.89278300  0.32940300  0.00000000  1
  O  O7  1  0.32940300  0.89278300  0.00000000  1
