data_image0
_chemical_formula_structural       As2HgO6
_chemical_formula_sum              "As2 Hg1 O6"
_cell_length_a       4.90628
_cell_length_b       4.90622
_cell_length_c       4.96867
_cell_angle_alpha    90.0001
_cell_angle_beta     89.9999
_cell_angle_gamma    120

_space_group_name_H-M_alt    "P 1"
_space_group_IT_number       1

loop_
  _space_group_symop_operation_xyz
  'x, y, z'

loop_
  _atom_site_type_symbol
  _atom_site_label
  _atom_site_symmetry_multiplicity
  _atom_site_fract_x
  _atom_site_fract_y
  _atom_site_fract_z
  _atom_site_occupancy
  As  As1       1.0  0.33300  0.66700  0.50000  1.0000
  As  As2       1.0  0.66700  0.33300  0.50000  1.0000
  Hg  Hg1       1.0  0.00000  0.00000  0.00000  1.0000
  O   O1        1.0  0.38000  0.00000  0.29000  1.0000
  O   O2        1.0  0.62000  0.62000  0.29000  1.0000
  O   O3        1.0  0.00000  0.38000  0.29000  1.0000
  O   O4        1.0  0.62000  0.00000  0.71000  1.0000
  O   O5        1.0  0.38000  0.38000  0.71000  1.0000
  O   O6        1.0  0.00000  0.62000  0.71000  1.0000
