# generated using pymatgen
data_CaFe2BiO6
_symmetry_space_group_name_H-M   'P 1'
_cell_length_a   5.43494325
_cell_length_b   5.43494325
_cell_length_c   5.43494325
_cell_angle_alpha   119.69353038
_cell_angle_beta   119.69353038
_cell_angle_gamma   90.53164569
_symmetry_Int_Tables_number   1
_chemical_formula_structural   CaFe2BiO6
_chemical_formula_sum   'Ca1 Fe2 Bi1 O6'
_cell_volume   114.03992685
_cell_formula_units_Z   1
loop_
 _symmetry_equiv_pos_site_id
 _symmetry_equiv_pos_as_xyz
  1  'x, y, z'
loop_
 _atom_site_type_symbol
 _atom_site_label
 _atom_site_symmetry_multiplicity
 _atom_site_fract_x
 _atom_site_fract_y
 _atom_site_fract_z
 _atom_site_occupancy
  Ca  Ca0  1  0.98754000  0.98754000  0.00000000  1
  Fe  Fe1  1  0.25082900  0.75082900  0.50000000  1
  Fe  Fe2  1  0.75082900  0.25082900  0.50000000  1
  Bi  Bi3  1  0.45798000  0.45798000  0.00000000  1
  O  O4  1  0.50965300  0.02782500  0.00000000  1
  O  O5  1  0.02782500  0.50965300  0.00000000  1
  O  O6  1  0.02782500  0.02782500  0.51817200  1
  O  O7  1  0.50965300  0.50965300  0.48182800  1
  O  O8  1  0.00738300  0.50738300  0.50000000  1
  O  O9  1  0.50738300  0.00738300  0.50000000  1
