# generated using pymatgen
data_NaCa4TaTi4O15
_symmetry_space_group_name_H-M   'P 1'
_cell_length_a   5.42961679
_cell_length_b   5.52746728
_cell_length_c   38.74305765
_cell_angle_alpha   90.06442707
_cell_angle_beta   89.94067398
_cell_angle_gamma   90.09912165
_symmetry_Int_Tables_number   1
_chemical_formula_structural   NaCa4TaTi4O15
_chemical_formula_sum   'Na4 Ca16 Ta4 Ti16 O60'
_cell_volume   1162.75467837
_cell_formula_units_Z   4
loop_
 _symmetry_equiv_pos_site_id
 _symmetry_equiv_pos_as_xyz
  1  'x, y, z'
loop_
 _atom_site_type_symbol
 _atom_site_label
 _atom_site_symmetry_multiplicity
 _atom_site_fract_x
 _atom_site_fract_y
 _atom_site_fract_z
 _atom_site_occupancy
  Na  Na0  1  0.00531500  0.97111000  0.34784900  1
  Na  Na1  1  0.00456600  0.97143500  0.74812300  1
  Na  Na2  1  0.49430800  0.47452000  0.14748100  1
  Na  Na3  1  0.49472100  0.47399300  0.54818500  1
  Ca  Ca4  1  0.00625000  0.95692100  0.14704400  1
  Ca  Ca5  1  0.00747700  0.95597000  0.54793800  1
  Ca  Ca6  1  0.00977400  0.95524900  0.95081300  1
  Ca  Ca7  1  0.49351200  0.46194400  0.34759200  1
  Ca  Ca8  1  0.49443900  0.46254700  0.74790000  1
  Ca  Ca9  1  0.49444200  0.45836100  0.95085200  1
  Ca  Ca10  1  0.50801400  0.54192600  0.05082000  1
  Ca  Ca11  1  0.50674000  0.54101500  0.25188600  1
  Ca  Ca12  1  0.50722400  0.54049400  0.65226600  1
  Ca  Ca13  1  0.50900100  0.54189900  0.45211600  1
  Ca  Ca14  1  0.50707000  0.54150400  0.85189900  1
  Ca  Ca15  1  0.99026600  0.04838800  0.25171900  1
  Ca  Ca16  1  0.98926100  0.04309000  0.05043200  1
  Ca  Ca17  1  0.99028700  0.04819500  0.65214800  1
  Ca  Ca18  1  0.99090800  0.04649700  0.45194100  1
  Ca  Ca19  1  0.99266900  0.04853800  0.85198000  1
  Ta  Ta20  1  0.50100300  0.00663200  0.19896100  1
  Ta  Ta21  1  0.49691500  0.00117600  0.39920300  1
  Ta  Ta22  1  0.50017200  0.00540700  0.59968400  1
  Ta  Ta23  1  0.49545100  0.00191500  0.79987700  1
  Ti  Ti24  1  0.00009700  0.50024900  0.00066000  1
  Ti  Ti25  1  0.00589700  0.50386500  0.19911300  1
  Ti  Ti26  1  0.99863500  0.50829800  0.39918700  1
  Ti  Ti27  1  0.00308000  0.50222100  0.59857200  1
  Ti  Ti28  1  0.99749200  0.50959000  0.79912700  1
  Ti  Ti29  1  0.49166600  0.01019300  0.09894200  1
  Ti  Ti30  1  0.48779700  0.00696000  0.30018900  1
  Ti  Ti31  1  0.49803900  0.99985000  0.00038200  1
  Ti  Ti32  1  0.50044000  0.01572900  0.50005300  1
  Ti  Ti33  1  0.50962300  0.00209100  0.90144000  1
  Ti  Ti34  1  0.49101900  0.00874400  0.70085800  1
  Ti  Ti35  1  0.99748300  0.50719800  0.10048000  1
  Ti  Ti36  1  0.99437400  0.51599800  0.29973900  1
  Ti  Ti37  1  0.00897700  0.51017900  0.50002800  1
  Ti  Ti38  1  0.99891300  0.51651800  0.69952700  1
  Ti  Ti39  1  0.00907200  0.49940200  0.90059900  1
  O  O40  1  0.07657800  0.48019100  0.04933000  1
  O  O41  1  0.07657100  0.47845800  0.24967500  1
  O  O42  1  0.07687000  0.47887500  0.45009500  1
  O  O43  1  0.07637700  0.47901600  0.65004400  1
  O  O44  1  0.07442000  0.47916100  0.85051300  1
  O  O45  1  0.20991900  0.20688500  0.39273400  1
  O  O46  1  0.19519300  0.19831200  0.59275800  1
  O  O47  1  0.19380300  0.19631100  0.19265200  1
  O  O48  1  0.20714400  0.20573800  0.79322100  1
  O  O49  1  0.20779900  0.20247300  0.10604800  1
  O  O50  1  0.22211900  0.21118600  0.30673000  1
  O  O51  1  0.20569200  0.20204400  0.50670200  1
  O  O52  1  0.22127400  0.21070100  0.70683200  1
  O  O53  1  0.21008100  0.20919800  0.99186600  1
  O  O54  1  0.20443900  0.20641100  0.90809500  1
  O  O55  1  0.28407600  0.71338800  0.10629300  1
  O  O56  1  0.28919000  0.70517600  0.19269500  1
  O  O57  1  0.29751400  0.70401600  0.30659700  1
  O  O58  1  0.30366900  0.69515500  0.39254400  1
  O  O59  1  0.28728700  0.70726600  0.59252100  1
  O  O60  1  0.27921400  0.71213000  0.50715000  1
  O  O61  1  0.29119600  0.70608800  0.90813500  1
  O  O62  1  0.29258700  0.71067300  0.99172200  1
  O  O63  1  0.29638300  0.70335300  0.70680200  1
  O  O64  1  0.30431500  0.69357700  0.79305000  1
  O  O65  1  0.42570000  0.97971100  0.04944400  1
  O  O66  1  0.42107200  0.97767000  0.65015400  1
  O  O67  1  0.42271200  0.97835500  0.25010800  1
  O  O68  1  0.41973700  0.97741700  0.85035900  1
  O  O69  1  0.42004600  0.97622500  0.44993200  1
  O  O70  1  0.57645700  0.01636200  0.34989700  1
  O  O71  1  0.57702600  0.01806600  0.14970700  1
  O  O72  1  0.57750700  0.01855100  0.54998900  1
  O  O73  1  0.57396400  0.01596300  0.75009600  1
  O  O74  1  0.57624900  0.02005100  0.94992800  1
  O  O75  1  0.70736000  0.29272100  0.00756800  1
  O  O76  1  0.71448000  0.28006400  0.09058000  1
  O  O77  1  0.70493000  0.29041900  0.20973200  1
  O  O78  1  0.71600600  0.28378300  0.29239400  1
  O  O79  1  0.70514600  0.28960500  0.61003900  1
  O  O80  1  0.71008700  0.28905000  0.40869300  1
  O  O81  1  0.71057500  0.27657000  0.49077100  1
  O  O82  1  0.71455300  0.28219400  0.69257200  1
  O  O83  1  0.70815400  0.29080100  0.80873700  1
  O  O84  1  0.70420800  0.28837200  0.89227300  1
  O  O85  1  0.79288300  0.79290600  0.00755000  1
  O  O86  1  0.79288000  0.79003600  0.20806900  1
  O  O87  1  0.78926600  0.78299700  0.09195000  1
  O  O88  1  0.79011600  0.77968200  0.29093000  1
  O  O89  1  0.78831600  0.77906000  0.69115600  1
  O  O90  1  0.79498500  0.78593700  0.40981500  1
  O  O91  1  0.79170300  0.79047300  0.60833600  1
  O  O92  1  0.78311600  0.78120500  0.49236700  1
  O  O93  1  0.78792300  0.79177300  0.89242400  1
  O  O94  1  0.79559700  0.78796800  0.80993800  1
  O  O95  1  0.93238800  0.51596400  0.15015000  1
  O  O96  1  0.92779500  0.51642500  0.35056900  1
  O  O97  1  0.92887700  0.51536600  0.55064600  1
  O  O98  1  0.92789900  0.51650500  0.75082800  1
  O  O99  1  0.92418800  0.52016200  0.94989100  1
