# generated using pymatgen
data_CaLa2BeO5
_symmetry_space_group_name_H-M   'P 1'
_cell_length_a   6.62669300
_cell_length_b   7.29408400
_cell_length_c   9.65728300
_cell_angle_alpha   90.00000000
_cell_angle_beta   90.00000000
_cell_angle_gamma   90.00000000
_symmetry_Int_Tables_number   1
_chemical_formula_structural   CaLa2BeO5
_chemical_formula_sum   'Ca4 La8 Be4 O20'
_cell_volume   466.79110304
_cell_formula_units_Z   4
loop_
 _symmetry_equiv_pos_site_id
 _symmetry_equiv_pos_as_xyz
  1  'x, y, z'
loop_
 _atom_site_type_symbol
 _atom_site_label
 _atom_site_symmetry_multiplicity
 _atom_site_fract_x
 _atom_site_fract_y
 _atom_site_fract_z
 _atom_site_occupancy
  Ca  Ca0  1  0.57667800  0.97820200  0.67449400  1
  Ca  Ca1  1  0.42332200  0.47820200  0.32550600  1
  Ca  Ca2  1  0.07667800  0.47820200  0.82550600  1
  Ca  Ca3  1  0.92332200  0.97820200  0.17449400  1
  La  La4  1  0.09675900  0.74581700  0.52368900  1
  La  La5  1  0.40324100  0.74581700  0.02368900  1
  La  La6  1  0.90324100  0.24581700  0.47631100  1
  La  La7  1  0.59675900  0.24581700  0.97631100  1
  La  La8  1  0.92628200  0.52746900  0.17239500  1
  La  La9  1  0.07371800  0.02746900  0.82760500  1
  La  La10  1  0.42628200  0.02746900  0.32760500  1
  La  La11  1  0.57371800  0.52746900  0.67239500  1
  Be  Be12  1  0.69405300  0.74898600  0.39535900  1
  Be  Be13  1  0.80594700  0.74898600  0.89535900  1
  Be  Be14  1  0.30594700  0.24898600  0.60464100  1
  Be  Be15  1  0.19405300  0.24898600  0.10464100  1
  O  O16  1  0.01676800  0.74988000  0.98569500  1
  O  O17  1  0.48323200  0.74988000  0.48569500  1
  O  O18  1  0.98323200  0.24988000  0.01430500  1
  O  O19  1  0.51676800  0.24988000  0.51430500  1
  O  O20  1  0.64126600  0.75040800  0.22454000  1
  O  O21  1  0.85873400  0.75040800  0.72454000  1
  O  O22  1  0.35873400  0.25040800  0.77546000  1
  O  O23  1  0.14126600  0.25040800  0.27546000  1
  O  O24  1  0.16202000  0.74899100  0.27290200  1
  O  O25  1  0.33798000  0.74899100  0.77290200  1
  O  O26  1  0.83798000  0.24899100  0.72709800  1
  O  O27  1  0.66202000  0.24899100  0.22709800  1
  O  O28  1  0.31102000  0.05854400  0.07160900  1
  O  O29  1  0.19203800  0.44170300  0.57315200  1
  O  O30  1  0.68898000  0.55854400  0.92839100  1
  O  O31  1  0.80796200  0.94170300  0.42684800  1
  O  O32  1  0.69203800  0.94170300  0.92684800  1
  O  O33  1  0.81102000  0.55854400  0.42839100  1
  O  O34  1  0.30796200  0.44170300  0.07315200  1
  O  O35  1  0.18898000  0.05854400  0.57160900  1
