# generated using pymatgen
data_CaLuMn2O6
_symmetry_space_group_name_H-M   'P 1'
_cell_length_a   5.30593200
_cell_length_b   5.56098100
_cell_length_c   7.49695900
_cell_angle_alpha   90.00000000
_cell_angle_beta   90.00000000
_cell_angle_gamma   90.00000000
_symmetry_Int_Tables_number   1
_chemical_formula_structural   CaLuMn2O6
_chemical_formula_sum   'Ca2 Lu2 Mn4 O12'
_cell_volume   221.20667448
_cell_formula_units_Z   2
loop_
 _symmetry_equiv_pos_site_id
 _symmetry_equiv_pos_as_xyz
  1  'x, y, z'
loop_
 _atom_site_type_symbol
 _atom_site_label
 _atom_site_symmetry_multiplicity
 _atom_site_fract_x
 _atom_site_fract_y
 _atom_site_fract_z
 _atom_site_occupancy
  Ca  Ca0  1  0.48896400  0.19320300  0.00000000  1
  Ca  Ca1  1  0.98896400  0.80679700  0.50000000  1
  Lu  Lu2  1  0.51881300  0.32295300  0.50000000  1
  Lu  Lu3  1  0.01881300  0.67704700  0.00000000  1
  Mn  Mn4  1  0.50105200  0.75413300  0.75026100  1
  Mn  Mn5  1  0.50105200  0.75413300  0.24973900  1
  Mn  Mn6  1  0.00105200  0.24586700  0.74973900  1
  Mn  Mn7  1  0.00105200  0.24586700  0.25026100  1
  O  O8  1  0.79019400  0.54221100  0.29929100  1
  O  O9  1  0.19120600  0.93808700  0.80473100  1
  O  O10  1  0.19120600  0.93808700  0.19526900  1
  O  O11  1  0.79019400  0.54221100  0.70070900  1
  O  O12  1  0.29019400  0.45778900  0.20070900  1
  O  O13  1  0.69120600  0.06191300  0.69526900  1
  O  O14  1  0.69120600  0.06191300  0.30473100  1
  O  O15  1  0.29019400  0.45778900  0.79929100  1
  O  O16  1  0.61814100  0.77966500  0.00000000  1
  O  O17  1  0.40870200  0.70837700  0.50000000  1
  O  O18  1  0.11814100  0.22033500  0.50000000  1
  O  O19  1  0.90870200  0.29162300  0.00000000  1
