# generated using pymatgen
data_BaThF6
_symmetry_space_group_name_H-M   'P 1'
_cell_length_a   4.28591172
_cell_length_b   4.28591172
_cell_length_c   7.89466900
_cell_angle_alpha   90.00000000
_cell_angle_beta   90.00000000
_cell_angle_gamma   120.00644796
_symmetry_Int_Tables_number   1
_chemical_formula_structural   BaThF6
_chemical_formula_sum   'Ba1 Th1 F6'
_cell_volume   125.58066485
_cell_formula_units_Z   1
loop_
 _symmetry_equiv_pos_site_id
 _symmetry_equiv_pos_as_xyz
  1  'x, y, z'
loop_
 _atom_site_type_symbol
 _atom_site_label
 _atom_site_symmetry_multiplicity
 _atom_site_fract_x
 _atom_site_fract_y
 _atom_site_fract_z
 _atom_site_occupancy
  Ba  Ba0  1  0.66667400  0.33332600  0.25000000  1
  Th  Th1  1  0.33326300  0.66673700  0.75000000  1
  F  F2  1  0.99998900  0.00001100  0.25000000  1
  F  F3  1  0.99999500  0.00000500  0.75000000  1
  F  F4  1  0.66670000  0.33330000  0.89692600  1
  F  F5  1  0.33334000  0.66666000  0.02957700  1
  F  F6  1  0.33334000  0.66666000  0.47042300  1
  F  F7  1  0.66670000  0.33330000  0.60307400  1
