# generated using pymatgen
data_Bi2Te2S
_symmetry_space_group_name_H-M   'P 1'
_cell_length_a   10.36040844
_cell_length_b   10.36040844
_cell_length_c   10.36040838
_cell_angle_alpha   24.04924937
_cell_angle_beta   24.04924937
_cell_angle_gamma   24.04924655
_symmetry_Int_Tables_number   1
_chemical_formula_structural   Bi2Te2S
_chemical_formula_sum   'Bi2 Te2 S1'
_cell_volume   162.28894465
_cell_formula_units_Z   1
loop_
 _symmetry_equiv_pos_site_id
 _symmetry_equiv_pos_as_xyz
  1  'x, y, z'
loop_
 _atom_site_type_symbol
 _atom_site_label
 _atom_site_symmetry_multiplicity
 _atom_site_fract_x
 _atom_site_fract_y
 _atom_site_fract_z
 _atom_site_occupancy
  Bi  Bi0  1  0.59905400  0.59905400  0.59905400  1
  Bi  Bi1  1  0.40636500  0.40636500  0.40636500  1
  Te  Te2  1  0.00463400  0.00463400  0.00463400  1
  Te  Te3  1  0.20698000  0.20698000  0.20698000  1
  S  S4  1  0.78296600  0.78296600  0.78296600  1
