# generated using pymatgen
data_Na2Al2Si3(HO3)4
_symmetry_space_group_name_H-M   'P 1'
_cell_length_a   9.02883100
_cell_length_b   9.72933172
_cell_length_c   15.82928454
_cell_angle_alpha   90.66450596
_cell_angle_beta   95.25279464
_cell_angle_gamma   117.43853602
_symmetry_Int_Tables_number   1
_chemical_formula_structural   Na2Al2Si3(HO3)4
_chemical_formula_sum   'Na8 Al8 Si12 H16 O48'
_cell_volume   1226.62999230
_cell_formula_units_Z   4
loop_
 _symmetry_equiv_pos_site_id
 _symmetry_equiv_pos_as_xyz
  1  'x, y, z'
loop_
 _atom_site_type_symbol
 _atom_site_label
 _atom_site_symmetry_multiplicity
 _atom_site_fract_x
 _atom_site_fract_y
 _atom_site_fract_z
 _atom_site_occupancy
  Na  Na0  1  0.64135500  0.15326500  0.16729300  1
  Na  Na1  1  0.62929400  0.58882600  0.16581300  1
  Na  Na2  1  0.30890900  0.36971800  0.29959400  1
  Na  Na3  1  0.52548400  0.89933500  0.51885500  1
  Na  Na4  1  0.91396000  0.79782600  0.70396400  1
  Na  Na5  1  0.54619100  0.50653900  0.66850600  1
  Na  Na6  1  0.12279900  0.73888800  0.52872700  1
  Na  Na7  1  0.02242900  0.46998600  0.89240600  1
  Al  Al8  1  0.29906400  0.68876600  0.16355400  1
  Al  Al9  1  0.98023500  0.33072400  0.45192900  1
  Al  Al10  1  0.67248300  0.34622300  0.35916200  1
  Al  Al11  1  0.48827600  0.82463500  0.95284800  1
  Al  Al12  1  0.87155100  0.03332300  0.97075000  1
  Al  Al13  1  0.70232000  0.13187000  0.82970900  1
  Al  Al14  1  0.45213800  0.22533200  0.51872500  1
  Al  Al15  1  0.53469900  0.18667400  0.96515800  1
  Si  Si16  1  0.04653500  0.11824000  0.13833800  1
  Si  Si17  1  0.93572800  0.02467400  0.53841400  1
  Si  Si18  1  0.23234100  0.20751800  0.03354600  1
  Si  Si19  1  0.55308100  0.72964600  0.32434900  1
  Si  Si20  1  0.65806600  0.78709800  0.83546800  1
  Si  Si21  1  0.30250600  0.69093600  0.75080700  1
  Si  Si22  1  0.21120100  0.08890600  0.59780300  1
  Si  Si23  1  0.93568000  0.81080800  0.33825000  1
  Si  Si24  1  0.06944300  0.82461500  0.21663200  1
  Si  Si25  1  0.94054100  0.55413800  0.08747400  1
  Si  Si26  1  0.31926500  0.00088900  0.77309900  1
  Si  Si27  1  0.81404300  0.46671700  0.55552300  1
  H  H28  1  0.94525300  0.59789400  0.99859400  1
  H  H29  1  0.83253300  0.86662600  0.49559600  1
  H  H30  1  0.16583200  0.53370900  0.76067000  1
  H  H31  1  0.39567100  0.59854000  0.43297600  1
  H  H32  1  0.04183100  0.95861600  0.39047000  1
  H  H33  1  0.90501100  0.27134000  0.29081100  1
  H  H34  1  0.56474900  0.14633100  0.66561000  1
  H  H35  1  0.26121100  0.45786900  0.02587900  1
  H  H36  1  0.56056200  0.88919700  0.32097600  1
  H  H37  1  0.91934500  0.68527100  0.39704800  1
  H  H38  1  0.86153800  0.31562000  0.73302800  1
  H  H39  1  0.20567500  0.07410500  0.88464900  1
  H  H40  1  0.69956000  0.95261700  0.70246600  1
  H  H41  1  0.48602700  0.07101000  0.31102500  1
  H  H42  1  0.85314200  0.17562400  0.92478100  1
  H  H43  1  0.71079900  0.51241600  0.84868700  1
  O  O44  1  0.51249900  0.07054900  0.75158400  1
  O  O45  1  0.84725800  0.63460700  0.58700500  1
  O  O46  1  0.74946000  0.40556500  0.09867500  1
  O  O47  1  0.86459200  0.04005900  0.08106500  1
  O  O48  1  0.87314300  0.35990400  0.36155100  1
  O  O49  1  0.42913600  0.64032300  0.23221400  1
  O  O50  1  0.89395700  0.18428000  0.24801000  1
  O  O51  1  0.53468500  0.17782300  0.29541500  1
  O  O52  1  0.56445100  0.56066600  0.36303900  1
  O  O53  1  0.73101000  0.27506100  0.03974000  1
  O  O54  1  0.98198500  0.46242400  0.53097300  1
  O  O55  1  0.39154800  0.17182000  0.03602500  1
  O  O56  1  0.75175000  0.45470000  0.88915400  1
  O  O57  1  0.72395500  0.36164700  0.64035800  1
  O  O58  1  0.63237100  0.48806800  0.30305600  1
  O  O59  1  0.88394100  0.14213700  0.48787800  1
  O  O60  1  0.32014700  0.39687000  0.01778200  1
  O  O61  1  0.35396800  0.24623100  0.41718400  1
  O  O62  1  0.62690200  0.29106900  0.87136600  1
  O  O63  1  0.73747600  0.96168800  0.80182200  1
  O  O64  1  0.08598900  0.09248300  0.95557500  1
  O  O65  1  0.70006800  0.94743200  0.63850700  1
  O  O66  1  0.65457200  0.35647400  0.47795000  1
  O  O67  1  0.70034800  0.83268200  0.94324300  1
  O  O68  1  0.60790400  0.19680400  0.60902300  1
  O  O69  1  0.42079000  0.76385200  0.06862100  1
  O  O70  1  0.10549400  0.53531800  0.11860300  1
  O  O71  1  0.87989200  0.27903900  0.78778900  1
  O  O72  1  0.30685700  0.01807200  0.53641400  1
  O  O73  1  0.70499300  0.66505000  0.79418300  1
  O  O74  1  0.24687100  0.82125000  0.21249400  1
  O  O75  1  0.35016600  0.27439100  0.59883900  1
  O  O76  1  0.31118900  0.09159800  0.86015800  1
  O  O77  1  0.18578200  0.21793800  0.42112200  1
  O  O78  1  0.75697300  0.80446200  0.29951600  1
  O  O79  1  0.44301500  0.70507900  0.41409900  1
  O  O80  1  0.92285000  0.68671000  0.14646100  1
  O  O81  1  0.55211100  0.01955400  0.93034300  1
  O  O82  1  0.42843500  0.66876100  0.68213000  1
  O  O83  1  0.19142500  0.37626200  0.43231700  1
  O  O84  1  0.08908000  0.99225200  0.18701600  1
  O  O85  1  0.31278100  0.73683000  0.64507600  1
  O  O86  1  0.44865400  0.72647300  0.84066300  1
  O  O87  1  0.29655000  0.68862700  0.98720700  1
  O  O88  1  0.05685600  0.25274500  0.21002000  1
  O  O89  1  0.23168200  0.81215700  0.78627800  1
  O  O90  1  0.19726100  0.01679700  0.69345900  1
  O  O91  1  0.88402400  0.00771500  0.63903800  1
