# generated using pymatgen
data_CaCd(WO4)2
_symmetry_space_group_name_H-M   'P 1'
_cell_length_a   6.79690887
_cell_length_b   6.79690887
_cell_length_c   6.79690887
_cell_angle_alpha   133.85242720
_cell_angle_beta   133.85242720
_cell_angle_gamma   67.31859433
_symmetry_Int_Tables_number   1
_chemical_formula_structural   CaCd(WO4)2
_chemical_formula_sum   'Ca1 Cd1 W2 O8'
_cell_volume   160.57792490
_cell_formula_units_Z   1
loop_
 _symmetry_equiv_pos_site_id
 _symmetry_equiv_pos_as_xyz
  1  'x, y, z'
loop_
 _atom_site_type_symbol
 _atom_site_label
 _atom_site_symmetry_multiplicity
 _atom_site_fract_x
 _atom_site_fract_y
 _atom_site_fract_z
 _atom_site_occupancy
  Ca  Ca0  1  0.25000000  0.75000000  0.50000000  1
  Cd  Cd1  1  0.00000000  0.00000000  0.00000000  1
  W  W2  1  0.75000000  0.25000000  0.50000000  1
  W  W3  1  0.50000000  0.50000000  0.00000000  1
  O  O4  1  0.90536200  0.00708700  0.58904900  1
  O  O5  1  0.41803800  0.31631300  0.41095100  1
  O  O6  1  0.56778100  0.65333200  0.39834800  1
  O  O7  1  0.25498400  0.16943300  0.60165200  1
  O  O8  1  0.34666800  0.74501600  0.91444900  1
  O  O9  1  0.83056700  0.43221900  0.08555100  1
  O  O10  1  0.68368700  0.09463800  0.10172600  1
  O  O11  1  0.99291300  0.58196200  0.89827400  1
