# generated using pymatgen
data_Na2Ga2Si3(HO3)4
_symmetry_space_group_name_H-M   'P 1'
_cell_length_a   17.71550642
_cell_length_b   9.00309780
_cell_length_c   7.98757356
_cell_angle_alpha   87.19950081
_cell_angle_beta   78.07900685
_cell_angle_gamma   70.27608409
_symmetry_Int_Tables_number   1
_chemical_formula_structural   Na2Ga2Si3(HO3)4
_chemical_formula_sum   'Na8 Ga8 Si12 H16 O48'
_cell_volume   1173.06506016
_cell_formula_units_Z   4
loop_
 _symmetry_equiv_pos_site_id
 _symmetry_equiv_pos_as_xyz
  1  'x, y, z'
loop_
 _atom_site_type_symbol
 _atom_site_label
 _atom_site_symmetry_multiplicity
 _atom_site_fract_x
 _atom_site_fract_y
 _atom_site_fract_z
 _atom_site_occupancy
  Na  Na0  1  0.24021000  0.42762300  0.85875700  1
  Na  Na1  1  0.07211500  0.06106800  0.32979600  1
  Na  Na2  1  0.21579700  0.20024600  0.55921800  1
  Na  Na3  1  0.42818800  0.58254100  0.98532500  1
  Na  Na4  1  0.71581500  0.63281800  0.03762000  1
  Na  Na5  1  0.61083200  0.11467400  0.28952200  1
  Na  Na6  1  0.74075900  0.25712300  0.52424600  1
  Na  Na7  1  0.96665400  0.45322500  0.02965100  1
  Ga  Ga8  1  0.37881600  0.00308100  0.90440200  1
  Ga  Ga9  1  0.06382700  0.71141200  0.07304100  1
  Ga  Ga10  1  0.25604400  0.50381200  0.40276600  1
  Ga  Ga11  1  0.17224000  0.07394700  0.93728400  1
  Ga  Ga12  1  0.96829800  0.82108200  0.87826400  1
  Ga  Ga13  1  0.84760000  0.66150100  0.77880800  1
  Ga  Ga14  1  0.71486200  0.69456100  0.42246400  1
  Ga  Ga15  1  0.75553900  0.18026400  0.96853200  1
  Si  Si16  1  0.93020400  0.87779700  0.40062300  1
  Si  Si17  1  0.97365000  0.42181700  0.54840000  1
  Si  Si18  1  0.21026200  0.82466200  0.52787300  1
  Si  Si19  1  0.21711600  0.75624400  0.13990200  1
  Si  Si20  1  0.44652300  0.05315500  0.19795300  1
  Si  Si21  1  0.40134600  0.20179700  0.54317800  1
  Si  Si22  1  0.58161100  0.56939300  0.28458700  1
  Si  Si23  1  0.47730300  0.44536600  0.59786900  1
  Si  Si24  1  0.66398100  0.96391300  0.81615700  1
  Si  Si25  1  0.52917000  0.82624500  0.02758000  1
  Si  Si26  1  0.90889000  0.13803100  0.65752400  1
  Si  Si27  1  0.09022900  0.42724800  0.33798100  1
  H  H28  1  0.98298900  0.05455400  0.15639000  1
  H  H29  1  0.08042700  0.96228200  0.69529600  1
  H  H30  1  0.27674400  0.89291000  0.50887700  1
  H  H31  1  0.25926700  0.13796000  0.21607200  1
  H  H32  1  0.39981600  0.74172200  0.33320100  1
  H  H33  1  0.33713000  0.59359700  0.65074500  1
  H  H34  1  0.36944700  0.72445800  0.29115000  1
  H  H35  1  0.55019400  0.29018800  0.78017400  1
  H  H36  1  0.51893600  0.17630600  0.02820800  1
  H  H37  1  0.52522700  0.09318300  0.76917100  1
  H  H38  1  0.80395000  0.53065700  0.80451100  1
  H  H39  1  0.85951700  0.14685900  0.11858100  1
  H  H40  1  0.86391700  0.82745800  0.36937300  1
  H  H41  1  0.75863700  0.52186900  0.64611200  1
  H  H42  1  0.90279600  0.52163300  0.46970200  1
  H  H43  1  0.99956700  0.12705100  0.88839000  1
  O  O44  1  0.02066900  0.18240300  0.96785200  1
  O  O45  1  0.20609800  0.13540200  0.29156200  1
  O  O46  1  0.17495400  0.64245300  0.05599600  1
  O  O47  1  0.04455800  0.53505000  0.19307900  1
  O  O48  1  0.14786900  0.92995200  0.07504400  1
  O  O49  1  0.15983500  0.45743200  0.42066500  1
  O  O50  1  0.14069800  0.25111800  0.21568300  1
  O  O51  1  0.18381500  0.23887300  0.83307400  1
  O  O52  1  0.96964300  0.02195400  0.77871200  1
  O  O53  1  0.38616900  0.55042200  0.70322000  1
  O  O54  1  0.17555600  0.82524900  0.35223500  1
  O  O55  1  0.38643900  0.15023100  0.74144600  1
  O  O56  1  0.36031300  0.09897500  0.12274600  1
  O  O57  1  0.13877100  0.95605400  0.66723900  1
  O  O58  1  0.24132700  0.64229800  0.59173900  1
  O  O59  1  0.29232100  0.59039300  0.20377300  1
  O  O60  1  0.51356200  0.54390200  0.44342100  1
  O  O61  1  0.53524100  0.40443100  0.74031400  1
  O  O62  1  0.29208900  0.92611600  0.89953500  1
  O  O63  1  0.30420800  0.79312200  0.02298500  1
  O  O64  1  0.49205600  0.18890500  0.15437200  1
  O  O65  1  0.47493700  0.28256900  0.51461200  1
  O  O66  1  0.31680900  0.32305300  0.49952100  1
  O  O67  1  0.68133200  0.08759800  0.94517000  1
  O  O68  1  0.64151500  0.37895900  0.23221200  1
  O  O69  1  0.62003900  0.83654700  0.93767200  1
  O  O70  1  0.47260800  0.82881200  0.88737100  1
  O  O71  1  0.80715000  0.77496800  0.13101900  1
  O  O72  1  0.63082900  0.68147300  0.32053900  1
  O  O73  1  0.43141700  0.04807000  0.40994900  1
  O  O74  1  0.69868000  0.38878700  0.06734500  1
  O  O75  1  0.70461500  0.90620100  0.44880900  1
  O  O76  1  0.54093700  0.64979300  0.11940800  1
  O  O77  1  0.81708400  0.22931800  0.76300000  1
  O  O78  1  0.64558200  0.99700400  0.60212900  1
  O  O79  1  0.75764900  0.83527800  0.75665800  1
  O  O80  1  0.00034200  0.88318000  0.23410100  1
  O  O81  1  0.55879100  0.11895600  0.83860900  1
  O  O82  1  0.73101600  0.51815200  0.55208800  1
  O  O83  1  0.80590800  0.63060500  0.22652200  1
  O  O84  1  0.95888200  0.49029000  0.74089600  1
  O  O85  1  0.82442000  0.08364300  0.11632600  1
  O  O86  1  0.91866300  0.79580500  0.69007000  1
  O  O87  1  0.87704900  0.71909300  0.99028600  1
  O  O88  1  0.96811600  0.17349200  0.13466500  1
  O  O89  1  0.96625000  0.24015000  0.55704100  1
  O  O90  1  0.89427600  0.05505400  0.49131200  1
  O  O91  1  0.98447400  0.75108000  0.53270300  1
