# generated using pymatgen
data_Na14(WO3)19
_symmetry_space_group_name_H-M   'P 1'
_cell_length_a   3.94263900
_cell_length_b   3.94263900
_cell_length_c   75.06713600
_cell_angle_alpha   90.00000000
_cell_angle_beta   90.00000000
_cell_angle_gamma   90.00000000
_symmetry_Int_Tables_number   1
_chemical_formula_structural   Na14(WO3)19
_chemical_formula_sum   'Na14 W19 O57'
_cell_volume   1166.87376032
_cell_formula_units_Z   1
loop_
 _symmetry_equiv_pos_site_id
 _symmetry_equiv_pos_as_xyz
  1  'x, y, z'
loop_
 _atom_site_type_symbol
 _atom_site_label
 _atom_site_symmetry_multiplicity
 _atom_site_fract_x
 _atom_site_fract_y
 _atom_site_fract_z
 _atom_site_occupancy
  Na  Na0  1  0.00000000  0.00000000  0.05264900  1
  Na  Na1  1  0.00000000  0.00000000  0.31566900  1
  Na  Na2  1  0.00000000  0.00000000  0.57903600  1
  Na  Na3  1  0.00000000  0.00000000  0.68433100  1
  Na  Na4  1  0.00000000  0.00000000  0.84215000  1
  Na  Na5  1  0.00000000  0.00000000  0.94735100  1
  Na  Na6  1  0.00000000  0.00000000  0.15785000  1
  Na  Na7  1  0.00000000  0.00000000  0.26205000  1
  Na  Na8  1  0.00000000  0.00000000  0.36846300  1
  Na  Na9  1  0.00000000  0.00000000  0.42096400  1
  Na  Na10  1  0.00000000  0.00000000  0.47382100  1
  Na  Na11  1  0.00000000  0.00000000  0.52617900  1
  Na  Na12  1  0.00000000  0.00000000  0.63153700  1
  Na  Na13  1  0.00000000  0.00000000  0.73795000  1
  W  W14  1  0.50000000  0.50000000  0.86906300  1
  W  W15  1  0.50000000  0.50000000  0.81549300  1
  W  W16  1  0.50000000  0.50000000  0.97407200  1
  W  W17  1  0.50000000  0.50000000  0.92067800  1
  W  W18  1  0.50000000  0.50000000  0.07932200  1
  W  W19  1  0.50000000  0.50000000  0.02592800  1
  W  W20  1  0.50000000  0.50000000  0.13093700  1
  W  W21  1  0.50000000  0.50000000  0.18450700  1
  W  W22  1  0.50000000  0.50000000  0.23595800  1
  W  W23  1  0.50000000  0.50000000  0.28898100  1
  W  W24  1  0.50000000  0.50000000  0.34194200  1
  W  W25  1  0.50000000  0.50000000  0.44735000  1
  W  W26  1  0.50000000  0.50000000  0.39463700  1
  W  W27  1  0.50000000  0.50000000  0.55265000  1
  W  W28  1  0.50000000  0.50000000  0.50000000  1
  W  W29  1  0.50000000  0.50000000  0.60536300  1
  W  W30  1  0.50000000  0.50000000  0.65805800  1
  W  W31  1  0.50000000  0.50000000  0.71101900  1
  W  W32  1  0.50000000  0.50000000  0.76404200  1
  O  O33  1  0.00000000  0.50000000  0.81702600  1
  O  O34  1  0.00000000  0.50000000  0.86749600  1
  O  O35  1  0.00000000  0.50000000  0.92167600  1
  O  O36  1  0.00000000  0.50000000  0.97325800  1
  O  O37  1  0.00000000  0.50000000  0.13250400  1
  O  O38  1  0.00000000  0.50000000  0.18297400  1
  O  O39  1  0.00000000  0.50000000  0.76268700  1
  O  O40  1  0.50000000  0.50000000  0.79054700  1
  O  O41  1  0.50000000  0.50000000  0.84226100  1
  O  O42  1  0.50000000  0.00000000  0.81702600  1
  O  O43  1  0.50000000  0.00000000  0.92167600  1
  O  O44  1  0.50000000  0.50000000  0.89410800  1
  O  O45  1  0.50000000  0.00000000  0.86749600  1
  O  O46  1  0.50000000  0.50000000  0.94806400  1
  O  O47  1  0.50000000  0.50000000  0.00000000  1
  O  O48  1  0.50000000  0.00000000  0.97325800  1
  O  O49  1  0.50000000  0.50000000  0.05193600  1
  O  O50  1  0.50000000  0.00000000  0.02674200  1
  O  O51  1  0.50000000  0.50000000  0.10589200  1
  O  O52  1  0.50000000  0.00000000  0.07832400  1
  O  O53  1  0.50000000  0.00000000  0.13250400  1
  O  O54  1  0.50000000  0.00000000  0.18297400  1
  O  O55  1  0.50000000  0.00000000  0.23731300  1
  O  O56  1  0.50000000  0.50000000  0.15773900  1
  O  O57  1  0.50000000  0.50000000  0.20945300  1
  O  O58  1  0.50000000  0.50000000  0.26351000  1
  O  O59  1  0.50000000  0.00000000  0.28910100  1
  O  O60  1  0.50000000  0.00000000  0.34198900  1
  O  O61  1  0.50000000  0.50000000  0.31456100  1
  O  O62  1  0.50000000  0.00000000  0.39471200  1
  O  O63  1  0.50000000  0.50000000  0.42015600  1
  O  O64  1  0.50000000  0.00000000  0.44734800  1
  O  O65  1  0.50000000  0.50000000  0.36922400  1
  O  O66  1  0.50000000  0.00000000  0.50000000  1
  O  O67  1  0.50000000  0.50000000  0.52542400  1
  O  O68  1  0.50000000  0.00000000  0.55265200  1
  O  O69  1  0.50000000  0.00000000  0.60528800  1
  O  O70  1  0.50000000  0.50000000  0.47457600  1
  O  O71  1  0.50000000  0.50000000  0.63077600  1
  O  O72  1  0.50000000  0.00000000  0.65801100  1
  O  O73  1  0.50000000  0.00000000  0.71089900  1
  O  O74  1  0.50000000  0.50000000  0.57984400  1
  O  O75  1  0.50000000  0.50000000  0.73649000  1
  O  O76  1  0.50000000  0.50000000  0.68543900  1
  O  O77  1  0.50000000  0.00000000  0.76268700  1
  O  O78  1  0.00000000  0.50000000  0.02674200  1
  O  O79  1  0.00000000  0.50000000  0.07832400  1
  O  O80  1  0.00000000  0.50000000  0.23731300  1
  O  O81  1  0.00000000  0.50000000  0.28910100  1
  O  O82  1  0.00000000  0.50000000  0.34198900  1
  O  O83  1  0.00000000  0.50000000  0.39471200  1
  O  O84  1  0.00000000  0.50000000  0.44734800  1
  O  O85  1  0.00000000  0.50000000  0.50000000  1
  O  O86  1  0.00000000  0.50000000  0.55265200  1
  O  O87  1  0.00000000  0.50000000  0.60528800  1
  O  O88  1  0.00000000  0.50000000  0.65801100  1
  O  O89  1  0.00000000  0.50000000  0.71089900  1
