# generated using pymatgen
data_Bi2TeSe2
_symmetry_space_group_name_H-M   'P 1'
_cell_length_a   10.43343980
_cell_length_b   10.43343980
_cell_length_c   10.43344060
_cell_angle_alpha   23.66864774
_cell_angle_beta   23.66864774
_cell_angle_gamma   23.66864681
_symmetry_Int_Tables_number   1
_chemical_formula_structural   Bi2TeSe2
_chemical_formula_sum   'Bi2 Te1 Se2'
_cell_volume   160.76741120
_cell_formula_units_Z   1
loop_
 _symmetry_equiv_pos_site_id
 _symmetry_equiv_pos_as_xyz
  1  'x, y, z'
loop_
 _atom_site_type_symbol
 _atom_site_label
 _atom_site_symmetry_multiplicity
 _atom_site_fract_x
 _atom_site_fract_y
 _atom_site_fract_z
 _atom_site_occupancy
  Bi  Bi0  1  0.39452300  0.39452300  0.39452300  1
  Bi  Bi1  1  0.60217900  0.60217900  0.60217900  1
  Te  Te2  1  0.78739100  0.78739100  0.78739100  1
  Se  Se3  1  0.99780200  0.99780200  0.99780200  1
  Se  Se4  1  0.21810500  0.21810500  0.21810500  1
