# generated using pymatgen
data_CaLaGa3S7
_symmetry_space_group_name_H-M   'P 1'
_cell_length_a   6.25553322
_cell_length_b   9.65721270
_cell_length_c   9.66408500
_cell_angle_alpha   90.00000000
_cell_angle_beta   90.00000000
_cell_angle_gamma   89.68810571
_symmetry_Int_Tables_number   1
_chemical_formula_structural   CaLaGa3S7
_chemical_formula_sum   'Ca2 La2 Ga6 S14'
_cell_volume   583.80853225
_cell_formula_units_Z   2
loop_
 _symmetry_equiv_pos_site_id
 _symmetry_equiv_pos_as_xyz
  1  'x, y, z'
loop_
 _atom_site_type_symbol
 _atom_site_label
 _atom_site_symmetry_multiplicity
 _atom_site_fract_x
 _atom_site_fract_y
 _atom_site_fract_z
 _atom_site_occupancy
  Ca  Ca0  1  0.51372900  0.34177100  0.84453200  1
  Ca  Ca1  1  0.48627100  0.15822900  0.34453200  1
  La  La2  1  0.51357400  0.65275100  0.15569300  1
  La  La3  1  0.48642600  0.84724900  0.65569300  1
  Ga  Ga4  1  0.00026100  0.49675300  0.49982000  1
  Ga  Ga5  1  0.99973900  0.00324700  0.99982000  1
  Ga  Ga6  1  0.95662700  0.85084500  0.35033600  1
  Ga  Ga7  1  0.04337300  0.64915500  0.85033600  1
  Ga  Ga8  1  0.95894100  0.15060800  0.65022600  1
  Ga  Ga9  1  0.04105900  0.34939200  0.15022600  1
  S  S10  1  0.31326300  0.13883900  0.64209100  1
  S  S11  1  0.68673700  0.36116100  0.14209100  1
  S  S12  1  0.31193600  0.85567600  0.35847200  1
  S  S13  1  0.68806400  0.64432400  0.85847200  1
  S  S14  1  0.20799600  0.49763200  0.99764100  1
  S  S15  1  0.79200400  0.00236800  0.49764000  1
  S  S16  1  0.23868100  0.42080200  0.33915600  1
  S  S17  1  0.76131900  0.07919800  0.83915600  1
  S  S18  1  0.23499500  0.58452100  0.65764800  1
  S  S19  1  0.76500500  0.91547900  0.15764800  1
  S  S20  1  0.76202600  0.65987900  0.42045200  1
  S  S21  1  0.23797400  0.84012100  0.92045200  1
  S  S22  1  0.76453500  0.34149900  0.58393200  1
  S  S23  1  0.23546500  0.15850100  0.08393200  1
