# generated using pymatgen
data_CaSmGa3O7
_symmetry_space_group_name_H-M   'P 1'
_cell_length_a   7.93734232
_cell_length_b   7.93734232
_cell_length_c   5.25147600
_cell_angle_alpha   90.00000000
_cell_angle_beta   90.00000000
_cell_angle_gamma   90.21716584
_symmetry_Int_Tables_number   1
_chemical_formula_structural   CaSmGa3O7
_chemical_formula_sum   'Ca2 Sm2 Ga6 O14'
_cell_volume   330.84797983
_cell_formula_units_Z   2
loop_
 _symmetry_equiv_pos_site_id
 _symmetry_equiv_pos_as_xyz
  1  'x, y, z'
loop_
 _atom_site_type_symbol
 _atom_site_label
 _atom_site_symmetry_multiplicity
 _atom_site_fract_x
 _atom_site_fract_y
 _atom_site_fract_z
 _atom_site_occupancy
  Ca  Ca0  1  0.66081400  0.66081400  0.48635800  1
  Ca  Ca1  1  0.33918600  0.33918600  0.48635800  1
  Sm  Sm2  1  0.83749900  0.16250100  0.51057400  1
  Sm  Sm3  1  0.16250100  0.83749900  0.51057400  1
  Ga  Ga4  1  0.50000000  0.00000000  0.00111500  1
  Ga  Ga5  1  0.00000000  0.50000000  0.00111500  1
  Ga  Ga6  1  0.85512100  0.85512100  0.03468300  1
  Ga  Ga7  1  0.64342800  0.35657200  0.96475300  1
  Ga  Ga8  1  0.14487900  0.14487900  0.03468300  1
  Ga  Ga9  1  0.35657200  0.64342800  0.96475300  1
  O  O10  1  0.86694500  0.86694500  0.68909600  1
  O  O11  1  0.64658800  0.35341200  0.30910600  1
  O  O12  1  0.13305500  0.13305500  0.68909600  1
  O  O13  1  0.35341200  0.64658800  0.30910600  1
  O  O14  1  0.50000000  0.50000000  0.79658800  1
  O  O15  1  0.00000000  0.00000000  0.20989400  1
  O  O16  1  0.66255000  0.91448800  0.21643700  1
  O  O17  1  0.84265300  0.40432100  0.78409900  1
  O  O18  1  0.33745000  0.08551200  0.21643700  1
  O  O19  1  0.15734700  0.59567900  0.78409900  1
  O  O20  1  0.40432100  0.84265300  0.78409900  1
  O  O21  1  0.08551200  0.33745000  0.21643700  1
  O  O22  1  0.59567900  0.15734700  0.78409900  1
  O  O23  1  0.91448800  0.66255000  0.21643700  1
