# generated using pymatgen
data_Ca8Zn4Si3Ge5O28
_symmetry_space_group_name_H-M   'P 1'
_cell_length_a   8.02418100
_cell_length_b   9.20778932
_cell_length_c   9.49827829
_cell_angle_alpha   66.22972714
_cell_angle_beta   89.90461837
_cell_angle_gamma   89.95135845
_symmetry_Int_Tables_number   1
_chemical_formula_structural   Ca8Zn4Si3Ge5O28
_chemical_formula_sum   'Ca8 Zn4 Si3 Ge5 O28'
_cell_volume   642.24633146
_cell_formula_units_Z   1
loop_
 _symmetry_equiv_pos_site_id
 _symmetry_equiv_pos_as_xyz
  1  'x, y, z'
loop_
 _atom_site_type_symbol
 _atom_site_label
 _atom_site_symmetry_multiplicity
 _atom_site_fract_x
 _atom_site_fract_y
 _atom_site_fract_z
 _atom_site_occupancy
  Ca  Ca0  1  0.06899700  0.21233100  0.70168300  1
  Ca  Ca1  1  0.43204100  0.71050800  0.20322000  1
  Ca  Ca2  1  0.93333700  0.78738000  0.29993300  1
  Ca  Ca3  1  0.56691600  0.29070100  0.79644200  1
  Ca  Ca4  1  0.78315000  0.04199200  0.52856800  1
  Ca  Ca5  1  0.71673400  0.54003700  0.03042300  1
  Ca  Ca6  1  0.21647300  0.95860200  0.47017300  1
  Ca  Ca7  1  0.28297600  0.45818600  0.97028200  1
  Zn  Zn8  1  0.59607500  0.66837900  0.61390400  1
  Zn  Zn9  1  0.90570400  0.16935100  0.11627600  1
  Zn  Zn10  1  0.40417900  0.33146900  0.38603100  1
  Zn  Zn11  1  0.09850000  0.83024200  0.88592800  1
  Si  Si12  1  0.27035100  0.53021400  0.57833900  1
  Si  Si13  1  0.22994300  0.03031300  0.07809300  1
  Si  Si14  1  0.72960800  0.46974000  0.42174700  1
  Ge  Ge15  1  0.77057600  0.96787800  0.92484800  1
  Ge  Ge16  1  0.95742400  0.62957600  0.70745000  1
  Ge  Ge17  1  0.54230500  0.12973400  0.20737900  1
  Ge  Ge18  1  0.04268400  0.37074900  0.29278400  1
  Ge  Ge19  1  0.45502500  0.86969100  0.79120600  1
  O  O20  1  0.95640800  0.81271000  0.54523300  1
  O  O21  1  0.54314600  0.31301800  0.04569700  1
  O  O22  1  0.04383700  0.18718100  0.45403700  1
  O  O23  1  0.45666600  0.68702800  0.95440900  1
  O  O24  1  0.07684900  0.48994600  0.65556400  1
  O  O25  1  0.42360200  0.98956700  0.15553600  1
  O  O26  1  0.92344500  0.50993100  0.34495400  1
  O  O27  1  0.56420000  0.01552000  0.84027300  1
  O  O28  1  0.39808100  0.53202700  0.71500600  1
  O  O29  1  0.10201800  0.03146600  0.21534400  1
  O  O30  1  0.60160400  0.46773300  0.28530500  1
  O  O31  1  0.90630200  0.96917600  0.77616600  1
  O  O32  1  0.56572800  0.86746600  0.63134000  1
  O  O33  1  0.93504400  0.36867100  0.13184000  1
  O  O34  1  0.43469500  0.13199000  0.36869600  1
  O  O35  1  0.06526300  0.63154600  0.86866400  1
  O  O36  1  0.22801600  0.19566500  0.92709600  1
  O  O37  1  0.27216100  0.69560900  0.42692500  1
  O  O38  1  0.77122000  0.78863600  0.08602300  1
  O  O39  1  0.72785000  0.30438700  0.57300200  1
  O  O40  1  0.68420800  0.63767900  0.43713300  1
  O  O41  1  0.81902500  0.15176900  0.93283400  1
  O  O42  1  0.31571200  0.36224000  0.56308900  1
  O  O43  1  0.18359600  0.86225100  0.06307800  1
  O  O44  1  0.76103000  0.54492000  0.77817500  1
  O  O45  1  0.73866800  0.04405600  0.27783600  1
  O  O46  1  0.23905100  0.45562900  0.22172200  1
  O  O47  1  0.25957400  0.95511100  0.72031400  1
