# generated using pymatgen
data_CaTb2Mn3O9
_symmetry_space_group_name_H-M   'P 1'
_cell_length_a   5.38197000
_cell_length_b   7.58622700
_cell_length_c   16.83793900
_cell_angle_alpha   90.00000000
_cell_angle_beta   90.00000000
_cell_angle_gamma   90.00000000
_symmetry_Int_Tables_number   1
_chemical_formula_structural   CaTb2Mn3O9
_chemical_formula_sum   'Ca4 Tb8 Mn12 O36'
_cell_volume   687.47362053
_cell_formula_units_Z   4
loop_
 _symmetry_equiv_pos_site_id
 _symmetry_equiv_pos_as_xyz
  1  'x, y, z'
loop_
 _atom_site_type_symbol
 _atom_site_label
 _atom_site_symmetry_multiplicity
 _atom_site_fract_x
 _atom_site_fract_y
 _atom_site_fract_z
 _atom_site_occupancy
  Ca  Ca0  1  0.48653600  0.75000000  0.85223100  1
  Ca  Ca1  1  0.01346400  0.75000000  0.35223100  1
  Ca  Ca2  1  0.51346400  0.25000000  0.14776900  1
  Ca  Ca3  1  0.98653600  0.25000000  0.64776900  1
  Tb  Tb4  1  0.48277700  0.75000000  0.18759600  1
  Tb  Tb5  1  0.48530200  0.75000000  0.52067700  1
  Tb  Tb6  1  0.01722300  0.75000000  0.68759600  1
  Tb  Tb7  1  0.01469800  0.75000000  0.02067700  1
  Tb  Tb8  1  0.51722300  0.25000000  0.81240400  1
  Tb  Tb9  1  0.51469800  0.25000000  0.47932300  1
  Tb  Tb10  1  0.98530200  0.25000000  0.97932300  1
  Tb  Tb11  1  0.98277700  0.25000000  0.31240400  1
  Mn  Mn12  1  0.00139200  0.99872800  0.83340800  1
  Mn  Mn13  1  0.99860800  0.00127200  0.16659200  1
  Mn  Mn14  1  0.00000000  0.00000000  0.50000000  1
  Mn  Mn15  1  0.50139200  0.49872800  0.66659200  1
  Mn  Mn16  1  0.50000000  0.50000000  0.00000000  1
  Mn  Mn17  1  0.49860800  0.50127200  0.33340800  1
  Mn  Mn18  1  0.00139200  0.50127200  0.83340800  1
  Mn  Mn19  1  0.99860800  0.49872800  0.16659200  1
  Mn  Mn20  1  0.00000000  0.50000000  0.50000000  1
  Mn  Mn21  1  0.50139200  0.00127200  0.66659200  1
  Mn  Mn22  1  0.50000000  0.00000000  0.00000000  1
  Mn  Mn23  1  0.49860800  0.99872800  0.33340800  1
  O  O24  1  0.19665200  0.95384500  0.93553400  1
  O  O25  1  0.20886000  0.95185100  0.26437700  1
  O  O26  1  0.20759300  0.94298600  0.59924100  1
  O  O27  1  0.29114000  0.54814900  0.76437700  1
  O  O28  1  0.29240700  0.55701400  0.09924100  1
  O  O29  1  0.30334800  0.54615500  0.43553400  1
  O  O30  1  0.79114000  0.45185100  0.73562300  1
  O  O31  1  0.80334800  0.45384500  0.06446600  1
  O  O32  1  0.79240700  0.44298600  0.40075900  1
  O  O33  1  0.70759300  0.05701400  0.90075900  1
  O  O34  1  0.70886000  0.04814900  0.23562300  1
  O  O35  1  0.69665200  0.04615500  0.56446600  1
  O  O36  1  0.79114000  0.04814900  0.73562300  1
  O  O37  1  0.80334800  0.04615500  0.06446600  1
  O  O38  1  0.79240700  0.05701400  0.40075900  1
  O  O39  1  0.70759300  0.44298600  0.90075900  1
  O  O40  1  0.70886000  0.45185100  0.23562300  1
  O  O41  1  0.69665200  0.45384500  0.56446600  1
  O  O42  1  0.19665200  0.54615500  0.93553400  1
  O  O43  1  0.20886000  0.54814900  0.26437700  1
  O  O44  1  0.20759300  0.55701400  0.59924100  1
  O  O45  1  0.29114000  0.95185100  0.76437700  1
  O  O46  1  0.29240700  0.94298600  0.09924100  1
  O  O47  1  0.30334800  0.95384500  0.43553400  1
  O  O48  1  0.60044100  0.75000000  0.99085900  1
  O  O49  1  0.59130800  0.75000000  0.32176400  1
  O  O50  1  0.60355200  0.75000000  0.65535900  1
  O  O51  1  0.90869200  0.75000000  0.82176400  1
  O  O52  1  0.89644800  0.75000000  0.15535900  1
  O  O53  1  0.89955900  0.75000000  0.49085900  1
  O  O54  1  0.40869200  0.25000000  0.67823600  1
  O  O55  1  0.39955900  0.25000000  0.00914100  1
  O  O56  1  0.39644800  0.25000000  0.34464100  1
  O  O57  1  0.10355200  0.25000000  0.84464100  1
  O  O58  1  0.09130800  0.25000000  0.17823600  1
  O  O59  1  0.10044100  0.25000000  0.50914100  1
