# generated using pymatgen
data_Ca(LuTe2)2
_symmetry_space_group_name_H-M   'P 1'
_cell_length_a   4.35211500
_cell_length_b   7.42256100
_cell_length_c   7.72583933
_cell_angle_alpha   72.32166008
_cell_angle_beta   90.00000000
_cell_angle_gamma   90.00000000
_symmetry_Int_Tables_number   1
_chemical_formula_structural   Ca(LuTe2)2
_chemical_formula_sum   'Ca1 Lu2 Te4'
_cell_volume   237.78846246
_cell_formula_units_Z   1
loop_
 _symmetry_equiv_pos_site_id
 _symmetry_equiv_pos_as_xyz
  1  'x, y, z'
loop_
 _atom_site_type_symbol
 _atom_site_label
 _atom_site_symmetry_multiplicity
 _atom_site_fract_x
 _atom_site_fract_y
 _atom_site_fract_z
 _atom_site_occupancy
  Ca  Ca0  1  0.00000000  0.50000000  0.50000000  1
  Lu  Lu1  1  0.00000000  0.00000000  0.00000000  1
  Lu  Lu2  1  0.50000000  0.50000000  0.00000000  1
  Te  Te3  1  0.50000000  0.76222000  0.23971800  1
  Te  Te4  1  0.00000000  0.25500200  0.23378200  1
  Te  Te5  1  0.50000000  0.23778000  0.76028200  1
  Te  Te6  1  0.00000000  0.74499800  0.76621800  1
