# generated using pymatgen
data_Cs2(WO4)3
_symmetry_space_group_name_H-M   'P 1'
_cell_length_a   7.47685160
_cell_length_b   8.06432664
_cell_length_c   7.54915732
_cell_angle_alpha   61.37993976
_cell_angle_beta   119.53896029
_cell_angle_gamma   118.47756820
_symmetry_Int_Tables_number   1
_chemical_formula_structural   Cs2(WO4)3
_chemical_formula_sum   'Cs2 W3 O12'
_cell_volume   329.91980197
_cell_formula_units_Z   1
loop_
 _symmetry_equiv_pos_site_id
 _symmetry_equiv_pos_as_xyz
  1  'x, y, z'
loop_
 _atom_site_type_symbol
 _atom_site_label
 _atom_site_symmetry_multiplicity
 _atom_site_fract_x
 _atom_site_fract_y
 _atom_site_fract_z
 _atom_site_occupancy
  Cs  Cs0  1  0.09843300  0.37726000  0.37455700  1
  Cs  Cs1  1  0.84522300  0.62461900  0.62718300  1
  W  W2  1  0.48199300  0.95194200  0.01899000  1
  W  W3  1  0.49900400  0.01383500  0.49999100  1
  W  W4  1  0.01782900  0.04894300  0.99209800  1
  O  O5  1  0.21106700  0.01718400  0.28715900  1
  O  O6  1  0.61652300  0.25806800  0.93863900  1
  O  O7  1  0.21409600  0.99891300  0.93201400  1
  O  O8  1  0.63051200  0.28001700  0.41842100  1
  O  O9  1  0.09619500  0.31190100  0.87763800  1
  O  O10  1  0.56565600  0.97659200  0.29919600  1
  O  O11  1  0.79678200  0.00885700  0.71722900  1
  O  O12  1  0.40018200  0.68768800  0.11924700  1
  O  O13  1  0.78739000  0.99772300  0.07882700  1
  O  O14  1  0.43446400  0.72663700  0.56389300  1
  O  O15  1  0.89233200  0.74375600  0.03389200  1
  O  O16  1  0.41231900  0.97606800  0.72102700  1
