# generated using pymatgen
data_Ca2LaRuO6
_symmetry_space_group_name_H-M   'P 1'
_cell_length_a   5.65444986
_cell_length_b   5.91143600
_cell_length_c   8.14967729
_cell_angle_alpha   90.00000000
_cell_angle_beta   90.21030420
_cell_angle_gamma   90.00000000
_symmetry_Int_Tables_number   1
_chemical_formula_structural   Ca2LaRuO6
_chemical_formula_sum   'Ca4 La2 Ru2 O12'
_cell_volume   272.40861383
_cell_formula_units_Z   2
loop_
 _symmetry_equiv_pos_site_id
 _symmetry_equiv_pos_as_xyz
  1  'x, y, z'
loop_
 _atom_site_type_symbol
 _atom_site_label
 _atom_site_symmetry_multiplicity
 _atom_site_fract_x
 _atom_site_fract_y
 _atom_site_fract_z
 _atom_site_occupancy
  Ca  Ca0  1  0.98474400  0.05799500  0.24745900  1
  Ca  Ca1  1  0.48474400  0.44200500  0.74745900  1
  Ca  Ca2  1  0.50027100  0.00460100  0.49925700  1
  Ca  Ca3  1  0.00027100  0.49539900  0.99925700  1
  La  La4  1  0.01482400  0.94402000  0.75279500  1
  La  La5  1  0.51482400  0.55598000  0.25279500  1
  Ru  Ru6  1  0.00055800  0.49943900  0.50063600  1
  Ru  Ru7  1  0.50055800  0.00056100  0.00063600  1
  O  O8  1  0.28665500  0.67954600  0.55331600  1
  O  O9  1  0.78665500  0.82045400  0.05331600  1
  O  O10  1  0.71533900  0.32004600  0.44711500  1
  O  O11  1  0.21533900  0.17995400  0.94711500  1
  O  O12  1  0.11024000  0.45010400  0.27076700  1
  O  O13  1  0.61024000  0.04989600  0.77076700  1
  O  O14  1  0.88608500  0.54567800  0.72880100  1
  O  O15  1  0.38608500  0.95432200  0.22880100  1
  O  O16  1  0.17370100  0.21874200  0.56487500  1
  O  O17  1  0.67370100  0.28125800  0.06487500  1
  O  O18  1  0.82758300  0.78148600  0.43497900  1
  O  O19  1  0.32758300  0.71851400  0.93497900  1
