# generated using pymatgen
data_Ca6Mg2ZnP6(H2O5)6
_symmetry_space_group_name_H-M   'P 1'
_cell_length_a   5.53087807
_cell_length_b   15.30105186
_cell_length_c   6.90215461
_cell_angle_alpha   86.36237809
_cell_angle_beta   97.15510901
_cell_angle_gamma   93.43901022
_symmetry_Int_Tables_number   1
_chemical_formula_structural   Ca6Mg2ZnP6(H2O5)6
_chemical_formula_sum   'Ca6 Mg2 Zn1 P6 H12 O30'
_cell_volume   577.60020812
_cell_formula_units_Z   1
loop_
 _symmetry_equiv_pos_site_id
 _symmetry_equiv_pos_as_xyz
  1  'x, y, z'
loop_
 _atom_site_type_symbol
 _atom_site_label
 _atom_site_symmetry_multiplicity
 _atom_site_fract_x
 _atom_site_fract_y
 _atom_site_fract_z
 _atom_site_occupancy
  Ca  Ca0  1  0.11615600  0.23402700  0.00640200  1
  Ca  Ca1  1  0.78303800  0.56766000  0.67339600  1
  Ca  Ca2  1  0.45044600  0.90061600  0.33845900  1
  Ca  Ca3  1  0.54955400  0.09938400  0.66154100  1
  Ca  Ca4  1  0.21696200  0.43234000  0.32660400  1
  Ca  Ca5  1  0.88384400  0.76597300  0.99359800  1
  Mg  Mg6  1  0.66668900  0.33338900  0.66660800  1
  Mg  Mg7  1  0.33331100  0.66661100  0.33339200  1
  Zn  Zn8  1  0.00000000  0.00000000  0.00000000  1
  P  P9  1  0.11411500  0.22113200  0.53593800  1
  P  P10  1  0.78102300  0.55450900  0.20260000  1
  P  P11  1  0.44655200  0.88712000  0.86889500  1
  P  P12  1  0.55344800  0.11288000  0.13110500  1
  P  P13  1  0.21897700  0.44549100  0.79740000  1
  P  P14  1  0.88588500  0.77886800  0.46406200  1
  H  H15  1  0.56657100  0.29133700  0.31294400  1
  H  H16  1  0.23333400  0.62465100  0.97948000  1
  H  H17  1  0.90126000  0.95746500  0.64688500  1
  H  H18  1  0.09874000  0.04253500  0.35311500  1
  H  H19  1  0.76666600  0.37534900  0.02052000  1
  H  H20  1  0.43342900  0.70866300  0.68705600  1
  H  H21  1  0.02498300  0.05749500  0.63055800  1
  H  H22  1  0.68950700  0.39071700  0.29592600  1
  H  H23  1  0.35622400  0.72385000  0.96250800  1
  H  H24  1  0.64377600  0.27615000  0.03749200  1
  H  H25  1  0.31049300  0.60928300  0.70407400  1
  H  H26  1  0.97501700  0.94250500  0.36944200  1
  O  O27  1  0.14962100  0.12364000  0.49386000  1
  O  O28  1  0.81676700  0.45728000  0.15992000  1
  O  O29  1  0.48435000  0.79028000  0.82460000  1
  O  O30  1  0.51565000  0.20972000  0.17540000  1
  O  O31  1  0.18323300  0.54272000  0.84008000  1
  O  O32  1  0.85037900  0.87636000  0.50614000  1
  O  O33  1  0.08729900  0.27929200  0.34608200  1
  O  O34  1  0.75416000  0.61289500  0.01296500  1
  O  O35  1  0.42062000  0.94627100  0.68067200  1
  O  O36  1  0.57938000  0.05372900  0.31932800  1
  O  O37  1  0.24584000  0.38710500  0.98703500  1
  O  O38  1  0.91270100  0.72070800  0.65391800  1
  O  O39  1  0.91244800  0.01625600  0.70604400  1
  O  O40  1  0.58124600  0.34955100  0.37430000  1
  O  O41  1  0.24796300  0.68282900  0.04081900  1
  O  O42  1  0.75203700  0.31717100  0.95918100  1
  O  O43  1  0.41875400  0.65044900  0.62570000  1
  O  O44  1  0.08755200  0.98374400  0.29395600  1
  O  O45  1  0.34780200  0.24708500  0.67899000  1
  O  O46  1  0.01453800  0.58046200  0.34605000  1
  O  O47  1  0.67693000  0.91244400  0.01646800  1
  O  O48  1  0.32307000  0.08755600  0.98353200  1
  O  O49  1  0.98546200  0.41953800  0.65394900  1
  O  O50  1  0.65219800  0.75291500  0.32101000  1
  O  O51  1  0.88686100  0.22278800  0.65105600  1
  O  O52  1  0.55366100  0.55616000  0.31780400  1
  O  O53  1  0.21865200  0.88676900  0.98433100  1
  O  O54  1  0.78134800  0.11323100  0.01566900  1
  O  O55  1  0.44633900  0.44384100  0.68219600  1
  O  O56  1  0.11313900  0.77721200  0.34894400  1
