# generated using pymatgen
data_CaTi8Mn(PO4)12
_symmetry_space_group_name_H-M   'P 1'
_cell_length_a   15.36026423
_cell_length_b   15.36026423
_cell_length_c   15.36026403
_cell_angle_alpha   32.38108166
_cell_angle_beta   32.38108166
_cell_angle_gamma   32.38108277
_symmetry_Int_Tables_number   1
_chemical_formula_structural   CaTi8Mn(PO4)12
_chemical_formula_sum   'Ca1 Ti8 Mn1 P12 O48'
_cell_volume   924.07925366
_cell_formula_units_Z   1
loop_
 _symmetry_equiv_pos_site_id
 _symmetry_equiv_pos_as_xyz
  1  'x, y, z'
loop_
 _atom_site_type_symbol
 _atom_site_label
 _atom_site_symmetry_multiplicity
 _atom_site_fract_x
 _atom_site_fract_y
 _atom_site_fract_z
 _atom_site_occupancy
  Ca  Ca0  1  0.50000000  0.50000000  0.50000000  1
  Ti  Ti1  1  0.31964600  0.31964600  0.31964600  1
  Ti  Ti2  1  0.81960000  0.81960000  0.81960000  1
  Ti  Ti3  1  0.18040000  0.18040000  0.18040000  1
  Ti  Ti4  1  0.68035400  0.68035400  0.68035400  1
  Ti  Ti5  1  0.57407900  0.57407900  0.57407900  1
  Ti  Ti6  1  0.07337700  0.07337700  0.07337700  1
  Ti  Ti7  1  0.92662300  0.92662300  0.92662300  1
  Ti  Ti8  1  0.42592100  0.42592100  0.42592100  1
  Mn  Mn9  1  0.00000000  0.00000000  0.00000000  1
  P  P10  1  0.91005600  0.63124400  0.33767900  1
  P  P11  1  0.40940600  0.12977000  0.83843200  1
  P  P12  1  0.63124400  0.33767900  0.91005600  1
  P  P13  1  0.12977000  0.83843200  0.40940600  1
  P  P14  1  0.33767900  0.91005600  0.63124400  1
  P  P15  1  0.83843200  0.40940600  0.12977000  1
  P  P16  1  0.59059400  0.87023000  0.16156800  1
  P  P17  1  0.08994400  0.36875600  0.66232100  1
  P  P18  1  0.87023000  0.16156800  0.59059400  1
  P  P19  1  0.36875600  0.66232100  0.08994400  1
  P  P20  1  0.16156800  0.59059400  0.87023000  1
  P  P21  1  0.66232100  0.08994400  0.36875600  1
  O  O22  1  0.14850300  0.41427600  0.05098900  1
  O  O23  1  0.64959200  0.91424700  0.55006100  1
  O  O24  1  0.41427600  0.05098900  0.14850300  1
  O  O25  1  0.91424700  0.55006100  0.64959200  1
  O  O26  1  0.05098900  0.14850300  0.41427600  1
  O  O27  1  0.55006100  0.64959200  0.91424700  1
  O  O28  1  0.35040800  0.08575300  0.44993900  1
  O  O29  1  0.85149700  0.58572400  0.94901100  1
  O  O30  1  0.08575300  0.44993900  0.35040800  1
  O  O31  1  0.58572400  0.94901100  0.85149700  1
  O  O32  1  0.44993900  0.35040800  0.08575300  1
  O  O33  1  0.94901100  0.85149700  0.58572400  1
  O  O34  1  0.44850700  0.81069700  0.70173500  1
  O  O35  1  0.94679900  0.31125900  0.20238100  1
  O  O36  1  0.81069700  0.70173500  0.44850700  1
  O  O37  1  0.31125900  0.20238100  0.94679900  1
  O  O38  1  0.70173500  0.44850700  0.81069700  1
  O  O39  1  0.20238100  0.94679900  0.31125900  1
  O  O40  1  0.05320100  0.68874100  0.79761900  1
  O  O41  1  0.55149300  0.18930300  0.29826500  1
  O  O42  1  0.68874100  0.79761900  0.05320100  1
  O  O43  1  0.18930300  0.29826500  0.55149300  1
  O  O44  1  0.79761900  0.05320100  0.68874100  1
  O  O45  1  0.29826500  0.55149300  0.18930300  1
  O  O46  1  0.54343600  0.72060100  0.36414100  1
  O  O47  1  0.04276500  0.21632900  0.86485100  1
  O  O48  1  0.72060100  0.36414100  0.54343600  1
  O  O49  1  0.21632900  0.86485100  0.04276500  1
  O  O50  1  0.36414100  0.54343600  0.72060100  1
  O  O51  1  0.86485100  0.04276500  0.21632900  1
  O  O52  1  0.95723500  0.78367100  0.13514900  1
  O  O53  1  0.45656400  0.27939900  0.63585900  1
  O  O54  1  0.78367100  0.13514900  0.95723500  1
  O  O55  1  0.27939900  0.63585900  0.45656400  1
  O  O56  1  0.13514900  0.95723500  0.78367100  1
  O  O57  1  0.63585900  0.45656400  0.27939900  1
  O  O58  1  0.78475900  0.59724900  0.40659600  1
  O  O59  1  0.28396000  0.09464000  0.90910700  1
  O  O60  1  0.59724900  0.40659600  0.78475900  1
  O  O61  1  0.09464000  0.90910700  0.28396000  1
  O  O62  1  0.40659600  0.78475900  0.59724900  1
  O  O63  1  0.90910700  0.28396000  0.09464000  1
  O  O64  1  0.71604000  0.90536000  0.09089300  1
  O  O65  1  0.21524100  0.40275100  0.59340400  1
  O  O66  1  0.90536000  0.09089300  0.71604000  1
  O  O67  1  0.40275100  0.59340400  0.21524100  1
  O  O68  1  0.09089300  0.71604000  0.90536000  1
  O  O69  1  0.59340400  0.21524100  0.40275100  1
