# generated using pymatgen
data_Bi4PbS7
_symmetry_space_group_name_H-M   'P 1'
_cell_length_a   6.99096256
_cell_length_b   6.99096256
_cell_length_c   12.34296985
_cell_angle_alpha   76.17662431
_cell_angle_beta   76.17662431
_cell_angle_gamma   33.79497800
_symmetry_Int_Tables_number   1
_chemical_formula_structural   Bi4PbS7
_chemical_formula_sum   'Bi4 Pb1 S7'
_cell_volume   324.90883835
_cell_formula_units_Z   1
loop_
 _symmetry_equiv_pos_site_id
 _symmetry_equiv_pos_as_xyz
  1  'x, y, z'
loop_
 _atom_site_type_symbol
 _atom_site_label
 _atom_site_symmetry_multiplicity
 _atom_site_fract_x
 _atom_site_fract_y
 _atom_site_fract_z
 _atom_site_occupancy
  Bi  Bi0  1  0.87870500  0.87870500  0.93225100  1
  Bi  Bi1  1  0.12023100  0.12023100  0.06823400  1
  Bi  Bi2  1  0.99560700  0.99560700  0.49863900  1
  Bi  Bi3  1  0.68171300  0.68171300  0.66946300  1
  Pb  Pb4  1  0.31983000  0.31983000  0.31595700  1
  S  S5  1  0.26547900  0.26547900  0.86184800  1
  S  S6  1  0.74191700  0.74191700  0.13531000  1
  S  S7  1  0.04026700  0.04026700  0.71416100  1
  S  S8  1  0.97235000  0.97235000  0.28382600  1
  S  S9  1  0.34045800  0.34045800  0.54928400  1
  S  S10  1  0.65010500  0.65010500  0.46362100  1
  S  S11  1  0.51343700  0.51343700  0.98320600  1
