# generated using pymatgen
data_BiSbSe3
_symmetry_space_group_name_H-M   'P 1'
_cell_length_a   4.11369100
_cell_length_b   11.63559400
_cell_length_c   12.41788500
_cell_angle_alpha   90.00000000
_cell_angle_beta   90.00000000
_cell_angle_gamma   90.00000000
_symmetry_Int_Tables_number   1
_chemical_formula_structural   BiSbSe3
_chemical_formula_sum   'Bi4 Sb4 Se12'
_cell_volume   594.38502492
_cell_formula_units_Z   4
loop_
 _symmetry_equiv_pos_site_id
 _symmetry_equiv_pos_as_xyz
  1  'x, y, z'
loop_
 _atom_site_type_symbol
 _atom_site_label
 _atom_site_symmetry_multiplicity
 _atom_site_fract_x
 _atom_site_fract_y
 _atom_site_fract_z
 _atom_site_occupancy
  Bi  Bi0  1  0.25000000  0.16830400  0.51595300  1
  Bi  Bi1  1  0.25000000  0.33169600  0.01595300  1
  Bi  Bi2  1  0.75000000  0.83169600  0.48404700  1
  Bi  Bi3  1  0.75000000  0.66830400  0.98404700  1
  Sb  Sb4  1  0.75000000  0.45819700  0.64509800  1
  Sb  Sb5  1  0.75000000  0.04180300  0.14509800  1
  Sb  Sb6  1  0.25000000  0.54180300  0.35490200  1
  Sb  Sb7  1  0.25000000  0.95819700  0.85490200  1
  Se  Se8  1  0.75000000  0.05220100  0.62671800  1
  Se  Se9  1  0.75000000  0.44779900  0.12671800  1
  Se  Se10  1  0.25000000  0.94779900  0.37328200  1
  Se  Se11  1  0.25000000  0.55220100  0.87328200  1
  Se  Se12  1  0.25000000  0.30884000  0.70789300  1
  Se  Se13  1  0.25000000  0.19116000  0.20789300  1
  Se  Se14  1  0.75000000  0.69116000  0.29210700  1
  Se  Se15  1  0.75000000  0.80884000  0.79210700  1
  Se  Se16  1  0.25000000  0.63091800  0.55053900  1
  Se  Se17  1  0.25000000  0.86908200  0.05053900  1
  Se  Se18  1  0.75000000  0.36908200  0.44946100  1
  Se  Se19  1  0.75000000  0.13091800  0.94946100  1
