# generated using pymatgen
data_Bi4(TeS)3
_symmetry_space_group_name_H-M   'P 1'
_cell_length_a   20.26763536
_cell_length_b   20.26763536
_cell_length_c   20.26763584
_cell_angle_alpha   11.98224993
_cell_angle_beta   11.98224993
_cell_angle_gamma   11.98225264
_symmetry_Int_Tables_number   1
_chemical_formula_structural   Bi4(TeS)3
_chemical_formula_sum   'Bi4 Te3 S3'
_cell_volume   311.89668236
_cell_formula_units_Z   1
loop_
 _symmetry_equiv_pos_site_id
 _symmetry_equiv_pos_as_xyz
  1  'x, y, z'
loop_
 _atom_site_type_symbol
 _atom_site_label
 _atom_site_symmetry_multiplicity
 _atom_site_fract_x
 _atom_site_fract_y
 _atom_site_fract_z
 _atom_site_occupancy
  Bi  Bi0  1  0.80312900  0.80312900  0.80312900  1
  Bi  Bi1  1  0.30595900  0.30595900  0.30595900  1
  Bi  Bi2  1  0.69840000  0.69840000  0.69840000  1
  Bi  Bi3  1  0.19533400  0.19533400  0.19533400  1
  Te  Te4  1  0.89218700  0.89218700  0.89218700  1
  Te  Te5  1  0.10654800  0.10654800  0.10654800  1
  Te  Te6  1  0.60920100  0.60920100  0.60920100  1
  S  S7  1  0.00223800  0.00223800  0.00223800  1
  S  S8  1  0.49975000  0.49975000  0.49975000  1
  S  S9  1  0.38725400  0.38725400  0.38725400  1
