# generated using pymatgen
data_Ca2CoSi4NiO12
_symmetry_space_group_name_H-M   'P 1'
_cell_length_a   5.31174791
_cell_length_b   6.70451631
_cell_length_c   6.70450072
_cell_angle_alpha   84.56434578
_cell_angle_beta   78.03578626
_cell_angle_gamma   78.03566133
_symmetry_Int_Tables_number   1
_chemical_formula_structural   Ca2CoSi4NiO12
_chemical_formula_sum   'Ca2 Co1 Si4 Ni1 O12'
_cell_volume   228.17030213
_cell_formula_units_Z   1
loop_
 _symmetry_equiv_pos_site_id
 _symmetry_equiv_pos_as_xyz
  1  'x, y, z'
loop_
 _atom_site_type_symbol
 _atom_site_label
 _atom_site_symmetry_multiplicity
 _atom_site_fract_x
 _atom_site_fract_y
 _atom_site_fract_z
 _atom_site_occupancy
  Ca  Ca0  1  0.74999900  0.70334800  0.29665300  1
  Ca  Ca1  1  0.24999600  0.29723400  0.70276400  1
  Co  Co2  1  0.74999800  0.09244700  0.90755200  1
  Si  Si3  1  0.72927300  0.62063300  0.80572600  1
  Si  Si4  1  0.77072300  0.19427600  0.37937000  1
  Si  Si5  1  0.26974000  0.38029900  0.19456400  1
  Si  Si6  1  0.23025800  0.80543500  0.61970300  1
  Ni  Ni7  1  0.25002400  0.90771400  0.09227800  1
  O  O8  1  0.82262300  0.38997500  0.88813700  1
  O  O9  1  0.67737700  0.11186300  0.61002600  1
  O  O10  1  0.17818100  0.61156300  0.11279200  1
  O  O11  1  0.32181600  0.88720900  0.38843600  1
  O  O12  1  0.64079900  0.79499600  0.97219300  1
  O  O13  1  0.85919800  0.02780800  0.20500400  1
  O  O14  1  0.35492800  0.20420700  0.02926100  1
  O  O15  1  0.14507000  0.97074000  0.79579200  1
  O  O16  1  0.49638000  0.63113100  0.66689800  1
  O  O17  1  0.00361900  0.33310100  0.36887100  1
  O  O18  1  0.50420100  0.36798300  0.33196300  1
  O  O19  1  0.99579600  0.66803900  0.63201700  1
