# generated using pymatgen
data_BaSrNd4O8
_symmetry_space_group_name_H-M   'P 1'
_cell_length_a   3.61133500
_cell_length_b   10.52565600
_cell_length_c   12.50839000
_cell_angle_alpha   90.00000000
_cell_angle_beta   90.00000000
_cell_angle_gamma   90.00000000
_symmetry_Int_Tables_number   1
_chemical_formula_structural   BaSrNd4O8
_chemical_formula_sum   'Ba2 Sr2 Nd8 O16'
_cell_volume   475.46479180
_cell_formula_units_Z   2
loop_
 _symmetry_equiv_pos_site_id
 _symmetry_equiv_pos_as_xyz
  1  'x, y, z'
loop_
 _atom_site_type_symbol
 _atom_site_label
 _atom_site_symmetry_multiplicity
 _atom_site_fract_x
 _atom_site_fract_y
 _atom_site_fract_z
 _atom_site_occupancy
  Ba  Ba0  1  0.75000000  0.75173200  0.14743700  1
  Ba  Ba1  1  0.75000000  0.25173200  0.35256300  1
  Sr  Sr2  1  0.25000000  0.24821300  0.85269000  1
  Sr  Sr3  1  0.25000000  0.74821300  0.64731000  1
  Nd  Nd4  1  0.75000000  0.07200100  0.61682300  1
  Nd  Nd5  1  0.75000000  0.57200100  0.88317700  1
  Nd  Nd6  1  0.25000000  0.92584900  0.38890800  1
  Nd  Nd7  1  0.25000000  0.42584900  0.11109200  1
  Nd  Nd8  1  0.75000000  0.08578300  0.10691200  1
  Nd  Nd9  1  0.75000000  0.58578300  0.39308800  1
  Nd  Nd10  1  0.25000000  0.91652400  0.88622400  1
  Nd  Nd11  1  0.25000000  0.41652400  0.61377600  1
  O  O12  1  0.75000000  0.98773500  0.28300700  1
  O  O13  1  0.75000000  0.48773500  0.21699300  1
  O  O14  1  0.25000000  0.01061400  0.71808500  1
  O  O15  1  0.25000000  0.51061400  0.78191500  1
  O  O16  1  0.75000000  0.07430800  0.91779700  1
  O  O17  1  0.75000000  0.57430800  0.58220300  1
  O  O18  1  0.25000000  0.93410700  0.07436400  1
  O  O19  1  0.25000000  0.43410700  0.42563600  1
  O  O20  1  0.75000000  0.28500100  0.68264400  1
  O  O21  1  0.75000000  0.78500100  0.81735600  1
  O  O22  1  0.25000000  0.71479200  0.32601200  1
  O  O23  1  0.25000000  0.21479200  0.17398800  1
  O  O24  1  0.75000000  0.36784800  0.97889500  1
  O  O25  1  0.75000000  0.86784800  0.52110500  1
  O  O26  1  0.25000000  0.62549300  0.01345900  1
  O  O27  1  0.25000000  0.12549300  0.48654100  1
