# generated using pymatgen
data_Cd2Cu10Sb4S13
_symmetry_space_group_name_H-M   'P 1'
_cell_length_a   9.16806297
_cell_length_b   9.16806297
_cell_length_c   9.16806297
_cell_angle_alpha   110.91516884
_cell_angle_beta   110.91516884
_cell_angle_gamma   106.62038893
_symmetry_Int_Tables_number   1
_chemical_formula_structural   Cd2Cu10Sb4S13
_chemical_formula_sum   'Cd2 Cu10 Sb4 S13'
_cell_volume   592.11876592
_cell_formula_units_Z   1
loop_
 _symmetry_equiv_pos_site_id
 _symmetry_equiv_pos_as_xyz
  1  'x, y, z'
loop_
 _atom_site_type_symbol
 _atom_site_label
 _atom_site_symmetry_multiplicity
 _atom_site_fract_x
 _atom_site_fract_y
 _atom_site_fract_z
 _atom_site_occupancy
  Cd  Cd0  1  0.76747600  0.76747600  0.00000000  1
  Cd  Cd1  1  0.23252400  0.23252400  0.00000000  1
  Cu  Cu2  1  0.50000000  0.76152500  0.26152500  1
  Cu  Cu3  1  0.23847500  0.50000000  0.73847500  1
  Cu  Cu4  1  0.75000000  0.25000000  0.50000000  1
  Cu  Cu5  1  0.76152500  0.50000000  0.26152500  1
  Cu  Cu6  1  0.50000000  0.23847500  0.73847500  1
  Cu  Cu7  1  0.25000000  0.75000000  0.50000000  1
  Cu  Cu8  1  0.00000000  0.77529700  0.77529700  1
  Cu  Cu9  1  0.77529700  0.00000000  0.77529700  1
  Cu  Cu10  1  0.00000000  0.22470300  0.22470300  1
  Cu  Cu11  1  0.22470300  0.00000000  0.22470300  1
  Sb  Sb12  1  0.47040800  0.47040800  0.45582700  1
  Sb  Sb13  1  0.01458100  0.01458100  0.54417300  1
  Sb  Sb14  1  0.98541900  0.52959200  0.00000000  1
  Sb  Sb15  1  0.52959200  0.98541900  0.00000000  1
  S  S16  1  0.00000000  0.00000000  0.00000000  1
  S  S17  1  0.48890700  0.48890700  0.74112800  1
  S  S18  1  0.77257200  0.51847800  0.52604300  1
  S  S19  1  0.51847800  0.77257200  0.52604300  1
  S  S20  1  0.74777900  0.74777900  0.25887200  1
  S  S21  1  0.99243400  0.24652900  0.47395700  1
  S  S22  1  0.24652900  0.99243400  0.47395700  1
  S  S23  1  0.25222100  0.51109300  0.00000000  1
  S  S24  1  0.00756600  0.48152200  0.25409500  1
  S  S25  1  0.75347100  0.22742800  0.74590500  1
  S  S26  1  0.51109300  0.25222100  0.00000000  1
  S  S27  1  0.22742800  0.75347100  0.74590500  1
  S  S28  1  0.48152200  0.00756600  0.25409500  1
