# generated using pymatgen
data_CaAl2(SiO4)2
_symmetry_space_group_name_H-M   'P 1'
_cell_length_a   7.18490500
_cell_length_b   7.65372187
_cell_length_c   7.77883747
_cell_angle_alpha   114.34830160
_cell_angle_beta   107.26964699
_cell_angle_gamma   100.14406615
_symmetry_Int_Tables_number   1
_chemical_formula_structural   CaAl2(SiO4)2
_chemical_formula_sum   'Ca2 Al4 Si4 O16'
_cell_volume   349.55729682
_cell_formula_units_Z   2
loop_
 _symmetry_equiv_pos_site_id
 _symmetry_equiv_pos_as_xyz
  1  'x, y, z'
loop_
 _atom_site_type_symbol
 _atom_site_label
 _atom_site_symmetry_multiplicity
 _atom_site_fract_x
 _atom_site_fract_y
 _atom_site_fract_z
 _atom_site_occupancy
  Ca  Ca0  1  0.89034600  0.24272100  0.20438000  1
  Ca  Ca1  1  0.10965400  0.75727900  0.79562000  1
  Al  Al2  1  0.68455800  0.92753200  0.69732900  1
  Al  Al3  1  0.31544200  0.07246800  0.30267100  1
  Al  Al4  1  0.78718800  0.65489900  0.32587100  1
  Al  Al5  1  0.21281200  0.34510100  0.67412900  1
  Si  Si6  1  0.63805900  0.70521900  0.93848100  1
  Si  Si7  1  0.36194100  0.29478100  0.06151900  1
  Si  Si8  1  0.76563200  0.32433600  0.68617600  1
  Si  Si9  1  0.23436800  0.67566400  0.31382400  1
  O  O10  1  0.02286700  0.60246200  0.34691200  1
  O  O11  1  0.97713300  0.39753800  0.65308800  1
  O  O12  1  0.61597000  0.39490900  0.18777000  1
  O  O13  1  0.38403000  0.60509100  0.81223000  1
  O  O14  1  0.42082800  0.81261100  0.54045800  1
  O  O15  1  0.57917200  0.18738900  0.45954200  1
  O  O16  1  0.71511800  0.77234700  0.18105600  1
  O  O17  1  0.28488200  0.22765300  0.81894400  1
  O  O18  1  0.74565300  0.54610700  0.82419500  1
  O  O19  1  0.25434700  0.45389300  0.17580500  1
  O  O20  1  0.78694900  0.19703600  0.81164700  1
  O  O21  1  0.21305100  0.80296400  0.18835300  1
  O  O22  1  0.72418200  0.91396300  0.92974200  1
  O  O23  1  0.27581800  0.08603700  0.07025800  1
  O  O24  1  0.83000100  0.79498200  0.58502200  1
  O  O25  1  0.16999900  0.20501800  0.41497800  1
