# generated using pymatgen
data_BaSrNiWO6
_symmetry_space_group_name_H-M   'P 1'
_cell_length_a   5.73439911
_cell_length_b   5.73435315
_cell_length_c   9.93214120
_cell_angle_alpha   73.22091339
_cell_angle_beta   90.00004487
_cell_angle_gamma   59.99966144
_symmetry_Int_Tables_number   1
_chemical_formula_structural   BaSrNiWO6
_chemical_formula_sum   'Ba2 Sr2 Ni2 W2 O12'
_cell_volume   266.66530259
_cell_formula_units_Z   2
loop_
 _symmetry_equiv_pos_site_id
 _symmetry_equiv_pos_as_xyz
  1  'x, y, z'
loop_
 _atom_site_type_symbol
 _atom_site_label
 _atom_site_symmetry_multiplicity
 _atom_site_fract_x
 _atom_site_fract_y
 _atom_site_fract_z
 _atom_site_occupancy
  Ba  Ba0  1  0.12500000  0.75000000  0.37500100  1
  Ba  Ba1  1  0.62500000  0.75000200  0.87499900  1
  Sr  Sr2  1  0.37499900  0.25000100  0.12500000  1
  Sr  Sr3  1  0.87500100  0.25000000  0.62500100  1
  Ni  Ni4  1  0.25000300  0.50000400  0.74999900  1
  Ni  Ni5  1  0.74999800  0.49999600  0.25000300  1
  W  W6  1  0.50000100  0.99999800  0.50000300  1
  W  W7  1  0.99999900  0.00000300  0.99999600  1
  O  O8  1  0.13849400  0.24100500  0.37949600  1
  O  O9  1  0.63849300  0.24100400  0.87949800  1
  O  O10  1  0.62050100  0.24100400  0.37949700  1
  O  O11  1  0.12050200  0.24100600  0.87949700  1
  O  O12  1  0.62050100  0.75899900  0.37950000  1
  O  O13  1  0.12050100  0.75899700  0.87949900  1
  O  O14  1  0.87949900  0.75899400  0.12050000  1
  O  O15  1  0.37949900  0.75899500  0.62050300  1
  O  O16  1  0.87950000  0.24100200  0.12050000  1
  O  O17  1  0.37949800  0.24100300  0.62050300  1
  O  O18  1  0.36150600  0.75899500  0.12050000  1
  O  O19  1  0.86150800  0.75899300  0.62050400  1
