# generated using pymatgen
data_Ca4MnFe11Si8(HO9)4
_symmetry_space_group_name_H-M   'P 1'
_cell_length_a   5.87384700
_cell_length_b   8.94963300
_cell_length_c   13.20585028
_cell_angle_alpha   89.98811205
_cell_angle_beta   90.00000000
_cell_angle_gamma   90.00000000
_symmetry_Int_Tables_number   1
_chemical_formula_structural   Ca4MnFe11Si8(HO9)4
_chemical_formula_sum   'Ca4 Mn1 Fe11 Si8 H4 O36'
_cell_volume   694.21535665
_cell_formula_units_Z   1
loop_
 _symmetry_equiv_pos_site_id
 _symmetry_equiv_pos_as_xyz
  1  'x, y, z'
loop_
 _atom_site_type_symbol
 _atom_site_label
 _atom_site_symmetry_multiplicity
 _atom_site_fract_x
 _atom_site_fract_y
 _atom_site_fract_z
 _atom_site_occupancy
  Ca  Ca0  1  0.50000000  0.86852400  0.31334000  1
  Ca  Ca1  1  0.50000000  0.63155300  0.81357100  1
  Ca  Ca2  1  0.00000000  0.13093100  0.68708400  1
  Ca  Ca3  1  0.00000000  0.36985300  0.18690200  1
  Mn  Mn4  1  0.00000000  0.23881500  0.44017600  1
  Fe  Fe5  1  0.23704800  0.55157300  0.39002600  1
  Fe  Fe6  1  0.76321200  0.94828400  0.89034900  1
  Fe  Fe7  1  0.73793700  0.45017000  0.61041700  1
  Fe  Fe8  1  0.26201100  0.05023300  0.11007000  1
  Fe  Fe9  1  0.26206300  0.45017000  0.61041700  1
  Fe  Fe10  1  0.73798900  0.05023300  0.11007000  1
  Fe  Fe11  1  0.76295200  0.55157300  0.39002600  1
  Fe  Fe12  1  0.23678800  0.94828400  0.89034900  1
  Fe  Fe13  1  0.00000000  0.25655700  0.94125600  1
  Fe  Fe14  1  0.50000000  0.75977100  0.55870800  1
  Fe  Fe15  1  0.50000000  0.73987800  0.05849300  1
  Si  Si16  1  0.00000000  0.86690900  0.45880000  1
  Si  Si17  1  0.00000000  0.63099900  0.95880100  1
  Si  Si18  1  0.50000000  0.13091100  0.54136500  1
  Si  Si19  1  0.50000000  0.36946800  0.04049500  1
  Si  Si20  1  0.00000000  0.72766800  0.17811900  1
  Si  Si21  1  0.00000000  0.77266400  0.67820400  1
  Si  Si22  1  0.50000000  0.27319600  0.82157700  1
  Si  Si23  1  0.50000000  0.22761700  0.32113900  1
  H  H24  1  0.50000000  0.56612300  0.22878100  1
  H  H25  1  0.50000000  0.93384600  0.72890900  1
  H  H26  1  0.00000000  0.43425400  0.77168800  1
  H  H27  1  0.00000000  0.06483600  0.27105000  1
  O  O28  1  0.23450200  0.77102800  0.43613500  1
  O  O29  1  0.76638200  0.72855100  0.93594200  1
  O  O30  1  0.73324200  0.22770200  0.56498400  1
  O  O31  1  0.26527300  0.27275400  0.06362300  1
  O  O32  1  0.26675800  0.22770200  0.56498400  1
  O  O33  1  0.73472700  0.27275400  0.06362300  1
  O  O34  1  0.76549800  0.77102800  0.43613500  1
  O  O35  1  0.23361800  0.72855100  0.93594200  1
  O  O36  1  0.00000000  0.60929400  0.27520300  1
  O  O37  1  0.00000000  0.89141900  0.77506000  1
  O  O38  1  0.50000000  0.39125700  0.72467800  1
  O  O39  1  0.50000000  0.10887500  0.22462700  1
  O  O40  1  0.23288600  0.82995300  0.17059600  1
  O  O41  1  0.76697900  0.67049600  0.67085400  1
  O  O42  1  0.73404200  0.17107900  0.82979500  1
  O  O43  1  0.26760000  0.33049300  0.32866300  1
  O  O44  1  0.26595800  0.17107900  0.82979500  1
  O  O45  1  0.73240000  0.33049300  0.32866300  1
  O  O46  1  0.76711400  0.82995300  0.17059600  1
  O  O47  1  0.23302100  0.67049600  0.67085400  1
  O  O48  1  0.50000000  0.52535700  0.10174700  1
  O  O49  1  0.50000000  0.97432500  0.60188600  1
  O  O50  1  0.00000000  0.47641100  0.89709800  1
  O  O51  1  0.00000000  0.02012900  0.39520800  1
  O  O52  1  0.50000000  0.53104700  0.50899800  1
  O  O53  1  0.50000000  0.96854300  0.00919900  1
  O  O54  1  0.00000000  0.47403100  0.49247200  1
  O  O55  1  0.00000000  0.02783900  0.99199000  1
  O  O56  1  0.50000000  0.60898200  0.29845200  1
  O  O57  1  0.50000000  0.89175600  0.79882300  1
  O  O58  1  0.00000000  0.39079100  0.70190400  1
  O  O59  1  0.00000000  0.10967000  0.20163600  1
  O  O60  1  0.00000000  0.60167900  0.08416900  1
  O  O61  1  0.00000000  0.89832500  0.58382200  1
  O  O62  1  0.50000000  0.39837600  0.91566400  1
  O  O63  1  0.50000000  0.10289100  0.41599900  1
