# generated using pymatgen
data_Ca4MgAl2Si3O14
_symmetry_space_group_name_H-M   'P 1'
_cell_length_a   5.08735500
_cell_length_b   7.81176443
_cell_length_c   7.87312211
_cell_angle_alpha   90.10403865
_cell_angle_beta   90.04197599
_cell_angle_gamma   90.11749958
_symmetry_Int_Tables_number   1
_chemical_formula_structural   Ca4MgAl2Si3O14
_chemical_formula_sum   'Ca4 Mg1 Al2 Si3 O14'
_cell_volume   312.88621010
_cell_formula_units_Z   1
loop_
 _symmetry_equiv_pos_site_id
 _symmetry_equiv_pos_as_xyz
  1  'x, y, z'
loop_
 _atom_site_type_symbol
 _atom_site_label
 _atom_site_symmetry_multiplicity
 _atom_site_fract_x
 _atom_site_fract_y
 _atom_site_fract_z
 _atom_site_occupancy
  Ca  Ca0  1  0.48811300  0.32911500  0.82086800  1
  Ca  Ca1  1  0.50552800  0.17639400  0.35988500  1
  Ca  Ca2  1  0.48824900  0.65843200  0.16843700  1
  Ca  Ca3  1  0.51039200  0.84631700  0.66475000  1
  Mg  Mg4  1  0.00045300  0.50101300  0.50007100  1
  Al  Al5  1  0.00666800  0.99999200  0.00043400  1
  Al  Al6  1  0.04982400  0.13967200  0.64317200  1
  Si  Si7  1  0.94356400  0.35635900  0.13967600  1
  Si  Si8  1  0.05812100  0.85827900  0.35438000  1
  Si  Si9  1  0.94419500  0.64451200  0.86091800  1
  O  O10  1  0.82223700  0.49778600  0.99744700  1
  O  O11  1  0.18463100  0.99391800  0.49294300  1
  O  O12  1  0.70884500  0.13370700  0.64068300  1
  O  O13  1  0.26127700  0.35970600  0.14291800  1
  O  O14  1  0.73952700  0.85545400  0.35388100  1
  O  O15  1  0.26146100  0.64641500  0.86300100  1
  O  O16  1  0.22347400  0.32474500  0.58636000  1
  O  O17  1  0.81014100  0.17204000  0.07970000  1
  O  O18  1  0.21013100  0.67980600  0.40023500  1
  O  O19  1  0.80526700  0.82629800  0.92637900  1
  O  O20  1  0.79118900  0.59773500  0.68468900  1
  O  O21  1  0.19377400  0.91679800  0.17100100  1
  O  O22  1  0.78731800  0.41090600  0.31283400  1
  O  O23  1  0.20561900  0.07460000  0.83533800  1
