# generated using pymatgen
data_Ca4MgSi8(NiO8)3
_symmetry_space_group_name_H-M   'P 1'
_cell_length_a   6.67517104
_cell_length_b   6.67517104
_cell_length_c   10.59031140
_cell_angle_alpha   78.25893620
_cell_angle_beta   78.25893620
_cell_angle_gamma   84.62642408
_symmetry_Int_Tables_number   1
_chemical_formula_structural   Ca4MgSi8(NiO8)3
_chemical_formula_sum   'Ca4 Mg1 Si8 Ni3 O24'
_cell_volume   451.67029244
_cell_formula_units_Z   1
loop_
 _symmetry_equiv_pos_site_id
 _symmetry_equiv_pos_as_xyz
  1  'x, y, z'
loop_
 _atom_site_type_symbol
 _atom_site_label
 _atom_site_symmetry_multiplicity
 _atom_site_fract_x
 _atom_site_fract_y
 _atom_site_fract_z
 _atom_site_occupancy
  Ca  Ca0  1  0.29805700  0.70194300  0.50000000  1
  Ca  Ca1  1  0.29761800  0.70238200  0.00000000  1
  Ca  Ca2  1  0.70137200  0.29836300  0.24908000  1
  Ca  Ca3  1  0.70163700  0.29862800  0.75092000  1
  Mg  Mg4  1  0.90869800  0.09130200  0.50000000  1
  Si  Si5  1  0.80728700  0.62027600  0.49001500  1
  Si  Si6  1  0.80668800  0.62074300  0.98981200  1
  Si  Si7  1  0.37972400  0.19271300  0.50998500  1
  Si  Si8  1  0.37925700  0.19331200  0.01018800  1
  Si  Si9  1  0.19310500  0.37920200  0.25989300  1
  Si  Si10  1  0.19347300  0.37921400  0.76000100  1
  Si  Si11  1  0.62078600  0.80652700  0.23999900  1
  Si  Si12  1  0.62079800  0.80689500  0.74010700  1
  Ni  Ni13  1  0.90859000  0.09141000  0.00000000  1
  Ni  Ni14  1  0.09166100  0.90818700  0.24984300  1
  Ni  Ni15  1  0.09181300  0.90833900  0.75015700  1
  O  O16  1  0.97173400  0.79730400  0.44688200  1
  O  O17  1  0.97186900  0.79745200  0.94680400  1
  O  O18  1  0.20269600  0.02826600  0.55311800  1
  O  O19  1  0.20254800  0.02813100  0.05319600  1
  O  O20  1  0.02789800  0.20310200  0.30346100  1
  O  O21  1  0.02806900  0.20258800  0.80315800  1
  O  O22  1  0.79741200  0.97193100  0.19684200  1
  O  O23  1  0.79689800  0.97210200  0.69653900  1
  O  O24  1  0.88887800  0.38788200  0.53573100  1
  O  O25  1  0.88994100  0.38883100  0.03598700  1
  O  O26  1  0.61211800  0.11112200  0.46426900  1
  O  O27  1  0.61116900  0.11005900  0.96401300  1
  O  O28  1  0.11019300  0.61130000  0.21370700  1
  O  O29  1  0.11004800  0.61114500  0.71395800  1
  O  O30  1  0.38885500  0.88995200  0.28604200  1
  O  O31  1  0.38870000  0.88980700  0.78629300  1
  O  O32  1  0.66772100  0.63100800  0.37290700  1
  O  O33  1  0.66744400  0.63050900  0.87295700  1
  O  O34  1  0.36949100  0.33255600  0.12704300  1
  O  O35  1  0.36899200  0.33227900  0.62709300  1
  O  O36  1  0.33237600  0.36897800  0.37703500  1
  O  O37  1  0.33242400  0.36905800  0.87718700  1
  O  O38  1  0.63102200  0.66762400  0.62296500  1
  O  O39  1  0.63094200  0.66757600  0.12281300  1
