# generated using pymatgen
data_Na16(WO3)19
_symmetry_space_group_name_H-M   'P 1'
_cell_length_a   5.60377614
_cell_length_b   5.60377614
_cell_length_c   43.51260697
_cell_angle_alpha   86.21744694
_cell_angle_beta   86.21744694
_cell_angle_gamma   60.26565122
_symmetry_Int_Tables_number   1
_chemical_formula_structural   Na16(WO3)19
_chemical_formula_sum   'Na16 W19 O57'
_cell_volume   1183.03204345
_cell_formula_units_Z   1
loop_
 _symmetry_equiv_pos_site_id
 _symmetry_equiv_pos_as_xyz
  1  'x, y, z'
loop_
 _atom_site_type_symbol
 _atom_site_label
 _atom_site_symmetry_multiplicity
 _atom_site_fract_x
 _atom_site_fract_y
 _atom_site_fract_z
 _atom_site_occupancy
  Na  Na0  1  0.31584900  0.31584900  0.05268700  1
  Na  Na1  1  0.63076100  0.63076100  0.10585700  1
  Na  Na2  1  0.26340800  0.26340800  0.20999600  1
  Na  Na3  1  0.57876600  0.57876600  0.26292500  1
  Na  Na4  1  0.21161000  0.21161000  0.36774600  1
  Na  Na5  1  0.52614400  0.52614400  0.42052100  1
  Na  Na6  1  0.84181400  0.84181400  0.47371000  1
  Na  Na7  1  0.15714800  0.15714800  0.52624600  1
  Na  Na8  1  0.47426100  0.47426100  0.57888000  1
  Na  Na9  1  0.78983400  0.78983400  0.63166900  1
  Na  Na10  1  0.10561900  0.10561900  0.68396600  1
  Na  Na11  1  0.42134300  0.42134300  0.73685200  1
  Na  Na12  1  0.73637000  0.73637000  0.78970900  1
  Na  Na13  1  0.05255800  0.05255800  0.84231600  1
  Na  Na14  1  0.36805700  0.36805700  0.89514900  1
  Na  Na15  1  0.68398000  0.68398000  0.94799800  1
  W  W16  1  0.65815300  0.65815300  0.02592700  1
  W  W17  1  0.97247000  0.97247000  0.07885600  1
  W  W18  1  0.28881500  0.28881500  0.13240900  1
  W  W19  1  0.60664000  0.60664000  0.18335900  1
  W  W20  1  0.92107200  0.92107200  0.23672800  1
  W  W21  1  0.23680100  0.23680100  0.28965600  1
  W  W22  1  0.55419300  0.55419300  0.34082900  1
  W  W23  1  0.86882400  0.86882400  0.39353800  1
  W  W24  1  0.18416400  0.18416400  0.44679500  1
  W  W25  1  0.50088200  0.50088200  0.49979900  1
  W  W26  1  0.81427200  0.81427200  0.55259100  1
  W  W27  1  0.13201400  0.13201400  0.60518400  1
  W  W28  1  0.44762300  0.44762300  0.65785400  1
  W  W29  1  0.76343500  0.76343500  0.71048500  1
  W  W30  1  0.07985900  0.07985900  0.76328500  1
  W  W31  1  0.39322100  0.39322100  0.81612000  1
  W  W32  1  0.71033400  0.71033400  0.86902500  1
  W  W33  1  0.02608600  0.02608600  0.92217800  1
  W  W34  1  0.34126400  0.34126400  0.97465700  1
  O  O35  1  0.00421700  0.49485100  0.00029100  1
  O  O36  1  0.49485100  0.00421700  0.00029100  1
  O  O37  1  0.49636600  0.49636600  0.99969000  1
  O  O38  1  0.31634000  0.82221100  0.05328100  1
  O  O39  1  0.82221100  0.31634000  0.05328100  1
  O  O40  1  0.81844100  0.81844100  0.05353400  1
  O  O41  1  0.63656600  0.13276400  0.10374800  1
  O  O42  1  0.13276400  0.63656600  0.10374800  1
  O  O43  1  0.13675900  0.13675900  0.10430400  1
  O  O44  1  0.43920300  0.94460800  0.15884700  1
  O  O45  1  0.94460800  0.43920300  0.15884700  1
  O  O46  1  0.44381100  0.44381100  0.15675200  1
  O  O47  1  0.76028000  0.26251800  0.21177200  1
  O  O48  1  0.26251800  0.76028000  0.21177200  1
  O  O49  1  0.76314400  0.76314400  0.21186300  1
  O  O50  1  0.07590700  0.58022000  0.26258900  1
  O  O51  1  0.58022000  0.07590700  0.26258900  1
  O  O52  1  0.07826200  0.07826200  0.26193700  1
  O  O53  1  0.40118600  0.89052200  0.31529800  1
  O  O54  1  0.89052200  0.40118600  0.31529800  1
  O  O55  1  0.39823300  0.39823300  0.31631100  1
  O  O56  1  0.71288200  0.21711200  0.36798500  1
  O  O57  1  0.21711200  0.71288200  0.36798500  1
  O  O58  1  0.70527600  0.70527600  0.36798400  1
  O  O59  1  0.02355200  0.53280500  0.42027000  1
  O  O60  1  0.53280500  0.02355200  0.42027000  1
  O  O61  1  0.03094100  0.03094100  0.42084300  1
  O  O62  1  0.34242000  0.83568100  0.47335700  1
  O  O63  1  0.83568100  0.34242000  0.47335700  1
  O  O64  1  0.33735900  0.33735900  0.47287600  1
  O  O65  1  0.64997300  0.16110000  0.52683600  1
  O  O66  1  0.16110000  0.64997300  0.52683600  1
  O  O67  1  0.65799300  0.65799300  0.52617300  1
  O  O68  1  0.97869900  0.47775000  0.57856100  1
  O  O69  1  0.47775000  0.97869900  0.57856100  1
  O  O70  1  0.97880100  0.97880100  0.57931100  1
  O  O71  1  0.28924600  0.78711300  0.63203800  1
  O  O72  1  0.78711300  0.28924600  0.63203800  1
  O  O73  1  0.28593900  0.28593900  0.63106000  1
  O  O74  1  0.60727300  0.10804100  0.68356900  1
  O  O75  1  0.10804100  0.60727300  0.68356900  1
  O  O76  1  0.60910700  0.60910700  0.68472100  1
  O  O77  1  0.92178400  0.41439900  0.73684700  1
  O  O78  1  0.41439900  0.92178400  0.73684700  1
  O  O79  1  0.91610700  0.91610700  0.73642500  1
  O  O80  1  0.23054500  0.73904900  0.79010600  1
  O  O81  1  0.73904900  0.23054500  0.79010600  1
  O  O82  1  0.23687200  0.23687200  0.78954700  1
  O  O83  1  0.55686900  0.05635400  0.84213700  1
  O  O84  1  0.05635400  0.55686900  0.84213700  1
  O  O85  1  0.55752500  0.55752500  0.84286000  1
  O  O86  1  0.86355500  0.36500000  0.89609600  1
  O  O87  1  0.36500000  0.86355500  0.89609600  1
  O  O88  1  0.86335900  0.86335900  0.89499300  1
  O  O89  1  0.18882600  0.67507800  0.94729100  1
  O  O90  1  0.67507800  0.18882600  0.94729100  1
  O  O91  1  0.18945800  0.18945800  0.94778900  1
