# generated using pymatgen
data_Ca2Al2(SiO4)3
_symmetry_space_group_name_H-M   'P 1'
_cell_length_a   4.70477000
_cell_length_b   5.51656900
_cell_length_c   19.38931846
_cell_angle_alpha   74.59062415
_cell_angle_beta   90.00000000
_cell_angle_gamma   90.00000000
_symmetry_Int_Tables_number   1
_chemical_formula_structural   Ca2Al2(SiO4)3
_chemical_formula_sum   'Ca4 Al4 Si6 O24'
_cell_volume   485.14373414
_cell_formula_units_Z   2
loop_
 _symmetry_equiv_pos_site_id
 _symmetry_equiv_pos_as_xyz
  1  'x, y, z'
loop_
 _atom_site_type_symbol
 _atom_site_label
 _atom_site_symmetry_multiplicity
 _atom_site_fract_x
 _atom_site_fract_y
 _atom_site_fract_z
 _atom_site_occupancy
  Ca  Ca0  1  0.00934700  0.40447100  0.60091300  1
  Ca  Ca1  1  0.00934700  0.59552900  0.89908700  1
  Ca  Ca2  1  0.99065300  0.59552900  0.39908700  1
  Ca  Ca3  1  0.99065300  0.40447100  0.10091300  1
  Al  Al4  1  0.00000000  0.00000000  0.50000000  1
  Al  Al5  1  0.00000000  0.00000000  0.00000000  1
  Al  Al6  1  0.19421000  0.50000000  0.75000000  1
  Al  Al7  1  0.80579000  0.50000000  0.25000000  1
  Si  Si8  1  0.49860600  0.87427100  0.61916900  1
  Si  Si9  1  0.49860600  0.12572900  0.88083100  1
  Si  Si10  1  0.50139400  0.12572900  0.38083100  1
  Si  Si11  1  0.50139400  0.87427100  0.11916900  1
  Si  Si12  1  0.80823200  0.00000000  0.75000000  1
  Si  Si13  1  0.19176800  0.00000000  0.25000000  1
  O  O14  1  0.62235300  0.02952600  0.67661800  1
  O  O15  1  0.36214300  0.60754100  0.66688300  1
  O  O16  1  0.62235300  0.97047400  0.82338200  1
  O  O17  1  0.36214300  0.39245900  0.83311700  1
  O  O18  1  0.37764700  0.97047400  0.32338200  1
  O  O19  1  0.63785700  0.39245900  0.33311700  1
  O  O20  1  0.37764700  0.02952600  0.17661800  1
  O  O21  1  0.63785700  0.60754100  0.16688300  1
  O  O22  1  0.82592300  0.30862100  0.50088700  1
  O  O23  1  0.17407700  0.69137900  0.49911300  1
  O  O24  1  0.82592300  0.69137900  0.99911300  1
  O  O25  1  0.17407700  0.30862100  0.00088700  1
  O  O26  1  0.99375500  0.25708500  0.73061000  1
  O  O27  1  0.99375500  0.74291500  0.76939000  1
  O  O28  1  0.00624500  0.74291500  0.26939000  1
  O  O29  1  0.00624500  0.25708500  0.23061000  1
  O  O30  1  0.25579800  0.05853600  0.57342100  1
  O  O31  1  0.76473000  0.80382600  0.57481600  1
  O  O32  1  0.25579800  0.94146400  0.92657900  1
  O  O33  1  0.76473000  0.19617400  0.92518400  1
  O  O34  1  0.74420200  0.94146400  0.42657900  1
  O  O35  1  0.23527000  0.19617400  0.42518400  1
  O  O36  1  0.74420200  0.05853600  0.07342100  1
  O  O37  1  0.23527000  0.80382600  0.07481600  1
