# generated using pymatgen
data_Ca(InS2)2
_symmetry_space_group_name_H-M   'P 1'
_cell_length_a   7.89061817
_cell_length_b   7.89061817
_cell_length_c   7.89061817
_cell_angle_alpha   120.55443886
_cell_angle_beta   118.92350551
_cell_angle_gamma   90.45846851
_symmetry_Int_Tables_number   1
_chemical_formula_structural   Ca(InS2)2
_chemical_formula_sum   'Ca2 In4 S8'
_cell_volume   348.66168905
_cell_formula_units_Z   2
loop_
 _symmetry_equiv_pos_site_id
 _symmetry_equiv_pos_as_xyz
  1  'x, y, z'
loop_
 _atom_site_type_symbol
 _atom_site_label
 _atom_site_symmetry_multiplicity
 _atom_site_fract_x
 _atom_site_fract_y
 _atom_site_fract_z
 _atom_site_occupancy
  Ca  Ca0  1  0.00000000  0.00000000  0.50000000  1
  Ca  Ca1  1  0.00000000  0.50000000  0.00000000  1
  In  In2  1  0.38597700  0.63597700  0.75000000  1
  In  In3  1  0.61402300  0.36402300  0.25000000  1
  In  In4  1  0.00000000  0.00000000  0.00000000  1
  In  In5  1  0.50000000  0.00000000  0.50000000  1
  S  S6  1  0.25100800  0.76782400  0.01681600  1
  S  S7  1  0.25100800  0.23419200  0.48318400  1
  S  S8  1  0.25548800  0.76197100  0.49351700  1
  S  S9  1  0.76845400  0.76197100  0.00648300  1
  S  S10  1  0.74899200  0.23217600  0.98318400  1
  S  S11  1  0.74899200  0.76580800  0.51681600  1
  S  S12  1  0.74451200  0.23802900  0.50648300  1
  S  S13  1  0.23154600  0.23802900  0.99351700  1
