# generated using pymatgen
data_Bi3P3O14
_symmetry_space_group_name_H-M   'P 1'
_cell_length_a   7.15873020
_cell_length_b   7.15873020
_cell_length_c   6.49065188
_cell_angle_alpha   89.48964317
_cell_angle_beta   89.48964317
_cell_angle_gamma   59.87198515
_symmetry_Int_Tables_number   1
_chemical_formula_structural   Bi3P3O14
_chemical_formula_sum   'Bi3 P3 O14'
_cell_volume   287.67778473
_cell_formula_units_Z   1
loop_
 _symmetry_equiv_pos_site_id
 _symmetry_equiv_pos_as_xyz
  1  'x, y, z'
loop_
 _atom_site_type_symbol
 _atom_site_label
 _atom_site_symmetry_multiplicity
 _atom_site_fract_x
 _atom_site_fract_y
 _atom_site_fract_z
 _atom_site_occupancy
  Bi  Bi0  1  0.51222200  0.99641600  0.33606800  1
  Bi  Bi1  1  0.49258300  0.50741700  0.00000000  1
  Bi  Bi2  1  0.00358400  0.48777800  0.66393200  1
  P  P3  1  0.55364200  0.99982700  0.83186300  1
  P  P4  1  0.45033500  0.54966500  0.50000000  1
  P  P5  1  0.00017300  0.44635800  0.16813700  1
  O  O6  1  0.75252400  0.84868100  0.69552700  1
  O  O7  1  0.40402000  0.75241000  0.37167700  1
  O  O8  1  0.84400700  0.40267800  0.03991200  1
  O  O9  1  0.24759000  0.59598000  0.62832300  1
  O  O10  1  0.15131900  0.24747600  0.30447300  1
  O  O11  1  0.59732200  0.15599300  0.96008800  1
  O  O12  1  0.50045300  0.87249500  0.99470200  1
  O  O13  1  0.63319100  0.48864100  0.66003100  1
  O  O14  1  0.87751100  0.63349000  0.32510100  1
  O  O15  1  0.51135900  0.36680900  0.33996900  1
  O  O16  1  0.12750500  0.49954700  0.00529800  1
  O  O17  1  0.36651000  0.12248900  0.67489900  1
  O  O18  1  0.05375000  0.96402600  0.90643100  1
  O  O19  1  0.03597400  0.94625000  0.09356900  1
