# generated using pymatgen
data_Bi2Sb2(TeSe)3
_symmetry_space_group_name_H-M   'P 1'
_cell_length_a   20.52863898
_cell_length_b   20.52863898
_cell_length_c   20.52863863
_cell_angle_alpha   11.89831786
_cell_angle_beta   11.89831786
_cell_angle_gamma   11.89831749
_symmetry_Int_Tables_number   1
_chemical_formula_structural   Bi2Sb2(TeSe)3
_chemical_formula_sum   'Bi2 Sb2 Te3 Se3'
_cell_volume   319.62659166
_cell_formula_units_Z   1
loop_
 _symmetry_equiv_pos_site_id
 _symmetry_equiv_pos_as_xyz
  1  'x, y, z'
loop_
 _atom_site_type_symbol
 _atom_site_label
 _atom_site_symmetry_multiplicity
 _atom_site_fract_x
 _atom_site_fract_y
 _atom_site_fract_z
 _atom_site_occupancy
  Bi  Bi0  1  0.19853700  0.19853700  0.19853700  1
  Bi  Bi1  1  0.69612400  0.69612400  0.69612400  1
  Sb  Sb2  1  0.30200100  0.30200100  0.30200100  1
  Sb  Sb3  1  0.80460000  0.80460000  0.80460000  1
  Te  Te4  1  0.39265900  0.39265900  0.39265900  1
  Te  Te5  1  0.60699300  0.60699300  0.60699300  1
  Te  Te6  1  0.10947600  0.10947600  0.10947600  1
  Se  Se7  1  0.99850700  0.99850700  0.99850700  1
  Se  Se8  1  0.50077400  0.50077400  0.50077400  1
  Se  Se9  1  0.89032900  0.89032900  0.89032900  1
