# generated using pymatgen
data_Be6Al4Si12O37
_symmetry_space_group_name_H-M   'P 1'
_cell_length_a   9.30175017
_cell_length_b   9.30175017
_cell_length_c   9.28188100
_cell_angle_alpha   90.00000000
_cell_angle_beta   90.00000000
_cell_angle_gamma   120.00000123
_symmetry_Int_Tables_number   1
_chemical_formula_structural   Be6Al4Si12O37
_chemical_formula_sum   'Be6 Al4 Si12 O37'
_cell_volume   695.49812668
_cell_formula_units_Z   1
loop_
 _symmetry_equiv_pos_site_id
 _symmetry_equiv_pos_as_xyz
  1  'x, y, z'
loop_
 _atom_site_type_symbol
 _atom_site_label
 _atom_site_symmetry_multiplicity
 _atom_site_fract_x
 _atom_site_fract_y
 _atom_site_fract_z
 _atom_site_occupancy
  Be  Be0  1  0.50000000  0.50000000  0.00000000  1
  Be  Be1  1  0.50000000  0.00000000  0.00000000  1
  Be  Be2  1  0.00000000  0.50000000  0.00000000  1
  Be  Be3  1  0.50000000  0.50000000  0.50000000  1
  Be  Be4  1  0.50000000  0.00000000  0.50000000  1
  Be  Be5  1  0.00000000  0.50000000  0.50000000  1
  Al  Al6  1  0.66666700  0.33333300  0.00000000  1
  Al  Al7  1  0.66666700  0.33333300  0.50000000  1
  Al  Al8  1  0.33333300  0.66666700  0.50000000  1
  Al  Al9  1  0.33333300  0.66666700  0.00000000  1
  Si  Si10  1  0.38746700  0.27212100  0.74999600  1
  Si  Si11  1  0.72787900  0.11534600  0.74999600  1
  Si  Si12  1  0.88465400  0.61253300  0.74999600  1
  Si  Si13  1  0.27212100  0.38746700  0.25000400  1
  Si  Si14  1  0.11534600  0.72787900  0.25000400  1
  Si  Si15  1  0.61253300  0.88465400  0.25000400  1
  Si  Si16  1  0.61253300  0.72787900  0.74999600  1
  Si  Si17  1  0.27212100  0.88465400  0.74999600  1
  Si  Si18  1  0.11534600  0.38746700  0.74999600  1
  Si  Si19  1  0.72787900  0.61253300  0.25000400  1
  Si  Si20  1  0.88465400  0.27212100  0.25000400  1
  Si  Si21  1  0.38746700  0.11534600  0.25000400  1
  O  O22  1  0.30970800  0.07392700  0.74992100  1
  O  O23  1  0.92607300  0.23578100  0.74992100  1
  O  O24  1  0.76421900  0.69029200  0.74992100  1
  O  O25  1  0.07392700  0.30970800  0.25007900  1
  O  O26  1  0.23578100  0.92607300  0.25007900  1
  O  O27  1  0.69029200  0.76421900  0.25007900  1
  O  O28  1  0.69029200  0.92607300  0.74992100  1
  O  O29  1  0.07392700  0.76421900  0.74992100  1
  O  O30  1  0.23578100  0.30970800  0.74992100  1
  O  O31  1  0.92607300  0.69029200  0.25007900  1
  O  O32  1  0.76421900  0.07392700  0.25007900  1
  O  O33  1  0.30970800  0.23578100  0.25007900  1
  O  O34  1  0.49827800  0.35379200  0.89570500  1
  O  O35  1  0.64620800  0.14448600  0.89570500  1
  O  O36  1  0.85551400  0.50172200  0.89570500  1
  O  O37  1  0.49830400  0.35381500  0.60428400  1
  O  O38  1  0.64618500  0.14448900  0.60428400  1
  O  O39  1  0.85551100  0.50169600  0.60428400  1
  O  O40  1  0.35381500  0.49830400  0.39571600  1
  O  O41  1  0.14448900  0.64618500  0.39571600  1
  O  O42  1  0.50169600  0.85551100  0.39571600  1
  O  O43  1  0.35379200  0.49827800  0.10429500  1
  O  O44  1  0.14448600  0.64620800  0.10429500  1
  O  O45  1  0.50172200  0.85551400  0.10429500  1
  O  O46  1  0.50169600  0.64618500  0.60428400  1
  O  O47  1  0.35381500  0.85551100  0.60428400  1
  O  O48  1  0.14448900  0.49830400  0.60428400  1
  O  O49  1  0.50172200  0.64620800  0.89570500  1
  O  O50  1  0.35379200  0.85551400  0.89570500  1
  O  O51  1  0.14448600  0.49827800  0.89570500  1
  O  O52  1  0.64620800  0.50172200  0.10429500  1
  O  O53  1  0.85551400  0.35379200  0.10429500  1
  O  O54  1  0.49827800  0.14448600  0.10429500  1
  O  O55  1  0.64618500  0.50169600  0.39571600  1
  O  O56  1  0.85551100  0.35381500  0.39571600  1
  O  O57  1  0.49830400  0.14448900  0.39571600  1
  O  O58  1  0.00000000  0.00000000  0.00000000  1
