# generated using pymatgen
data_NaCdFe(PO4)2
_symmetry_space_group_name_H-M   'P 1'
_cell_length_a   8.40501058
_cell_length_b   9.03625376
_cell_length_c   17.96448094
_cell_angle_alpha   96.42209105
_cell_angle_beta   112.40918657
_cell_angle_gamma   105.81076024
_symmetry_Int_Tables_number   1
_chemical_formula_structural   NaCdFe(PO4)2
_chemical_formula_sum   'Na6 Cd6 Fe6 P12 O48'
_cell_volume   1177.41457347
_cell_formula_units_Z   6
loop_
 _symmetry_equiv_pos_site_id
 _symmetry_equiv_pos_as_xyz
  1  'x, y, z'
loop_
 _atom_site_type_symbol
 _atom_site_label
 _atom_site_symmetry_multiplicity
 _atom_site_fract_x
 _atom_site_fract_y
 _atom_site_fract_z
 _atom_site_occupancy
  Na  Na0  1  0.93364100  0.48875000  0.67637900  1
  Na  Na1  1  0.83679200  0.48909700  0.29982100  1
  Na  Na2  1  0.55508500  0.38275900  0.71993200  1
  Na  Na3  1  0.93450300  0.99309400  0.03853600  1
  Na  Na4  1  0.84332100  0.98383500  0.58116600  1
  Na  Na5  1  0.68513800  0.74403400  0.12230200  1
  Cd  Cd6  1  0.37088300  0.19750200  0.91716000  1
  Cd  Cd7  1  0.20780000  0.35265500  0.37312800  1
  Cd  Cd8  1  0.22064900  0.55472900  0.91247600  1
  Cd  Cd9  1  0.80712600  0.82847700  0.74892800  1
  Cd  Cd10  1  0.37393500  0.59126500  0.26880300  1
  Cd  Cd11  1  0.96772600  0.59361700  0.51443200  1
  Fe  Fe12  1  0.51932200  0.03249000  0.78573300  1
  Fe  Fe13  1  0.13788200  0.33704900  0.53051300  1
  Fe  Fe14  1  0.37694800  0.98876700  0.23220500  1
  Fe  Fe15  1  0.01498400  0.60234300  0.04978200  1
  Fe  Fe16  1  0.38719300  0.90394000  0.61930600  1
  Fe  Fe17  1  0.51578800  0.17337600  0.13621100  1
  P  P18  1  0.32671600  0.36021000  0.09167100  1
  P  P19  1  0.11387000  0.03821600  0.47538600  1
  P  P20  1  0.12907100  0.82180700  0.77461200  1
  P  P21  1  0.52919700  0.60749700  0.56750600  1
  P  P22  1  0.23219100  0.91222100  0.01743400  1
  P  P23  1  0.11916000  0.79215600  0.26580800  1
  P  P24  1  0.94197100  0.22577800  0.78115500  1
  P  P25  1  0.85917600  0.24721700  0.92946900  1
  P  P26  1  0.60859700  0.62104300  0.41563300  1
  P  P27  1  0.90493800  0.16148200  0.20497000  1
  P  P28  1  0.78327600  0.04984000  0.34604900  1
  P  P29  1  0.62645600  0.61960400  0.93535100  1
  O  O30  1  0.30544300  0.97858000  0.81663500  1
  O  O31  1  0.21175500  0.73170000  0.01289000  1
  O  O32  1  0.14152000  0.80482300  0.62192600  1
  O  O33  1  0.14338900  0.68329600  0.81551300  1
  O  O34  1  0.42260800  0.02429000  0.02484000  1
  O  O35  1  0.22442000  0.97427200  0.29443500  1
  O  O36  1  0.54948000  0.44334000  0.90004200  1
  O  O37  1  0.15046700  0.30406700  0.83785700  1
  O  O38  1  0.93711900  0.94808700  0.38957900  1
  O  O39  1  0.06990400  0.43557500  0.44799800  1
  O  O40  1  0.40417400  0.47974700  0.59059500  1
  O  O41  1  0.41543800  0.51813100  0.15620500  1
  O  O42  1  0.51928700  0.69266800  0.97148300  1
  O  O43  1  0.15520200  0.73265800  0.69338400  1
  O  O44  1  0.21436200  0.73077300  0.34881000  1
  O  O45  1  0.44670900  0.10904100  0.69031600  1
  O  O46  1  0.21815900  0.92620600  0.50514600  1
  O  O47  1  0.54116900  0.86518700  0.72562300  1
  O  O48  1  0.14014900  0.55470500  0.31109600  1
  O  O49  1  0.10888800  0.26182600  0.23944700  1
  O  O50  1  0.65006300  0.18168900  0.90433600  1
  O  O51  1  0.23097800  0.19483900  0.46466000  1
  O  O52  1  0.07905500  0.94032600  0.94868200  1
  O  O53  1  0.13975300  0.25216000  0.07400300  1
  O  O54  1  0.62335100  0.71011400  0.85866600  1
  O  O55  1  0.24436300  0.96967400  0.10698300  1
  O  O56  1  0.49312900  0.53228600  0.47163600  1
  O  O57  1  0.19996600  0.74281200  0.20229300  1
  O  O58  1  0.69865000  0.64213400  0.81141200  1
  O  O59  1  0.72986600  0.63360300  0.62415500  1
  O  O60  1  0.50533400  0.19806100  0.23850300  1
  O  O61  1  0.48691800  0.76322800  0.56601700  1
  O  O62  1  0.59776700  0.91515500  0.28078100  1
  O  O63  1  0.84867800  0.34425100  0.75437000  1
  O  O64  1  0.88877500  0.12236800  0.28999000  1
  O  O65  1  0.38178500  0.37292800  0.02006900  1
  O  O66  1  0.85903100  0.14874300  0.84669100  1
  O  O67  1  0.74342700  0.77710200  0.47544800  1
  O  O68  1  0.02722500  0.40534400  0.58469100  1
  O  O69  1  0.05648700  0.11111700  0.54011700  1
  O  O70  1  0.91532200  0.72827200  0.23408900  1
  O  O71  1  0.89874500  0.46750100  0.08544400  1
  O  O72  1  0.89407200  0.08016300  0.71520100  1
  O  O73  1  0.83274400  0.69680600  0.99818900  1
  O  O74  1  0.78021500  0.26400000  0.17750000  1
  O  O75  1  0.70768500  0.50585000  0.40157900  1
  O  O76  1  0.96254400  0.42453500  0.94381700  1
  O  O77  1  0.84109600  0.00911800  0.14100300  1
