# generated using pymatgen
data_BaSrHo4O8
_symmetry_space_group_name_H-M   'P 1'
_cell_length_a   3.43946100
_cell_length_b   10.28942900
_cell_length_c   12.06087900
_cell_angle_alpha   90.00000000
_cell_angle_beta   90.00000000
_cell_angle_gamma   90.00000000
_symmetry_Int_Tables_number   1
_chemical_formula_structural   BaSrHo4O8
_chemical_formula_sum   'Ba2 Sr2 Ho8 O16'
_cell_volume   426.83559037
_cell_formula_units_Z   2
loop_
 _symmetry_equiv_pos_site_id
 _symmetry_equiv_pos_as_xyz
  1  'x, y, z'
loop_
 _atom_site_type_symbol
 _atom_site_label
 _atom_site_symmetry_multiplicity
 _atom_site_fract_x
 _atom_site_fract_y
 _atom_site_fract_z
 _atom_site_occupancy
  Ba  Ba0  1  0.75000000  0.74775600  0.14875900  1
  Ba  Ba1  1  0.75000000  0.24775600  0.35124100  1
  Sr  Sr2  1  0.25000000  0.25478900  0.85325600  1
  Sr  Sr3  1  0.25000000  0.75478900  0.64674400  1
  Ho  Ho4  1  0.75000000  0.07526000  0.61296500  1
  Ho  Ho5  1  0.75000000  0.57526000  0.88703500  1
  Ho  Ho6  1  0.25000000  0.92243100  0.39282300  1
  Ho  Ho7  1  0.25000000  0.42243100  0.10717700  1
  Ho  Ho8  1  0.75000000  0.07777500  0.10729800  1
  Ho  Ho9  1  0.75000000  0.57777500  0.39270200  1
  Ho  Ho10  1  0.25000000  0.92584700  0.88533200  1
  Ho  Ho11  1  0.25000000  0.42584700  0.61466800  1
  O  O12  1  0.75000000  0.07712700  0.91977600  1
  O  O13  1  0.75000000  0.57712700  0.58022400  1
  O  O14  1  0.25000000  0.93294000  0.07196800  1
  O  O15  1  0.25000000  0.43294000  0.42803200  1
  O  O16  1  0.75000000  0.37623700  0.97795500  1
  O  O17  1  0.75000000  0.87623700  0.52204500  1
  O  O18  1  0.25000000  0.61570800  0.01449400  1
  O  O19  1  0.25000000  0.11570800  0.48550600  1
  O  O20  1  0.75000000  0.28909500  0.66752200  1
  O  O21  1  0.75000000  0.78909500  0.83247800  1
  O  O22  1  0.25000000  0.71084200  0.33996000  1
  O  O23  1  0.25000000  0.21084200  0.16004000  1
  O  O24  1  0.75000000  0.98374000  0.28417300  1
  O  O25  1  0.75000000  0.48374000  0.21582700  1
  O  O26  1  0.25000000  0.01045300  0.71556200  1
  O  O27  1  0.25000000  0.51045300  0.78443800  1
