# generated using pymatgen
data_Ca2La4Ti5O18
_symmetry_space_group_name_H-M   'P 1'
_cell_length_a   5.53541028
_cell_length_b   5.53541028
_cell_length_c   13.71159998
_cell_angle_alpha   78.35475578
_cell_angle_beta   78.35475578
_cell_angle_gamma   59.99999669
_symmetry_Int_Tables_number   1
_chemical_formula_structural   Ca2La4Ti5O18
_chemical_formula_sum   'Ca2 La4 Ti5 O18'
_cell_volume   353.82561182
_cell_formula_units_Z   1
loop_
 _symmetry_equiv_pos_site_id
 _symmetry_equiv_pos_as_xyz
  1  'x, y, z'
loop_
 _atom_site_type_symbol
 _atom_site_label
 _atom_site_symmetry_multiplicity
 _atom_site_fract_x
 _atom_site_fract_y
 _atom_site_fract_z
 _atom_site_occupancy
  Ca  Ca0  1  0.36087300  0.36087300  0.91738100  1
  Ca  Ca1  1  0.63912700  0.63912700  0.08261900  1
  La  La2  1  0.08700300  0.08700300  0.73899000  1
  La  La3  1  0.91299700  0.91299700  0.26101000  1
  La  La4  1  0.18722300  0.18722300  0.43833000  1
  La  La5  1  0.81277700  0.81277700  0.56167000  1
  Ti  Ti6  1  0.00000000  0.00000000  0.00000000  1
  Ti  Ti7  1  0.44960500  0.44960500  0.65118500  1
  Ti  Ti8  1  0.55039500  0.55039500  0.34881500  1
  Ti  Ti9  1  0.27685200  0.27685200  0.16944500  1
  Ti  Ti10  1  0.72314800  0.72314800  0.83055500  1
  O  O11  1  0.91589300  0.41689200  0.25032200  1
  O  O12  1  0.41689200  0.41689200  0.25032200  1
  O  O13  1  0.41689200  0.91589300  0.25032200  1
  O  O14  1  0.08410700  0.58310800  0.74967800  1
  O  O15  1  0.58310800  0.58310800  0.74967800  1
  O  O16  1  0.58310800  0.08410700  0.74967800  1
  O  O17  1  0.36016000  0.86181800  0.91620400  1
  O  O18  1  0.86181800  0.86181800  0.91620400  1
  O  O19  1  0.86181800  0.36016000  0.91620400  1
  O  O20  1  0.63984000  0.13818200  0.08379600  1
  O  O21  1  0.13818200  0.13818200  0.08379600  1
  O  O22  1  0.13818200  0.63984000  0.08379600  1
  O  O23  1  0.81751100  0.29780000  0.58688800  1
  O  O24  1  0.29780000  0.29780000  0.58688800  1
  O  O25  1  0.29780000  0.81751100  0.58688800  1
  O  O26  1  0.18248900  0.70220000  0.41311200  1
  O  O27  1  0.70220000  0.70220000  0.41311200  1
  O  O28  1  0.70220000  0.18248900  0.41311200  1
