# generated using pymatgen
data_Ca2LaGa(FeO4)2
_symmetry_space_group_name_H-M   'P 1'
_cell_length_a   11.32209200
_cell_length_b   5.53362800
_cell_length_c   5.62764037
_cell_angle_alpha   89.91381664
_cell_angle_beta   90.00000000
_cell_angle_gamma   90.00000000
_symmetry_Int_Tables_number   1
_chemical_formula_structural   Ca2LaGa(FeO4)2
_chemical_formula_sum   'Ca4 La2 Ga2 Fe4 O16'
_cell_volume   352.58390588
_cell_formula_units_Z   2
loop_
 _symmetry_equiv_pos_site_id
 _symmetry_equiv_pos_as_xyz
  1  'x, y, z'
loop_
 _atom_site_type_symbol
 _atom_site_label
 _atom_site_symmetry_multiplicity
 _atom_site_fract_x
 _atom_site_fract_y
 _atom_site_fract_z
 _atom_site_occupancy
  Ca  Ca0  1  0.31383900  0.75461700  0.72764300  1
  Ca  Ca1  1  0.68616100  0.75461700  0.72764300  1
  Ca  Ca2  1  0.68582600  0.25427500  0.27230100  1
  Ca  Ca3  1  0.31417400  0.25427500  0.27230100  1
  La  La4  1  0.00000000  0.80394100  0.74431100  1
  La  La5  1  0.00000000  0.30257300  0.25688000  1
  Ga  Ga6  1  0.17491600  0.28323000  0.75808600  1
  Ga  Ga7  1  0.82508400  0.28323000  0.75808600  1
  Fe  Fe8  1  0.82422600  0.78252500  0.23982500  1
  Fe  Fe9  1  0.17577400  0.78252500  0.23982500  1
  Fe  Fe10  1  0.50000000  0.23168100  0.81343800  1
  Fe  Fe11  1  0.50000000  0.73149600  0.18596900  1
  O  O12  1  0.50000000  0.88170900  0.87322600  1
  O  O13  1  0.50000000  0.38204200  0.12662400  1
  O  O14  1  0.35637000  0.31678300  0.66984100  1
  O  O15  1  0.64363000  0.31678300  0.66984100  1
  O  O16  1  0.64305300  0.81808400  0.33074800  1
  O  O17  1  0.35694700  0.81808400  0.33074800  1
  O  O18  1  0.14648800  0.05621700  0.48240400  1
  O  O19  1  0.85351200  0.05621700  0.48240400  1
  O  O20  1  0.85331200  0.55319200  0.52176900  1
  O  O21  1  0.14668800  0.55319200  0.52176900  1
  O  O22  1  0.00000000  0.27549500  0.83018700  1
  O  O23  1  0.00000000  0.77560100  0.17295600  1
  O  O24  1  0.20142500  0.01093300  0.97215700  1
  O  O25  1  0.79857500  0.01093300  0.97215700  1
  O  O26  1  0.79862000  0.50787500  0.02343000  1
  O  O27  1  0.20138000  0.50787500  0.02343000  1
