# generated using pymatgen
data_Ca3Cd5(P2O7)4
_symmetry_space_group_name_H-M   'P 1'
_cell_length_a   6.75713600
_cell_length_b   6.75805544
_cell_length_c   13.41947802
_cell_angle_alpha   87.16352370
_cell_angle_beta   84.10881290
_cell_angle_gamma   65.74827767
_symmetry_Int_Tables_number   1
_chemical_formula_structural   Ca3Cd5(P2O7)4
_chemical_formula_sum   'Ca3 Cd5 P8 O28'
_cell_volume   555.75289601
_cell_formula_units_Z   1
loop_
 _symmetry_equiv_pos_site_id
 _symmetry_equiv_pos_as_xyz
  1  'x, y, z'
loop_
 _atom_site_type_symbol
 _atom_site_label
 _atom_site_symmetry_multiplicity
 _atom_site_fract_x
 _atom_site_fract_y
 _atom_site_fract_z
 _atom_site_occupancy
  Ca  Ca0  1  0.76343000  0.68739700  0.18863100  1
  Ca  Ca1  1  0.23616900  0.31295300  0.81089400  1
  Ca  Ca2  1  0.23665500  0.31246800  0.31129400  1
  Cd  Cd3  1  0.61129400  0.25929300  0.57503900  1
  Cd  Cd4  1  0.61115200  0.25918800  0.07435400  1
  Cd  Cd5  1  0.38929200  0.74064500  0.92533900  1
  Cd  Cd6  1  0.38886600  0.74087700  0.42567600  1
  Cd  Cd7  1  0.76603000  0.68612400  0.68856300  1
  P  P8  1  0.13489100  0.19029400  0.56598800  1
  P  P9  1  0.13476900  0.18976500  0.06583100  1
  P  P10  1  0.86561000  0.81053700  0.93373400  1
  P  P11  1  0.86549800  0.80899900  0.43474300  1
  P  P12  1  0.26206800  0.76905700  0.67556000  1
  P  P13  1  0.26188800  0.76910400  0.17621700  1
  P  P14  1  0.73732100  0.23174000  0.82355700  1
  P  P15  1  0.73794200  0.23078000  0.32395000  1
  O  O16  1  0.37288700  0.83415400  0.75557000  1
  O  O17  1  0.37162600  0.83493100  0.25595200  1
  O  O18  1  0.62742000  0.16652800  0.74402800  1
  O  O19  1  0.62854800  0.16488000  0.24408600  1
  O  O20  1  0.24086600  0.10902100  0.95996600  1
  O  O21  1  0.24040500  0.10940200  0.46006900  1
  O  O22  1  0.75878700  0.88991900  0.54123800  1
  O  O23  1  0.75911700  0.89064200  0.03962300  1
  O  O24  1  0.90102300  0.36529000  0.56700000  1
  O  O25  1  0.90143900  0.36491700  0.06725500  1
  O  O26  1  0.09863800  0.63522000  0.93272800  1
  O  O27  1  0.09884200  0.63464300  0.43281100  1
  O  O28  1  0.09958700  0.98354600  0.62182400  1
  O  O29  1  0.09961400  0.98317400  0.12184400  1
  O  O30  1  0.90032100  0.01750300  0.87791000  1
  O  O31  1  0.89955200  0.01660400  0.37895500  1
  O  O32  1  0.28316000  0.24322100  0.62805100  1
  O  O33  1  0.28288400  0.24304700  0.12802300  1
  O  O34  1  0.71657400  0.75704300  0.87179300  1
  O  O35  1  0.71704500  0.75701500  0.37225700  1
  O  O36  1  0.11816100  0.65401700  0.71715200  1
  O  O37  1  0.11862600  0.65371000  0.21687700  1
  O  O38  1  0.88198700  0.34664400  0.78306200  1
  O  O39  1  0.88141400  0.34600900  0.28322800  1
  O  O40  1  0.44478700  0.63966300  0.59413900  1
  O  O41  1  0.44608900  0.64021100  0.09497700  1
  O  O42  1  0.55391500  0.35998800  0.90515400  1
  O  O43  1  0.55381300  0.35983800  0.40505900  1
