# generated using pymatgen
data_Ca4Al3CrSiBO14
_symmetry_space_group_name_H-M   'P 1'
_cell_length_a   5.05859387
_cell_length_b   10.95422902
_cell_length_c   10.83602177
_cell_angle_alpha   89.79564325
_cell_angle_beta   90.58334638
_cell_angle_gamma   90.85899024
_symmetry_Int_Tables_number   1
_chemical_formula_structural   Ca4Al3CrSiBO14
_chemical_formula_sum   'Ca8 Al6 Cr2 Si2 B2 O28'
_cell_volume   600.35433072
_cell_formula_units_Z   2
loop_
 _symmetry_equiv_pos_site_id
 _symmetry_equiv_pos_as_xyz
  1  'x, y, z'
loop_
 _atom_site_type_symbol
 _atom_site_label
 _atom_site_symmetry_multiplicity
 _atom_site_fract_x
 _atom_site_fract_y
 _atom_site_fract_z
 _atom_site_occupancy
  Ca  Ca0  1  0.49983800  0.23746800  0.90757900  1
  Ca  Ca1  1  0.49996800  0.73744600  0.40759400  1
  Ca  Ca2  1  0.49308900  0.42111700  0.26228100  1
  Ca  Ca3  1  0.49305800  0.92109000  0.76232300  1
  Ca  Ca4  1  0.51655900  0.73614600  0.08448800  1
  Ca  Ca5  1  0.51651400  0.23611100  0.58448600  1
  Ca  Ca6  1  0.47659100  0.59672900  0.76046700  1
  Ca  Ca7  1  0.47664900  0.09668600  0.26044600  1
  Al  Al8  1  0.99889300  0.50252500  0.00869500  1
  Al  Al9  1  0.99883100  0.00253000  0.50874600  1
  Al  Al10  1  0.99772400  0.50713300  0.49122500  1
  Al  Al11  1  0.99761400  0.00708700  0.99131700  1
  Al  Al12  1  0.95879800  0.75169400  0.89348100  1
  Al  Al13  1  0.95884000  0.25170300  0.39348300  1
  Cr  Cr14  1  0.03830900  0.88729800  0.24909300  1
  Cr  Cr15  1  0.03840700  0.38737700  0.74892400  1
  Si  Si16  1  0.94534800  0.25105300  0.10495700  1
  Si  Si17  1  0.94537000  0.75102900  0.60496200  1
  B  B18  1  0.05646400  0.60393500  0.24966400  1
  B  B19  1  0.05636700  0.10393600  0.74971200  1
  O  O20  1  0.18098300  0.73649900  0.24152600  1
  O  O21  1  0.18073800  0.23649900  0.74161600  1
  O  O22  1  0.81517400  0.25302900  0.24325400  1
  O  O23  1  0.81520300  0.75301700  0.74325100  1
  O  O24  1  0.80617600  0.36774100  0.03424400  1
  O  O25  1  0.80618600  0.86771100  0.53426100  1
  O  O26  1  0.19563900  0.55409300  0.36512300  1
  O  O27  1  0.19553500  0.05404100  0.86521100  1
  O  O28  1  0.79645800  0.62141100  0.95679900  1
  O  O29  1  0.79642400  0.12140900  0.45677300  1
  O  O30  1  0.19721800  0.47280600  0.62459400  1
  O  O31  1  0.19687400  0.97264700  0.12465600  1
  O  O32  1  0.20485600  0.45975900  0.88177600  1
  O  O33  1  0.20489300  0.95984300  0.38182500  1
  O  O34  1  0.80151700  0.87714500  0.96156800  1
  O  O35  1  0.80156200  0.37715200  0.46159400  1
  O  O36  1  0.18597800  0.54228600  0.14161800  1
  O  O37  1  0.18593700  0.04227800  0.64165500  1
  O  O38  1  0.79892500  0.13070400  0.03983400  1
  O  O39  1  0.79894300  0.63068800  0.53982400  1
  O  O40  1  0.26419700  0.24979200  0.10383200  1
  O  O41  1  0.26421600  0.74980200  0.60383300  1
  O  O42  1  0.77490000  0.60192500  0.25212800  1
  O  O43  1  0.77488400  0.10193100  0.75212000  1
  O  O44  1  0.29985000  0.75091300  0.89120900  1
  O  O45  1  0.29985200  0.25091000  0.39121000  1
  O  O46  1  0.69681500  0.38700900  0.75040800  1
  O  O47  1  0.69683600  0.88686900  0.25033400  1
