# generated using pymatgen
data_Ca2LaGeS4Cl3
_symmetry_space_group_name_H-M   'P 1'
_cell_length_a   9.85541747
_cell_length_b   9.85541747
_cell_length_c   6.39583200
_cell_angle_alpha   90.00000000
_cell_angle_beta   90.00000000
_cell_angle_gamma   121.46999091
_symmetry_Int_Tables_number   1
_chemical_formula_structural   Ca2LaGeS4Cl3
_chemical_formula_sum   'Ca4 La2 Ge2 S8 Cl6'
_cell_volume   529.84909125
_cell_formula_units_Z   2
loop_
 _symmetry_equiv_pos_site_id
 _symmetry_equiv_pos_as_xyz
  1  'x, y, z'
loop_
 _atom_site_type_symbol
 _atom_site_label
 _atom_site_symmetry_multiplicity
 _atom_site_fract_x
 _atom_site_fract_y
 _atom_site_fract_z
 _atom_site_occupancy
  Ca  Ca0  1  0.62554500  0.80620700  0.42733400  1
  Ca  Ca1  1  0.19379300  0.37445500  0.42733400  1
  Ca  Ca2  1  0.37445500  0.19379300  0.92733400  1
  Ca  Ca3  1  0.80620700  0.62554500  0.92733400  1
  La  La4  1  0.18803000  0.81197000  0.42745900  1
  La  La5  1  0.81197000  0.18803000  0.92745900  1
  Ge  Ge6  1  0.66390400  0.33609600  0.50250600  1
  Ge  Ge7  1  0.33609600  0.66390400  0.00250600  1
  S  S8  1  0.66613800  0.33386200  0.14938200  1
  S  S9  1  0.33386200  0.66613800  0.64938200  1
  S  S10  1  0.09042100  0.54045800  0.14283800  1
  S  S11  1  0.45954200  0.90957900  0.14283800  1
  S  S12  1  0.45427700  0.54572300  0.14385500  1
  S  S13  1  0.90957900  0.45954200  0.64283800  1
  S  S14  1  0.54045800  0.09042100  0.64283800  1
  S  S15  1  0.54572300  0.45427700  0.64385500  1
  Cl  Cl16  1  0.24499000  0.12257400  0.32586300  1
  Cl  Cl17  1  0.87742600  0.75501000  0.32586300  1
  Cl  Cl18  1  0.87815900  0.12184100  0.33521700  1
  Cl  Cl19  1  0.75501000  0.87742600  0.82586300  1
  Cl  Cl20  1  0.12257400  0.24499000  0.82586300  1
  Cl  Cl21  1  0.12184100  0.87815900  0.83521700  1
