# generated using pymatgen
data_BaSr2Y6O12
_symmetry_space_group_name_H-M   'P 1'
_cell_length_a   3.46599400
_cell_length_b   10.41634800
_cell_length_c   10.41635304
_cell_angle_alpha   60.00012268
_cell_angle_beta   90.00000000
_cell_angle_gamma   90.00000000
_symmetry_Int_Tables_number   1
_chemical_formula_structural   BaSr2Y6O12
_chemical_formula_sum   'Ba1 Sr2 Y6 O12'
_cell_volume   325.67929328
_cell_formula_units_Z   1
loop_
 _symmetry_equiv_pos_site_id
 _symmetry_equiv_pos_as_xyz
  1  'x, y, z'
loop_
 _atom_site_type_symbol
 _atom_site_label
 _atom_site_symmetry_multiplicity
 _atom_site_fract_x
 _atom_site_fract_y
 _atom_site_fract_z
 _atom_site_occupancy
  Ba  Ba0  1  0.75000000  0.00000300  0.99999800  1
  Sr  Sr1  1  0.75000000  0.66666200  0.66666800  1
  Sr  Sr2  1  0.25000000  0.33333700  0.33333100  1
  Y  Y3  1  0.25000000  0.34638200  0.65455300  1
  Y  Y4  1  0.25000000  0.99906400  0.34638200  1
  Y  Y5  1  0.25000000  0.65455400  0.99906500  1
  Y  Y6  1  0.75000000  0.65090000  0.34846700  1
  Y  Y7  1  0.75000000  0.00063300  0.65090100  1
  Y  Y8  1  0.75000000  0.34846600  0.00063300  1
  O  O9  1  0.75000000  0.39497800  0.47725600  1
  O  O10  1  0.75000000  0.12776500  0.39497900  1
  O  O11  1  0.75000000  0.47725600  0.12776500  1
  O  O12  1  0.25000000  0.60292000  0.52265300  1
  O  O13  1  0.25000000  0.87442700  0.60292000  1
  O  O14  1  0.25000000  0.52265300  0.87442700  1
  O  O15  1  0.75000000  0.30239600  0.80889900  1
  O  O16  1  0.75000000  0.88870600  0.30239300  1
  O  O17  1  0.75000000  0.80890200  0.88870800  1
  O  O18  1  0.25000000  0.71095200  0.18468600  1
  O  O19  1  0.25000000  0.10436000  0.71095700  1
  O  O20  1  0.25000000  0.18468300  0.10435700  1
