# generated using pymatgen
data_BaSr2(PO4)2
_symmetry_space_group_name_H-M   'P 1'
_cell_length_a   7.52072877
_cell_length_b   7.52072877
_cell_length_c   7.52072918
_cell_angle_alpha   43.18446836
_cell_angle_beta   43.18446836
_cell_angle_gamma   43.18446641
_symmetry_Int_Tables_number   1
_chemical_formula_structural   BaSr2(PO4)2
_chemical_formula_sum   'Ba1 Sr2 P2 O8'
_cell_volume   180.64258018
_cell_formula_units_Z   1
loop_
 _symmetry_equiv_pos_site_id
 _symmetry_equiv_pos_as_xyz
  1  'x, y, z'
loop_
 _atom_site_type_symbol
 _atom_site_label
 _atom_site_symmetry_multiplicity
 _atom_site_fract_x
 _atom_site_fract_y
 _atom_site_fract_z
 _atom_site_occupancy
  Ba  Ba0  1  0.00000000  0.00000000  0.00000000  1
  Sr  Sr1  1  0.20926400  0.20926400  0.20926400  1
  Sr  Sr2  1  0.79073600  0.79073600  0.79073600  1
  P  P3  1  0.40995700  0.40995700  0.40995700  1
  P  P4  1  0.59004300  0.59004300  0.59004300  1
  O  O5  1  0.33385200  0.33385200  0.33385200  1
  O  O6  1  0.66614800  0.66614800  0.66614800  1
  O  O7  1  0.28284300  0.74265000  0.28284300  1
  O  O8  1  0.28284300  0.28284300  0.74265000  1
  O  O9  1  0.74265000  0.28284300  0.28284300  1
  O  O10  1  0.71715700  0.25735000  0.71715700  1
  O  O11  1  0.71715700  0.71715700  0.25735000  1
  O  O12  1  0.25735000  0.71715700  0.71715700  1
