# generated using pymatgen
data_BaSrEr4O8
_symmetry_space_group_name_H-M   'P 1'
_cell_length_a   3.42544500
_cell_length_b   10.28413200
_cell_length_c   12.03065100
_cell_angle_alpha   90.00000000
_cell_angle_beta   90.00000000
_cell_angle_gamma   90.00000000
_symmetry_Int_Tables_number   1
_chemical_formula_structural   BaSrEr4O8
_chemical_formula_sum   'Ba2 Sr2 Er8 O16'
_cell_volume   423.81250757
_cell_formula_units_Z   2
loop_
 _symmetry_equiv_pos_site_id
 _symmetry_equiv_pos_as_xyz
  1  'x, y, z'
loop_
 _atom_site_type_symbol
 _atom_site_label
 _atom_site_symmetry_multiplicity
 _atom_site_fract_x
 _atom_site_fract_y
 _atom_site_fract_z
 _atom_site_occupancy
  Ba  Ba0  1  0.75000000  0.74743200  0.14892200  1
  Ba  Ba1  1  0.75000000  0.24743200  0.35107800  1
  Sr  Sr2  1  0.25000000  0.25376500  0.85214300  1
  Sr  Sr3  1  0.25000000  0.75376500  0.64785700  1
  Er  Er4  1  0.75000000  0.07699000  0.10699500  1
  Er  Er5  1  0.75000000  0.57699000  0.39300500  1
  Er  Er6  1  0.25000000  0.92685500  0.88509900  1
  Er  Er7  1  0.25000000  0.42685500  0.61490100  1
  Er  Er8  1  0.75000000  0.07559700  0.61307700  1
  Er  Er9  1  0.75000000  0.57559700  0.88692300  1
  Er  Er10  1  0.25000000  0.92165500  0.39375400  1
  Er  Er11  1  0.25000000  0.42165500  0.10624600  1
  O  O12  1  0.75000000  0.07706600  0.92042500  1
  O  O13  1  0.75000000  0.57706600  0.57957500  1
  O  O14  1  0.25000000  0.93309200  0.07073300  1
  O  O15  1  0.25000000  0.43309200  0.42926700  1
  O  O16  1  0.75000000  0.98137300  0.28405200  1
  O  O17  1  0.75000000  0.48137300  0.21594800  1
  O  O18  1  0.25000000  0.01447900  0.71693900  1
  O  O19  1  0.25000000  0.51447900  0.78306100  1
  O  O20  1  0.75000000  0.37697100  0.97696700  1
  O  O21  1  0.75000000  0.87697100  0.52303300  1
  O  O22  1  0.25000000  0.61452100  0.01421500  1
  O  O23  1  0.25000000  0.11452100  0.48578500  1
  O  O24  1  0.75000000  0.28996700  0.66790600  1
  O  O25  1  0.75000000  0.78996700  0.83209400  1
  O  O26  1  0.25000000  0.71023600  0.34110500  1
  O  O27  1  0.25000000  0.21023600  0.15889500  1
