# generated using pymatgen
data_BaSrErCu3O7
_symmetry_space_group_name_H-M   'P 1'
_cell_length_a   3.78149400
_cell_length_b   3.89942700
_cell_length_c   11.66169100
_cell_angle_alpha   90.00000000
_cell_angle_beta   90.00000000
_cell_angle_gamma   90.00000000
_symmetry_Int_Tables_number   1
_chemical_formula_structural   BaSrErCu3O7
_chemical_formula_sum   'Ba1 Sr1 Er1 Cu3 O7'
_cell_volume   171.95932822
_cell_formula_units_Z   1
loop_
 _symmetry_equiv_pos_site_id
 _symmetry_equiv_pos_as_xyz
  1  'x, y, z'
loop_
 _atom_site_type_symbol
 _atom_site_label
 _atom_site_symmetry_multiplicity
 _atom_site_fract_x
 _atom_site_fract_y
 _atom_site_fract_z
 _atom_site_occupancy
  Ba  Ba0  1  0.50000000  0.50000000  0.17980800  1
  Sr  Sr1  1  0.50000000  0.50000000  0.82057700  1
  Er  Er2  1  0.50000000  0.50000000  0.50290200  1
  Cu  Cu3  1  0.00000000  0.00000000  0.35530800  1
  Cu  Cu4  1  0.00000000  0.00000000  0.65057700  1
  Cu  Cu5  1  0.00000000  0.00000000  0.99649600  1
  O  O6  1  0.00000000  0.00000000  0.15769500  1
  O  O7  1  0.00000000  0.00000000  0.83512800  1
  O  O8  1  0.50000000  0.00000000  0.38325400  1
  O  O9  1  0.50000000  0.00000000  0.62168800  1
  O  O10  1  0.00000000  0.50000000  0.38086500  1
  O  O11  1  0.00000000  0.50000000  0.62552500  1
  O  O12  1  0.00000000  0.50000000  0.99017700  1
