# generated using pymatgen
data_Ca3Er2(SnS4)3
_symmetry_space_group_name_H-M   'P 1'
_cell_length_a   11.55458601
_cell_length_b   11.55458601
_cell_length_c   3.90346500
_cell_angle_alpha   90.00000000
_cell_angle_beta   90.00000000
_cell_angle_gamma   120.52287057
_symmetry_Int_Tables_number   1
_chemical_formula_structural   Ca3Er2(SnS4)3
_chemical_formula_sum   'Ca3 Er2 Sn3 S12'
_cell_volume   448.92862319
_cell_formula_units_Z   1
loop_
 _symmetry_equiv_pos_site_id
 _symmetry_equiv_pos_as_xyz
  1  'x, y, z'
loop_
 _atom_site_type_symbol
 _atom_site_label
 _atom_site_symmetry_multiplicity
 _atom_site_fract_x
 _atom_site_fract_y
 _atom_site_fract_z
 _atom_site_occupancy
  Ca  Ca0  1  0.66190800  0.33008700  0.00000000  1
  Ca  Ca1  1  0.33008700  0.66190800  0.00000000  1
  Ca  Ca2  1  0.28317500  0.28317500  0.00000000  1
  Er  Er3  1  0.00130200  0.71524500  0.00000000  1
  Er  Er4  1  0.71524500  0.00130200  0.00000000  1
  Sn  Sn5  1  0.67215400  0.67215400  0.50000000  1
  Sn  Sn6  1  0.00283400  0.32934800  0.50000000  1
  Sn  Sn7  1  0.32934800  0.00283400  0.50000000  1
  S  S8  1  0.82732500  0.82732500  0.00000000  1
  S  S9  1  0.99214200  0.17128400  0.00000000  1
  S  S10  1  0.17128400  0.99214200  0.00000000  1
  S  S11  1  0.52796400  0.52796400  0.00000000  1
  S  S12  1  0.99669000  0.47410700  0.00000000  1
  S  S13  1  0.47410700  0.99669000  0.00000000  1
  S  S14  1  0.81516800  0.56179600  0.50000000  1
  S  S15  1  0.74641900  0.18658400  0.50000000  1
  S  S16  1  0.45020900  0.25415700  0.50000000  1
  S  S17  1  0.56179600  0.81516800  0.50000000  1
  S  S18  1  0.18658400  0.74641900  0.50000000  1
  S  S19  1  0.25415700  0.45020900  0.50000000  1
