# generated using pymatgen
data_Co2H31S2N9O11
_symmetry_space_group_name_H-M   'P 1'
_cell_length_a   7.05521538
_cell_length_b   8.82520000
_cell_length_c   9.24781079
_cell_angle_alpha   68.19555727
_cell_angle_beta   67.61065912
_cell_angle_gamma   73.65806079
_symmetry_Int_Tables_number   1
_chemical_formula_structural   Co2H31S2N9O11
_chemical_formula_sum   'Co2 H31 S2 N9 O11'
_cell_volume   487.70087222
_cell_formula_units_Z   1
loop_
 _symmetry_equiv_pos_site_id
 _symmetry_equiv_pos_as_xyz
  1  'x, y, z'
loop_
 _atom_site_type_symbol
 _atom_site_label
 _atom_site_symmetry_multiplicity
 _atom_site_fract_x
 _atom_site_fract_y
 _atom_site_fract_z
 _atom_site_occupancy
  Co  Co0  1  0.53558600  0.61457000  0.33298800  1
  Co  Co1  1  0.45986700  0.37733800  0.67521300  1
  H  H2  1  0.83176900  0.81446700  0.19469100  1
  H  H3  1  0.18448700  0.18900900  0.79885200  1
  H  H4  1  0.41426300  0.93826500  0.31913000  1
  H  H5  1  0.58371800  0.07181400  0.68551800  1
  H  H6  1  0.86812900  0.85981200  0.42139100  1
  H  H7  1  0.12694600  0.13784600  0.58142800  1
  H  H8  1  0.78835800  0.35211400  0.24062400  1
  H  H9  1  0.22319900  0.63732900  0.74563100  1
  H  H10  1  0.54896000  0.35130500  0.24761800  1
  H  H11  1  0.47010000  0.62990700  0.73022400  1
  H  H12  1  0.92757300  0.64058100  0.14350600  1
  H  H13  1  0.08940800  0.36338300  0.84786400  1
  H  H14  1  0.44150000  0.77506700  0.05770700  1
  H  H15  1  0.55687100  0.22649200  0.94175700  1
  H  H16  1  0.76856300  0.78607300  0.04949300  1
  H  H17  1  0.23947700  0.21461500  0.94941300  1
  H  H18  1  0.69854900  0.47782200  0.08684400  1
  H  H19  1  0.31398100  0.51626900  0.89936800  1
  H  H20  1  0.30457400  0.62013600  0.16366600  1
  H  H21  1  0.68856600  0.38193400  0.82543100  1
  H  H22  1  0.21973200  0.79495100  0.21471000  1
  H  H23  1  0.77051600  0.20386300  0.78295600  1
  H  H24  1  0.96332000  0.01796900  0.29785900  1
  H  H25  1  0.03412200  0.97954100  0.70623100  1
  H  H26  1  0.50017200  0.83232300  0.47933800  1
  H  H27  1  0.49668800  0.17228600  0.52569300  1
  H  H28  1  0.26069500  0.82955300  0.48946900  1
  H  H29  1  0.72799100  0.18923800  0.51738000  1
  H  H30  1  0.26556300  0.40958400  0.47973200  1
  H  H31  1  0.17209600  0.56442600  0.56075700  1
  H  H32  1  0.81405800  0.43402400  0.46929900  1
  S  S33  1  0.79191100  0.74526100  0.75467600  1
  S  S34  1  0.20512100  0.26149200  0.24721000  1
  N  N35  1  0.65710100  0.42591100  0.21226000  1
  N  N36  1  0.35371700  0.56039800  0.77331400  1
  N  N37  1  0.41202400  0.83001700  0.41402400  1
  N  N38  1  0.57736900  0.18176500  0.59289000  1
  N  N39  1  0.79745200  0.72936900  0.16033500  1
  N  N40  1  0.21826900  0.27268000  0.83576000  1
  N  N41  1  0.35212400  0.71536100  0.17295300  1
  N  N42  1  0.63827100  0.28435700  0.82289700  1
  N  N43  1  0.30553400  0.48955200  0.51633000  1
  O  O44  1  0.70352300  0.78077800  0.62029600  1
  O  O45  1  0.29014500  0.23747600  0.38176700  1
  O  O46  1  0.66152400  0.85200400  0.86268000  1
  O  O47  1  0.34275600  0.15186300  0.14448400  1
  O  O48  1  0.00851300  0.78650600  0.68203800  1
  O  O49  1  0.99277400  0.21386000  0.32431600  1
  O  O50  1  0.80070000  0.56622100  0.85109600  1
  O  O51  1  0.19253300  0.43817100  0.14454100  1
  O  O52  1  0.94368600  0.90924000  0.30406200  1
  O  O53  1  0.05329000  0.08939100  0.69879300  1
  O  O54  1  0.67736400  0.50062100  0.50019700  1
