# generated using pymatgen
data_Ca4Mn6Si5O28
_symmetry_space_group_name_H-M   'P 1'
_cell_length_a   5.33769354
_cell_length_b   5.33769354
_cell_length_c   19.65076700
_cell_angle_alpha   90.00000000
_cell_angle_beta   90.00000000
_cell_angle_gamma   110.01955626
_symmetry_Int_Tables_number   1
_chemical_formula_structural   Ca4Mn6Si5O28
_chemical_formula_sum   'Ca4 Mn6 Si5 O28'
_cell_volume   526.03980957
_cell_formula_units_Z   1
loop_
 _symmetry_equiv_pos_site_id
 _symmetry_equiv_pos_as_xyz
  1  'x, y, z'
loop_
 _atom_site_type_symbol
 _atom_site_label
 _atom_site_symmetry_multiplicity
 _atom_site_fract_x
 _atom_site_fract_y
 _atom_site_fract_z
 _atom_site_occupancy
  Ca  Ca0  1  0.69335100  0.30664900  0.10120000  1
  Ca  Ca1  1  0.30406200  0.69593800  0.41253000  1
  Ca  Ca2  1  0.69335100  0.30664900  0.89880000  1
  Ca  Ca3  1  0.30406200  0.69593800  0.58747000  1
  Mn  Mn4  1  0.49668900  0.99962500  0.25140000  1
  Mn  Mn5  1  0.00037500  0.50331100  0.25140000  1
  Mn  Mn6  1  0.49668900  0.99962500  0.74860000  1
  Mn  Mn7  1  0.00037500  0.50331100  0.74860000  1
  Mn  Mn8  1  0.68495300  0.79316000  0.00000000  1
  Mn  Mn9  1  0.20684000  0.31504700  0.00000000  1
  Si  Si10  1  0.02754600  0.97245400  0.15187800  1
  Si  Si11  1  0.96636300  0.03363700  0.34867600  1
  Si  Si12  1  0.02754600  0.97245400  0.84812200  1
  Si  Si13  1  0.96636300  0.03363700  0.65132400  1
  Si  Si14  1  0.89798900  0.10201100  0.50000000  1
  O  O15  1  0.34216800  0.09398200  0.16851800  1
  O  O16  1  0.09549100  0.35097100  0.33284300  1
  O  O17  1  0.34216800  0.09398200  0.83148200  1
  O  O18  1  0.09549100  0.35097100  0.66715700  1
  O  O19  1  0.64902900  0.90450900  0.33284300  1
  O  O20  1  0.90601800  0.65783200  0.16851800  1
  O  O21  1  0.64902900  0.90450900  0.66715700  1
  O  O22  1  0.90601800  0.65783200  0.83148200  1
  O  O23  1  0.36221900  0.63778100  0.22229300  1
  O  O24  1  0.63570600  0.36429400  0.27896900  1
  O  O25  1  0.36221900  0.63778100  0.77770700  1
  O  O26  1  0.63570600  0.36429400  0.72103100  1
  O  O27  1  0.86700500  0.13299500  0.19843100  1
  O  O28  1  0.13144500  0.86855500  0.30602700  1
  O  O29  1  0.86700500  0.13299500  0.80156900  1
  O  O30  1  0.13144500  0.86855500  0.69397300  1
  O  O31  1  0.50735800  0.07881900  0.00000000  1
  O  O32  1  0.04131400  0.42578200  0.50000000  1
  O  O33  1  0.57421800  0.95868600  0.50000000  1
  O  O34  1  0.92118100  0.49264200  0.00000000  1
  O  O35  1  0.96556300  0.03443700  0.07024600  1
  O  O36  1  0.01606800  0.98393200  0.43080300  1
  O  O37  1  0.96556300  0.03443700  0.92975400  1
  O  O38  1  0.01606800  0.98393200  0.56919700  1
  O  O39  1  0.44342800  0.55657200  0.06140900  1
  O  O40  1  0.58259900  0.41740100  0.43040100  1
  O  O41  1  0.44342800  0.55657200  0.93859100  1
  O  O42  1  0.58259900  0.41740100  0.56959900  1
