# generated using pymatgen
data_Ca2SiO5
_symmetry_space_group_name_H-M   'P 1'
_cell_length_a   3.50262485
_cell_length_b   8.70257050
_cell_length_c   11.34533597
_cell_angle_alpha   87.04963944
_cell_angle_beta   90.07734314
_cell_angle_gamma   78.52151194
_symmetry_Int_Tables_number   1
_chemical_formula_structural   Ca2SiO5
_chemical_formula_sum   'Ca6 Si3 O15'
_cell_volume   338.43703279
_cell_formula_units_Z   3
loop_
 _symmetry_equiv_pos_site_id
 _symmetry_equiv_pos_as_xyz
  1  'x, y, z'
loop_
 _atom_site_type_symbol
 _atom_site_label
 _atom_site_symmetry_multiplicity
 _atom_site_fract_x
 _atom_site_fract_y
 _atom_site_fract_z
 _atom_site_occupancy
  Ca  Ca0  1  0.89686400  0.18649700  0.44255100  1
  Ca  Ca1  1  0.07925200  0.81239000  0.95593600  1
  Ca  Ca2  1  0.20795000  0.56879500  0.59582800  1
  Ca  Ca3  1  0.76659000  0.44136700  0.07684400  1
  Ca  Ca4  1  0.54356900  0.90111900  0.69893000  1
  Ca  Ca5  1  0.44382000  0.09781700  0.18627700  1
  Si  Si6  1  0.11498600  0.74983100  0.22017000  1
  Si  Si7  1  0.58164900  0.81826800  0.40345400  1
  Si  Si8  1  0.34297200  0.18211800  0.89234500  1
  O  O9  1  0.62283400  0.73814600  0.53873800  1
  O  O10  1  0.35106200  0.27370200  0.01228900  1
  O  O11  1  0.12817900  0.72532700  0.76430700  1
  O  O12  1  0.86583500  0.25408800  0.23453800  1
  O  O13  1  0.48567600  0.01034100  0.39124100  1
  O  O14  1  0.49072400  0.99350700  0.89472600  1
  O  O15  1  0.30093700  0.37764800  0.45487800  1
  O  O16  1  0.66338500  0.64410500  0.89860200  1
  O  O17  1  0.80031100  0.38356800  0.58277900  1
  O  O18  1  0.18341400  0.60973700  0.12557100  1
  O  O19  1  0.97097500  0.04908300  0.62638600  1
  O  O20  1  0.03111300  0.91994200  0.14378800  1
  O  O21  1  0.10208700  0.77691100  0.37512100  1
  O  O22  1  0.88880600  0.22792000  0.83499800  1
  O  O23  1  0.62110900  0.73757600  0.26110200  1
