# generated using pymatgen
data_CeNb3O9
_symmetry_space_group_name_H-M   'P 1'
_cell_length_a   5.60097800
_cell_length_b   9.76259685
_cell_length_c   13.74633450
_cell_angle_alpha   90.33924381
_cell_angle_beta   90.16621480
_cell_angle_gamma   90.16975840
_symmetry_Int_Tables_number   1
_chemical_formula_structural   CeNb3O9
_chemical_formula_sum   'Ce4 Nb12 O36'
_cell_volume   751.63113434
_cell_formula_units_Z   4
loop_
 _symmetry_equiv_pos_site_id
 _symmetry_equiv_pos_as_xyz
  1  'x, y, z'
loop_
 _atom_site_type_symbol
 _atom_site_label
 _atom_site_symmetry_multiplicity
 _atom_site_fract_x
 _atom_site_fract_y
 _atom_site_fract_z
 _atom_site_occupancy
  Ce  Ce0  1  0.76326900  0.57842400  0.57819600  1
  Ce  Ce1  1  0.75929700  0.91668600  0.91820400  1
  Ce  Ce2  1  0.23673100  0.42157600  0.42180400  1
  Ce  Ce3  1  0.24070300  0.08331400  0.08179600  1
  Nb  Nb4  1  0.25128700  0.76548300  0.49535600  1
  Nb  Nb5  1  0.24866800  0.08345100  0.82514500  1
  Nb  Nb6  1  0.25377000  0.41927900  0.16626500  1
  Nb  Nb7  1  0.25030100  0.08814600  0.33395100  1
  Nb  Nb8  1  0.24934600  0.41208400  0.67447800  1
  Nb  Nb9  1  0.24904800  0.73561100  0.00170800  1
  Nb  Nb10  1  0.75133200  0.91654900  0.17485500  1
  Nb  Nb11  1  0.74871300  0.23451700  0.50464400  1
  Nb  Nb12  1  0.74623000  0.58072100  0.83373500  1
  Nb  Nb13  1  0.75065400  0.58791600  0.32552200  1
  Nb  Nb14  1  0.74969900  0.91185400  0.66604900  1
  Nb  Nb15  1  0.75095200  0.26438900  0.99829200  1
  O  O16  1  0.20808300  0.23800800  0.23874300  1
  O  O17  1  0.17586300  0.56587400  0.56603300  1
  O  O18  1  0.18140900  0.91656000  0.91566200  1
  O  O19  1  0.81859100  0.08344000  0.08433800  1
  O  O20  1  0.82413700  0.43412600  0.43396700  1
  O  O21  1  0.79191700  0.76199200  0.76125700  1
  O  O22  1  0.00618300  0.49429400  0.25574300  1
  O  O23  1  0.99587800  0.82488600  0.58327600  1
  O  O24  1  0.99838600  0.16015400  0.92081300  1
  O  O25  1  0.00161400  0.83984600  0.07918700  1
  O  O26  1  0.00412200  0.17511400  0.41672400  1
  O  O27  1  0.99381700  0.50570600  0.74425700  1
  O  O28  1  0.49961700  0.63026000  0.43459000  1
  O  O29  1  0.51294900  0.98400100  0.76716200  1
  O  O30  1  0.48662400  0.30427900  0.08888000  1
  O  O31  1  0.48705100  0.01599900  0.23283800  1
  O  O32  1  0.50038300  0.36974000  0.56541000  1
  O  O33  1  0.51337600  0.69572100  0.91112000  1
  O  O34  1  0.51331500  0.79325000  0.59419300  1
  O  O35  1  0.50034300  0.12280300  0.93951900  1
  O  O36  1  0.48681500  0.46956200  0.27308000  1
  O  O37  1  0.48668500  0.20675000  0.40580700  1
  O  O38  1  0.51318500  0.53043800  0.72692000  1
  O  O39  1  0.49965700  0.87719700  0.06048100  1
  O  O40  1  0.00011800  0.67951700  0.40972000  1
  O  O41  1  0.99586900  0.01721800  0.74454600  1
  O  O42  1  0.00324800  0.34618600  0.07432300  1
  O  O43  1  0.00413100  0.98278200  0.25545400  1
  O  O44  1  0.99988200  0.32048300  0.59028000  1
  O  O45  1  0.99675200  0.65381400  0.92567700  1
  O  O46  1  0.29984400  0.25772700  0.75732600  1
  O  O47  1  0.30183400  0.58835400  0.09178400  1
  O  O48  1  0.30154800  0.92382600  0.42029100  1
  O  O49  1  0.69845200  0.07617400  0.57970900  1
  O  O50  1  0.69816600  0.41164600  0.90821600  1
  O  O51  1  0.70015600  0.74227300  0.24267400  1
