# generated using pymatgen
data_Ca3Ti(FeO4)2
_symmetry_space_group_name_H-M   'P 1'
_cell_length_a   5.50621300
_cell_length_b   5.57129600
_cell_length_c   11.33664674
_cell_angle_alpha   89.96017928
_cell_angle_beta   90.00000000
_cell_angle_gamma   90.00000000
_symmetry_Int_Tables_number   1
_chemical_formula_structural   Ca3Ti(FeO4)2
_chemical_formula_sum   'Ca6 Ti2 Fe4 O16'
_cell_volume   347.77130837
_cell_formula_units_Z   2
loop_
 _symmetry_equiv_pos_site_id
 _symmetry_equiv_pos_as_xyz
  1  'x, y, z'
loop_
 _atom_site_type_symbol
 _atom_site_label
 _atom_site_symmetry_multiplicity
 _atom_site_fract_x
 _atom_site_fract_y
 _atom_site_fract_z
 _atom_site_occupancy
  Ca  Ca0  1  0.96810500  0.22628600  0.81295300  1
  Ca  Ca1  1  0.96834000  0.22711800  0.18654500  1
  Ca  Ca2  1  0.46810500  0.77371400  0.18704700  1
  Ca  Ca3  1  0.46834000  0.77288200  0.81345500  1
  Ca  Ca4  1  0.01955900  0.23009400  0.49983800  1
  Ca  Ca5  1  0.51955900  0.76990600  0.50016200  1
  Ti  Ti6  1  0.49645800  0.26537700  0.33706900  1
  Ti  Ti7  1  0.99645800  0.73462300  0.66293100  1
  Fe  Fe8  1  0.44409000  0.31261100  0.00093800  1
  Fe  Fe9  1  0.94409000  0.68738900  0.99906200  1
  Fe  Fe10  1  0.49668300  0.25606800  0.67141900  1
  Fe  Fe11  1  0.99668300  0.74393200  0.32858100  1
  O  O12  1  0.26871200  0.97590300  0.64632600  1
  O  O13  1  0.27534800  0.98221500  0.35363200  1
  O  O14  1  0.76871200  0.02409700  0.35367400  1
  O  O15  1  0.77534800  0.01778500  0.64636800  1
  O  O16  1  0.22398900  0.48164800  0.70287900  1
  O  O17  1  0.22985700  0.47118800  0.29781500  1
  O  O18  1  0.72398900  0.51835200  0.29712100  1
  O  O19  1  0.72985700  0.52881200  0.70218500  1
  O  O20  1  0.09236400  0.36914700  0.99969700  1
  O  O21  1  0.59236400  0.63085300  0.00030300  1
  O  O22  1  0.53151000  0.17361400  0.85558200  1
  O  O23  1  0.52890700  0.17376200  0.14540100  1
  O  O24  1  0.03151000  0.82638600  0.14441800  1
  O  O25  1  0.02890700  0.82623800  0.85459900  1
  O  O26  1  0.48807800  0.33851800  0.49775200  1
  O  O27  1  0.98807800  0.66148200  0.50224800  1
