# generated using pymatgen
data_Ca4La2Zr4O15
_symmetry_space_group_name_H-M   'P 1'
_cell_length_a   12.76660150
_cell_length_b   12.76660150
_cell_length_c   12.76660197
_cell_angle_alpha   27.06449384
_cell_angle_beta   27.06449384
_cell_angle_gamma   27.06449231
_symmetry_Int_Tables_number   1
_chemical_formula_structural   Ca4La2Zr4O15
_chemical_formula_sum   'Ca4 La2 Zr4 O15'
_cell_volume   379.97919683
_cell_formula_units_Z   1
loop_
 _symmetry_equiv_pos_site_id
 _symmetry_equiv_pos_as_xyz
  1  'x, y, z'
loop_
 _atom_site_type_symbol
 _atom_site_label
 _atom_site_symmetry_multiplicity
 _atom_site_fract_x
 _atom_site_fract_y
 _atom_site_fract_z
 _atom_site_occupancy
  Ca  Ca0  1  0.61500700  0.61500700  0.61500700  1
  Ca  Ca1  1  0.00000000  0.00000000  0.00000000  1
  Ca  Ca2  1  0.38499300  0.38499300  0.38499300  1
  Ca  Ca3  1  0.50000000  0.50000000  0.50000000  1
  La  La4  1  0.81478100  0.81478100  0.81478100  1
  La  La5  1  0.18521900  0.18521900  0.18521900  1
  Zr  Zr6  1  0.90269800  0.90269800  0.90269800  1
  Zr  Zr7  1  0.29785700  0.29785700  0.29785700  1
  Zr  Zr8  1  0.70214300  0.70214300  0.70214300  1
  Zr  Zr9  1  0.09730200  0.09730200  0.09730200  1
  O  O10  1  0.71518800  0.16231200  0.71518800  1
  O  O11  1  0.28481200  0.83768800  0.28481200  1
  O  O12  1  0.90126300  0.38665000  0.90126300  1
  O  O13  1  0.09873700  0.61335000  0.09873700  1
  O  O14  1  0.50000000  0.00000000  0.50000000  1
  O  O15  1  0.28481200  0.28481200  0.83768800  1
  O  O16  1  0.90126300  0.90126300  0.38665000  1
  O  O17  1  0.50000000  0.50000000  0.00000000  1
  O  O18  1  0.71518800  0.71518800  0.16231200  1
  O  O19  1  0.09873700  0.09873700  0.61335000  1
  O  O20  1  0.16231200  0.71518800  0.71518800  1
  O  O21  1  0.83768800  0.28481200  0.28481200  1
  O  O22  1  0.38665000  0.90126300  0.90126300  1
  O  O23  1  0.61335000  0.09873700  0.09873700  1
  O  O24  1  0.00000000  0.50000000  0.50000000  1
