# generated using pymatgen
data_BaSrLa4O8
_symmetry_space_group_name_H-M   'P 1'
_cell_length_a   3.67771900
_cell_length_b   10.61986000
_cell_length_c   12.60890200
_cell_angle_alpha   90.00000000
_cell_angle_beta   90.00000000
_cell_angle_gamma   90.00000000
_symmetry_Int_Tables_number   1
_chemical_formula_structural   BaSrLa4O8
_chemical_formula_sum   'Ba2 Sr2 La8 O16'
_cell_volume   492.46413151
_cell_formula_units_Z   2
loop_
 _symmetry_equiv_pos_site_id
 _symmetry_equiv_pos_as_xyz
  1  'x, y, z'
loop_
 _atom_site_type_symbol
 _atom_site_label
 _atom_site_symmetry_multiplicity
 _atom_site_fract_x
 _atom_site_fract_y
 _atom_site_fract_z
 _atom_site_occupancy
  Ba  Ba0  1  0.50000000  0.75184200  0.60416000  1
  Ba  Ba1  1  0.50000000  0.25184200  0.39584000  1
  Sr  Sr2  1  0.00000000  0.24835800  0.89740300  1
  Sr  Sr3  1  0.00000000  0.74835800  0.10259700  1
  La  La4  1  0.50000000  0.08668700  0.64091400  1
  La  La5  1  0.50000000  0.58668700  0.35908600  1
  La  La6  1  0.00000000  0.91633700  0.86414900  1
  La  La7  1  0.00000000  0.41633700  0.13585100  1
  La  La8  1  0.50000000  0.07193100  0.13216500  1
  La  La9  1  0.50000000  0.57193100  0.86783500  1
  La  La10  1  0.00000000  0.92558100  0.36270200  1
  La  La11  1  0.00000000  0.42558100  0.63729800  1
  O  O12  1  0.50000000  0.98700000  0.46714700  1
  O  O13  1  0.50000000  0.48700000  0.53285300  1
  O  O14  1  0.00000000  0.01160900  0.03135600  1
  O  O15  1  0.00000000  0.51160900  0.96864400  1
  O  O16  1  0.50000000  0.28418400  0.06030900  1
  O  O17  1  0.50000000  0.78418400  0.93969100  1
  O  O18  1  0.00000000  0.71544600  0.43095800  1
  O  O19  1  0.00000000  0.21544600  0.56904200  1
  O  O20  1  0.50000000  0.07323900  0.83098400  1
  O  O21  1  0.50000000  0.57323900  0.16901600  1
  O  O22  1  0.00000000  0.93436000  0.67535200  1
  O  O23  1  0.00000000  0.43436000  0.32464800  1
  O  O24  1  0.50000000  0.36588800  0.77066400  1
  O  O25  1  0.50000000  0.86588800  0.22933600  1
  O  O26  1  0.00000000  0.62753500  0.73612300  1
  O  O27  1  0.00000000  0.12753500  0.26387700  1
