# generated using pymatgen
data_BaTi2Fe4O11
_symmetry_space_group_name_H-M   'P 1'
_cell_length_a   5.93164051
_cell_length_b   5.93164051
_cell_length_c   13.61170017
_cell_angle_alpha   89.90341582
_cell_angle_beta   89.90341582
_cell_angle_gamma   119.91800939
_symmetry_Int_Tables_number   1
_chemical_formula_structural   BaTi2Fe4O11
_chemical_formula_sum   'Ba2 Ti4 Fe8 O22'
_cell_volume   415.09586458
_cell_formula_units_Z   2
loop_
 _symmetry_equiv_pos_site_id
 _symmetry_equiv_pos_as_xyz
  1  'x, y, z'
loop_
 _atom_site_type_symbol
 _atom_site_label
 _atom_site_symmetry_multiplicity
 _atom_site_fract_x
 _atom_site_fract_y
 _atom_site_fract_z
 _atom_site_occupancy
  Ba  Ba0  1  0.66687200  0.33312800  0.75000000  1
  Ba  Ba1  1  0.33312800  0.66687200  0.25000000  1
  Ti  Ti2  1  0.50000000  0.50000000  0.00000000  1
  Ti  Ti3  1  0.00000000  0.50000000  0.00000000  1
  Ti  Ti4  1  0.50000000  0.50000000  0.50000000  1
  Ti  Ti5  1  0.50000000  0.00000000  0.50000000  1
  Fe  Fe6  1  0.66646800  0.33353200  0.25000000  1
  Fe  Fe7  1  0.33353200  0.66646800  0.75000000  1
  Fe  Fe8  1  0.00167100  0.00332200  0.85397700  1
  Fe  Fe9  1  0.99832900  0.99667800  0.14602300  1
  Fe  Fe10  1  0.00332200  0.00167100  0.35397700  1
  Fe  Fe11  1  0.99667800  0.99832900  0.64602300  1
  Fe  Fe12  1  0.50000000  0.00000000  0.00000000  1
  Fe  Fe13  1  0.00000000  0.50000000  0.50000000  1
  O  O14  1  0.65645700  0.32809600  0.41920400  1
  O  O15  1  0.34354300  0.67190400  0.58079600  1
  O  O16  1  0.32809600  0.65645700  0.91920400  1
  O  O17  1  0.67190400  0.34354300  0.08079600  1
  O  O18  1  0.15005900  0.84994100  0.75000000  1
  O  O19  1  0.70041500  0.85003200  0.75148300  1
  O  O20  1  0.14996800  0.29958500  0.74851700  1
  O  O21  1  0.84994100  0.15005900  0.25000000  1
  O  O22  1  0.29958500  0.14996800  0.24851700  1
  O  O23  1  0.85003200  0.70041500  0.25148300  1
  O  O24  1  0.83330300  0.18259900  0.92221500  1
  O  O25  1  0.34920200  0.18244500  0.92220300  1
  O  O26  1  0.82546300  0.65081700  0.92241000  1
  O  O27  1  0.16669700  0.81740100  0.07778500  1
  O  O28  1  0.65079800  0.81755500  0.07779700  1
  O  O29  1  0.17453700  0.34918300  0.07759000  1
  O  O30  1  0.18259900  0.83330300  0.42221500  1
  O  O31  1  0.65081700  0.82546300  0.42241000  1
  O  O32  1  0.18244500  0.34920200  0.42220300  1
  O  O33  1  0.81740100  0.16669700  0.57778500  1
  O  O34  1  0.34918300  0.17453700  0.57759000  1
  O  O35  1  0.81755500  0.65079800  0.57779700  1
