# generated using pymatgen
data_BaSrV4(CuO4)4
_symmetry_space_group_name_H-M   'P 1'
_cell_length_a   9.99592601
_cell_length_b   9.99592601
_cell_length_c   9.99592601
_cell_angle_alpha   99.60569267
_cell_angle_beta   99.60569267
_cell_angle_gamma   131.77956740
_symmetry_Int_Tables_number   1
_chemical_formula_structural   BaSrV4(CuO4)4
_chemical_formula_sum   'Ba2 Sr2 V8 Cu8 O32'
_cell_volume   679.82704035
_cell_formula_units_Z   2
loop_
 _symmetry_equiv_pos_site_id
 _symmetry_equiv_pos_as_xyz
  1  'x, y, z'
loop_
 _atom_site_type_symbol
 _atom_site_label
 _atom_site_symmetry_multiplicity
 _atom_site_fract_x
 _atom_site_fract_y
 _atom_site_fract_z
 _atom_site_occupancy
  Ba  Ba0  1  0.50000000  0.50000000  0.00000000  1
  Ba  Ba1  1  0.75000000  0.25000000  0.50000000  1
  Sr  Sr2  1  0.00000000  0.00000000  0.00000000  1
  Sr  Sr3  1  0.25000000  0.75000000  0.50000000  1
  V  V4  1  0.12500000  0.31946200  0.69446200  1
  V  V5  1  0.62500000  0.43053800  0.30553800  1
  V  V6  1  0.68053800  0.37500000  0.80553800  1
  V  V7  1  0.56946200  0.87500000  0.19446200  1
  V  V8  1  0.12500000  0.77966500  0.15466500  1
  V  V9  1  0.62500000  0.97033500  0.84533500  1
  V  V10  1  0.22033500  0.37500000  0.34533500  1
  V  V11  1  0.02966500  0.87500000  0.65466500  1
  Cu  Cu12  1  0.91900500  0.90340300  0.33301400  1
  Cu  Cu13  1  0.67961100  0.84659700  0.51560200  1
  Cu  Cu14  1  0.57038900  0.58599000  0.66698600  1
  Cu  Cu15  1  0.33099500  0.16401000  0.48439800  1
  Cu  Cu16  1  0.09659700  0.42961100  0.01560200  1
  Cu  Cu17  1  0.83599000  0.32038900  0.16698600  1
  Cu  Cu18  1  0.41401000  0.08099500  0.98439800  1
  Cu  Cu19  1  0.15340300  0.66900500  0.83301400  1
  O  O20  1  0.81984600  0.45740000  0.31980800  1
  O  O21  1  0.11240800  0.29260000  0.86244600  1
  O  O22  1  0.13759200  0.50003900  0.68019200  1
  O  O23  1  0.43015400  0.24996100  0.13755400  1
  O  O24  1  0.54260000  0.86240800  0.36244600  1
  O  O25  1  0.75003900  0.88759200  0.18019200  1
  O  O26  1  0.49996100  0.18015400  0.63755400  1
  O  O27  1  0.70740000  0.56984600  0.81980800  1
  O  O28  1  0.63036600  0.80595100  0.85995000  1
  O  O29  1  0.30399900  0.94404900  0.32441500  1
  O  O30  1  0.94600100  0.77041700  0.14005000  1
  O  O31  1  0.61963400  0.97958300  0.67558500  1
  O  O32  1  0.19404900  0.05399900  0.82441500  1
  O  O33  1  0.02041700  0.69600100  0.64005000  1
  O  O34  1  0.22958300  0.36963400  0.17558500  1
  O  O35  1  0.05595100  0.38036600  0.35995000  1
  O  O36  1  0.62272700  0.30749300  0.95309900  1
  O  O37  1  0.89560600  0.44250700  0.81523400  1
  O  O38  1  0.35439400  0.66962800  0.04690100  1
  O  O39  1  0.62727300  0.08037200  0.18476600  1
  O  O40  1  0.69250700  0.64560600  0.31523400  1
  O  O41  1  0.91962800  0.10439400  0.54690100  1
  O  O42  1  0.33037200  0.37727300  0.68476600  1
  O  O43  1  0.55749300  0.37272700  0.45309900  1
  O  O44  1  0.09705000  0.94562800  0.50484300  1
  O  O45  1  0.80921500  0.80437200  0.65142300  1
  O  O46  1  0.44078500  0.59220700  0.49515700  1
  O  O47  1  0.15295000  0.15779300  0.34857700  1
  O  O48  1  0.05437200  0.55921500  0.15142300  1
  O  O49  1  0.84220700  0.19078500  0.99515700  1
  O  O50  1  0.40779300  0.90295000  0.84857700  1
  O  O51  1  0.19562800  0.84705000  0.00484300  1
