# generated using pymatgen
data_Ca3MgFe2(CO3)6
_symmetry_space_group_name_H-M   'P 1'
_cell_length_a   4.89479987
_cell_length_b   4.89479987
_cell_length_c   16.20628900
_cell_angle_alpha   90.00000000
_cell_angle_beta   90.00000000
_cell_angle_gamma   119.99999829
_symmetry_Int_Tables_number   1
_chemical_formula_structural   Ca3MgFe2(CO3)6
_chemical_formula_sum   'Ca3 Mg1 Fe2 C6 O18'
_cell_volume   336.26688332
_cell_formula_units_Z   1
loop_
 _symmetry_equiv_pos_site_id
 _symmetry_equiv_pos_as_xyz
  1  'x, y, z'
loop_
 _atom_site_type_symbol
 _atom_site_label
 _atom_site_symmetry_multiplicity
 _atom_site_fract_x
 _atom_site_fract_y
 _atom_site_fract_z
 _atom_site_occupancy
  Ca  Ca0  1  0.00000000  0.00000000  0.50000000  1
  Ca  Ca1  1  0.66666700  0.33333300  0.83352900  1
  Ca  Ca2  1  0.33333300  0.66666700  0.16647100  1
  Mg  Mg3  1  0.00000000  0.00000000  0.00000000  1
  Fe  Fe4  1  0.66666700  0.33333300  0.33334700  1
  Fe  Fe5  1  0.33333300  0.66666700  0.66665300  1
  C  C6  1  0.66666700  0.33333300  0.58960500  1
  C  C7  1  0.33333300  0.66666700  0.92333300  1
  C  C8  1  0.00000000  0.00000000  0.25627800  1
  C  C9  1  0.00000000  0.00000000  0.74372200  1
  C  C10  1  0.66666700  0.33333300  0.07666700  1
  C  C11  1  0.33333300  0.66666700  0.41039500  1
  O  O12  1  0.61328600  0.91505500  0.92242700  1
  O  O13  1  0.27756100  0.25137000  0.25509500  1
  O  O14  1  0.94427500  0.58460500  0.58841900  1
  O  O15  1  0.30176900  0.38671400  0.92242700  1
  O  O16  1  0.97380900  0.72243900  0.25509500  1
  O  O17  1  0.64033000  0.05572500  0.58841900  1
  O  O18  1  0.08494500  0.69823100  0.92242700  1
  O  O19  1  0.74863000  0.02619100  0.25509500  1
  O  O20  1  0.41539500  0.35967000  0.58841900  1
  O  O21  1  0.38671400  0.08494500  0.07757300  1
  O  O22  1  0.05572500  0.41539500  0.41158100  1
  O  O23  1  0.72243900  0.74863000  0.74490500  1
  O  O24  1  0.69823100  0.61328600  0.07757300  1
  O  O25  1  0.35967000  0.94427500  0.41158100  1
  O  O26  1  0.02619100  0.27756100  0.74490500  1
  O  O27  1  0.91505500  0.30176900  0.07757300  1
  O  O28  1  0.58460500  0.64033000  0.41158100  1
  O  O29  1  0.25137000  0.97380900  0.74490500  1
