# generated using pymatgen
data_CeBi2(Rh2O5)3
_symmetry_space_group_name_H-M   'P 1'
_cell_length_a   30.20491200
_cell_length_b   5.21499000
_cell_length_c   7.24494895
_cell_angle_alpha   89.92658653
_cell_angle_beta   90.00000000
_cell_angle_gamma   90.00000000
_symmetry_Int_Tables_number   1
_chemical_formula_structural   CeBi2(Rh2O5)3
_chemical_formula_sum   'Ce4 Bi8 Rh24 O60'
_cell_volume   1141.21120661
_cell_formula_units_Z   4
loop_
 _symmetry_equiv_pos_site_id
 _symmetry_equiv_pos_as_xyz
  1  'x, y, z'
loop_
 _atom_site_type_symbol
 _atom_site_label
 _atom_site_symmetry_multiplicity
 _atom_site_fract_x
 _atom_site_fract_y
 _atom_site_fract_z
 _atom_site_occupancy
  Ce  Ce0  1  0.00000000  0.70643000  0.75873800  1
  Ce  Ce1  1  0.66661800  0.70613400  0.75996300  1
  Ce  Ce2  1  0.33338200  0.70613400  0.75996300  1
  Ce  Ce3  1  0.00000000  0.79317400  0.25859900  1
  Bi  Bi4  1  0.66665000  0.78317700  0.25965000  1
  Bi  Bi5  1  0.33335000  0.78317700  0.25965000  1
  Bi  Bi6  1  0.16663400  0.28438500  0.24036500  1
  Bi  Bi7  1  0.83336600  0.28438500  0.24036500  1
  Bi  Bi8  1  0.50000000  0.28466600  0.24051700  1
  Bi  Bi9  1  0.16673700  0.21768000  0.74061600  1
  Bi  Bi10  1  0.83326300  0.21768000  0.74061600  1
  Bi  Bi11  1  0.50000000  0.21778900  0.74076700  1
  Rh  Rh12  1  0.10265600  0.75104700  0.91895800  1
  Rh  Rh13  1  0.76942900  0.75120200  0.91927600  1
  Rh  Rh14  1  0.43610800  0.75100700  0.91937100  1
  Rh  Rh15  1  0.22980300  0.74993400  0.42057500  1
  Rh  Rh16  1  0.89718600  0.74965900  0.41949200  1
  Rh  Rh17  1  0.56316600  0.75028800  0.42067600  1
  Rh  Rh18  1  0.93701900  0.24972900  0.08064500  1
  Rh  Rh19  1  0.60328500  0.24889300  0.08043400  1
  Rh  Rh20  1  0.26993700  0.24908300  0.08041800  1
  Rh  Rh21  1  0.06295900  0.25015100  0.58083000  1
  Rh  Rh22  1  0.72955700  0.24903600  0.57961400  1
  Rh  Rh23  1  0.39621900  0.24910500  0.57960800  1
  Rh  Rh24  1  0.06298100  0.24972900  0.08064500  1
  Rh  Rh25  1  0.73006300  0.24908300  0.08041800  1
  Rh  Rh26  1  0.39671500  0.24889300  0.08043400  1
  Rh  Rh27  1  0.93704100  0.25015100  0.58083000  1
  Rh  Rh28  1  0.60378100  0.24910500  0.57960800  1
  Rh  Rh29  1  0.27044300  0.24903600  0.57961400  1
  Rh  Rh30  1  0.23057100  0.75120200  0.91927600  1
  Rh  Rh31  1  0.89734400  0.75104700  0.91895800  1
  Rh  Rh32  1  0.56389200  0.75100700  0.91937100  1
  Rh  Rh33  1  0.10281400  0.74965900  0.41949200  1
  Rh  Rh34  1  0.77019700  0.74993400  0.42057500  1
  Rh  Rh35  1  0.43683400  0.75028800  0.42067600  1
  O  O36  1  0.10050400  0.56517300  0.16685400  1
  O  O37  1  0.76666600  0.56680300  0.16740200  1
  O  O38  1  0.43335200  0.56652500  0.16735300  1
  O  O39  1  0.23273500  0.93309900  0.66727900  1
  O  O40  1  0.89953200  0.93437400  0.66679400  1
  O  O41  1  0.56608900  0.93328700  0.66735500  1
  O  O42  1  0.93560200  0.43701100  0.83179700  1
  O  O43  1  0.60202100  0.43615400  0.83172800  1
  O  O44  1  0.26873900  0.43641600  0.83160200  1
  O  O45  1  0.06433900  0.06286700  0.33196900  1
  O  O46  1  0.73284200  0.06614900  0.33217400  1
  O  O47  1  0.39950400  0.06612300  0.33221600  1
  O  O48  1  0.06439800  0.43701100  0.83179700  1
  O  O49  1  0.73126100  0.43641600  0.83160200  1
  O  O50  1  0.39797900  0.43615400  0.83172800  1
  O  O51  1  0.93566100  0.06286700  0.33196900  1
  O  O52  1  0.60049600  0.06612300  0.33221600  1
  O  O53  1  0.26715800  0.06614900  0.33217400  1
  O  O54  1  0.23333400  0.56680300  0.16740200  1
  O  O55  1  0.89949600  0.56517300  0.16685400  1
  O  O56  1  0.56664800  0.56652500  0.16735300  1
  O  O57  1  0.10046800  0.93437400  0.66679400  1
  O  O58  1  0.76726500  0.93309900  0.66727900  1
  O  O59  1  0.43391100  0.93328700  0.66735500  1
  O  O60  1  0.12244400  0.09586500  0.01743100  1
  O  O61  1  0.78935500  0.09567000  0.01739700  1
  O  O62  1  0.45599600  0.09564100  0.01755900  1
  O  O63  1  0.21085500  0.40261700  0.51869700  1
  O  O64  1  0.87751300  0.40363200  0.51794800  1
  O  O65  1  0.54414100  0.40269100  0.51857400  1
  O  O66  1  0.95759000  0.90237400  0.98187500  1
  O  O67  1  0.62351100  0.90659300  0.97779500  1
  O  O68  1  0.29020800  0.90665300  0.97785500  1
  O  O69  1  0.04248300  0.59767200  0.48215300  1
  O  O70  1  0.71011600  0.60029700  0.48494500  1
  O  O71  1  0.37680300  0.60014600  0.48491200  1
  O  O72  1  0.04241000  0.90237400  0.98187500  1
  O  O73  1  0.70979200  0.90665300  0.97785500  1
  O  O74  1  0.37648900  0.90659300  0.97779500  1
  O  O75  1  0.95751700  0.59767200  0.48215300  1
  O  O76  1  0.62319700  0.60014600  0.48491200  1
  O  O77  1  0.28988400  0.60029700  0.48494500  1
  O  O78  1  0.21064500  0.09567000  0.01739700  1
  O  O79  1  0.87755600  0.09586500  0.01743100  1
  O  O80  1  0.54400400  0.09564100  0.01755900  1
  O  O81  1  0.12248700  0.40363200  0.51794800  1
  O  O82  1  0.78914500  0.40261700  0.51869700  1
  O  O83  1  0.45585900  0.40269100  0.51857400  1
  O  O84  1  0.16654300  0.59987800  0.88317000  1
  O  O85  1  0.83345700  0.59987800  0.88317000  1
  O  O86  1  0.50000000  0.59978500  0.88332200  1
  O  O87  1  0.16636600  0.89892500  0.38159400  1
  O  O88  1  0.83363400  0.89892500  0.38159400  1
  O  O89  1  0.50000000  0.89857100  0.38049800  1
  O  O90  1  0.00000000  0.41583100  0.12194200  1
  O  O91  1  0.66665900  0.40570000  0.11558700  1
  O  O92  1  0.33334100  0.40570000  0.11558700  1
  O  O93  1  0.00000000  0.08388000  0.62184500  1
  O  O94  1  0.66666500  0.09109100  0.62438000  1
  O  O95  1  0.33333500  0.09109100  0.62438000  1
