# generated using pymatgen
data_La2TeMo6O35
_symmetry_space_group_name_H-M   'P 1'
_cell_length_a   13.72438700
_cell_length_b   10.42989700
_cell_length_c   10.47931715
_cell_angle_alpha   77.96473560
_cell_angle_beta   90.00000000
_cell_angle_gamma   90.00000000
_symmetry_Int_Tables_number   1
_chemical_formula_structural   La2TeMo6O35
_chemical_formula_sum   'La4 Te2 Mo12 O70'
_cell_volume   1467.07883428
_cell_formula_units_Z   2
loop_
 _symmetry_equiv_pos_site_id
 _symmetry_equiv_pos_as_xyz
  1  'x, y, z'
loop_
 _atom_site_type_symbol
 _atom_site_label
 _atom_site_symmetry_multiplicity
 _atom_site_fract_x
 _atom_site_fract_y
 _atom_site_fract_z
 _atom_site_occupancy
  La  La0  1  0.81301500  0.71041700  0.68787700  1
  La  La1  1  0.68839300  0.21956600  0.17774000  1
  La  La2  1  0.18839300  0.78043400  0.82226000  1
  La  La3  1  0.31301500  0.28958300  0.31212300  1
  Te  Te4  1  0.99556400  0.24844900  0.75339400  1
  Te  Te5  1  0.49556400  0.75155100  0.24660600  1
  Mo  Mo6  1  0.00112200  0.47338200  0.93460200  1
  Mo  Mo7  1  0.50151500  0.97594100  0.42405900  1
  Mo  Mo8  1  0.00151500  0.02405900  0.57594100  1
  Mo  Mo9  1  0.50112200  0.52661800  0.06539800  1
  Mo  Mo10  1  0.97064600  0.93644100  0.89763500  1
  Mo  Mo11  1  0.52991900  0.44163800  0.38651000  1
  Mo  Mo12  1  0.02991900  0.55836200  0.61349000  1
  Mo  Mo13  1  0.47064600  0.06355900  0.10236500  1
  Mo  Mo14  1  0.97082000  0.16013300  0.07994300  1
  Mo  Mo15  1  0.53087500  0.66521700  0.56825300  1
  Mo  Mo16  1  0.03087500  0.33478300  0.43174700  1
  Mo  Mo17  1  0.47082000  0.83986700  0.92005700  1
  O  O18  1  0.88344800  0.82587700  0.85699900  1
  O  O19  1  0.61853900  0.33484800  0.34157300  1
  O  O20  1  0.11853900  0.66515200  0.65842700  1
  O  O21  1  0.38344800  0.17412300  0.14300100  1
  O  O22  1  0.73197000  0.06997400  0.66019700  1
  O  O23  1  0.76849700  0.56586400  0.17560200  1
  O  O24  1  0.26849700  0.43413600  0.82439800  1
  O  O25  1  0.23197000  0.93002600  0.33980300  1
  O  O26  1  0.90461600  0.52014400  0.02503100  1
  O  O27  1  0.59799900  0.02637600  0.50945000  1
  O  O28  1  0.09799900  0.97362400  0.49055000  1
  O  O29  1  0.40461600  0.47985600  0.97496900  1
  O  O30  1  0.91199000  0.30311900  0.88545800  1
  O  O31  1  0.58175300  0.80494700  0.37250600  1
  O  O32  1  0.08175300  0.19505300  0.62749400  1
  O  O33  1  0.41199000  0.69688100  0.11454200  1
  O  O34  1  0.86332300  0.20502800  0.15860600  1
  O  O35  1  0.63979300  0.70845200  0.64565900  1
  O  O36  1  0.13979300  0.29154800  0.35434100  1
  O  O37  1  0.36332300  0.79497200  0.84139400  1
  O  O38  1  0.04216200  0.06812900  0.19840300  1
  O  O39  1  0.46045800  0.57323300  0.68806300  1
  O  O40  1  0.96045800  0.42676700  0.31193700  1
  O  O41  1  0.54216200  0.93187100  0.80159700  1
  O  O42  1  0.94155400  0.56558800  0.76886500  1
  O  O43  1  0.56173300  0.06692800  0.25377700  1
  O  O44  1  0.06173300  0.93307200  0.74622300  1
  O  O45  1  0.44155400  0.43441200  0.23113500  1
  O  O46  1  0.91905300  0.09380000  0.73772400  1
  O  O47  1  0.57630400  0.60155500  0.22396900  1
  O  O48  1  0.07630400  0.39844500  0.77603100  1
  O  O49  1  0.41905300  0.90620000  0.26227600  1
  O  O50  1  0.76307200  0.47451000  0.68972700  1
  O  O51  1  0.73510500  0.99679400  0.10014800  1
  O  O52  1  0.23510500  0.00320600  0.89985200  1
  O  O53  1  0.26307200  0.52549000  0.31027300  1
  O  O54  1  0.76823200  0.57178000  0.93491400  1
  O  O55  1  0.73888600  0.09596800  0.42097900  1
  O  O56  1  0.23888600  0.90403200  0.57902100  1
  O  O57  1  0.26823200  0.42822000  0.06508600  1
  O  O58  1  0.79338300  0.81854800  0.36047300  1
  O  O59  1  0.75292200  0.38536100  0.88398400  1
  O  O60  1  0.25292200  0.61463900  0.11601600  1
  O  O61  1  0.29338300  0.18145200  0.63952700  1
  O  O62  1  0.90053500  0.01439300  0.01930300  1
  O  O63  1  0.59757000  0.51927800  0.50594600  1
  O  O64  1  0.09757000  0.48072200  0.49405400  1
  O  O65  1  0.40053500  0.98560700  0.98069700  1
  O  O66  1  0.04662600  0.32198300  0.05573700  1
  O  O67  1  0.45537300  0.82695100  0.54870800  1
  O  O68  1  0.95537300  0.17304900  0.45129200  1
  O  O69  1  0.54662600  0.67801700  0.94426300  1
  O  O70  1  0.06383200  0.84222200  0.98983500  1
  O  O71  1  0.43756400  0.34383900  0.47581500  1
  O  O72  1  0.93756400  0.65616100  0.52418500  1
  O  O73  1  0.56383200  0.15777800  0.01016500  1
  O  O74  1  0.94273500  0.37239300  0.60254600  1
  O  O75  1  0.55087500  0.87247100  0.09196000  1
  O  O76  1  0.05087500  0.12752900  0.90804000  1
  O  O77  1  0.44273500  0.62760700  0.39745400  1
  O  O78  1  0.09739600  0.58700400  0.93682800  1
  O  O79  1  0.40549700  0.09094500  0.42229200  1
  O  O80  1  0.90549700  0.90905500  0.57770800  1
  O  O81  1  0.59739600  0.41299600  0.06317200  1
  O  O82  1  0.74875900  0.64130100  0.07307600  1
  O  O83  1  0.75333500  0.15218300  0.56243300  1
  O  O84  1  0.25333500  0.84781700  0.43756700  1
  O  O85  1  0.24875900  0.35869900  0.92692400  1
  O  O86  1  0.85124300  0.79341100  0.27914000  1
  O  O87  1  0.35124300  0.20658900  0.72086000  1
