# generated using pymatgen
data_BaLaTiCrO6
_symmetry_space_group_name_H-M   'P 1'
_cell_length_a   7.96480100
_cell_length_b   9.75484877
_cell_length_c   7.96480100
_cell_angle_alpha   65.90515959
_cell_angle_beta   90.00000000
_cell_angle_gamma   65.90515959
_symmetry_Int_Tables_number   1
_chemical_formula_structural   BaLaTiCrO6
_chemical_formula_sum   'Ba4 La4 Ti4 Cr4 O24'
_cell_volume   505.27148366
_cell_formula_units_Z   4
loop_
 _symmetry_equiv_pos_site_id
 _symmetry_equiv_pos_as_xyz
  1  'x, y, z'
loop_
 _atom_site_type_symbol
 _atom_site_label
 _atom_site_symmetry_multiplicity
 _atom_site_fract_x
 _atom_site_fract_y
 _atom_site_fract_z
 _atom_site_occupancy
  Ba  Ba0  1  0.25000000  0.50000000  0.75000000  1
  Ba  Ba1  1  0.50000000  0.00000000  0.50000000  1
  Ba  Ba2  1  0.75000000  0.50000000  0.25000000  1
  Ba  Ba3  1  0.00000000  0.00000000  0.00000000  1
  La  La4  1  0.75000000  0.50000000  0.75000000  1
  La  La5  1  0.00000000  0.00000000  0.50000000  1
  La  La6  1  0.25000000  0.50000000  0.25000000  1
  La  La7  1  0.50000000  0.00000000  0.00000000  1
  Ti  Ti8  1  0.37500000  0.75000000  0.37500000  1
  Ti  Ti9  1  0.62500000  0.25000000  0.12500000  1
  Ti  Ti10  1  0.87500000  0.75000000  0.87500000  1
  Ti  Ti11  1  0.12500000  0.25000000  0.62500000  1
  Cr  Cr12  1  0.12500000  0.25000000  0.12500000  1
  Cr  Cr13  1  0.37500000  0.75000000  0.87500000  1
  Cr  Cr14  1  0.87500000  0.75000000  0.37500000  1
  Cr  Cr15  1  0.62500000  0.25000000  0.62500000  1
  O  O16  1  0.62262500  0.75000000  0.37500000  1
  O  O17  1  0.87262500  0.25000000  0.12500000  1
  O  O18  1  0.12262500  0.75000000  0.87500000  1
  O  O19  1  0.37262500  0.25000000  0.62500000  1
  O  O20  1  0.12737500  0.75000000  0.37500000  1
  O  O21  1  0.37737500  0.25000000  0.12500000  1
  O  O22  1  0.62737500  0.75000000  0.87500000  1
  O  O23  1  0.87737500  0.25000000  0.62500000  1
  O  O24  1  0.37500000  0.75000000  0.12737500  1
  O  O25  1  0.62500000  0.25000000  0.87737500  1
  O  O26  1  0.87500000  0.75000000  0.62737500  1
  O  O27  1  0.12500000  0.25000000  0.37737500  1
  O  O28  1  0.37500000  0.75000000  0.62262500  1
  O  O29  1  0.62500000  0.25000000  0.37262500  1
  O  O30  1  0.87500000  0.75000000  0.12262500  1
  O  O31  1  0.12500000  0.25000000  0.87262500  1
  O  O32  1  0.49881200  0.50237500  0.49881200  1
  O  O33  1  0.74881200  0.00237500  0.24881200  1
  O  O34  1  0.99881200  0.50237500  0.99881200  1
  O  O35  1  0.24881200  0.00237500  0.74881200  1
  O  O36  1  0.25118800  0.99762500  0.25118800  1
  O  O37  1  0.50118800  0.49762500  0.00118800  1
  O  O38  1  0.75118800  0.99762500  0.75118800  1
  O  O39  1  0.00118800  0.49762500  0.50118800  1
