# generated using pymatgen
data_CaU2(PO9)2
_symmetry_space_group_name_H-M   'P 1'
_cell_length_a   6.94240900
_cell_length_b   6.97538400
_cell_length_c   9.16140648
_cell_angle_alpha   89.46694819
_cell_angle_beta   90.00000000
_cell_angle_gamma   90.00000000
_symmetry_Int_Tables_number   1
_chemical_formula_structural   CaU2(PO9)2
_chemical_formula_sum   'Ca1 U2 P2 O18'
_cell_volume   443.63078315
_cell_formula_units_Z   1
loop_
 _symmetry_equiv_pos_site_id
 _symmetry_equiv_pos_as_xyz
  1  'x, y, z'
loop_
 _atom_site_type_symbol
 _atom_site_label
 _atom_site_symmetry_multiplicity
 _atom_site_fract_x
 _atom_site_fract_y
 _atom_site_fract_z
 _atom_site_occupancy
  Ca  Ca0  1  0.50000000  0.20173200  0.36237900  1
  U  U1  1  0.50000000  0.25470000  0.91398000  1
  U  U2  1  0.00000000  0.75465600  0.10625500  1
  P  P3  1  0.00000000  0.25515500  0.01290600  1
  P  P4  1  0.50000000  0.75573900  0.00572400  1
  O  O5  1  0.50000000  0.93824900  0.90320200  1
  O  O6  1  0.50000000  0.56848700  0.91144900  1
  O  O7  1  0.18514900  0.25594400  0.91383900  1
  O  O8  1  0.81485100  0.25594400  0.91383900  1
  O  O9  1  0.00000000  0.07855300  0.11283000  1
  O  O10  1  0.00000000  0.43203500  0.11069000  1
  O  O11  1  0.32337300  0.75834100  0.10544700  1
  O  O12  1  0.67662700  0.75834100  0.10544700  1
  O  O13  1  0.50000000  0.32352900  0.64504100  1
  O  O14  1  0.00000000  0.75638600  0.30681600  1
  O  O15  1  0.50000000  0.24783700  0.12275400  1
  O  O16  1  0.00000000  0.75488200  0.90803500  1
  O  O17  1  0.50000000  0.89350300  0.51562900  1
  O  O18  1  0.66865000  0.28220600  0.56875500  1
  O  O19  1  0.33135000  0.28220600  0.56875500  1
  O  O20  1  0.00000000  0.42540500  0.39756300  1
  O  O21  1  0.60580000  0.74408600  0.43833300  1
  O  O22  1  0.39420000  0.74408600  0.43833300  1
