# generated using pymatgen
data_CaLa2Mn3O9
_symmetry_space_group_name_H-M   'P 1'
_cell_length_a   5.56159400
_cell_length_b   9.56071200
_cell_length_c   13.53921812
_cell_angle_alpha   89.90121192
_cell_angle_beta   90.00000000
_cell_angle_gamma   90.00000000
_symmetry_Int_Tables_number   1
_chemical_formula_structural   CaLa2Mn3O9
_chemical_formula_sum   'Ca4 La8 Mn12 O36'
_cell_volume   719.91704704
_cell_formula_units_Z   4
loop_
 _symmetry_equiv_pos_site_id
 _symmetry_equiv_pos_as_xyz
  1  'x, y, z'
loop_
 _atom_site_type_symbol
 _atom_site_label
 _atom_site_symmetry_multiplicity
 _atom_site_fract_x
 _atom_site_fract_y
 _atom_site_fract_z
 _atom_site_occupancy
  Ca  Ca0  1  0.03651800  0.50095300  0.74963700  1
  Ca  Ca1  1  0.53651800  0.99904700  0.25036300  1
  Ca  Ca2  1  0.96348200  0.49904700  0.25036300  1
  Ca  Ca3  1  0.46348200  0.00095300  0.74963700  1
  La  La4  1  0.03607100  0.16386600  0.41055500  1
  La  La5  1  0.02696100  0.83177300  0.08599400  1
  La  La6  1  0.52696100  0.66822700  0.91400600  1
  La  La7  1  0.53607100  0.33613400  0.58944500  1
  La  La8  1  0.97303900  0.16822700  0.91400600  1
  La  La9  1  0.96392900  0.83613400  0.58944500  1
  La  La10  1  0.46392900  0.66386600  0.41055500  1
  La  La11  1  0.47303900  0.33177300  0.08599400  1
  Mn  Mn12  1  0.99741400  0.83360700  0.33350700  1
  Mn  Mn13  1  0.00000000  0.50000000  0.00000000  1
  Mn  Mn14  1  0.00258600  0.16639300  0.66649300  1
  Mn  Mn15  1  0.50000000  0.00000000  0.00000000  1
  Mn  Mn16  1  0.49741400  0.66639300  0.66649300  1
  Mn  Mn17  1  0.50258600  0.33360700  0.33350700  1
  Mn  Mn18  1  0.00130100  0.16785500  0.16763300  1
  Mn  Mn19  1  0.99869900  0.83214500  0.83236700  1
  Mn  Mn20  1  0.00000000  0.50000000  0.50000000  1
  Mn  Mn21  1  0.49869900  0.66785500  0.16763300  1
  Mn  Mn22  1  0.50130100  0.33214500  0.83236700  1
  Mn  Mn23  1  0.50000000  0.00000000  0.50000000  1
  O  O24  1  0.79359900  0.95046200  0.42257600  1
  O  O25  1  0.78204700  0.61809900  0.08221300  1
  O  O26  1  0.79419200  0.28859100  0.75067800  1
  O  O27  1  0.29419200  0.21140900  0.24932200  1
  O  O28  1  0.28204700  0.88190100  0.91778700  1
  O  O29  1  0.29359900  0.54953800  0.57742400  1
  O  O30  1  0.21413000  0.09471100  0.05811900  1
  O  O31  1  0.20956600  0.75432900  0.72826700  1
  O  O32  1  0.20621600  0.42935800  0.39066300  1
  O  O33  1  0.71413000  0.40528900  0.94188100  1
  O  O34  1  0.70621600  0.07064200  0.60933700  1
  O  O35  1  0.70956600  0.74567100  0.27173300  1
  O  O36  1  0.21795300  0.38190100  0.91778700  1
  O  O37  1  0.20640100  0.04953800  0.57742400  1
  O  O38  1  0.20580800  0.71140900  0.24932200  1
  O  O39  1  0.71795300  0.11809900  0.08221300  1
  O  O40  1  0.70580800  0.78859100  0.75067800  1
  O  O41  1  0.70640100  0.45046200  0.42257600  1
  O  O42  1  0.79043400  0.24567100  0.27173300  1
  O  O43  1  0.78587000  0.90528900  0.94188100  1
  O  O44  1  0.79378400  0.57064200  0.60933700  1
  O  O45  1  0.29378400  0.92935800  0.39066300  1
  O  O46  1  0.28587000  0.59471100  0.05811900  1
  O  O47  1  0.29043400  0.25432900  0.72826700  1
  O  O48  1  0.49192000  0.19051900  0.44081400  1
  O  O49  1  0.47997500  0.85630400  0.10552900  1
  O  O50  1  0.47896900  0.51897200  0.76954500  1
  O  O51  1  0.97896900  0.98102800  0.23045500  1
  O  O52  1  0.97997500  0.64369600  0.89447100  1
  O  O53  1  0.99192000  0.30948100  0.55918600  1
  O  O54  1  0.52002500  0.14369600  0.89447100  1
  O  O55  1  0.50808000  0.80948100  0.55918600  1
  O  O56  1  0.52103100  0.48102800  0.23045500  1
  O  O57  1  0.02002500  0.35630400  0.10552900  1
  O  O58  1  0.02103100  0.01897200  0.76954500  1
  O  O59  1  0.00808000  0.69051900  0.44081400  1
