# generated using pymatgen
data_Ca2YMn3O9
_symmetry_space_group_name_H-M   'P 1'
_cell_length_a   5.34881100
_cell_length_b   7.62226800
_cell_length_c   16.45852700
_cell_angle_alpha   90.00000000
_cell_angle_beta   90.00000000
_cell_angle_gamma   90.00000000
_symmetry_Int_Tables_number   1
_chemical_formula_structural   Ca2YMn3O9
_chemical_formula_sum   'Ca8 Y4 Mn12 O36'
_cell_volume   671.01531308
_cell_formula_units_Z   4
loop_
 _symmetry_equiv_pos_site_id
 _symmetry_equiv_pos_as_xyz
  1  'x, y, z'
loop_
 _atom_site_type_symbol
 _atom_site_label
 _atom_site_symmetry_multiplicity
 _atom_site_fract_x
 _atom_site_fract_y
 _atom_site_fract_z
 _atom_site_occupancy
  Ca  Ca0  1  0.01151900  0.75000000  0.98205200  1
  Ca  Ca1  1  0.01061400  0.75000000  0.31678800  1
  Ca  Ca2  1  0.48938600  0.75000000  0.81678800  1
  Ca  Ca3  1  0.48848100  0.75000000  0.48205200  1
  Ca  Ca4  1  0.98938600  0.25000000  0.68321200  1
  Ca  Ca5  1  0.98848100  0.25000000  0.01794800  1
  Ca  Ca6  1  0.51151900  0.25000000  0.51794800  1
  Ca  Ca7  1  0.51061400  0.25000000  0.18321200  1
  Y  Y8  1  0.01363600  0.75000000  0.64680000  1
  Y  Y9  1  0.48636400  0.75000000  0.14680000  1
  Y  Y10  1  0.98636400  0.25000000  0.35320000  1
  Y  Y11  1  0.51363600  0.25000000  0.85320000  1
  Mn  Mn12  1  0.00000000  0.50000000  0.50000000  1
  Mn  Mn13  1  0.00055900  0.50130000  0.83255200  1
  Mn  Mn14  1  0.99944100  0.49870000  0.16744800  1
  Mn  Mn15  1  0.50055900  0.00130000  0.66744800  1
  Mn  Mn16  1  0.50000000  0.00000000  0.00000000  1
  Mn  Mn17  1  0.49944100  0.99870000  0.33255200  1
  Mn  Mn18  1  0.00055900  0.99870000  0.83255200  1
  Mn  Mn19  1  0.99944100  0.00130000  0.16744800  1
  Mn  Mn20  1  0.00000000  0.00000000  0.50000000  1
  Mn  Mn21  1  0.50055900  0.49870000  0.66744800  1
  Mn  Mn22  1  0.50000000  0.50000000  0.00000000  1
  Mn  Mn23  1  0.49944100  0.50130000  0.33255200  1
  O  O24  1  0.19965100  0.54779400  0.73350900  1
  O  O25  1  0.20819500  0.55055100  0.07080900  1
  O  O26  1  0.19872100  0.53484100  0.40028900  1
  O  O27  1  0.29180500  0.94944900  0.57080900  1
  O  O28  1  0.30127900  0.96515900  0.90028900  1
  O  O29  1  0.30034900  0.95220600  0.23350900  1
  O  O30  1  0.80127900  0.03484100  0.59971100  1
  O  O31  1  0.79180500  0.05055100  0.92919100  1
  O  O32  1  0.80034900  0.04779400  0.26649100  1
  O  O33  1  0.69965100  0.45220600  0.76649100  1
  O  O34  1  0.69872100  0.46515900  0.09971100  1
  O  O35  1  0.70819500  0.44944900  0.42919100  1
  O  O36  1  0.80127900  0.46515900  0.59971100  1
  O  O37  1  0.79180500  0.44944900  0.92919100  1
  O  O38  1  0.80034900  0.45220600  0.26649100  1
  O  O39  1  0.69965100  0.04779400  0.76649100  1
  O  O40  1  0.69872100  0.03484100  0.09971100  1
  O  O41  1  0.70819500  0.05055100  0.42919100  1
  O  O42  1  0.19965100  0.95220600  0.73350900  1
  O  O43  1  0.20819500  0.94944900  0.07080900  1
  O  O44  1  0.19872100  0.96515900  0.40028900  1
  O  O45  1  0.29180500  0.55055100  0.57080900  1
  O  O46  1  0.30127900  0.53484100  0.90028900  1
  O  O47  1  0.30034900  0.54779400  0.23350900  1
  O  O48  1  0.91928000  0.75000000  0.50797200  1
  O  O49  1  0.92039900  0.75000000  0.84114900  1
  O  O50  1  0.90715000  0.75000000  0.17529100  1
  O  O51  1  0.59285000  0.75000000  0.67529100  1
  O  O52  1  0.58072000  0.75000000  0.00797200  1
  O  O53  1  0.57960100  0.75000000  0.34114900  1
  O  O54  1  0.09285000  0.25000000  0.82470900  1
  O  O55  1  0.07960100  0.25000000  0.15885100  1
  O  O56  1  0.08072000  0.25000000  0.49202800  1
  O  O57  1  0.42039900  0.25000000  0.65885100  1
  O  O58  1  0.41928000  0.25000000  0.99202800  1
  O  O59  1  0.40715000  0.25000000  0.32470900  1
