# generated using pymatgen
data_Ce10(NiSn)3
_symmetry_space_group_name_H-M   'P 1'
_cell_length_a   8.70720912
_cell_length_b   8.36320006
_cell_length_c   7.97909428
_cell_angle_alpha   64.33964811
_cell_angle_beta   59.97015221
_cell_angle_gamma   55.69019968
_symmetry_Int_Tables_number   1
_chemical_formula_structural   Ce10(NiSn)3
_chemical_formula_sum   'Ce10 Ni3 Sn3'
_cell_volume   406.15240457
_cell_formula_units_Z   1
loop_
 _symmetry_equiv_pos_site_id
 _symmetry_equiv_pos_as_xyz
  1  'x, y, z'
loop_
 _atom_site_type_symbol
 _atom_site_label
 _atom_site_symmetry_multiplicity
 _atom_site_fract_x
 _atom_site_fract_y
 _atom_site_fract_z
 _atom_site_occupancy
  Ce  Ce0  1  0.52971300  0.17625900  0.45776400  1
  Ce  Ce1  1  0.16373600  0.54223600  0.82374100  1
  Ce  Ce2  1  0.01977500  0.70935700  0.29064300  1
  Ce  Ce3  1  0.70958100  0.00022100  0.99977900  1
  Ce  Ce4  1  0.45776400  0.83626400  0.52971300  1
  Ce  Ce5  1  0.82374100  0.47028700  0.16373600  1
  Ce  Ce6  1  0.99977900  0.29041900  0.70958100  1
  Ce  Ce7  1  0.29064300  0.98022500  0.01977500  1
  Ce  Ce8  1  0.44242700  0.55757300  0.04921900  1
  Ce  Ce9  1  0.04921900  0.95078100  0.44242700  1
  Ni  Ni10  1  0.86478100  0.13521900  0.11561000  1
  Ni  Ni11  1  0.11561000  0.88439000  0.86478100  1
  Ni  Ni12  1  0.40666200  0.59333800  0.40666200  1
  Sn  Sn13  1  0.63891200  0.36108800  0.63891200  1
  Sn  Sn14  1  0.24382700  0.25617300  0.24382700  1
  Sn  Sn15  1  0.74382700  0.75617300  0.74382700  1
