# generated using pymatgen
data_Ca3Mg2Fe(CO3)6
_symmetry_space_group_name_H-M   'P 1'
_cell_length_a   4.89074700
_cell_length_b   6.09229160
_cell_length_c   12.49030418
_cell_angle_alpha   99.96622464
_cell_angle_beta   90.15998411
_cell_angle_gamma   113.55337271
_symmetry_Int_Tables_number   1
_chemical_formula_structural   Ca3Mg2Fe(CO3)6
_chemical_formula_sum   'Ca3 Mg2 Fe1 C6 O18'
_cell_volume   334.93736740
_cell_formula_units_Z   1
loop_
 _symmetry_equiv_pos_site_id
 _symmetry_equiv_pos_as_xyz
  1  'x, y, z'
loop_
 _atom_site_type_symbol
 _atom_site_label
 _atom_site_symmetry_multiplicity
 _atom_site_fract_x
 _atom_site_fract_y
 _atom_site_fract_z
 _atom_site_occupancy
  Ca  Ca0  1  0.66667400  0.83403600  0.83306100  1
  Ca  Ca1  1  0.33332600  0.16596400  0.16693900  1
  Ca  Ca2  1  0.00000000  0.50000000  0.50000000  1
  Mg  Mg3  1  0.66670900  0.83363400  0.33328700  1
  Mg  Mg4  1  0.33329100  0.16636600  0.66671300  1
  Fe  Fe5  1  0.00000000  0.50000000  0.00000000  1
  C  C6  1  0.65913700  0.81749100  0.08595800  1
  C  C7  1  0.32390200  0.14799300  0.41903700  1
  C  C8  1  0.99093300  0.48133400  0.75178800  1
  C  C9  1  0.67609800  0.85200700  0.58096300  1
  C  C10  1  0.34086300  0.18250900  0.91404200  1
  C  C11  1  0.00906700  0.51866600  0.24821200  1
  O  O12  1  0.12661000  0.06786100  0.33593300  1
  O  O13  1  0.79372900  0.40070800  0.66872800  1
  O  O14  1  0.46782000  0.73820000  0.00152400  1
  O  O15  1  0.59469600  0.90963400  0.17890700  1
  O  O16  1  0.26495700  0.24461800  0.51250800  1
  O  O17  1  0.93118400  0.58018000  0.84443500  1
  O  O18  1  0.58436300  0.13997400  0.40771700  1
  O  O19  1  0.25018300  0.47255300  0.74122600  1
  O  O20  1  0.92064000  0.81332700  0.07656700  1
  O  O21  1  0.20627100  0.59929200  0.33127200  1
  O  O22  1  0.87339000  0.93213900  0.66406700  1
  O  O23  1  0.53218000  0.26180000  0.99847600  1
  O  O24  1  0.73504300  0.75538200  0.48749200  1
  O  O25  1  0.40530400  0.09036600  0.82109300  1
  O  O26  1  0.06881600  0.41982000  0.15556500  1
  O  O27  1  0.74981700  0.52744700  0.25877400  1
  O  O28  1  0.41563700  0.86002600  0.59228300  1
  O  O29  1  0.07936000  0.18667300  0.92343300  1
