# generated using pymatgen
data_Ca2MgFe(CO3)4
_symmetry_space_group_name_H-M   'P 1'
_cell_length_a   7.79490994
_cell_length_b   7.85535207
_cell_length_c   7.84580385
_cell_angle_alpha   102.86781979
_cell_angle_beta   103.14575024
_cell_angle_gamma   77.24038504
_symmetry_Int_Tables_number   1
_chemical_formula_structural   Ca2MgFe(CO3)4
_chemical_formula_sum   'Ca4 Mg2 Fe2 C8 O24'
_cell_volume   448.68377560
_cell_formula_units_Z   2
loop_
 _symmetry_equiv_pos_site_id
 _symmetry_equiv_pos_as_xyz
  1  'x, y, z'
loop_
 _atom_site_type_symbol
 _atom_site_label
 _atom_site_symmetry_multiplicity
 _atom_site_fract_x
 _atom_site_fract_y
 _atom_site_fract_z
 _atom_site_occupancy
  Ca  Ca0  1  0.24732100  0.99949700  0.74667000  1
  Ca  Ca1  1  0.74715400  0.49956000  0.74658400  1
  Ca  Ca2  1  0.75241500  0.00041100  0.25322500  1
  Ca  Ca3  1  0.25246800  0.50040400  0.25326100  1
  Mg  Mg4  1  0.24831600  0.00180500  0.24820600  1
  Mg  Mg5  1  0.74836800  0.50170200  0.24817600  1
  Fe  Fe6  1  0.25178100  0.49802300  0.75212400  1
  Fe  Fe7  1  0.75189800  0.99803300  0.75219000  1
  C  C8  1  0.49188300  0.74610000  0.00841400  1
  C  C9  1  0.99211500  0.24647400  0.00867900  1
  C  C10  1  0.50741100  0.25530300  0.99573300  1
  C  C11  1  0.00707300  0.75590100  0.99501900  1
  C  C12  1  0.50452600  0.75820800  0.49092500  1
  C  C13  1  0.00472600  0.25851800  0.49141500  1
  C  C14  1  0.49626700  0.23956200  0.50528600  1
  C  C15  1  0.99597500  0.74010100  0.50452400  1
  O  O16  1  0.51991300  0.38322700  0.13258500  1
  O  O17  1  0.01967100  0.88360500  0.13192400  1
  O  O18  1  0.48058900  0.62291900  0.86640800  1
  O  O19  1  0.98159100  0.12368100  0.86653600  1
  O  O20  1  0.62834500  0.61781600  0.47468200  1
  O  O21  1  0.12853400  0.11824100  0.47494800  1
  O  O22  1  0.37458000  0.38177500  0.51762700  1
  O  O23  1  0.87366400  0.88181700  0.51669200  1
  O  O24  1  0.36620400  0.88505000  0.02076600  1
  O  O25  1  0.86627100  0.38536000  0.02082500  1
  O  O26  1  0.63218400  0.11549700  0.98786000  1
  O  O27  1  0.13122900  0.61561800  0.98699100  1
  O  O28  1  0.36258700  0.77534200  0.36741800  1
  O  O29  1  0.86216700  0.27559000  0.36879900  1
  O  O30  1  0.63865200  0.22640100  0.62949500  1
  O  O31  1  0.13842800  0.72752600  0.62847500  1
  O  O32  1  0.51861200  0.87834000  0.63478800  1
  O  O33  1  0.01944400  0.37904400  0.63515400  1
  O  O34  1  0.47970300  0.11472200  0.36635500  1
  O  O35  1  0.97952800  0.61489000  0.36572900  1
  O  O36  1  0.63242200  0.73159900  0.13367600  1
  O  O37  1  0.13202200  0.23197200  0.13482300  1
  O  O38  1  0.36714600  0.26461300  0.86898300  1
  O  O39  1  0.86681300  0.76575100  0.86802900  1
