# generated using pymatgen
data_BaSr2In6O12
_symmetry_space_group_name_H-M   'P 1'
_cell_length_a   3.35459200
_cell_length_b   10.12459468
_cell_length_c   10.12442717
_cell_angle_alpha   119.99811754
_cell_angle_beta   90.00163655
_cell_angle_gamma   90.00030484
_symmetry_Int_Tables_number   1
_chemical_formula_structural   BaSr2In6O12
_chemical_formula_sum   'Ba1 Sr2 In6 O12'
_cell_volume   297.80136422
_cell_formula_units_Z   1
loop_
 _symmetry_equiv_pos_site_id
 _symmetry_equiv_pos_as_xyz
  1  'x, y, z'
loop_
 _atom_site_type_symbol
 _atom_site_label
 _atom_site_symmetry_multiplicity
 _atom_site_fract_x
 _atom_site_fract_y
 _atom_site_fract_z
 _atom_site_occupancy
  Ba  Ba0  1  0.66246000  0.00001200  0.99999900  1
  Sr  Sr1  1  0.74951400  0.66666000  0.33333300  1
  Sr  Sr2  1  0.25000600  0.33334900  0.66667600  1
  In  In3  1  0.75102900  0.35141600  0.00190600  1
  In  In4  1  0.75096100  0.99810800  0.34950900  1
  In  In5  1  0.75094200  0.65049400  0.64860600  1
  In  In6  1  0.24779900  0.65070100  0.99892900  1
  In  In7  1  0.24785900  0.00106600  0.65177900  1
  In  In8  1  0.24787300  0.34823300  0.34928300  1
  O  O9  1  0.74938700  0.12540400  0.60302300  1
  O  O10  1  0.74937800  0.39696000  0.52236700  1
  O  O11  1  0.74939000  0.47761900  0.87458500  1
  O  O12  1  0.25006700  0.87656200  0.39851000  1
  O  O13  1  0.25005300  0.60148900  0.47805800  1
  O  O14  1  0.25008400  0.52195300  0.12344600  1
  O  O15  1  0.74817100  0.88768100  0.69378400  1
  O  O16  1  0.74818100  0.30621100  0.19389600  1
  O  O17  1  0.74816500  0.80611400  0.11232100  1
  O  O18  1  0.24890000  0.10559900  0.29225700  1
  O  O19  1  0.24886600  0.70772400  0.81333900  1
  O  O20  1  0.24891800  0.18664500  0.89439600  1
