# generated using pymatgen
data_Ca2Mn7Si10H12O35
_symmetry_space_group_name_H-M   'P 1'
_cell_length_a   8.99660500
_cell_length_b   9.03390262
_cell_length_c   9.41837955
_cell_angle_alpha   86.30918535
_cell_angle_beta   83.32541467
_cell_angle_gamma   84.61641254
_symmetry_Int_Tables_number   1
_chemical_formula_structural   Ca2Mn7Si10H12O35
_chemical_formula_sum   'Ca2 Mn7 Si10 H12 O35'
_cell_volume   755.82448777
_cell_formula_units_Z   1
loop_
 _symmetry_equiv_pos_site_id
 _symmetry_equiv_pos_as_xyz
  1  'x, y, z'
loop_
 _atom_site_type_symbol
 _atom_site_label
 _atom_site_symmetry_multiplicity
 _atom_site_fract_x
 _atom_site_fract_y
 _atom_site_fract_z
 _atom_site_occupancy
  Ca  Ca0  1  0.71105000  0.89833900  0.25990600  1
  Ca  Ca1  1  0.28894200  0.10209900  0.73893000  1
  Mn  Mn2  1  0.03243900  0.66033300  0.16276600  1
  Mn  Mn3  1  0.97060900  0.33594000  0.85282400  1
  Mn  Mn4  1  0.35175200  0.43893900  0.10921100  1
  Mn  Mn5  1  0.64583200  0.56008400  0.89406200  1
  Mn  Mn6  1  0.99970100  0.99583800  0.99927600  1
  Mn  Mn7  1  0.67309500  0.22346800  0.07803300  1
  Mn  Mn8  1  0.32459100  0.77440700  0.92330000  1
  Si  Si9  1  0.67989000  0.91957700  0.88440300  1
  Si  Si10  1  0.31955800  0.07955600  0.11522100  1
  Si  Si11  1  0.34515400  0.44448000  0.75649300  1
  Si  Si12  1  0.65404800  0.55627000  0.24249900  1
  Si  Si13  1  0.64224300  0.22837900  0.72647200  1
  Si  Si14  1  0.35899200  0.77274400  0.27349400  1
  Si  Si15  1  0.96582100  0.71664100  0.80945700  1
  Si  Si16  1  0.03471500  0.28056900  0.18600000  1
  Si  Si17  1  0.25003800  0.73514500  0.60284400  1
  Si  Si18  1  0.75241400  0.26810900  0.39700600  1
  H  H19  1  0.03149200  0.93926900  0.27429400  1
  H  H20  1  0.96752300  0.06509100  0.72495200  1
  H  H21  1  0.32078700  0.22098300  0.43076300  1
  H  H22  1  0.67506900  0.78199600  0.56944000  1
  H  H23  1  0.31475100  0.04743200  0.42741100  1
  H  H24  1  0.68496900  0.95441800  0.57179700  1
  H  H25  1  0.39614200  0.44738000  0.41097200  1
  H  H26  1  0.60141500  0.55018100  0.58549400  1
  H  H27  1  0.22532000  0.46459700  0.38417700  1
  H  H28  1  0.76588400  0.54268500  0.62579200  1
  H  H29  1  0.98064800  0.47694100  0.40977100  1
  H  H30  1  0.02251700  0.61786000  0.49285900  1
  O  O31  1  0.43252000  0.20906600  0.07613900  1
  O  O32  1  0.56661100  0.79026600  0.92337400  1
  O  O33  1  0.31793000  0.12786800  0.49148200  1
  O  O34  1  0.68496000  0.87349500  0.50767600  1
  O  O35  1  0.60077100  0.46738400  0.11318000  1
  O  O36  1  0.39832300  0.53017100  0.88796700  1
  O  O37  1  0.93242700  0.23306500  0.06594300  1
  O  O38  1  0.06420700  0.75813600  0.93491500  1
  O  O39  1  0.66113000  0.43712100  0.38554900  1
  O  O40  1  0.34015600  0.56610300  0.61568500  1
  O  O41  1  0.11370600  0.43193500  0.13644300  1
  O  O42  1  0.88585500  0.56190500  0.84058100  1
  O  O43  1  0.69020900  0.15281000  0.30124100  1
  O  O44  1  0.31175300  0.84842600  0.70111600  1
  O  O45  1  0.93072300  0.29745900  0.34423700  1
  O  O46  1  0.06929100  0.71244300  0.65023700  1
  O  O47  1  0.16584000  0.14409300  0.21604900  1
  O  O48  1  0.83329200  0.85351000  0.78501800  1
  O  O49  1  0.25971500  0.78641300  0.43086400  1
  O  O50  1  0.74522600  0.22026600  0.56995500  1
  O  O51  1  0.52283100  0.68733700  0.30274000  1
  O  O52  1  0.47757700  0.31281500  0.69783900  1
  O  O53  1  0.97260500  0.89244300  0.21212100  1
  O  O54  1  0.02664400  0.10872400  0.78909900  1
  O  O55  1  0.79906400  0.64617000  0.20114200  1
  O  O56  1  0.19853500  0.35519200  0.79123900  1
  O  O57  1  0.28179300  0.69158800  0.15609100  1
  O  O58  1  0.71986400  0.30960600  0.84365100  1
  O  O59  1  0.39905700  0.94486800  0.22083800  1
  O  O60  1  0.60352600  0.05533000  0.77698600  1
  O  O61  1  0.73551700  0.99378300  0.02049400  1
  O  O62  1  0.26289700  0.00583000  0.97920300  1
  O  O63  1  0.32409100  0.40826000  0.35547800  1
  O  O64  1  0.66643300  0.59503400  0.64480200  1
  O  O65  1  0.04401600  0.56143500  0.40560800  1
