# generated using pymatgen
data_Cd15As9Cl2O37
_symmetry_space_group_name_H-M   'P 1'
_cell_length_a   12.20604140
_cell_length_b   12.20604140
_cell_length_c   12.20604142
_cell_angle_alpha   93.61782943
_cell_angle_beta   93.61782943
_cell_angle_gamma   93.61782674
_symmetry_Int_Tables_number   1
_chemical_formula_structural   Cd15As9Cl2O37
_chemical_formula_sum   'Cd30 As18 Cl4 O74'
_cell_volume   1807.19310207
_cell_formula_units_Z   2
loop_
 _symmetry_equiv_pos_site_id
 _symmetry_equiv_pos_as_xyz
  1  'x, y, z'
loop_
 _atom_site_type_symbol
 _atom_site_label
 _atom_site_symmetry_multiplicity
 _atom_site_fract_x
 _atom_site_fract_y
 _atom_site_fract_z
 _atom_site_occupancy
  Cd  Cd0  1  0.16744100  0.50117500  0.83205600  1
  Cd  Cd1  1  0.83205600  0.16744100  0.50117500  1
  Cd  Cd2  1  0.50117500  0.83205600  0.16744100  1
  Cd  Cd3  1  0.33541800  0.00023700  0.66499500  1
  Cd  Cd4  1  0.00023700  0.66499500  0.33541800  1
  Cd  Cd5  1  0.66499500  0.33541800  0.00023700  1
  Cd  Cd6  1  0.49882500  0.16794400  0.83255900  1
  Cd  Cd7  1  0.16794400  0.83255900  0.49882500  1
  Cd  Cd8  1  0.83255900  0.49882500  0.16794400  1
  Cd  Cd9  1  0.33500500  0.66458200  0.99976300  1
  Cd  Cd10  1  0.99976300  0.33500500  0.66458200  1
  Cd  Cd11  1  0.66458200  0.99976300  0.33500500  1
  Cd  Cd12  1  0.40900600  0.68749200  0.65097700  1
  Cd  Cd13  1  0.09740900  0.34240900  0.31147600  1
  Cd  Cd14  1  0.74356700  0.02193700  0.98608300  1
  Cd  Cd15  1  0.02193700  0.98608300  0.74356700  1
  Cd  Cd16  1  0.68749200  0.65097700  0.40900600  1
  Cd  Cd17  1  0.34240900  0.31147600  0.09740900  1
  Cd  Cd18  1  0.31147600  0.09740900  0.34240900  1
  Cd  Cd19  1  0.98608300  0.74356700  0.02193700  1
  Cd  Cd20  1  0.65097700  0.40900600  0.68749200  1
  Cd  Cd21  1  0.59099400  0.31250800  0.34902300  1
  Cd  Cd22  1  0.25643300  0.97806300  0.01391700  1
  Cd  Cd23  1  0.90259100  0.65759100  0.68852400  1
  Cd  Cd24  1  0.97806300  0.01391700  0.25643300  1
  Cd  Cd25  1  0.65759100  0.68852400  0.90259100  1
  Cd  Cd26  1  0.31250800  0.34902300  0.59099400  1
  Cd  Cd27  1  0.68852400  0.90259100  0.65759100  1
  Cd  Cd28  1  0.34902300  0.59099400  0.31250800  1
  Cd  Cd29  1  0.01391700  0.25643300  0.97806300  1
  As  As30  1  0.77413700  0.17616900  0.79670100  1
  As  As31  1  0.44108700  0.84704800  0.46468800  1
  As  As32  1  0.10778000  0.51107500  0.13090900  1
  As  As33  1  0.51107500  0.13090900  0.10778000  1
  As  As34  1  0.17616900  0.79670100  0.77413700  1
  As  As35  1  0.84704800  0.46468800  0.44108700  1
  As  As36  1  0.46468800  0.44108700  0.84704800  1
  As  As37  1  0.13090900  0.10778000  0.51107500  1
  As  As38  1  0.79670100  0.77413700  0.17616900  1
  As  As39  1  0.89222000  0.48892500  0.86909100  1
  As  As40  1  0.55891300  0.15295200  0.53531200  1
  As  As41  1  0.22586300  0.82383100  0.20329900  1
  As  As42  1  0.15295200  0.53531200  0.55891300  1
  As  As43  1  0.82383100  0.20329900  0.22586300  1
  As  As44  1  0.48892500  0.86909100  0.89222000  1
  As  As45  1  0.20329900  0.22586300  0.82383100  1
  As  As46  1  0.86909100  0.89222000  0.48892500  1
  As  As47  1  0.53531200  0.55891300  0.15295200  1
  Cl  Cl48  1  0.90814600  0.90814600  0.90814600  1
  Cl  Cl49  1  0.59198900  0.59198900  0.59198900  1
  Cl  Cl50  1  0.40801100  0.40801100  0.40801100  1
  Cl  Cl51  1  0.09185400  0.09185400  0.09185400  1
  O  O52  1  0.18572200  0.53965700  0.02387900  1
  O  O53  1  0.85381700  0.20607600  0.69118200  1
  O  O54  1  0.52059000  0.87154200  0.35748400  1
  O  O55  1  0.20607600  0.69118200  0.85381700  1
  O  O56  1  0.87154200  0.35748400  0.52059000  1
  O  O57  1  0.53965700  0.02387900  0.18572200  1
  O  O58  1  0.35748400  0.52059000  0.87154200  1
  O  O59  1  0.02387900  0.18572200  0.53965700  1
  O  O60  1  0.69118200  0.85381700  0.20607600  1
  O  O61  1  0.47941000  0.12845800  0.64251600  1
  O  O62  1  0.14618300  0.79392400  0.30881800  1
  O  O63  1  0.81427800  0.46034300  0.97612100  1
  O  O64  1  0.46034300  0.97612100  0.81427800  1
  O  O65  1  0.12845800  0.64251600  0.47941000  1
  O  O66  1  0.79392400  0.30881800  0.14618300  1
  O  O67  1  0.30881800  0.14618300  0.79392400  1
  O  O68  1  0.97612100  0.81427800  0.46034300  1
  O  O69  1  0.64251600  0.47941000  0.12845800  1
  O  O70  1  0.70672700  0.04672100  0.78848900  1
  O  O71  1  0.37417000  0.71662900  0.45645200  1
  O  O72  1  0.04232400  0.38065100  0.12328300  1
  O  O73  1  0.38065100  0.12328300  0.04232400  1
  O  O74  1  0.04672100  0.78848900  0.70672700  1
  O  O75  1  0.71662900  0.45645200  0.37417000  1
  O  O76  1  0.45645200  0.37417000  0.71662900  1
  O  O77  1  0.12328300  0.04232400  0.38065100  1
  O  O78  1  0.78848900  0.70672700  0.04672100  1
  O  O79  1  0.82172900  0.48347600  0.74114300  1
  O  O80  1  0.48879000  0.14748000  0.40682400  1
  O  O81  1  0.15674500  0.81564000  0.07445600  1
  O  O82  1  0.14748000  0.40682400  0.48879000  1
  O  O83  1  0.81564000  0.07445600  0.15674500  1
  O  O84  1  0.48347600  0.74114300  0.82172900  1
  O  O85  1  0.07445600  0.15674500  0.81564000  1
  O  O86  1  0.74114300  0.82172900  0.48347600  1
  O  O87  1  0.40682400  0.48879000  0.14748000  1
  O  O88  1  0.95767600  0.61934900  0.87671700  1
  O  O89  1  0.62583000  0.28337100  0.54354800  1
  O  O90  1  0.29327300  0.95327900  0.21151100  1
  O  O91  1  0.28337100  0.54354800  0.62583000  1
  O  O92  1  0.95327900  0.21151100  0.29327300  1
  O  O93  1  0.61934900  0.87671700  0.95767600  1
  O  O94  1  0.21151100  0.29327300  0.95327900  1
  O  O95  1  0.87671700  0.95767600  0.61934900  1
  O  O96  1  0.54354800  0.62583000  0.28337100  1
  O  O97  1  0.84325500  0.18436000  0.92554400  1
  O  O98  1  0.51121000  0.85252000  0.59317600  1
  O  O99  1  0.17827100  0.51652400  0.25885700  1
  O  O100  1  0.51652400  0.25885700  0.17827100  1
  O  O101  1  0.18436000  0.92554400  0.84325500  1
  O  O102  1  0.85252000  0.59317600  0.51121000  1
  O  O103  1  0.59317600  0.51121000  0.85252000  1
  O  O104  1  0.25885700  0.17827100  0.51652400  1
  O  O105  1  0.92554400  0.84325500  0.18436000  1
  O  O106  1  0.67074900  0.26845800  0.81026400  1
  O  O107  1  0.33704100  0.93819400  0.47550600  1
  O  O108  1  0.00374200  0.60212600  0.14375400  1
  O  O109  1  0.60212600  0.14375400  0.00374200  1
  O  O110  1  0.26845800  0.81026400  0.67074900  1
  O  O111  1  0.93819400  0.47550600  0.33704100  1
  O  O112  1  0.47550600  0.33704100  0.93819400  1
  O  O113  1  0.14375400  0.00374200  0.60212600  1
  O  O114  1  0.81026400  0.67074900  0.26845800  1
  O  O115  1  0.99625800  0.39787400  0.85624600  1
  O  O116  1  0.66295900  0.06180600  0.52449400  1
  O  O117  1  0.32925100  0.73154200  0.18973600  1
  O  O118  1  0.06180600  0.52449400  0.66295900  1
  O  O119  1  0.73154200  0.18973600  0.32925100  1
  O  O120  1  0.39787400  0.85624600  0.99625800  1
  O  O121  1  0.18973600  0.32925100  0.73154200  1
  O  O122  1  0.85624600  0.99625800  0.39787400  1
  O  O123  1  0.52449400  0.66295900  0.06180600  1
  O  O124  1  0.24999700  0.24999700  0.24999700  1
  O  O125  1  0.75000300  0.75000300  0.75000300  1
