# generated using pymatgen
data_Cr2Te2N2O15
_symmetry_space_group_name_H-M   'P 1'
_cell_length_a   8.57260941
_cell_length_b   8.26254100
_cell_length_c   7.34418916
_cell_angle_alpha   94.46140542
_cell_angle_beta   53.80153904
_cell_angle_gamma   123.94855679
_symmetry_Int_Tables_number   1
_chemical_formula_structural   Cr2Te2N2O15
_chemical_formula_sum   'Cr2 Te2 N2 O15'
_cell_volume   322.61030033
_cell_formula_units_Z   1
loop_
 _symmetry_equiv_pos_site_id
 _symmetry_equiv_pos_as_xyz
  1  'x, y, z'
loop_
 _atom_site_type_symbol
 _atom_site_label
 _atom_site_symmetry_multiplicity
 _atom_site_fract_x
 _atom_site_fract_y
 _atom_site_fract_z
 _atom_site_occupancy
  Cr  Cr0  1  0.52180200  0.53066600  0.01020600  1
  Cr  Cr1  1  0.52210800  0.00012300  0.03049100  1
  Te  Te2  1  0.99637300  0.00020200  0.48845900  1
  Te  Te3  1  0.92775800  0.99907800  0.02004400  1
  N  N4  1  0.49352200  0.05797900  0.57312700  1
  N  N5  1  0.08081700  0.51750200  0.87171200  1
  O  O6  1  0.87663900  0.93078200  0.30619000  1
  O  O7  1  0.67356800  0.40329700  0.95592700  1
  O  O8  1  0.13160600  0.65200800  0.94005700  1
  O  O9  1  0.22435900  0.29402600  0.31347300  1
  O  O10  1  0.23019000  0.33017700  0.92653900  1
  O  O11  1  0.21218000  0.93239400  0.28705100  1
  O  O12  1  0.11768200  0.06328300  0.67015800  1
  O  O13  1  0.32870600  0.66223800  0.16088100  1
  O  O14  1  0.72755500  0.07559100  0.10796100  1
  O  O15  1  0.73739500  0.70110600  0.68858800  1
  O  O16  1  0.69896700  0.70511400  0.11245300  1
  O  O17  1  0.73079900  0.01223400  0.71260800  1
  O  O18  1  0.30917000  0.46680800  0.74749400  1
  O  O19  1  0.09007500  0.53250700  0.33865000  1
  O  O20  1  0.61872700  0.25788500  0.86293200  1
