# generated using pymatgen
data_BaSr2Er6O12
_symmetry_space_group_name_H-M   'P 1'
_cell_length_a   3.41831500
_cell_length_b   10.30823551
_cell_length_c   10.30812831
_cell_angle_alpha   119.99856817
_cell_angle_beta   90.00000000
_cell_angle_gamma   90.00000000
_symmetry_Int_Tables_number   1
_chemical_formula_structural   BaSr2Er6O12
_chemical_formula_sum   'Ba1 Sr2 Er6 O12'
_cell_volume   314.56697522
_cell_formula_units_Z   1
loop_
 _symmetry_equiv_pos_site_id
 _symmetry_equiv_pos_as_xyz
  1  'x, y, z'
loop_
 _atom_site_type_symbol
 _atom_site_label
 _atom_site_symmetry_multiplicity
 _atom_site_fract_x
 _atom_site_fract_y
 _atom_site_fract_z
 _atom_site_occupancy
  Ba  Ba0  1  0.75000000  0.00000700  0.00000800  1
  Sr  Sr1  1  0.75000000  0.66670400  0.33335200  1
  Sr  Sr2  1  0.25000000  0.33331500  0.66665700  1
  Er  Er3  1  0.25000000  0.34628100  0.00003600  1
  Er  Er4  1  0.25000000  0.99997100  0.34625400  1
  Er  Er5  1  0.25000000  0.65374900  0.65371700  1
  Er  Er6  1  0.75000000  0.65115500  0.00047100  1
  Er  Er7  1  0.75000000  0.99952600  0.65069600  1
  Er  Er8  1  0.75000000  0.34930800  0.34883700  1
  O  O9  1  0.75000000  0.30532500  0.11277500  1
  O  O10  1  0.75000000  0.88721400  0.19256300  1
  O  O11  1  0.75000000  0.80744500  0.69466000  1
  O  O12  1  0.25000000  0.70944900  0.89461900  1
  O  O13  1  0.25000000  0.10537800  0.81482000  1
  O  O14  1  0.25000000  0.18517400  0.29054900  1
  O  O15  1  0.75000000  0.39593900  0.87432400  1
  O  O16  1  0.75000000  0.12566700  0.52160800  1
  O  O17  1  0.75000000  0.47838200  0.60405300  1
  O  O18  1  0.25000000  0.60209100  0.12321700  1
  O  O19  1  0.25000000  0.87678800  0.47887500  1
  O  O20  1  0.25000000  0.52113100  0.39790900  1
