# generated using pymatgen
data_BaIn3Pt
_symmetry_space_group_name_H-M   'P 1'
_cell_length_a   6.74863363
_cell_length_b   6.74863363
_cell_length_c   6.74863363
_cell_angle_alpha   137.46340613
_cell_angle_beta   137.46340613
_cell_angle_gamma   61.72581888
_symmetry_Int_Tables_number   1
_chemical_formula_structural   BaIn3Pt
_chemical_formula_sum   'Ba1 In3 Pt1'
_cell_volume   138.85972537
_cell_formula_units_Z   1
loop_
 _symmetry_equiv_pos_site_id
 _symmetry_equiv_pos_as_xyz
  1  'x, y, z'
loop_
 _atom_site_type_symbol
 _atom_site_label
 _atom_site_symmetry_multiplicity
 _atom_site_fract_x
 _atom_site_fract_y
 _atom_site_fract_z
 _atom_site_occupancy
  Ba  Ba0  1  0.99735100  0.99735100  0.00000000  1
  In  In1  1  0.73843900  0.23843900  0.50000000  1
  In  In2  1  0.23843900  0.73843900  0.50000000  1
  In  In3  1  0.39758000  0.39758000  0.00000000  1
  Pt  Pt4  1  0.62819100  0.62819100  0.00000000  1
