# generated using pymatgen
data_Ba4Sr(SnO3)5
_symmetry_space_group_name_H-M   'P 1'
_cell_length_a   4.17711400
_cell_length_b   4.17711400
_cell_length_c   20.88404900
_cell_angle_alpha   90.00000000
_cell_angle_beta   90.00000000
_cell_angle_gamma   90.00000000
_symmetry_Int_Tables_number   1
_chemical_formula_structural   Ba4Sr(SnO3)5
_chemical_formula_sum   'Ba4 Sr1 Sn5 O15'
_cell_volume   364.39076308
_cell_formula_units_Z   1
loop_
 _symmetry_equiv_pos_site_id
 _symmetry_equiv_pos_as_xyz
  1  'x, y, z'
loop_
 _atom_site_type_symbol
 _atom_site_label
 _atom_site_symmetry_multiplicity
 _atom_site_fract_x
 _atom_site_fract_y
 _atom_site_fract_z
 _atom_site_occupancy
  Ba  Ba0  1  0.50000000  0.50000000  0.19966500  1
  Ba  Ba1  1  0.50000000  0.50000000  0.40000300  1
  Ba  Ba2  1  0.50000000  0.50000000  0.59999700  1
  Ba  Ba3  1  0.50000000  0.50000000  0.80033500  1
  Sr  Sr4  1  0.50000000  0.50000000  0.00000000  1
  Sn  Sn5  1  0.00000000  0.00000000  0.90073800  1
  Sn  Sn6  1  0.00000000  0.00000000  0.09926200  1
  Sn  Sn7  1  0.00000000  0.00000000  0.29991000  1
  Sn  Sn8  1  0.00000000  0.00000000  0.50000000  1
  Sn  Sn9  1  0.00000000  0.00000000  0.70009000  1
  O  O10  1  0.00000000  0.00000000  0.00000000  1
  O  O11  1  0.00000000  0.00000000  0.19967300  1
  O  O12  1  0.00000000  0.00000000  0.40000700  1
  O  O13  1  0.00000000  0.00000000  0.59999300  1
  O  O14  1  0.00000000  0.00000000  0.80032700  1
  O  O15  1  0.00000000  0.50000000  0.90169900  1
  O  O16  1  0.00000000  0.50000000  0.09830100  1
  O  O17  1  0.00000000  0.50000000  0.29998100  1
  O  O18  1  0.00000000  0.50000000  0.50000000  1
  O  O19  1  0.00000000  0.50000000  0.70001900  1
  O  O20  1  0.50000000  0.00000000  0.90169900  1
  O  O21  1  0.50000000  0.00000000  0.09830100  1
  O  O22  1  0.50000000  0.00000000  0.29998100  1
  O  O23  1  0.50000000  0.00000000  0.50000000  1
  O  O24  1  0.50000000  0.00000000  0.70001900  1
