# generated using pymatgen
data_Ba4La2SbRuO12
_symmetry_space_group_name_H-M   'P 1'
_cell_length_a   6.11434400
_cell_length_b   6.13690949
_cell_length_c   10.61684525
_cell_angle_alpha   90.41675196
_cell_angle_beta   106.48357703
_cell_angle_gamma   119.49012290
_symmetry_Int_Tables_number   1
_chemical_formula_structural   Ba4La2SbRuO12
_chemical_formula_sum   'Ba4 La2 Sb1 Ru1 O12'
_cell_volume   327.31848548
_cell_formula_units_Z   1
loop_
 _symmetry_equiv_pos_site_id
 _symmetry_equiv_pos_as_xyz
  1  'x, y, z'
loop_
 _atom_site_type_symbol
 _atom_site_label
 _atom_site_symmetry_multiplicity
 _atom_site_fract_x
 _atom_site_fract_y
 _atom_site_fract_z
 _atom_site_occupancy
  Ba  Ba0  1  0.24606000  0.12758000  0.87090100  1
  Ba  Ba1  1  0.25140300  0.62978100  0.37900600  1
  Ba  Ba2  1  0.74859700  0.37021900  0.62099400  1
  Ba  Ba3  1  0.75394000  0.87242000  0.12909900  1
  La  La4  1  0.49978000  0.75007600  0.74948000  1
  La  La5  1  0.50022000  0.24992400  0.25052000  1
  Sb  Sb6  1  0.00000000  0.50000000  0.00000000  1
  Ru  Ru7  1  0.00000000  0.00000000  0.50000000  1
  O  O8  1  0.81206600  0.90469000  0.63334900  1
  O  O9  1  0.81485600  0.40638000  0.13768900  1
  O  O10  1  0.18514400  0.59362000  0.86231100  1
  O  O11  1  0.18793400  0.09531000  0.36665100  1
  O  O12  1  0.76919600  0.13684100  0.90195500  1
  O  O13  1  0.77206000  0.64246800  0.40236000  1
  O  O14  1  0.22794000  0.35753200  0.59764000  1
  O  O15  1  0.23080400  0.86315900  0.09804500  1
  O  O16  1  0.26693800  0.92142000  0.60938700  1
  O  O17  1  0.27224800  0.42248600  0.11116900  1
  O  O18  1  0.72775200  0.57751400  0.88883100  1
  O  O19  1  0.73306200  0.07858000  0.39061300  1
