# generated using pymatgen
data_BaLa3Mn4O12
_symmetry_space_group_name_H-M   'P 1'
_cell_length_a   5.58864709
_cell_length_b   7.91277228
_cell_length_c   5.64064687
_cell_angle_alpha   89.99185993
_cell_angle_beta   90.15699838
_cell_angle_gamma   90.67083776
_symmetry_Int_Tables_number   1
_chemical_formula_structural   BaLa3Mn4O12
_chemical_formula_sum   'Ba1 La3 Mn4 O12'
_cell_volume   249.42091247
_cell_formula_units_Z   1
loop_
 _symmetry_equiv_pos_site_id
 _symmetry_equiv_pos_as_xyz
  1  'x, y, z'
loop_
 _atom_site_type_symbol
 _atom_site_label
 _atom_site_symmetry_multiplicity
 _atom_site_fract_x
 _atom_site_fract_y
 _atom_site_fract_z
 _atom_site_occupancy
  Ba  Ba0  1  0.49990700  0.25005700  0.00321500  1
  La  La1  1  0.99992400  0.75007900  0.49422400  1
  La  La2  1  0.50003600  0.75002600  0.99980900  1
  La  La3  1  0.99973800  0.25002000  0.50010600  1
  Mn  Mn4  1  0.00018900  0.50193800  0.99988400  1
  Mn  Mn5  1  0.50020900  0.99807700  0.49993200  1
  Mn  Mn6  1  0.99968300  0.99814800  0.00001400  1
  Mn  Mn7  1  0.49987300  0.50181500  0.50017100  1
  O  O8  1  0.22554700  0.53264600  0.72499700  1
  O  O9  1  0.73603400  0.01072100  0.23655600  1
  O  O10  1  0.26385800  0.48925700  0.23596200  1
  O  O11  1  0.77491500  0.96730600  0.72548900  1
  O  O12  1  0.99986200  0.75010300  0.05612600  1
  O  O13  1  0.50008700  0.24994100  0.53111400  1
  O  O14  1  0.72764100  0.54122000  0.77273800  1
  O  O15  1  0.21344000  0.02078700  0.28727800  1
  O  O16  1  0.99995800  0.24989800  0.93380100  1
  O  O17  1  0.50023500  0.75003800  0.43845200  1
  O  O18  1  0.78621300  0.47930500  0.28789200  1
  O  O19  1  0.27265100  0.95861900  0.77224100  1
