# generated using pymatgen
data_Ca4MgZnAs4(H2O5)4
_symmetry_space_group_name_H-M   'P 1'
_cell_length_a   5.65874379
_cell_length_b   5.96367306
_cell_length_c   13.19864251
_cell_angle_alpha   92.10901864
_cell_angle_beta   81.70132996
_cell_angle_gamma   109.52456816
_symmetry_Int_Tables_number   1
_chemical_formula_structural   Ca4MgZnAs4(H2O5)4
_chemical_formula_sum   'Ca4 Mg1 Zn1 As4 H8 O20'
_cell_volume   415.37429377
_cell_formula_units_Z   1
loop_
 _symmetry_equiv_pos_site_id
 _symmetry_equiv_pos_as_xyz
  1  'x, y, z'
loop_
 _atom_site_type_symbol
 _atom_site_label
 _atom_site_symmetry_multiplicity
 _atom_site_fract_x
 _atom_site_fract_y
 _atom_site_fract_z
 _atom_site_occupancy
  Ca  Ca0  1  0.23216400  0.58765000  0.11854100  1
  Ca  Ca1  1  0.73055000  0.08801900  0.61912800  1
  Ca  Ca2  1  0.26945000  0.91198100  0.38087200  1
  Ca  Ca3  1  0.76783600  0.41235000  0.88145900  1
  Mg  Mg4  1  0.50000000  0.50000000  0.50000000  1
  Zn  Zn5  1  0.00000000  0.00000000  0.00000000  1
  As  As6  1  0.95045900  0.28450400  0.37727100  1
  As  As7  1  0.44873100  0.78348600  0.87699900  1
  As  As8  1  0.55126900  0.21651400  0.12300100  1
  As  As9  1  0.04954100  0.71549600  0.62272900  1
  H  H10  1  0.72729200  0.81250300  0.34687400  1
  H  H11  1  0.22851600  0.31211200  0.84719100  1
  H  H12  1  0.77148400  0.68788800  0.15280900  1
  H  H13  1  0.27270800  0.18749700  0.65312600  1
  H  H14  1  0.54101600  0.57453800  0.30223000  1
  H  H15  1  0.04161000  0.07290400  0.80214000  1
  H  H16  1  0.95839000  0.92709600  0.19786000  1
  H  H17  1  0.45898400  0.42546200  0.69777000  1
  O  O18  1  0.64080000  0.22332900  0.43572300  1
  O  O19  1  0.13750700  0.71838600  0.93433900  1
  O  O20  1  0.86249300  0.28161400  0.06566100  1
  O  O21  1  0.35920000  0.77667100  0.56427700  1
  O  O22  1  0.05837500  0.53657400  0.30390300  1
  O  O23  1  0.55762700  0.03579400  0.80391200  1
  O  O24  1  0.44237300  0.96420600  0.19608800  1
  O  O25  1  0.94162500  0.46342600  0.69609700  1
  O  O26  1  0.55951700  0.67986700  0.36448900  1
  O  O27  1  0.05835000  0.18137500  0.86371300  1
  O  O28  1  0.94165000  0.81862500  0.13628700  1
  O  O29  1  0.44048300  0.32013300  0.63551100  1
  O  O30  1  0.12688000  0.28135700  0.47436600  1
  O  O31  1  0.61953600  0.77771200  0.97595600  1
  O  O32  1  0.38046400  0.22228800  0.02404400  1
  O  O33  1  0.87312000  0.71864300  0.52563400  1
  O  O34  1  0.96777500  0.03587800  0.30863100  1
  O  O35  1  0.46847800  0.53536900  0.80839100  1
  O  O36  1  0.53152200  0.46463100  0.19160900  1
  O  O37  1  0.03222500  0.96412200  0.69136900  1
