# generated using pymatgen
data_Ba3Be2B5HO13
_symmetry_space_group_name_H-M   'P 1'
_cell_length_a   6.95565108
_cell_length_b   6.95565108
_cell_length_c   6.84574579
_cell_angle_alpha   77.42379587
_cell_angle_beta   77.42379587
_cell_angle_gamma   100.85557737
_symmetry_Int_Tables_number   1
_chemical_formula_structural   Ba3Be2B5HO13
_chemical_formula_sum   'Ba3 Be2 B5 H1 O13'
_cell_volume   305.68818646
_cell_formula_units_Z   1
loop_
 _symmetry_equiv_pos_site_id
 _symmetry_equiv_pos_as_xyz
  1  'x, y, z'
loop_
 _atom_site_type_symbol
 _atom_site_label
 _atom_site_symmetry_multiplicity
 _atom_site_fract_x
 _atom_site_fract_y
 _atom_site_fract_z
 _atom_site_occupancy
  Ba  Ba0  1  0.01998200  0.58710000  0.97967100  1
  Ba  Ba1  1  0.01190400  0.01190400  0.41437000  1
  Ba  Ba2  1  0.58710000  0.01998200  0.97967100  1
  Be  Be3  1  0.72301100  0.43818600  0.55852000  1
  Be  Be4  1  0.43818600  0.72301100  0.55852000  1
  B  B5  1  0.56074700  0.56074700  0.89124400  1
  B  B6  1  0.12145200  0.56828100  0.43095500  1
  B  B7  1  0.56828100  0.12145200  0.43095500  1
  B  B8  1  0.04321200  0.04321200  0.95725800  1
  B  B9  1  0.43860900  0.43860900  0.29129900  1
  H  H10  1  0.40920200  0.40920200  0.59341700  1
  O  O11  1  0.96267300  0.18833700  0.03664600  1
  O  O12  1  0.95970300  0.95970300  0.81686400  1
  O  O13  1  0.18833700  0.96267300  0.03664600  1
  O  O14  1  0.51076300  0.51076300  0.47464600  1
  O  O15  1  0.57009600  0.57009600  0.09630700  1
  O  O16  1  0.93078300  0.57651300  0.40758400  1
  O  O17  1  0.57651300  0.93078300  0.40758400  1
  O  O18  1  0.45003500  0.67536500  0.79680800  1
  O  O19  1  0.22416900  0.44881500  0.32312000  1
  O  O20  1  0.67551200  0.20602600  0.54894200  1
  O  O21  1  0.67536500  0.45003500  0.79680800  1
  O  O22  1  0.20602600  0.67551200  0.54894200  1
  O  O23  1  0.44881500  0.22416900  0.32312000  1
