# generated using pymatgen
data_Ba4SrHf5O15
_symmetry_space_group_name_H-M   'P 1'
_cell_length_a   12.58678889
_cell_length_b   12.58678889
_cell_length_c   12.58678938
_cell_angle_alpha   27.27458697
_cell_angle_beta   27.27458697
_cell_angle_gamma   27.27458265
_symmetry_Int_Tables_number   1
_chemical_formula_structural   Ba4SrHf5O15
_chemical_formula_sum   'Ba4 Sr1 Hf5 O15'
_cell_volume   369.49393146
_cell_formula_units_Z   1
loop_
 _symmetry_equiv_pos_site_id
 _symmetry_equiv_pos_as_xyz
  1  'x, y, z'
loop_
 _atom_site_type_symbol
 _atom_site_label
 _atom_site_symmetry_multiplicity
 _atom_site_fract_x
 _atom_site_fract_y
 _atom_site_fract_z
 _atom_site_occupancy
  Ba  Ba0  1  0.89984100  0.89984100  0.89984100  1
  Ba  Ba1  1  0.30002800  0.30002800  0.30002800  1
  Ba  Ba2  1  0.69997200  0.69997200  0.69997200  1
  Ba  Ba3  1  0.10015900  0.10015900  0.10015900  1
  Sr  Sr4  1  0.50000000  0.50000000  0.50000000  1
  Hf  Hf5  1  0.80023800  0.80023800  0.80023800  1
  Hf  Hf6  1  0.00000000  0.00000000  0.00000000  1
  Hf  Hf7  1  0.40030100  0.40030100  0.40030100  1
  Hf  Hf8  1  0.19976200  0.19976200  0.19976200  1
  Hf  Hf9  1  0.59969900  0.59969900  0.59969900  1
  O  O10  1  0.00000000  0.00000000  0.50000000  1
  O  O11  1  0.20013900  0.20013900  0.69984200  1
  O  O12  1  0.59962100  0.59962100  0.10227600  1
  O  O13  1  0.40037900  0.40037900  0.89772400  1
  O  O14  1  0.79986100  0.79986100  0.30015800  1
  O  O15  1  0.10227600  0.59962100  0.59962100  1
  O  O16  1  0.30015800  0.79986100  0.79986100  1
  O  O17  1  0.69984200  0.20013900  0.20013900  1
  O  O18  1  0.50000000  0.00000000  0.00000000  1
  O  O19  1  0.89772400  0.40037900  0.40037900  1
  O  O20  1  0.59962100  0.10227600  0.59962100  1
  O  O21  1  0.79986100  0.30015800  0.79986100  1
  O  O22  1  0.20013900  0.69984200  0.20013900  1
  O  O23  1  0.00000000  0.50000000  0.00000000  1
  O  O24  1  0.40037900  0.89772400  0.40037900  1
