# generated using pymatgen
data_Ba3SrMg4F16
_symmetry_space_group_name_H-M   'P 1'
_cell_length_a   4.12300500
_cell_length_b   9.60655563
_cell_length_c   9.72859520
_cell_angle_alpha   80.00293611
_cell_angle_beta   102.23379677
_cell_angle_gamma   77.60833468
_symmetry_Int_Tables_number   1
_chemical_formula_structural   Ba3SrMg4F16
_chemical_formula_sum   'Ba3 Sr1 Mg4 F16'
_cell_volume   357.98775824
_cell_formula_units_Z   1
loop_
 _symmetry_equiv_pos_site_id
 _symmetry_equiv_pos_as_xyz
  1  'x, y, z'
loop_
 _atom_site_type_symbol
 _atom_site_label
 _atom_site_symmetry_multiplicity
 _atom_site_fract_x
 _atom_site_fract_y
 _atom_site_fract_z
 _atom_site_occupancy
  Ba  Ba0  1  0.92646800  0.42322100  0.27615800  1
  Ba  Ba1  1  0.42696600  0.92200300  0.77593600  1
  Ba  Ba2  1  0.17710600  0.47247800  0.82669100  1
  Sr  Sr3  1  0.68161800  0.97810800  0.34134400  1
  Mg  Mg4  1  0.91172100  0.17370000  0.99714100  1
  Mg  Mg5  1  0.40018500  0.68491500  0.48528500  1
  Mg  Mg6  1  0.15598000  0.76082700  0.07278700  1
  Mg  Mg7  1  0.65696800  0.25804400  0.57197900  1
  F  F8  1  0.53421700  0.62959200  0.69802600  1
  F  F9  1  0.05172500  0.10700000  0.21045000  1
  F  F10  1  0.29085600  0.54535400  0.12706600  1
  F  F11  1  0.78932700  0.04322200  0.62187600  1
  F  F12  1  0.74980800  0.27647200  0.77608800  1
  F  F13  1  0.24556400  0.78239000  0.27351700  1
  F  F14  1  0.99555800  0.97484700  0.96596300  1
  F  F15  1  0.49661000  0.47625900  0.46947900  1
  F  F16  1  0.40210700  0.17939300  0.98360600  1
  F  F17  1  0.89214900  0.69090300  0.47520000  1
  F  F18  1  0.65087800  0.76790500  0.06966100  1
  F  F19  1  0.15034200  0.26991700  0.57060200  1
  F  F20  1  0.81345800  0.38256700  0.00948300  1
  F  F21  1  0.29954100  0.89720400  0.49628500  1
  F  F22  1  0.06179400  0.74171400  0.86530100  1
  F  F23  1  0.56415500  0.23686700  0.36517700  1
