# generated using pymatgen
data_BaPb3(NO3)8
_symmetry_space_group_name_H-M   'P 1'
_cell_length_a   8.02957629
_cell_length_b   8.02957629
_cell_length_c   8.02957591
_cell_angle_alpha   90.09237648
_cell_angle_beta   90.09237648
_cell_angle_gamma   90.09237532
_symmetry_Int_Tables_number   1
_chemical_formula_structural   BaPb3(NO3)8
_chemical_formula_sum   'Ba1 Pb3 N8 O24'
_cell_volume   517.69762224
_cell_formula_units_Z   1
loop_
 _symmetry_equiv_pos_site_id
 _symmetry_equiv_pos_as_xyz
  1  'x, y, z'
loop_
 _atom_site_type_symbol
 _atom_site_label
 _atom_site_symmetry_multiplicity
 _atom_site_fract_x
 _atom_site_fract_y
 _atom_site_fract_z
 _atom_site_occupancy
  Ba  Ba0  1  0.50000000  0.50000000  0.50000000  1
  Pb  Pb1  1  0.50000000  0.00000000  0.00000000  1
  Pb  Pb2  1  0.00000000  0.00000000  0.50000000  1
  Pb  Pb3  1  0.00000000  0.50000000  0.00000000  1
  N  N4  1  0.65316100  0.85262000  0.34737000  1
  N  N5  1  0.34683900  0.14738000  0.65263000  1
  N  N6  1  0.15092500  0.15092500  0.15092500  1
  N  N7  1  0.85262000  0.34737000  0.65316100  1
  N  N8  1  0.34737000  0.65316100  0.85262000  1
  N  N9  1  0.84907500  0.84907500  0.84907500  1
  N  N10  1  0.14738000  0.65263000  0.34683900  1
  N  N11  1  0.65263000  0.34683900  0.14738000  1
  O  O12  1  0.02204400  0.21115500  0.21984400  1
  O  O13  1  0.78566100  0.47698900  0.71419800  1
  O  O14  1  0.28655100  0.72113700  0.98131800  1
  O  O15  1  0.97795600  0.78884500  0.78015600  1
  O  O16  1  0.21433900  0.52301100  0.28580200  1
  O  O17  1  0.71344900  0.27886300  0.01868200  1
  O  O18  1  0.21984400  0.02204400  0.21115500  1
  O  O19  1  0.79122000  0.27942800  0.52345000  1
  O  O20  1  0.47698900  0.71419800  0.78566100  1
  O  O21  1  0.78015600  0.97795600  0.78884500  1
  O  O22  1  0.20878000  0.72057200  0.47655000  1
  O  O23  1  0.52301100  0.28580200  0.21433900  1
  O  O24  1  0.21115500  0.21984400  0.02204400  1
  O  O25  1  0.98131800  0.28655100  0.72113700  1
  O  O26  1  0.27942800  0.52345000  0.79122000  1
  O  O27  1  0.78884500  0.78015600  0.97795600  1
  O  O28  1  0.01868200  0.71344900  0.27886300  1
  O  O29  1  0.72057200  0.47655000  0.20878000  1
  O  O30  1  0.72113700  0.98131800  0.28655100  1
  O  O31  1  0.71419800  0.78566100  0.47698900  1
  O  O32  1  0.52345000  0.79122000  0.27942800  1
  O  O33  1  0.27886300  0.01868200  0.71344900  1
  O  O34  1  0.28580200  0.21433900  0.52301100  1
  O  O35  1  0.47655000  0.20878000  0.72057200  1
