# generated using pymatgen
data_Ba3SrY2(SbO6)2
_symmetry_space_group_name_H-M   'P 1'
_cell_length_a   6.00025200
_cell_length_b   6.00434182
_cell_length_c   10.38782052
_cell_angle_alpha   73.28364755
_cell_angle_beta   73.21563299
_cell_angle_gamma   60.02710106
_symmetry_Int_Tables_number   1
_chemical_formula_structural   Ba3SrY2(SbO6)2
_chemical_formula_sum   'Ba3 Sr1 Y2 Sb2 O12'
_cell_volume   305.71262871
_cell_formula_units_Z   1
loop_
 _symmetry_equiv_pos_site_id
 _symmetry_equiv_pos_as_xyz
  1  'x, y, z'
loop_
 _atom_site_type_symbol
 _atom_site_label
 _atom_site_symmetry_multiplicity
 _atom_site_fract_x
 _atom_site_fract_y
 _atom_site_fract_z
 _atom_site_occupancy
  Ba  Ba0  1  0.62454000  0.62445000  0.12658000  1
  Ba  Ba1  1  0.12541700  0.12555900  0.62340400  1
  Ba  Ba2  1  0.37421400  0.37513300  0.87459200  1
  Sr  Sr3  1  0.87614800  0.87481400  0.37552500  1
  Y  Y4  1  0.99953400  0.99968800  0.00133000  1
  Y  Y5  1  0.50043100  0.50029100  0.49869600  1
  Sb  Sb6  1  0.24906000  0.24946900  0.25181000  1
  Sb  Sb7  1  0.75091000  0.75056800  0.74816100  1
  O  O8  1  0.12862900  0.60694900  0.13496900  1
  O  O9  1  0.63437100  0.10351800  0.62819500  1
  O  O10  1  0.86760600  0.39492800  0.86786500  1
  O  O11  1  0.36932300  0.89470300  0.36893700  1
  O  O12  1  0.32796500  0.38746200  0.37878800  1
  O  O13  1  0.83841800  0.87873600  0.87771300  1
  O  O14  1  0.66668800  0.62703200  0.61593400  1
  O  O15  1  0.16197500  0.12110600  0.12275700  1
  O  O16  1  0.88483300  0.34861800  0.35856000  1
  O  O17  1  0.38597400  0.85786100  0.85778200  1
  O  O18  1  0.61874700  0.13678700  0.14793100  1
  O  O19  1  0.11521700  0.64232800  0.64047200  1
