# generated using pymatgen
data_Ba3In2WO9
_symmetry_space_group_name_H-M   'P 1'
_cell_length_a   5.97395320
_cell_length_b   5.97395320
_cell_length_c   7.33228000
_cell_angle_alpha   90.00000000
_cell_angle_beta   90.00000000
_cell_angle_gamma   119.99999113
_symmetry_Int_Tables_number   1
_chemical_formula_structural   Ba3In2WO9
_chemical_formula_sum   'Ba3 In2 W1 O9'
_cell_volume   226.61744748
_cell_formula_units_Z   1
loop_
 _symmetry_equiv_pos_site_id
 _symmetry_equiv_pos_as_xyz
  1  'x, y, z'
loop_
 _atom_site_type_symbol
 _atom_site_label
 _atom_site_symmetry_multiplicity
 _atom_site_fract_x
 _atom_site_fract_y
 _atom_site_fract_z
 _atom_site_occupancy
  Ba  Ba0  1  0.00000000  0.00000000  0.50000000  1
  Ba  Ba1  1  0.66666700  0.33333300  0.81145200  1
  Ba  Ba2  1  0.33333300  0.66666700  0.18854800  1
  In  In3  1  0.66666700  0.33333300  0.33316000  1
  In  In4  1  0.33333300  0.66666700  0.66684000  1
  W  W5  1  0.00000000  0.00000000  0.00000000  1
  O  O6  1  0.68801900  0.84400900  0.84730100  1
  O  O7  1  0.31198100  0.15599100  0.15269900  1
  O  O8  1  0.00000000  0.50000000  0.50000000  1
  O  O9  1  0.50000000  0.00000000  0.50000000  1
  O  O10  1  0.15599100  0.31198100  0.84730100  1
  O  O11  1  0.84400900  0.68801900  0.15269900  1
  O  O12  1  0.50000000  0.50000000  0.50000000  1
  O  O13  1  0.15599100  0.84400900  0.84730100  1
  O  O14  1  0.84400900  0.15599100  0.15269900  1
