# generated using pymatgen
data_Ba3SrCa2(WO6)2
_symmetry_space_group_name_H-M   'P 1'
_cell_length_a   5.98435900
_cell_length_b   6.01234375
_cell_length_c   10.37892276
_cell_angle_alpha   73.65523655
_cell_angle_beta   73.25046008
_cell_angle_gamma   60.15636267
_symmetry_Int_Tables_number   1
_chemical_formula_structural   Ba3SrCa2(WO6)2
_chemical_formula_sum   'Ba3 Sr1 Ca2 W2 O12'
_cell_volume   305.85788824
_cell_formula_units_Z   1
loop_
 _symmetry_equiv_pos_site_id
 _symmetry_equiv_pos_as_xyz
  1  'x, y, z'
loop_
 _atom_site_type_symbol
 _atom_site_label
 _atom_site_symmetry_multiplicity
 _atom_site_fract_x
 _atom_site_fract_y
 _atom_site_fract_z
 _atom_site_occupancy
  Ba  Ba0  1  0.62483600  0.62467000  0.12569100  1
  Ba  Ba1  1  0.12514700  0.12533600  0.62431500  1
  Ba  Ba2  1  0.37474700  0.37505500  0.87487800  1
  Sr  Sr3  1  0.87529400  0.87493500  0.37515900  1
  Ca  Ca4  1  0.99973500  0.99989600  0.00054600  1
  Ca  Ca5  1  0.50026000  0.50009600  0.49946900  1
  W  W6  1  0.75068100  0.75035500  0.74878400  1
  W  W7  1  0.24930000  0.24963800  0.25122200  1
  O  O8  1  0.13365200  0.59588900  0.13655500  1
  O  O9  1  0.63613400  0.09465200  0.63328000  1
  O  O10  1  0.86451800  0.40515600  0.86449900  1
  O  O11  1  0.36570800  0.90437000  0.36562700  1
  O  O12  1  0.30388400  0.38954400  0.38273700  1
  O  O13  1  0.81087200  0.88291900  0.88200700  1
  O  O14  1  0.18947100  0.11808600  0.11756000  1
  O  O15  1  0.69185100  0.62104900  0.61380800  1
  O  O16  1  0.88810400  0.33950200  0.34725100  1
  O  O17  1  0.38888300  0.84632700  0.84640000  1
  O  O18  1  0.61456500  0.14932200  0.15711900  1
  O  O19  1  0.11235700  0.65320300  0.65309300  1
