# generated using pymatgen
data_Al4Si2Mo3
_symmetry_space_group_name_H-M   'P 1'
_cell_length_a   4.80390130
_cell_length_b   4.80390130
_cell_length_c   13.45947417
_cell_angle_alpha   84.87054598
_cell_angle_beta   84.87054598
_cell_angle_gamma   119.30885929
_symmetry_Int_Tables_number   1
_chemical_formula_structural   Al4Si2Mo3
_chemical_formula_sum   'Al8 Si4 Mo6'
_cell_volume   266.57553720
_cell_formula_units_Z   2
loop_
 _symmetry_equiv_pos_site_id
 _symmetry_equiv_pos_as_xyz
  1  'x, y, z'
loop_
 _atom_site_type_symbol
 _atom_site_label
 _atom_site_symmetry_multiplicity
 _atom_site_fract_x
 _atom_site_fract_y
 _atom_site_fract_z
 _atom_site_occupancy
  Al  Al0  1  0.37020800  0.29521600  0.83142900  1
  Al  Al1  1  0.70478400  0.62979200  0.16857100  1
  Al  Al2  1  0.62633600  0.04365000  0.33197800  1
  Al  Al3  1  0.95635000  0.37366400  0.66802200  1
  Al  Al4  1  0.29337500  0.70662500  0.00000000  1
  Al  Al5  1  0.29373700  0.36892600  0.33527800  1
  Al  Al6  1  0.63107400  0.70626300  0.66472200  1
  Al  Al7  1  0.96373400  0.03626600  0.00000000  1
  Si  Si8  1  0.71228500  0.28771500  0.50000000  1
  Si  Si9  1  0.04211600  0.63141900  0.83247000  1
  Si  Si10  1  0.36858100  0.95788400  0.16753000  1
  Si  Si11  1  0.03500300  0.96499700  0.50000000  1
  Mo  Mo12  1  0.36913900  0.63086100  0.50000000  1
  Mo  Mo13  1  0.70406000  0.96098900  0.83316500  1
  Mo  Mo14  1  0.03901100  0.29594000  0.16683500  1
  Mo  Mo15  1  0.96369800  0.70565900  0.33846100  1
  Mo  Mo16  1  0.29434100  0.03630200  0.66153900  1
  Mo  Mo17  1  0.63216900  0.36783100  0.00000000  1
