# generated using pymatgen
data_Ba7Nb4MoO20
_symmetry_space_group_name_H-M   'P 1'
_cell_length_a   5.97359386
_cell_length_b   5.97359386
_cell_length_c   16.83119100
_cell_angle_alpha   90.00000000
_cell_angle_beta   90.00000000
_cell_angle_gamma   119.99999850
_symmetry_Int_Tables_number   1
_chemical_formula_structural   Ba7Nb4MoO20
_chemical_formula_sum   'Ba7 Nb4 Mo1 O20'
_cell_volume   520.13594935
_cell_formula_units_Z   1
loop_
 _symmetry_equiv_pos_site_id
 _symmetry_equiv_pos_as_xyz
  1  'x, y, z'
loop_
 _atom_site_type_symbol
 _atom_site_label
 _atom_site_symmetry_multiplicity
 _atom_site_fract_x
 _atom_site_fract_y
 _atom_site_fract_z
 _atom_site_occupancy
  Ba  Ba0  1  0.33333300  0.66666700  0.82330900  1
  Ba  Ba1  1  0.66666700  0.33333300  0.17762900  1
  Ba  Ba2  1  0.00000000  0.00000000  0.99224700  1
  Ba  Ba3  1  0.33333300  0.66666700  0.57390200  1
  Ba  Ba4  1  0.66666700  0.33333300  0.42653900  1
  Ba  Ba5  1  0.00000000  0.00000000  0.28819500  1
  Ba  Ba6  1  0.00000000  0.00000000  0.72111200  1
  Nb  Nb7  1  0.66666700  0.33333300  0.90535200  1
  Nb  Nb8  1  0.33333300  0.66666700  0.34981300  1
  Nb  Nb9  1  0.66666700  0.33333300  0.65083000  1
  Nb  Nb10  1  0.00000000  0.00000000  0.50141300  1
  Mo  Mo11  1  0.33333300  0.66666700  0.09600200  1
  O  O12  1  0.66252900  0.83126500  0.13045400  1
  O  O13  1  0.16873500  0.83126500  0.13045400  1
  O  O14  1  0.16873500  0.33747100  0.13045400  1
  O  O15  1  0.32513800  0.16256900  0.86868600  1
  O  O16  1  0.83743100  0.16256900  0.86868600  1
  O  O17  1  0.83743100  0.67486200  0.86868600  1
  O  O18  1  0.49409800  0.50590200  0.29483600  1
  O  O19  1  0.49409800  0.98819500  0.29483600  1
  O  O20  1  0.01180500  0.50590200  0.29483600  1
  O  O21  1  0.50516500  0.49483500  0.70357800  1
  O  O22  1  0.50516500  0.01032900  0.70357800  1
  O  O23  1  0.98967100  0.49483500  0.70357800  1
  O  O24  1  0.67477200  0.83738600  0.43052500  1
  O  O25  1  0.16261400  0.83738600  0.43052500  1
  O  O26  1  0.16261400  0.32522800  0.43052500  1
  O  O27  1  0.32567400  0.16283700  0.56771700  1
  O  O28  1  0.83716300  0.16283700  0.56771700  1
  O  O29  1  0.83716300  0.67432600  0.56771700  1
  O  O30  1  0.33333300  0.66666700  0.98933600  1
  O  O31  1  0.66666700  0.33333300  0.01694400  1
