# generated using pymatgen
data_Ca3Mn2WO9
_symmetry_space_group_name_H-M   'P 1'
_cell_length_a   5.58971500
_cell_length_b   7.87681600
_cell_length_c   18.05653885
_cell_angle_alpha   64.47394073
_cell_angle_beta   90.00000000
_cell_angle_gamma   90.00000000
_symmetry_Int_Tables_number   1
_chemical_formula_structural   Ca3Mn2WO9
_chemical_formula_sum   'Ca12 Mn8 W4 O36'
_cell_volume   717.41235363
_cell_formula_units_Z   4
loop_
 _symmetry_equiv_pos_site_id
 _symmetry_equiv_pos_as_xyz
  1  'x, y, z'
loop_
 _atom_site_type_symbol
 _atom_site_label
 _atom_site_symmetry_multiplicity
 _atom_site_fract_x
 _atom_site_fract_y
 _atom_site_fract_z
 _atom_site_occupancy
  Ca  Ca0  1  0.45716300  0.92194300  0.83652100  1
  Ca  Ca1  1  0.44585000  0.23459400  0.49670700  1
  Ca  Ca2  1  0.44448400  0.61007600  0.15462900  1
  Ca  Ca3  1  0.05415000  0.23459400  0.99670700  1
  Ca  Ca4  1  0.05551600  0.61007600  0.65462900  1
  Ca  Ca5  1  0.04283700  0.92194300  0.33652100  1
  Ca  Ca6  1  0.55551600  0.38992400  0.84537100  1
  Ca  Ca7  1  0.55415000  0.76540600  0.50329300  1
  Ca  Ca8  1  0.54283700  0.07805700  0.16347900  1
  Ca  Ca9  1  0.95716300  0.07805700  0.66347900  1
  Ca  Ca10  1  0.94448400  0.38992400  0.34537100  1
  Ca  Ca11  1  0.94585000  0.76540600  0.00329300  1
  Mn  Mn12  1  0.50000000  0.50000000  0.00000000  1
  Mn  Mn13  1  0.50616400  0.83430100  0.66668800  1
  Mn  Mn14  1  0.49383600  0.16569900  0.33331200  1
  Mn  Mn15  1  0.00616400  0.16569900  0.83331200  1
  Mn  Mn16  1  0.00000000  0.50000000  0.50000000  1
  Mn  Mn17  1  0.99383600  0.83430100  0.16668800  1
  Mn  Mn18  1  0.50000000  0.00000000  0.00000000  1
  Mn  Mn19  1  0.00000000  0.00000000  0.50000000  1
  W  W20  1  0.50304800  0.33485300  0.66813800  1
  W  W21  1  0.49695200  0.66514700  0.33186200  1
  W  W22  1  0.00304800  0.66514700  0.83186200  1
  W  W23  1  0.99695200  0.33485300  0.16813800  1
  O  O24  1  0.29041800  0.55494800  0.89385400  1
  O  O25  1  0.30501100  0.88584600  0.57322800  1
  O  O26  1  0.28796100  0.21293100  0.23362800  1
  O  O27  1  0.21203900  0.21293100  0.73362800  1
  O  O28  1  0.20958200  0.55494800  0.39385400  1
  O  O29  1  0.19498900  0.88584600  0.07322800  1
  O  O30  1  0.71203900  0.78706900  0.76637200  1
  O  O31  1  0.69498900  0.11415400  0.42677200  1
  O  O32  1  0.70958200  0.44505200  0.10614600  1
  O  O33  1  0.80501100  0.11415400  0.92677200  1
  O  O34  1  0.79041800  0.44505200  0.60614600  1
  O  O35  1  0.78796100  0.78706900  0.26637200  1
  O  O36  1  0.02614400  0.86971500  0.86356100  1
  O  O37  1  0.02796200  0.23374400  0.52482500  1
  O  O38  1  0.02917200  0.53496500  0.20300300  1
  O  O39  1  0.47082800  0.53496500  0.70300300  1
  O  O40  1  0.47385600  0.86971500  0.36356100  1
  O  O41  1  0.47203800  0.23374400  0.02482500  1
  O  O42  1  0.97082800  0.46503500  0.79699700  1
  O  O43  1  0.97203800  0.76625600  0.47517500  1
  O  O44  1  0.97385600  0.13028500  0.13643900  1
  O  O45  1  0.52796200  0.76625600  0.97517500  1
  O  O46  1  0.52614400  0.13028500  0.63643900  1
  O  O47  1  0.52917200  0.46503500  0.29699700  1
  O  O48  1  0.20033300  0.81125500  0.73563800  1
  O  O49  1  0.19980600  0.13262200  0.40230000  1
  O  O50  1  0.19161900  0.48129100  0.07253200  1
  O  O51  1  0.30019400  0.13262200  0.90230000  1
  O  O52  1  0.30838100  0.48129100  0.57253200  1
  O  O53  1  0.29966700  0.81125500  0.23563800  1
  O  O54  1  0.80838100  0.51870900  0.92746800  1
  O  O55  1  0.80019400  0.86737800  0.59770000  1
  O  O56  1  0.79966700  0.18874500  0.26436200  1
  O  O57  1  0.70033300  0.18874500  0.76436200  1
  O  O58  1  0.69161900  0.51870900  0.42746800  1
  O  O59  1  0.69980600  0.86737800  0.09770000  1
