# generated using pymatgen
data_Ba5La3(GaO4)4
_symmetry_space_group_name_H-M   'P 1'
_cell_length_a   6.01133100
_cell_length_b   7.48676123
_cell_length_c   10.16796714
_cell_angle_alpha   89.68493348
_cell_angle_beta   89.66187972
_cell_angle_gamma   89.53625702
_symmetry_Int_Tables_number   1
_chemical_formula_structural   Ba5La3(GaO4)4
_chemical_formula_sum   'Ba5 La3 Ga4 O16'
_cell_volume   457.58367023
_cell_formula_units_Z   1
loop_
 _symmetry_equiv_pos_site_id
 _symmetry_equiv_pos_as_xyz
  1  'x, y, z'
loop_
 _atom_site_type_symbol
 _atom_site_label
 _atom_site_symmetry_multiplicity
 _atom_site_fract_x
 _atom_site_fract_y
 _atom_site_fract_z
 _atom_site_occupancy
  Ba  Ba0  1  0.25647700  0.83477500  0.67333200  1
  Ba  Ba1  1  0.75958700  0.16718100  0.82907000  1
  Ba  Ba2  1  0.74168700  0.66327800  0.16687300  1
  Ba  Ba3  1  0.24017400  0.33410500  0.32802100  1
  Ba  Ba4  1  0.26691800  0.99447200  0.05390900  1
  La  La5  1  0.76367500  0.00566500  0.45157900  1
  La  La6  1  0.73358300  0.50439300  0.54620800  1
  La  La7  1  0.23633200  0.49345300  0.94913100  1
  Ga  Ga8  1  0.23735400  0.77480500  0.33999800  1
  Ga  Ga9  1  0.74013700  0.22931300  0.16737200  1
  Ga  Ga10  1  0.75710700  0.71114600  0.82876000  1
  Ga  Ga11  1  0.25839000  0.28387400  0.66037200  1
  O  O12  1  0.24223200  0.64808600  0.18057400  1
  O  O13  1  0.74207300  0.35130700  0.32931800  1
  O  O14  1  0.75185200  0.84883400  0.67199500  1
  O  O15  1  0.25201500  0.16177900  0.82057700  1
  O  O16  1  0.12453100  0.00471100  0.31602900  1
  O  O17  1  0.65529600  0.99958700  0.21370500  1
  O  O18  1  0.87153900  0.48882800  0.77968100  1
  O  O19  1  0.37428900  0.50602500  0.70227400  1
  O  O20  1  0.00836800  0.68176400  0.44611700  1
  O  O21  1  0.51223600  0.32317400  0.06062700  1
  O  O22  1  0.98946400  0.78633900  0.93506100  1
  O  O23  1  0.49286800  0.19313800  0.55476400  1
  O  O24  1  0.50565000  0.73873400  0.42842700  1
  O  O25  1  0.99535900  0.29002400  0.07403600  1
  O  O26  1  0.49633700  0.74123300  0.92279900  1
  O  O27  1  0.99447300  0.23997700  0.56939300  1
