# generated using pymatgen
data_CaV6O23
_symmetry_space_group_name_H-M   'P 1'
_cell_length_a   3.67622300
_cell_length_b   10.82570200
_cell_length_c   12.58072135
_cell_angle_alpha   93.33005963
_cell_angle_beta   90.00000000
_cell_angle_gamma   90.00000000
_symmetry_Int_Tables_number   1
_chemical_formula_structural   CaV6O23
_chemical_formula_sum   'Ca1 V6 O23'
_cell_volume   499.83829235
_cell_formula_units_Z   1
loop_
 _symmetry_equiv_pos_site_id
 _symmetry_equiv_pos_as_xyz
  1  'x, y, z'
loop_
 _atom_site_type_symbol
 _atom_site_label
 _atom_site_symmetry_multiplicity
 _atom_site_fract_x
 _atom_site_fract_y
 _atom_site_fract_z
 _atom_site_occupancy
  Ca  Ca0  1  0.25000000  0.45963100  0.23738900  1
  V  V1  1  0.25000000  0.02964000  0.78838200  1
  V  V2  1  0.75000000  0.95772700  0.20532200  1
  V  V3  1  0.25000000  0.90692800  0.55217800  1
  V  V4  1  0.75000000  0.08796500  0.43703900  1
  V  V5  1  0.25000000  0.10462100  0.03827500  1
  V  V6  1  0.75000000  0.87263700  0.94601100  1
  O  O7  1  0.25000000  0.36805100  0.71993400  1
  O  O8  1  0.75000000  0.56118100  0.31767100  1
  O  O9  1  0.25000000  0.03303000  0.44626800  1
  O  O10  1  0.75000000  0.95873300  0.54784100  1
  O  O11  1  0.25000000  0.16289000  0.91758100  1
  O  O12  1  0.75000000  0.84426300  0.08145300  1
  O  O13  1  0.25000000  0.64690000  0.17146600  1
  O  O14  1  0.75000000  0.36140500  0.82171400  1
  O  O15  1  0.25000000  0.27441500  0.11838100  1
  O  O16  1  0.75000000  0.74009400  0.88112300  1
  O  O17  1  0.25000000  0.89130200  0.69659100  1
  O  O18  1  0.75000000  0.10606000  0.29661900  1
  O  O19  1  0.25000000  0.67757500  0.67672400  1
  O  O20  1  0.75000000  0.44009700  0.34115000  1
  O  O21  1  0.25000000  0.76718600  0.49903100  1
  O  O22  1  0.75000000  0.22561300  0.49323800  1
  O  O23  1  0.25000000  0.99716600  0.16877600  1
  O  O24  1  0.75000000  0.00179300  0.82721500  1
  O  O25  1  0.25000000  0.13746700  0.70442500  1
  O  O26  1  0.75000000  0.85981600  0.29732400  1
  O  O27  1  0.25000000  0.93611000  0.94980800  1
  O  O28  1  0.75000000  0.09530500  0.06066600  1
  O  O29  1  0.25000000  0.37340000  0.05940500  1
