# generated using pymatgen
data_Ba4Sr(SnO3)5
_symmetry_space_group_name_H-M   'P 1'
_cell_length_a   12.52515227
_cell_length_b   12.52515227
_cell_length_c   12.52515255
_cell_angle_alpha   27.27175396
_cell_angle_beta   27.27175396
_cell_angle_gamma   27.27175226
_symmetry_Int_Tables_number   1
_chemical_formula_structural   Ba4Sr(SnO3)5
_chemical_formula_sum   'Ba4 Sr1 Sn5 O15'
_cell_volume   364.02109837
_cell_formula_units_Z   1
loop_
 _symmetry_equiv_pos_site_id
 _symmetry_equiv_pos_as_xyz
  1  'x, y, z'
loop_
 _atom_site_type_symbol
 _atom_site_label
 _atom_site_symmetry_multiplicity
 _atom_site_fract_x
 _atom_site_fract_y
 _atom_site_fract_z
 _atom_site_occupancy
  Ba  Ba0  1  0.39986100  0.39986100  0.39986100  1
  Ba  Ba1  1  0.80000600  0.80000600  0.80000600  1
  Ba  Ba2  1  0.19999400  0.19999400  0.19999400  1
  Ba  Ba3  1  0.60013900  0.60013900  0.60013900  1
  Sr  Sr4  1  0.00000000  0.00000000  0.00000000  1
  Sn  Sn5  1  0.30014300  0.30014300  0.30014300  1
  Sn  Sn6  1  0.50000000  0.50000000  0.50000000  1
  Sn  Sn7  1  0.90017300  0.90017300  0.90017300  1
  Sn  Sn8  1  0.69985700  0.69985700  0.69985700  1
  Sn  Sn9  1  0.09982700  0.09982700  0.09982700  1
  O  O10  1  0.50000000  0.50000000  0.00000000  1
  O  O11  1  0.70010000  0.70010000  0.19982700  1
  O  O12  1  0.09958000  0.09958000  0.60213000  1
  O  O13  1  0.90042000  0.90042000  0.39787000  1
  O  O14  1  0.29990000  0.29990000  0.80017300  1
  O  O15  1  0.60213000  0.09958000  0.09958000  1
  O  O16  1  0.80017300  0.29990000  0.29990000  1
  O  O17  1  0.19982700  0.70010000  0.70010000  1
  O  O18  1  0.00000000  0.50000000  0.50000000  1
  O  O19  1  0.39787000  0.90042000  0.90042000  1
  O  O20  1  0.09958000  0.60213000  0.09958000  1
  O  O21  1  0.29990000  0.80017300  0.29990000  1
  O  O22  1  0.70010000  0.19982700  0.70010000  1
  O  O23  1  0.50000000  0.00000000  0.50000000  1
  O  O24  1  0.90042000  0.39787000  0.90042000  1
