# generated using pymatgen
data_Ba4SiGeS8
_symmetry_space_group_name_H-M   'P 1'
_cell_length_a   6.86025000
_cell_length_b   9.06367200
_cell_length_c   12.46545200
_cell_angle_alpha   90.00000000
_cell_angle_beta   90.00000000
_cell_angle_gamma   90.00000000
_symmetry_Int_Tables_number   1
_chemical_formula_structural   Ba4SiGeS8
_chemical_formula_sum   'Ba8 Si2 Ge2 S16'
_cell_volume   775.09003595
_cell_formula_units_Z   2
loop_
 _symmetry_equiv_pos_site_id
 _symmetry_equiv_pos_as_xyz
  1  'x, y, z'
loop_
 _atom_site_type_symbol
 _atom_site_label
 _atom_site_symmetry_multiplicity
 _atom_site_fract_x
 _atom_site_fract_y
 _atom_site_fract_z
 _atom_site_occupancy
  Ba  Ba0  1  0.50000000  0.37245700  0.32752800  1
  Ba  Ba1  1  0.50000000  0.87245700  0.67247200  1
  Ba  Ba2  1  0.00000000  0.62894400  0.16690000  1
  Ba  Ba3  1  0.00000000  0.12894400  0.83310000  1
  Ba  Ba4  1  0.50000000  0.01944800  0.08051300  1
  Ba  Ba5  1  0.50000000  0.51944800  0.91948700  1
  Ba  Ba6  1  0.00000000  0.98103500  0.41811500  1
  Ba  Ba7  1  0.00000000  0.48103500  0.58188500  1
  Si  Si8  1  0.00000000  0.73126100  0.82456000  1
  Si  Si9  1  0.00000000  0.23126100  0.17544000  1
  Ge  Ge10  1  0.50000000  0.27014600  0.67416300  1
  Ge  Ge11  1  0.50000000  0.77014600  0.32583700  1
  S  S12  1  0.25442200  0.32411500  0.10598900  1
  S  S13  1  0.74557800  0.82411500  0.89401100  1
  S  S14  1  0.76581800  0.67095200  0.39387400  1
  S  S15  1  0.23418200  0.17095200  0.60612600  1
  S  S16  1  0.23418200  0.67095200  0.39387400  1
  S  S17  1  0.76581800  0.17095200  0.60612600  1
  S  S18  1  0.74557800  0.32411500  0.10598900  1
  S  S19  1  0.25442200  0.82411500  0.89401100  1
  S  S20  1  0.50000000  0.19026200  0.84427900  1
  S  S21  1  0.50000000  0.69026200  0.15572100  1
  S  S22  1  0.00000000  0.80602200  0.66174800  1
  S  S23  1  0.00000000  0.30602200  0.33825200  1
  S  S24  1  0.50000000  0.01295000  0.34771000  1
  S  S25  1  0.50000000  0.51295000  0.65229000  1
  S  S26  1  0.00000000  0.99733900  0.15452900  1
  S  S27  1  0.00000000  0.49733900  0.84547100  1
