# generated using pymatgen
data_Ba3Sr(MoO4)4
_symmetry_space_group_name_H-M   'P 1'
_cell_length_a   5.63645600
_cell_length_b   7.55824966
_cell_length_c   10.98406623
_cell_angle_alpha   72.21574978
_cell_angle_beta   75.13495644
_cell_angle_gamma   68.10873999
_symmetry_Int_Tables_number   1
_chemical_formula_structural   Ba3Sr(MoO4)4
_chemical_formula_sum   'Ba3 Sr1 Mo4 O16'
_cell_volume   408.02460532
_cell_formula_units_Z   1
loop_
 _symmetry_equiv_pos_site_id
 _symmetry_equiv_pos_as_xyz
  1  'x, y, z'
loop_
 _atom_site_type_symbol
 _atom_site_label
 _atom_site_symmetry_multiplicity
 _atom_site_fract_x
 _atom_site_fract_y
 _atom_site_fract_z
 _atom_site_occupancy
  Ba  Ba0  1  0.62570100  0.43734000  0.31112000  1
  Ba  Ba1  1  0.62430200  0.93767800  0.81387400  1
  Ba  Ba2  1  0.37497100  0.56246400  0.68764600  1
  Sr  Sr3  1  0.37486600  0.06257000  0.18750600  1
  Mo  Mo4  1  0.12405000  0.68834600  0.06495400  1
  Mo  Mo5  1  0.12613000  0.18641800  0.55997900  1
  Mo  Mo6  1  0.87493600  0.30957400  0.94050800  1
  Mo  Mo7  1  0.87486400  0.81560900  0.43452600  1
  O  O8  1  0.32093900  0.44820100  0.14130800  1
  O  O9  1  0.32458400  0.95337100  0.64080000  1
  O  O10  1  0.08221300  0.68984300  0.90792700  1
  O  O11  1  0.08878600  0.18405100  0.40167900  1
  O  O12  1  0.18466100  0.25525900  0.83755200  1
  O  O13  1  0.19047200  0.76605000  0.33403700  1
  O  O14  1  0.70893700  0.13452800  0.96601000  1
  O  O15  1  0.72286900  0.63352700  0.45886800  1
  O  O16  1  0.67701000  0.54490200  0.86116200  1
  O  O17  1  0.66618700  0.04630500  0.35475000  1
  O  O18  1  0.93247300  0.30516500  0.09585300  1
  O  O19  1  0.91731900  0.81421700  0.59181300  1
  O  O20  1  0.80624000  0.75056000  0.16188800  1
  O  O21  1  0.81325500  0.24306700  0.66082400  1
  O  O22  1  0.28242200  0.86592200  0.04552600  1
  O  O23  1  0.28181200  0.36503100  0.53988900  1
