# generated using pymatgen
data_Bi5(PO5)3
_symmetry_space_group_name_H-M   'P 1'
_cell_length_a   10.19066800
_cell_length_b   12.00150472
_cell_length_c   12.21397895
_cell_angle_alpha   111.02241660
_cell_angle_beta   93.04298585
_cell_angle_gamma   107.84259142
_symmetry_Int_Tables_number   1
_chemical_formula_structural   Bi5(PO5)3
_chemical_formula_sum   'Bi20 P12 O60'
_cell_volume   1304.79007700
_cell_formula_units_Z   4
loop_
 _symmetry_equiv_pos_site_id
 _symmetry_equiv_pos_as_xyz
  1  'x, y, z'
loop_
 _atom_site_type_symbol
 _atom_site_label
 _atom_site_symmetry_multiplicity
 _atom_site_fract_x
 _atom_site_fract_y
 _atom_site_fract_z
 _atom_site_occupancy
  Bi  Bi0  1  0.81093400  0.48842700  0.49170700  1
  Bi  Bi1  1  0.14602700  0.82549500  0.15210100  1
  Bi  Bi2  1  0.47869600  0.15308600  0.82706300  1
  Bi  Bi3  1  0.85397300  0.17450500  0.84789900  1
  Bi  Bi4  1  0.18906600  0.51157300  0.50829300  1
  Bi  Bi5  1  0.52130400  0.84691400  0.17293700  1
  Bi  Bi6  1  0.66014900  0.14698600  0.47015300  1
  Bi  Bi7  1  0.99266600  0.48101600  0.13768000  1
  Bi  Bi8  1  0.32483100  0.81638900  0.80715700  1
  Bi  Bi9  1  0.00733400  0.51898400  0.86232000  1
  Bi  Bi10  1  0.33985100  0.85301400  0.52984700  1
  Bi  Bi11  1  0.67516900  0.18361100  0.19284300  1
  Bi  Bi12  1  0.77660900  0.69455800  0.01396000  1
  Bi  Bi13  1  0.09607100  0.01186000  0.69413000  1
  Bi  Bi14  1  0.43731300  0.34668200  0.34877000  1
  Bi  Bi15  1  0.90392900  0.98814000  0.30587000  1
  Bi  Bi16  1  0.22339100  0.30544200  0.98604000  1
  Bi  Bi17  1  0.56268700  0.65331800  0.65123000  1
  Bi  Bi18  1  0.32954300  0.33014700  0.66929400  1
  Bi  Bi19  1  0.67045700  0.66985300  0.33070600  1
  P  P20  1  0.00292100  0.25784800  0.60374600  1
  P  P21  1  0.33737900  0.59119300  0.27017900  1
  P  P22  1  0.67318900  0.92454100  0.93642100  1
  P  P23  1  0.66262100  0.40880700  0.72982100  1
  P  P24  1  0.99707900  0.74215200  0.39625400  1
  P  P25  1  0.32681100  0.07545900  0.06357900  1
  P  P26  1  0.69377900  0.93360600  0.57454400  1
  P  P27  1  0.02656600  0.26463000  0.24088600  1
  P  P28  1  0.36137700  0.59961000  0.90684300  1
  P  P29  1  0.97343400  0.73537000  0.75911400  1
  P  P30  1  0.30622100  0.06639400  0.42545600  1
  P  P31  1  0.63862300  0.40039000  0.09315700  1
  O  O32  1  0.72122400  0.96153000  0.46142100  1
  O  O33  1  0.05713900  0.29840500  0.12990800  1
  O  O34  1  0.39004100  0.62902600  0.79403700  1
  O  O35  1  0.94286100  0.70159500  0.87009200  1
  O  O36  1  0.27877600  0.03847000  0.53857900  1
  O  O37  1  0.60995900  0.37097400  0.20596300  1
  O  O38  1  0.96821900  0.11984300  0.20547200  1
  O  O39  1  0.30570900  0.45152100  0.86584200  1
  O  O40  1  0.63806500  0.78521900  0.53441800  1
  O  O41  1  0.69429100  0.54847900  0.13415800  1
  O  O42  1  0.03178100  0.88015700  0.79452800  1
  O  O43  1  0.36193500  0.21478100  0.46558200  1
  O  O44  1  0.90638400  0.21536700  0.48299300  1
  O  O45  1  0.24025500  0.54811800  0.15025800  1
  O  O46  1  0.57083800  0.87803400  0.81545900  1
  O  O47  1  0.75974500  0.45188200  0.84974200  1
  O  O48  1  0.09361600  0.78463300  0.51700700  1
  O  O49  1  0.42916200  0.12196600  0.18454100  1
  O  O50  1  0.08857100  0.16880700  0.59736300  1
  O  O51  1  0.42100800  0.50075300  0.26461400  1
  O  O52  1  0.74216800  0.82439200  0.92478200  1
  O  O53  1  0.57899200  0.49924700  0.73538600  1
  O  O54  1  0.91142900  0.83119300  0.40263700  1
  O  O55  1  0.25783200  0.17560800  0.07521800  1
  O  O56  1  0.91473300  0.32646300  0.29032400  1
  O  O57  1  0.24746600  0.65668500  0.95591900  1
  O  O58  1  0.58023800  0.99044400  0.62491400  1
  O  O59  1  0.75253400  0.34331500  0.04408100  1
  O  O60  1  0.08526700  0.67353700  0.70967600  1
  O  O61  1  0.41976200  0.00955600  0.37508600  1
  O  O62  1  0.04669900  0.14360700  0.85771500  1
  O  O63  1  0.37707200  0.47157000  0.53584000  1
  O  O64  1  0.70729300  0.80538000  0.20124600  1
  O  O65  1  0.62292800  0.52843000  0.46416000  1
  O  O66  1  0.95330100  0.85639300  0.14228500  1
  O  O67  1  0.29270700  0.19462000  0.79875400  1
  O  O68  1  0.82753300  0.99345000  0.67236300  1
  O  O69  1  0.16277000  0.32863100  0.33893600  1
  O  O70  1  0.49374800  0.66054500  0.00578200  1
  O  O71  1  0.83723000  0.67136900  0.66106400  1
  O  O72  1  0.17246700  0.00655000  0.32763700  1
  O  O73  1  0.50625200  0.33945500  0.99421800  1
  O  O74  1  0.12011100  0.39090500  0.63269300  1
  O  O75  1  0.45379000  0.72414400  0.30028300  1
  O  O76  1  0.77713200  0.06006200  0.96612600  1
  O  O77  1  0.54621000  0.27585600  0.69971700  1
  O  O78  1  0.87988900  0.60909500  0.36730700  1
  O  O79  1  0.22286800  0.93993800  0.03387400  1
  O  O80  1  0.01631500  0.38097400  0.95433000  1
  O  O81  1  0.35302600  0.71541800  0.61973700  1
  O  O82  1  0.68485700  0.04913500  0.28526500  1
  O  O83  1  0.64697400  0.28458200  0.38026300  1
  O  O84  1  0.98368500  0.61902600  0.04567000  1
  O  O85  1  0.31514300  0.95086500  0.71473500  1
  O  O86  1  0.91533100  0.26840200  0.70418400  1
  O  O87  1  0.25039200  0.60264000  0.37175600  1
  O  O88  1  0.58525100  0.93718800  0.03978100  1
  O  O89  1  0.74960800  0.39736000  0.62824400  1
  O  O90  1  0.08466900  0.73159800  0.29581600  1
  O  O91  1  0.41474900  0.06281200  0.96021900  1
