# generated using pymatgen
data_Ce4C10O31
_symmetry_space_group_name_H-M   'P 1'
_cell_length_a   6.47238300
_cell_length_b   8.33297163
_cell_length_c   13.02896012
_cell_angle_alpha   106.78583300
_cell_angle_beta   90.93266489
_cell_angle_gamma   102.68083528
_symmetry_Int_Tables_number   1
_chemical_formula_structural   Ce4C10O31
_chemical_formula_sum   'Ce4 C10 O31'
_cell_volume   653.96239620
_cell_formula_units_Z   1
loop_
 _symmetry_equiv_pos_site_id
 _symmetry_equiv_pos_as_xyz
  1  'x, y, z'
loop_
 _atom_site_type_symbol
 _atom_site_label
 _atom_site_symmetry_multiplicity
 _atom_site_fract_x
 _atom_site_fract_y
 _atom_site_fract_z
 _atom_site_occupancy
  Ce  Ce0  1  0.90772600  0.97688900  0.73300900  1
  Ce  Ce1  1  0.09348500  0.02057000  0.26493000  1
  Ce  Ce2  1  0.68550500  0.31222100  0.90406400  1
  Ce  Ce3  1  0.31703500  0.68772100  0.09463500  1
  C  C4  1  0.95322700  0.69753000  0.86501600  1
  C  C5  1  0.04627500  0.30125000  0.13388100  1
  C  C6  1  0.90737400  0.92030800  0.47497000  1
  C  C7  1  0.09156200  0.08060100  0.52303900  1
  C  C8  1  0.22734600  0.29107700  0.87300500  1
  C  C9  1  0.77502500  0.70806000  0.12638900  1
  C  C10  1  0.56151500  0.94212100  0.96133700  1
  C  C11  1  0.43842900  0.05843300  0.03737700  1
  C  C12  1  0.76259000  0.60511100  0.77887700  1
  C  C13  1  0.23666900  0.39379800  0.21994000  1
  O  O14  1  0.34740900  0.43415900  0.92978200  1
  O  O15  1  0.65352500  0.56535000  0.07020200  1
  O  O16  1  0.02445900  0.27080300  0.85194600  1
  O  O17  1  0.97745500  0.72640300  0.14801400  1
  O  O18  1  0.68083800  0.10926800  0.74543000  1
  O  O19  1  0.32247700  0.89037200  0.25196900  1
  O  O20  1  0.05107700  0.84433900  0.86108300  1
  O  O21  1  0.94874400  0.15445900  0.13809200  1
  O  O22  1  0.81601100  0.84898800  0.54106100  1
  O  O23  1  0.18511100  0.15049400  0.45671300  1
  O  O24  1  0.24046000  0.61330600  0.64990800  1
  O  O25  1  0.77700100  0.39120700  0.33758300  1
  O  O26  1  0.99117600  0.61790300  0.93009200  1
  O  O27  1  0.00774000  0.38066600  0.06889600  1
  O  O28  1  0.18157600  0.74052800  0.64070500  1
  O  O29  1  0.77162000  0.24466000  0.34263700  1
  O  O30  1  0.66170500  0.45631800  0.77790400  1
  O  O31  1  0.33750700  0.54284000  0.22163400  1
  O  O32  1  0.72313600  0.68580100  0.71531600  1
  O  O33  1  0.27537300  0.31290200  0.28370700  1
  O  O34  1  0.30744600  0.16029300  0.83289900  1
  O  O35  1  0.69714500  0.84034700  0.16547200  1
  O  O36  1  0.86779300  0.87555700  0.37410300  1
  O  O37  1  0.13204500  0.12558900  0.62396100  1
  O  O38  1  0.51696500  0.78440500  0.95433100  1
  O  O39  1  0.48392200  0.21636000  0.04490400  1
  O  O40  1  0.69888700  0.01751500  0.91165300  1
  O  O41  1  0.30047700  0.98270100  0.08663300  1
  O  O42  1  0.36092300  0.57755400  0.49401000  1
  O  O43  1  0.30171600  0.70227700  0.48365100  1
  O  O44  1  0.81852000  0.28394500  0.56314100  1
