# generated using pymatgen
data_Ba8Y4Cu(WO8)3
_symmetry_space_group_name_H-M   'P 1'
_cell_length_a   10.53162582
_cell_length_b   10.53162582
_cell_length_c   10.53162582
_cell_angle_alpha   132.43322488
_cell_angle_beta   132.43322488
_cell_angle_gamma   69.54564993
_symmetry_Int_Tables_number   1
_chemical_formula_structural   Ba8Y4Cu(WO8)3
_chemical_formula_sum   'Ba8 Y4 Cu1 W3 O24'
_cell_volume   624.20145683
_cell_formula_units_Z   1
loop_
 _symmetry_equiv_pos_site_id
 _symmetry_equiv_pos_as_xyz
  1  'x, y, z'
loop_
 _atom_site_type_symbol
 _atom_site_label
 _atom_site_symmetry_multiplicity
 _atom_site_fract_x
 _atom_site_fract_y
 _atom_site_fract_z
 _atom_site_occupancy
  Ba  Ba0  1  0.65095900  0.65095900  0.53770800  1
  Ba  Ba1  1  0.88674900  0.34904100  0.00000000  1
  Ba  Ba2  1  0.11325100  0.11325100  0.46229200  1
  Ba  Ba3  1  0.34904100  0.88674900  0.00000000  1
  Ba  Ba4  1  0.34904100  0.34904100  0.46229200  1
  Ba  Ba5  1  0.65095900  0.11325100  0.00000000  1
  Ba  Ba6  1  0.88674900  0.88674900  0.53770800  1
  Ba  Ba7  1  0.11325100  0.65095900  0.00000000  1
  Y  Y8  1  0.00000000  0.50000000  0.50000000  1
  Y  Y9  1  0.25701500  0.25701500  0.00000000  1
  Y  Y10  1  0.50000000  0.00000000  0.50000000  1
  Y  Y11  1  0.74298500  0.74298500  0.00000000  1
  Cu  Cu12  1  0.00000000  0.00000000  0.00000000  1
  W  W13  1  0.25000000  0.75000000  0.50000000  1
  W  W14  1  0.50000000  0.50000000  0.00000000  1
  W  W15  1  0.75000000  0.25000000  0.50000000  1
  O  O16  1  0.00000000  0.75626000  0.75626000  1
  O  O17  1  0.25172300  0.52167800  0.26995500  1
  O  O18  1  0.50000000  0.26795500  0.76795500  1
  O  O19  1  0.74827700  0.01823200  0.26995500  1
  O  O20  1  0.13509000  0.63509000  0.50000000  1
  O  O21  1  0.38780100  0.38780100  0.00000000  1
  O  O22  1  0.63509000  0.13509000  0.50000000  1
  O  O23  1  0.86572000  0.86572000  0.00000000  1
  O  O24  1  0.26795500  0.50000000  0.76795500  1
  O  O25  1  0.52167800  0.25172300  0.26995500  1
  O  O26  1  0.75626000  0.00000000  0.75626000  1
  O  O27  1  0.01823200  0.74827700  0.26995500  1
  O  O28  1  0.00000000  0.24374000  0.24374000  1
  O  O29  1  0.25172300  0.98176800  0.73004500  1
  O  O30  1  0.50000000  0.73204500  0.23204500  1
  O  O31  1  0.74827700  0.47832200  0.73004500  1
  O  O32  1  0.86491000  0.36491000  0.50000000  1
  O  O33  1  0.13428000  0.13428000  0.00000000  1
  O  O34  1  0.36491000  0.86491000  0.50000000  1
  O  O35  1  0.61219900  0.61219900  0.00000000  1
  O  O36  1  0.73204500  0.50000000  0.23204500  1
  O  O37  1  0.98176800  0.25172300  0.73004500  1
  O  O38  1  0.24374000  0.00000000  0.24374000  1
  O  O39  1  0.47832200  0.74827700  0.73004500  1
