# generated using pymatgen
data_BaLa8Co(Si3O13)2
_symmetry_space_group_name_H-M   'P 1'
_cell_length_a   9.81295361
_cell_length_b   9.81295361
_cell_length_c   7.23802300
_cell_angle_alpha   90.00000000
_cell_angle_beta   90.00000000
_cell_angle_gamma   119.99999737
_symmetry_Int_Tables_number   1
_chemical_formula_structural   BaLa8Co(Si3O13)2
_chemical_formula_sum   'Ba1 La8 Co1 Si6 O26'
_cell_volume   603.60119865
_cell_formula_units_Z   1
loop_
 _symmetry_equiv_pos_site_id
 _symmetry_equiv_pos_as_xyz
  1  'x, y, z'
loop_
 _atom_site_type_symbol
 _atom_site_label
 _atom_site_symmetry_multiplicity
 _atom_site_fract_x
 _atom_site_fract_y
 _atom_site_fract_z
 _atom_site_occupancy
  Ba  Ba0  1  0.33333300  0.66666700  0.56774100  1
  La  La1  1  0.24141000  0.23186700  0.81882500  1
  La  La2  1  0.99045700  0.75859000  0.81882500  1
  La  La3  1  0.76813300  0.00954300  0.81882500  1
  La  La4  1  0.75816100  0.76692300  0.31467100  1
  La  La5  1  0.00876200  0.24183900  0.31467100  1
  La  La6  1  0.23307700  0.99123800  0.31467100  1
  La  La7  1  0.66666700  0.33333300  0.55706200  1
  La  La8  1  0.33333300  0.66666700  0.06655900  1
  Co  Co9  1  0.66666700  0.33333300  0.03849800  1
  Si  Si10  1  0.01914700  0.39721600  0.82728800  1
  Si  Si11  1  0.37806900  0.98085300  0.82728800  1
  Si  Si12  1  0.60278400  0.62193100  0.82728800  1
  Si  Si13  1  0.96414100  0.59722400  0.30535900  1
  Si  Si14  1  0.63308300  0.03585900  0.30535900  1
  Si  Si15  1  0.40277600  0.36691700  0.30535900  1
  O  O16  1  0.90677300  0.64579800  0.49935900  1
  O  O17  1  0.73902400  0.09322700  0.49935900  1
  O  O18  1  0.35420200  0.26097600  0.49935900  1
  O  O19  1  0.08870600  0.34240000  0.00254400  1
  O  O20  1  0.25369400  0.91129400  0.00254400  1
  O  O21  1  0.65760000  0.74630600  0.00254400  1
  O  O22  1  0.11298500  0.59103200  0.83280700  1
  O  O23  1  0.47804700  0.88701500  0.83280700  1
  O  O24  1  0.40896800  0.52195300  0.83280700  1
  O  O25  1  0.86604900  0.40354300  0.29509700  1
  O  O26  1  0.53749400  0.13395100  0.29509700  1
  O  O27  1  0.59645700  0.46250600  0.29509700  1
  O  O28  1  0.82615500  0.32084300  0.83347200  1
  O  O29  1  0.49468800  0.17384500  0.83347200  1
  O  O30  1  0.67915700  0.50531200  0.83347200  1
  O  O31  1  0.15596300  0.67411000  0.29896500  1
  O  O32  1  0.51814800  0.84403700  0.29896500  1
  O  O33  1  0.32589000  0.48185200  0.29896500  1
  O  O34  1  0.07198600  0.33339700  0.64317400  1
  O  O35  1  0.26141100  0.92801400  0.64317400  1
  O  O36  1  0.66660300  0.73858900  0.64317400  1
  O  O37  1  0.91576100  0.67899400  0.13786000  1
  O  O38  1  0.76323400  0.08423900  0.13786000  1
  O  O39  1  0.32100600  0.23676600  0.13786000  1
  O  O40  1  0.00000000  0.00000000  0.82219600  1
  O  O41  1  0.00000000  0.00000000  0.32572400  1
