# generated using pymatgen
data_Ba2PtAu
_symmetry_space_group_name_H-M   'P 1'
_cell_length_a   6.44637868
_cell_length_b   6.44637868
_cell_length_c   4.84685200
_cell_angle_alpha   90.00000000
_cell_angle_beta   90.00000000
_cell_angle_gamma   139.11544761
_symmetry_Int_Tables_number   1
_chemical_formula_structural   Ba2PtAu
_chemical_formula_sum   'Ba2 Pt1 Au1'
_cell_volume   131.83344154
_cell_formula_units_Z   1
loop_
 _symmetry_equiv_pos_site_id
 _symmetry_equiv_pos_as_xyz
  1  'x, y, z'
loop_
 _atom_site_type_symbol
 _atom_site_label
 _atom_site_symmetry_multiplicity
 _atom_site_fract_x
 _atom_site_fract_y
 _atom_site_fract_z
 _atom_site_occupancy
  Ba  Ba0  1  0.13725200  0.86274800  0.50000000  1
  Ba  Ba1  1  0.86332900  0.13667100  0.00000000  1
  Pt  Pt2  1  0.42386200  0.57613800  0.50000000  1
  Au  Au3  1  0.57555800  0.42444200  0.00000000  1
