# generated using pymatgen
data_Ba4Al(IrO5)2
_symmetry_space_group_name_H-M   'P 1'
_cell_length_a   7.33463378
_cell_length_b   7.33463378
_cell_length_c   13.30632000
_cell_angle_alpha   90.00000000
_cell_angle_beta   90.00000000
_cell_angle_gamma   133.48266573
_symmetry_Int_Tables_number   1
_chemical_formula_structural   Ba4Al(IrO5)2
_chemical_formula_sum   'Ba8 Al2 Ir4 O20'
_cell_volume   519.39969170
_cell_formula_units_Z   2
loop_
 _symmetry_equiv_pos_site_id
 _symmetry_equiv_pos_as_xyz
  1  'x, y, z'
loop_
 _atom_site_type_symbol
 _atom_site_label
 _atom_site_symmetry_multiplicity
 _atom_site_fract_x
 _atom_site_fract_y
 _atom_site_fract_z
 _atom_site_occupancy
  Ba  Ba0  1  0.48717500  0.51282500  0.88789700  1
  Ba  Ba1  1  0.00926300  0.99073700  0.11583300  1
  Ba  Ba2  1  0.51282500  0.48717500  0.38789700  1
  Ba  Ba3  1  0.99073700  0.00926300  0.61583300  1
  Ba  Ba4  1  0.28400900  0.71599100  0.63903000  1
  Ba  Ba5  1  0.21748000  0.78252000  0.35488800  1
  Ba  Ba6  1  0.71599100  0.28400900  0.13903000  1
  Ba  Ba7  1  0.78252000  0.21748000  0.85488800  1
  Al  Al8  1  0.60939400  0.39060700  0.65307500  1
  Al  Al9  1  0.39060600  0.60939400  0.15307500  1
  Ir  Ir10  1  0.74995500  0.25004500  0.50441100  1
  Ir  Ir11  1  0.25004500  0.74995500  0.00441100  1
  Ir  Ir12  1  0.87542600  0.12457400  0.34595200  1
  Ir  Ir13  1  0.12457400  0.87542600  0.84595200  1
  O  O14  1  0.78345000  0.21655000  0.65061300  1
  O  O15  1  0.71996200  0.28003800  0.35168900  1
  O  O16  1  0.21655000  0.78345000  0.15061300  1
  O  O17  1  0.28003800  0.71996200  0.85168900  1
  O  O18  1  0.42157400  0.13975300  0.54213200  1
  O  O19  1  0.63146200  0.91346500  0.46048800  1
  O  O20  1  0.13975300  0.42157400  0.04213200  1
  O  O21  1  0.91346500  0.63146200  0.96048800  1
  O  O22  1  0.08653500  0.36853800  0.46048800  1
  O  O23  1  0.86024700  0.57842600  0.54213200  1
  O  O24  1  0.36853800  0.08653500  0.96048800  1
  O  O25  1  0.57842600  0.86024700  0.04213200  1
  O  O26  1  0.47644000  0.52356000  0.65296500  1
  O  O27  1  0.02011800  0.97988200  0.34634200  1
  O  O28  1  0.52356000  0.47644000  0.15296500  1
  O  O29  1  0.97988200  0.02011800  0.84634200  1
  O  O30  1  0.38218800  0.12742100  0.74603400  1
  O  O31  1  0.61781200  0.87257900  0.24603400  1
  O  O32  1  0.12742100  0.38218800  0.24603400  1
  O  O33  1  0.87257900  0.61781200  0.74603400  1
