# generated using pymatgen
data_Ba3NaSr(SbO4)3
_symmetry_space_group_name_H-M   'P 1'
_cell_length_a   8.37118201
_cell_length_b   8.37118201
_cell_length_c   8.39060300
_cell_angle_alpha   90.00000000
_cell_angle_beta   90.00000000
_cell_angle_gamma   90.34004939
_symmetry_Int_Tables_number   1
_chemical_formula_structural   Ba3NaSr(SbO4)3
_chemical_formula_sum   'Ba6 Na2 Sr2 Sb6 O24'
_cell_volume   587.97531443
_cell_formula_units_Z   2
loop_
 _symmetry_equiv_pos_site_id
 _symmetry_equiv_pos_as_xyz
  1  'x, y, z'
loop_
 _atom_site_type_symbol
 _atom_site_label
 _atom_site_symmetry_multiplicity
 _atom_site_fract_x
 _atom_site_fract_y
 _atom_site_fract_z
 _atom_site_occupancy
  Ba  Ba0  1  0.50000000  0.50000000  0.50000000  1
  Ba  Ba1  1  0.00000000  0.00000000  0.50000000  1
  Ba  Ba2  1  0.50000000  0.00000000  0.00000000  1
  Ba  Ba3  1  0.00000000  0.50000000  0.00000000  1
  Ba  Ba4  1  0.00000000  0.50000000  0.50000000  1
  Ba  Ba5  1  0.50000000  0.00000000  0.50000000  1
  Na  Na6  1  0.75000000  0.25000000  0.75033100  1
  Na  Na7  1  0.25000000  0.75000000  0.24966900  1
  Sr  Sr8  1  0.50000000  0.50000000  0.00000000  1
  Sr  Sr9  1  0.00000000  0.00000000  0.00000000  1
  Sb  Sb10  1  0.75000000  0.25000000  0.24758500  1
  Sb  Sb11  1  0.25000000  0.75000000  0.75241500  1
  Sb  Sb12  1  0.25000000  0.25000000  0.75208700  1
  Sb  Sb13  1  0.75000000  0.75000000  0.24791300  1
  Sb  Sb14  1  0.75000000  0.75000000  0.75208700  1
  Sb  Sb15  1  0.25000000  0.25000000  0.24791300  1
  O  O16  1  0.25752400  0.50046600  0.75468300  1
  O  O17  1  0.24247600  0.99953400  0.75468300  1
  O  O18  1  0.75752400  0.00046600  0.24531700  1
  O  O19  1  0.74247600  0.49953400  0.24531700  1
  O  O20  1  0.00046600  0.75752400  0.75468300  1
  O  O21  1  0.49953400  0.74247600  0.75468300  1
  O  O22  1  0.50046600  0.25752400  0.24531700  1
  O  O23  1  0.99953400  0.24247600  0.24531700  1
  O  O24  1  0.75000000  0.25000000  0.47652400  1
  O  O25  1  0.25000000  0.75000000  0.98061200  1
  O  O26  1  0.75000000  0.25000000  0.01938800  1
  O  O27  1  0.25000000  0.75000000  0.52347600  1
  O  O28  1  0.25000000  0.25000000  0.50000000  1
  O  O29  1  0.75000000  0.75000000  0.00000000  1
  O  O30  1  0.75000000  0.75000000  0.50000000  1
  O  O31  1  0.25000000  0.25000000  0.00000000  1
  O  O32  1  0.74273600  0.52146500  0.75357700  1
  O  O33  1  0.75726400  0.97853500  0.75357700  1
  O  O34  1  0.24273600  0.02146500  0.24642300  1
  O  O35  1  0.25726400  0.47853500  0.24642300  1
  O  O36  1  0.02146500  0.24273600  0.75357700  1
  O  O37  1  0.47853500  0.25726400  0.75357700  1
  O  O38  1  0.52146500  0.74273600  0.24642300  1
  O  O39  1  0.97853500  0.75726400  0.24642300  1
