# generated using pymatgen
data_Ba4Ce2In2O11
_symmetry_space_group_name_H-M   'P 1'
_cell_length_a   6.15228549
_cell_length_b   6.12935247
_cell_length_c   8.86220100
_cell_angle_alpha   90.00000000
_cell_angle_beta   90.00000000
_cell_angle_gamma   89.92049664
_symmetry_Int_Tables_number   1
_chemical_formula_structural   Ba4Ce2In2O11
_chemical_formula_sum   'Ba4 Ce2 In2 O11'
_cell_volume   334.18907942
_cell_formula_units_Z   1
loop_
 _symmetry_equiv_pos_site_id
 _symmetry_equiv_pos_as_xyz
  1  'x, y, z'
loop_
 _atom_site_type_symbol
 _atom_site_label
 _atom_site_symmetry_multiplicity
 _atom_site_fract_x
 _atom_site_fract_y
 _atom_site_fract_z
 _atom_site_occupancy
  Ba  Ba0  1  0.50696700  0.50912800  0.25000000  1
  Ba  Ba1  1  0.97569600  0.99809000  0.25000000  1
  Ba  Ba2  1  0.49350900  0.49362700  0.75000000  1
  Ba  Ba3  1  0.01220300  0.99478000  0.75000000  1
  Ce  Ce4  1  0.00153700  0.49503800  0.50440400  1
  Ce  Ce5  1  0.00153700  0.49503800  0.99559600  1
  In  In6  1  0.48682600  0.99524300  0.02075500  1
  In  In7  1  0.48682600  0.99524300  0.47924500  1
  O  O8  1  0.74367100  0.75027800  0.03045900  1
  O  O9  1  0.74601100  0.23417800  0.48782400  1
  O  O10  1  0.25903000  0.23979400  0.55539400  1
  O  O11  1  0.26116500  0.74991300  0.94950500  1
  O  O12  1  0.25903000  0.23979400  0.94460600  1
  O  O13  1  0.26116500  0.74991300  0.55049500  1
  O  O14  1  0.74367100  0.75027800  0.46954100  1
  O  O15  1  0.74601100  0.23417800  0.01217600  1
  O  O16  1  0.40851900  0.98517400  0.25000000  1
  O  O17  1  0.05796300  0.48079400  0.25000000  1
  O  O18  1  0.93206300  0.51141900  0.75000000  1
