# generated using pymatgen
data_Bi13Pb3Cl7O19
_symmetry_space_group_name_H-M   'P 1'
_cell_length_a   15.23966048
_cell_length_b   15.23966048
_cell_length_c   15.53052081
_cell_angle_alpha   62.47095551
_cell_angle_beta   62.47095551
_cell_angle_gamma   15.20177903
_symmetry_Int_Tables_number   1
_chemical_formula_structural   Bi13Pb3Cl7O19
_chemical_formula_sum   'Bi13 Pb3 Cl7 O19'
_cell_volume   836.68547158
_cell_formula_units_Z   1
loop_
 _symmetry_equiv_pos_site_id
 _symmetry_equiv_pos_as_xyz
  1  'x, y, z'
loop_
 _atom_site_type_symbol
 _atom_site_label
 _atom_site_symmetry_multiplicity
 _atom_site_fract_x
 _atom_site_fract_y
 _atom_site_fract_z
 _atom_site_occupancy
  Bi  Bi0  1  0.42460800  0.42460800  0.67855200  1
  Bi  Bi1  1  0.57645000  0.57645000  0.32190700  1
  Bi  Bi2  1  0.30887400  0.30887400  0.94746000  1
  Bi  Bi3  1  0.69178100  0.69178100  0.04893500  1
  Bi  Bi4  1  0.13149500  0.13149500  0.66903800  1
  Bi  Bi5  1  0.87049200  0.87049200  0.30444200  1
  Bi  Bi6  1  0.59879900  0.59879900  0.92717000  1
  Bi  Bi7  1  0.39842700  0.39842700  0.07658000  1
  Bi  Bi8  1  0.21529900  0.21529900  0.82788700  1
  Bi  Bi9  1  0.78257700  0.78257700  0.17033400  1
  Bi  Bi10  1  0.51585500  0.51585500  0.79545400  1
  Bi  Bi11  1  0.48862100  0.48862100  0.20285900  1
  Bi  Bi12  1  0.66489300  0.66489300  0.44702400  1
  Pb  Pb13  1  0.04621500  0.04621500  0.55877500  1
  Pb  Pb14  1  0.95269600  0.95269600  0.44984800  1
  Pb  Pb15  1  0.33197300  0.33197300  0.55797900  1
  Cl  Cl16  1  0.90144800  0.90144800  0.89485200  1
  Cl  Cl17  1  0.09546100  0.09546100  0.11579600  1
  Cl  Cl18  1  0.72473400  0.72473400  0.67759900  1
  Cl  Cl19  1  0.28112000  0.28112000  0.32538700  1
  Cl  Cl20  1  0.99507800  0.99507800  0.00751200  1
  Cl  Cl21  1  0.81282000  0.81282000  0.78468900  1
  Cl  Cl22  1  0.19050000  0.19050000  0.21591400  1
  O  O23  1  0.95318500  0.95318500  0.61193100  1
  O  O24  1  0.04722600  0.04722600  0.38710300  1
  O  O25  1  0.13601800  0.13601800  0.87051100  1
  O  O26  1  0.86280400  0.86280400  0.13665500  1
  O  O27  1  0.04861500  0.04861500  0.73468100  1
  O  O28  1  0.95158000  0.95158000  0.25955200  1
  O  O29  1  0.40595600  0.40595600  0.55569200  1
  O  O30  1  0.59530800  0.59530800  0.44237800  1
  O  O31  1  0.49976900  0.49976900  0.67229300  1
  O  O32  1  0.50025800  0.50025800  0.32534400  1
  O  O33  1  0.58880100  0.58880100  0.80357400  1
  O  O34  1  0.40360400  0.40360400  0.21713900  1
  O  O35  1  0.22717500  0.22717500  0.97534600  1
  O  O36  1  0.77409000  0.77409000  0.02607300  1
  O  O37  1  0.31673700  0.31673700  0.08900200  1
  O  O38  1  0.68527200  0.68527200  0.91146200  1
  O  O39  1  0.85467000  0.85467000  0.45959100  1
  O  O40  1  0.15131900  0.15131900  0.50692500  1
  O  O41  1  0.62499700  0.62499700  0.60875500  1
