# generated using pymatgen
data_Ba6Ho2Al2Rh2O15
_symmetry_space_group_name_H-M   'P 1'
_cell_length_a   5.93927168
_cell_length_b   5.93927168
_cell_length_c   14.89105100
_cell_angle_alpha   90.00000000
_cell_angle_beta   90.00000000
_cell_angle_gamma   119.80333440
_symmetry_Int_Tables_number   1
_chemical_formula_structural   Ba6Ho2Al2Rh2O15
_chemical_formula_sum   'Ba6 Ho2 Al2 Rh2 O15'
_cell_volume   455.80555630
_cell_formula_units_Z   1
loop_
 _symmetry_equiv_pos_site_id
 _symmetry_equiv_pos_as_xyz
  1  'x, y, z'
loop_
 _atom_site_type_symbol
 _atom_site_label
 _atom_site_symmetry_multiplicity
 _atom_site_fract_x
 _atom_site_fract_y
 _atom_site_fract_z
 _atom_site_occupancy
  Ba  Ba0  1  0.33059900  0.66940100  0.18884500  1
  Ba  Ba1  1  0.33059900  0.66940100  0.81115500  1
  Ba  Ba2  1  0.00482000  0.99518000  0.00000000  1
  Ba  Ba3  1  0.66865300  0.33134700  0.64560600  1
  Ba  Ba4  1  0.66865300  0.33134700  0.35439400  1
  Ba  Ba5  1  0.99367200  0.00632800  0.50000000  1
  Ho  Ho6  1  0.99593100  0.00406900  0.24784400  1
  Ho  Ho7  1  0.99593100  0.00406900  0.75215600  1
  Al  Al8  1  0.65822400  0.34177600  0.11459000  1
  Al  Al9  1  0.65822400  0.34177600  0.88541000  1
  Rh  Rh10  1  0.32613800  0.67386200  0.58484900  1
  Rh  Rh11  1  0.32613800  0.67386200  0.41515100  1
  O  O12  1  0.83110500  0.65888100  0.15919200  1
  O  O13  1  0.82764600  0.17235400  0.14222600  1
  O  O14  1  0.34111900  0.16889500  0.15919200  1
  O  O15  1  0.83110500  0.65888100  0.84080800  1
  O  O16  1  0.82764600  0.17235400  0.85777400  1
  O  O17  1  0.34111900  0.16889500  0.84080800  1
  O  O18  1  0.17000100  0.82999900  0.33095500  1
  O  O19  1  0.65224200  0.82520200  0.33939800  1
  O  O20  1  0.17479800  0.34775800  0.33939800  1
  O  O21  1  0.17000100  0.82999900  0.66904500  1
  O  O22  1  0.65224200  0.82520200  0.66060200  1
  O  O23  1  0.17479800  0.34775800  0.66060200  1
  O  O24  1  0.61793600  0.38206400  0.00000000  1
  O  O25  1  0.00333800  0.52169000  0.50000000  1
  O  O26  1  0.47831000  0.99666200  0.50000000  1
