# generated using pymatgen
data_CaTeO3
_symmetry_space_group_name_H-M   'P 1'
_cell_length_a   10.50670700
_cell_length_b   11.45506331
_cell_length_c   14.27644869
_cell_angle_alpha   77.99911869
_cell_angle_beta   84.79612879
_cell_angle_gamma   72.86985758
_symmetry_Int_Tables_number   1
_chemical_formula_structural   CaTeO3
_chemical_formula_sum   'Ca18 Te18 O54'
_cell_volume   1605.33262580
_cell_formula_units_Z   18
loop_
 _symmetry_equiv_pos_site_id
 _symmetry_equiv_pos_as_xyz
  1  'x, y, z'
loop_
 _atom_site_type_symbol
 _atom_site_label
 _atom_site_symmetry_multiplicity
 _atom_site_fract_x
 _atom_site_fract_y
 _atom_site_fract_z
 _atom_site_occupancy
  Ca  Ca0  1  0.27607500  0.88083800  0.24172100  1
  Ca  Ca1  1  0.72392500  0.11916200  0.75827900  1
  Ca  Ca2  1  0.25021200  0.41602000  0.26181100  1
  Ca  Ca3  1  0.74978800  0.58398000  0.73818900  1
  Ca  Ca4  1  0.60537000  0.36807000  0.92265100  1
  Ca  Ca5  1  0.39463000  0.63193000  0.07734900  1
  Ca  Ca6  1  0.93589200  0.86296100  0.59385700  1
  Ca  Ca7  1  0.06410800  0.13703900  0.40614300  1
  Ca  Ca8  1  0.57061600  0.86716400  0.92777000  1
  Ca  Ca9  1  0.42938400  0.13283600  0.07223000  1
  Ca  Ca10  1  0.91685000  0.36925600  0.57181000  1
  Ca  Ca11  1  0.08315000  0.63074400  0.42819000  1
  Ca  Ca12  1  0.81445600  0.03668600  0.02245400  1
  Ca  Ca13  1  0.18554400  0.96331400  0.97754600  1
  Ca  Ca14  1  0.46177700  0.06583600  0.34191600  1
  Ca  Ca15  1  0.53822300  0.93416400  0.65808400  1
  Ca  Ca16  1  0.13017900  0.03716100  0.67508300  1
  Ca  Ca17  1  0.86982100  0.96283900  0.32491700  1
  Te  Te18  1  0.28740600  0.25378800  0.52554400  1
  Te  Te19  1  0.71259400  0.74621200  0.47445600  1
  Te  Te20  1  0.46336300  0.53849700  0.35502000  1
  Te  Te21  1  0.53663700  0.46150300  0.64498000  1
  Te  Te22  1  0.60317000  0.83389400  0.16475200  1
  Te  Te23  1  0.39683000  0.16610600  0.83524800  1
  Te  Te24  1  0.60644100  0.26553900  0.19176600  1
  Te  Te25  1  0.39355900  0.73446100  0.80823400  1
  Te  Te26  1  0.10685500  0.56081400  0.67522000  1
  Te  Te27  1  0.89314500  0.43918600  0.32478000  1
  Te  Te28  1  0.96548700  0.26349000  0.85502400  1
  Te  Te29  1  0.03451300  0.73651000  0.14497600  1
  Te  Te30  1  0.94304100  0.82359900  0.86286600  1
  Te  Te31  1  0.05695900  0.17640100  0.13713400  1
  Te  Te32  1  0.77907900  0.52184800  0.02350900  1
  Te  Te33  1  0.22092100  0.47815200  0.97649100  1
  Te  Te34  1  0.25319400  0.84593900  0.47344000  1
  Te  Te35  1  0.74680600  0.15406100  0.52656000  1
  O  O36  1  0.64648300  0.21133900  0.07204900  1
  O  O37  1  0.35351700  0.78866100  0.92795100  1
  O  O38  1  0.74555700  0.69478700  0.99895800  1
  O  O39  1  0.25444300  0.30521300  0.00104200  1
  O  O40  1  0.81115400  0.20162300  0.87418200  1
  O  O41  1  0.18884600  0.79837700  0.12581800  1
  O  O42  1  0.00533300  0.89329000  0.95309300  1
  O  O43  1  0.99466700  0.10671000  0.04690700  1
  O  O44  1  0.99288400  0.90966200  0.74353300  1
  O  O45  1  0.00711600  0.09033800  0.25646700  1
  O  O46  1  0.12053600  0.95178300  0.54143100  1
  O  O47  1  0.87946400  0.04821700  0.45856900  1
  O  O48  1  0.67274500  0.11399700  0.27812100  1
  O  O49  1  0.32725500  0.88600300  0.72187900  1
  O  O50  1  0.30536300  0.50954400  0.41501800  1
  O  O51  1  0.69463700  0.49045600  0.58498200  1
  O  O52  1  0.14184800  0.82028500  0.38586600  1
  O  O53  1  0.85815200  0.17971500  0.61413400  1
  O  O54  1  0.11836200  0.21877200  0.54047200  1
  O  O55  1  0.88163800  0.78122800  0.45952800  1
  O  O56  1  0.32116800  0.24574200  0.39431700  1
  O  O57  1  0.67883200  0.75425800  0.60568300  1
  O  O58  1  0.43455900  0.71196000  0.33395100  1
  O  O59  1  0.56544100  0.28804000  0.66604900  1
  O  O60  1  0.42724000  0.51432000  0.23399900  1
  O  O61  1  0.57276000  0.48568000  0.76600100  1
  O  O62  1  0.27992900  0.98511400  0.38018500  1
  O  O63  1  0.72007100  0.01488600  0.61981500  1
  O  O64  1  0.09637500  0.12430400  0.81658900  1
  O  O65  1  0.90362500  0.87569600  0.18341100  1
  O  O66  1  0.42857200  0.25246900  0.20022200  1
  O  O67  1  0.57142800  0.74753100  0.79977800  1
  O  O68  1  0.76786500  0.92834900  0.86741100  1
  O  O69  1  0.23213500  0.07165100  0.13258900  1
  O  O70  1  0.47526200  0.79042200  0.10530100  1
  O  O71  1  0.52473800  0.20957800  0.89469900  1
  O  O72  1  0.92198600  0.37372800  0.73633300  1
  O  O73  1  0.07801400  0.62627200  0.26366700  1
  O  O74  1  0.60927200  0.49779300  0.05434600  1
  O  O75  1  0.39072800  0.50220700  0.94565400  1
  O  O76  1  0.63499100  0.94975300  0.05575100  1
  O  O77  1  0.36500900  0.05024700  0.94424900  1
  O  O78  1  0.14733000  0.69378500  0.58677900  1
  O  O79  1  0.85267000  0.30621500  0.41322100  1
  O  O80  1  0.47583400  0.96040600  0.21681300  1
  O  O81  1  0.52416600  0.03959400  0.78318700  1
  O  O82  1  0.06707000  0.48842600  0.57968900  1
  O  O83  1  0.93293000  0.51157400  0.42031100  1
  O  O84  1  0.93887500  0.65978200  0.71255000  1
  O  O85  1  0.06112500  0.34021800  0.28745000  1
  O  O86  1  0.78580500  0.48005900  0.90114200  1
  O  O87  1  0.21419500  0.51994100  0.09885800  1
  O  O88  1  0.38017100  0.08945800  0.57631900  1
  O  O89  1  0.61982900  0.91054200  0.42368100  1
