# generated using pymatgen
data_BaNd4(CoO3)5
_symmetry_space_group_name_H-M   'P 1'
_cell_length_a   9.41574973
_cell_length_b   9.41574973
_cell_length_c   13.42850984
_cell_angle_alpha   63.62204851
_cell_angle_beta   63.62204851
_cell_angle_gamma   34.09159206
_symmetry_Int_Tables_number   1
_chemical_formula_structural   BaNd4(CoO3)5
_chemical_formula_sum   'Ba2 Nd8 Co10 O30'
_cell_volume   590.87902614
_cell_formula_units_Z   2
loop_
 _symmetry_equiv_pos_site_id
 _symmetry_equiv_pos_as_xyz
  1  'x, y, z'
loop_
 _atom_site_type_symbol
 _atom_site_label
 _atom_site_symmetry_multiplicity
 _atom_site_fract_x
 _atom_site_fract_y
 _atom_site_fract_z
 _atom_site_occupancy
  Ba  Ba0  1  0.49227500  0.50772500  0.75000000  1
  Ba  Ba1  1  0.50772500  0.49227500  0.25000000  1
  Nd  Nd2  1  0.28918600  0.30526400  0.55312500  1
  Nd  Nd3  1  0.09486100  0.10236200  0.35725900  1
  Nd  Nd4  1  0.89763800  0.90513900  0.14274100  1
  Nd  Nd5  1  0.69473600  0.71081400  0.94687500  1
  Nd  Nd6  1  0.71081400  0.69473600  0.44687500  1
  Nd  Nd7  1  0.30526400  0.28918600  0.05312500  1
  Nd  Nd8  1  0.10236200  0.09486100  0.85725900  1
  Nd  Nd9  1  0.90513900  0.89763800  0.64274100  1
  Co  Co10  1  0.29264400  0.30647400  0.80176000  1
  Co  Co11  1  0.09545700  0.10516500  0.59970100  1
  Co  Co12  1  0.90454300  0.89483500  0.40029900  1
  Co  Co13  1  0.70735600  0.69352600  0.19824000  1
  Co  Co14  1  0.50000000  0.50000000  0.00000000  1
  Co  Co15  1  0.89483500  0.90454300  0.90029900  1
  Co  Co16  1  0.69352500  0.70735600  0.69824000  1
  Co  Co17  1  0.50000000  0.50000000  0.50000000  1
  Co  Co18  1  0.30647500  0.29264400  0.30176000  1
  Co  Co19  1  0.10516500  0.09545700  0.09970100  1
  O  O20  1  0.81958800  0.25028200  0.06085000  1
  O  O21  1  0.57988600  0.08269200  0.88139900  1
  O  O22  1  0.37683000  0.91306900  0.66967000  1
  O  O23  1  0.19268200  0.66719600  0.47639900  1
  O  O24  1  0.99384400  0.46919400  0.28310600  1
  O  O25  1  0.33280400  0.80731800  0.02360100  1
  O  O26  1  0.08693100  0.62317000  0.83033000  1
  O  O27  1  0.91730800  0.42011400  0.61860100  1
  O  O28  1  0.74971800  0.18041200  0.43915000  1
  O  O29  1  0.53080600  0.00615600  0.21689400  1
  O  O30  1  0.18041200  0.74971800  0.93915000  1
  O  O31  1  0.00615600  0.53080600  0.71689400  1
  O  O32  1  0.80731800  0.33280400  0.52360100  1
  O  O33  1  0.62317000  0.08693100  0.33033000  1
  O  O34  1  0.42011400  0.91730800  0.11860100  1
  O  O35  1  0.66719600  0.19268200  0.97639900  1
  O  O36  1  0.46919400  0.99384400  0.78310600  1
  O  O37  1  0.25028200  0.81958800  0.56085000  1
  O  O38  1  0.08269200  0.57988600  0.38139900  1
  O  O39  1  0.91306900  0.37683000  0.16967000  1
  O  O40  1  0.47283700  0.31968300  0.64721100  1
  O  O41  1  0.27978700  0.11537100  0.44951000  1
  O  O42  1  0.03714200  0.96285800  0.25000000  1
  O  O43  1  0.88462900  0.72021300  0.05049000  1
  O  O44  1  0.68031700  0.52716300  0.85278900  1
  O  O45  1  0.72021300  0.88462900  0.55049000  1
  O  O46  1  0.52716300  0.68031700  0.35278900  1
  O  O47  1  0.31968300  0.47283700  0.14721100  1
  O  O48  1  0.11537100  0.27978700  0.94951000  1
  O  O49  1  0.96285800  0.03714200  0.75000000  1
