# generated using pymatgen
data_Ce4Si4N6O5
_symmetry_space_group_name_H-M   'P 1'
_cell_length_a   10.35085500
_cell_length_b   10.35085500
_cell_length_c   10.35085500
_cell_angle_alpha   90.00000000
_cell_angle_beta   90.00000000
_cell_angle_gamma   90.00000000
_symmetry_Int_Tables_number   1
_chemical_formula_structural   Ce4Si4N6O5
_chemical_formula_sum   'Ce16 Si16 N24 O20'
_cell_volume   1108.99266691
_cell_formula_units_Z   4
loop_
 _symmetry_equiv_pos_site_id
 _symmetry_equiv_pos_as_xyz
  1  'x, y, z'
loop_
 _atom_site_type_symbol
 _atom_site_label
 _atom_site_symmetry_multiplicity
 _atom_site_fract_x
 _atom_site_fract_y
 _atom_site_fract_z
 _atom_site_occupancy
  Ce  Ce0  1  0.46944500  0.18174200  0.21138400  1
  Ce  Ce1  1  0.78861600  0.96944500  0.31825800  1
  Ce  Ce2  1  0.68174200  0.28861600  0.53055500  1
  Ce  Ce3  1  0.96944500  0.31825800  0.78861600  1
  Ce  Ce4  1  0.28861600  0.53055500  0.68174200  1
  Ce  Ce5  1  0.18174200  0.21138400  0.46944500  1
  Ce  Ce6  1  0.53055500  0.68174200  0.28861600  1
  Ce  Ce7  1  0.21138400  0.46944500  0.18174200  1
  Ce  Ce8  1  0.31825800  0.78861600  0.96944500  1
  Ce  Ce9  1  0.03055500  0.81825800  0.71138400  1
  Ce  Ce10  1  0.71138400  0.03055500  0.81825800  1
  Ce  Ce11  1  0.81825800  0.71138400  0.03055500  1
  Ce  Ce12  1  0.47119600  0.97119600  0.52880400  1
  Ce  Ce13  1  0.97119600  0.52880400  0.47119600  1
  Ce  Ce14  1  0.52880400  0.47119600  0.97119600  1
  Ce  Ce15  1  0.02880400  0.02880400  0.02880400  1
  Si  Si16  1  0.30396600  0.92624200  0.25417200  1
  Si  Si17  1  0.74582800  0.80396600  0.57375800  1
  Si  Si18  1  0.42624200  0.24582800  0.69603400  1
  Si  Si19  1  0.80396600  0.57375800  0.74582800  1
  Si  Si20  1  0.24582800  0.69603400  0.42624200  1
  Si  Si21  1  0.92624200  0.25417200  0.30396600  1
  Si  Si22  1  0.69603400  0.42624200  0.24582800  1
  Si  Si23  1  0.25417200  0.30396600  0.92624200  1
  Si  Si24  1  0.57375800  0.74582800  0.80396600  1
  Si  Si25  1  0.19603400  0.07375800  0.75417200  1
  Si  Si26  1  0.75417200  0.19603400  0.07375800  1
  Si  Si27  1  0.07375800  0.75417200  0.19603400  1
  Si  Si28  1  0.07263800  0.57263800  0.92736200  1
  Si  Si29  1  0.57263800  0.92736200  0.07263800  1
  Si  Si30  1  0.92736200  0.07263800  0.57263800  1
  Si  Si31  1  0.42736200  0.42736200  0.42736200  1
  N  N32  1  0.42799000  0.94688600  0.14666700  1
  N  N33  1  0.85333300  0.92799000  0.55311400  1
  N  N34  1  0.44688600  0.35333300  0.57201000  1
  N  N35  1  0.92799000  0.55311400  0.85333300  1
  N  N36  1  0.35333300  0.57201000  0.44688600  1
  N  N37  1  0.94688600  0.14666700  0.42799000  1
  N  N38  1  0.57201000  0.44688600  0.35333300  1
  N  N39  1  0.14666700  0.42799000  0.94688600  1
  N  N40  1  0.55311400  0.85333300  0.92799000  1
  N  N41  1  0.07201000  0.05311400  0.64666700  1
  N  N42  1  0.64666700  0.07201000  0.05311400  1
  N  N43  1  0.05311400  0.64666700  0.07201000  1
  N  N44  1  0.17738000  0.87968000  0.15681900  1
  N  N45  1  0.84318100  0.67738000  0.62032000  1
  N  N46  1  0.37968000  0.34318100  0.82262000  1
  N  N47  1  0.67738000  0.62032000  0.84318100  1
  N  N48  1  0.34318100  0.82262000  0.37968000  1
  N  N49  1  0.87968000  0.15681900  0.17738000  1
  N  N50  1  0.82262000  0.37968000  0.34318100  1
  N  N51  1  0.15681900  0.17738000  0.87968000  1
  N  N52  1  0.62032000  0.84318100  0.67738000  1
  N  N53  1  0.32262000  0.12032000  0.65681900  1
  N  N54  1  0.65681900  0.32262000  0.12032000  1
  N  N55  1  0.12032000  0.65681900  0.32262000  1
  O  O56  1  0.29311900  0.06936800  0.32903600  1
  O  O57  1  0.67096400  0.79311900  0.43063200  1
  O  O58  1  0.56936800  0.17096400  0.70688100  1
  O  O59  1  0.79311900  0.43063200  0.67096400  1
  O  O60  1  0.17096400  0.70688100  0.56936800  1
  O  O61  1  0.06936800  0.32903600  0.29311900  1
  O  O62  1  0.70688100  0.56936800  0.17096400  1
  O  O63  1  0.32903600  0.29311900  0.06936800  1
  O  O64  1  0.43063200  0.67096400  0.79311900  1
  O  O65  1  0.20688100  0.93063200  0.82903600  1
  O  O66  1  0.82903600  0.20688100  0.93063200  1
  O  O67  1  0.93063200  0.82903600  0.20688100  1
  O  O68  1  0.16566000  0.66566000  0.83434000  1
  O  O69  1  0.66566000  0.83434000  0.16566000  1
  O  O70  1  0.83434000  0.16566000  0.66566000  1
  O  O71  1  0.33434000  0.33434000  0.33434000  1
  O  O72  1  0.59824000  0.09824000  0.40176000  1
  O  O73  1  0.09824000  0.40176000  0.59824000  1
  O  O74  1  0.40176000  0.59824000  0.09824000  1
  O  O75  1  0.90176000  0.90176000  0.90176000  1
