# generated using pymatgen
data_Ba8Mn6Co2ClO22
_symmetry_space_group_name_H-M   'P 1'
_cell_length_a   5.81300730
_cell_length_b   5.81300730
_cell_length_c   19.89826000
_cell_angle_alpha   90.00000000
_cell_angle_beta   90.00000000
_cell_angle_gamma   119.97347188
_symmetry_Int_Tables_number   1
_chemical_formula_structural   Ba8Mn6Co2ClO22
_chemical_formula_sum   'Ba8 Mn6 Co2 Cl1 O22'
_cell_volume   582.45650655
_cell_formula_units_Z   1
loop_
 _symmetry_equiv_pos_site_id
 _symmetry_equiv_pos_as_xyz
  1  'x, y, z'
loop_
 _atom_site_type_symbol
 _atom_site_label
 _atom_site_symmetry_multiplicity
 _atom_site_fract_x
 _atom_site_fract_y
 _atom_site_fract_z
 _atom_site_occupancy
  Ba  Ba0  1  0.00007600  0.99992400  0.38248000  1
  Ba  Ba1  1  0.00007600  0.99992400  0.61752000  1
  Ba  Ba2  1  0.00064800  0.99935200  0.84721300  1
  Ba  Ba3  1  0.00064800  0.99935200  0.15278700  1
  Ba  Ba4  1  0.33305900  0.66694100  0.26549600  1
  Ba  Ba5  1  0.33305900  0.66694100  0.73450400  1
  Ba  Ba6  1  0.33334200  0.66665800  0.50000000  1
  Ba  Ba7  1  0.66997200  0.33002800  0.00000000  1
  Mn  Mn8  1  0.66734900  0.33265100  0.18059700  1
  Mn  Mn9  1  0.66734900  0.33265100  0.81940300  1
  Mn  Mn10  1  0.66630700  0.33369300  0.31034200  1
  Mn  Mn11  1  0.66630700  0.33369300  0.68965800  1
  Mn  Mn12  1  0.66671600  0.33328400  0.43706500  1
  Mn  Mn13  1  0.66671600  0.33328400  0.56293500  1
  Co  Co14  1  0.33485700  0.66514300  0.09021900  1
  Co  Co15  1  0.33485700  0.66514300  0.90978100  1
  Cl  Cl16  1  0.99479200  0.00520800  0.00000000  1
  O  O17  1  0.37198600  0.18656400  0.25112000  1
  O  O18  1  0.81347000  0.18653000  0.25080800  1
  O  O19  1  0.81343600  0.62801400  0.25112000  1
  O  O20  1  0.37198600  0.18656400  0.74888000  1
  O  O21  1  0.81347000  0.18653000  0.74919200  1
  O  O22  1  0.81343600  0.62801400  0.74888000  1
  O  O23  1  0.50622500  0.49377500  0.12749100  1
  O  O24  1  0.50849200  0.01612600  0.12830400  1
  O  O25  1  0.98387400  0.49150800  0.12830400  1
  O  O26  1  0.50622500  0.49377500  0.87250900  1
  O  O27  1  0.50849200  0.01612600  0.87169600  1
  O  O28  1  0.98387400  0.49150800  0.87169600  1
  O  O29  1  0.96321300  0.48150900  0.37582000  1
  O  O30  1  0.51829400  0.48170600  0.37586900  1
  O  O31  1  0.51849100  0.03678700  0.37582000  1
  O  O32  1  0.96321300  0.48150900  0.62418000  1
  O  O33  1  0.51829400  0.48170600  0.62413100  1
  O  O34  1  0.51849100  0.03678700  0.62418000  1
  O  O35  1  0.36974500  0.18490100  0.50000000  1
  O  O36  1  0.81523400  0.18476600  0.50000000  1
  O  O37  1  0.81509900  0.63025500  0.50000000  1
  O  O38  1  0.31016000  0.68984000  0.00000000  1
