# generated using pymatgen
data_Al2O3
_symmetry_space_group_name_H-M   'P 1'
_cell_length_a   3.01747109
_cell_length_b   3.01747109
_cell_length_c   7.57463600
_cell_angle_alpha   89.99634521
_cell_angle_beta   90.00365479
_cell_angle_gamma   119.99949764
_symmetry_Int_Tables_number   1
_chemical_formula_structural   Al2O3
_chemical_formula_sum   'Al2 O3'
_cell_volume   59.72839323
_cell_formula_units_Z   1
loop_
 _symmetry_equiv_pos_site_id
 _symmetry_equiv_pos_as_xyz
  1  'x, y, z'
loop_
 _atom_site_type_symbol
 _atom_site_label
 _atom_site_symmetry_multiplicity
 _atom_site_fract_x
 _atom_site_fract_y
 _atom_site_fract_z
 _atom_site_occupancy
  Al  Al0  1  0.00001000  0.99999000  0.72204900  1
  Al  Al1  1  0.99999000  0.00001000  0.27795100  1
  O  O2  1  0.66668300  0.33331700  0.80054600  1
  O  O3  1  0.33331700  0.66668300  0.19945400  1
  O  O4  1  0.00000000  0.00000000  0.50000000  1
