# generated using pymatgen
data_BaCa2In6O12
_symmetry_space_group_name_H-M   'P 1'
_cell_length_a   3.29155100
_cell_length_b   10.05594200
_cell_length_c   10.05611522
_cell_angle_alpha   60.00002000
_cell_angle_beta   89.99994603
_cell_angle_gamma   90.00014370
_symmetry_Int_Tables_number   1
_chemical_formula_structural   BaCa2In6O12
_chemical_formula_sum   'Ba1 Ca2 In6 O12'
_cell_volume   288.25995089
_cell_formula_units_Z   1
loop_
 _symmetry_equiv_pos_site_id
 _symmetry_equiv_pos_as_xyz
  1  'x, y, z'
loop_
 _atom_site_type_symbol
 _atom_site_label
 _atom_site_symmetry_multiplicity
 _atom_site_fract_x
 _atom_site_fract_y
 _atom_site_fract_z
 _atom_site_occupancy
  Ba  Ba0  1  0.66735000  0.99999700  0.99999300  1
  Ca  Ca1  1  0.74966400  0.66666900  0.66667900  1
  Ca  Ca2  1  0.24966300  0.33333200  0.33333300  1
  In  In3  1  0.75024900  0.35374700  0.65167100  1
  In  In4  1  0.75024700  0.99458800  0.35375300  1
  In  In5  1  0.75025000  0.65165500  0.99457900  1
  In  In6  1  0.24745400  0.64798200  0.34756000  1
  In  In7  1  0.24745300  0.00442600  0.64799100  1
  In  In8  1  0.24744400  0.34760400  0.00444600  1
  O  O9  1  0.74903700  0.13439100  0.46808300  1
  O  O10  1  0.74904500  0.39752100  0.13439100  1
  O  O11  1  0.74904200  0.46809300  0.39751800  1
  O  O12  1  0.24995800  0.86826600  0.53035900  1
  O  O13  1  0.24995900  0.60136900  0.86827900  1
  O  O14  1  0.24996100  0.53036000  0.60137400  1
  O  O15  1  0.74843900  0.88968400  0.80329300  1
  O  O16  1  0.74844400  0.30702600  0.88968500  1
  O  O17  1  0.74843300  0.80329100  0.30701300  1
  O  O18  1  0.24696100  0.10191900  0.18644800  1
  O  O19  1  0.24697200  0.71162500  0.10192500  1
  O  O20  1  0.24697500  0.18645600  0.71162700  1
