# generated using pymatgen
data_Ba3Sr(HgO2)4
_symmetry_space_group_name_H-M   'P 1'
_cell_length_a   6.85432785
_cell_length_b   6.85432785
_cell_length_c   25.39766800
_cell_angle_alpha   90.00000000
_cell_angle_beta   90.00000000
_cell_angle_gamma   119.99999855
_symmetry_Int_Tables_number   1
_chemical_formula_structural   Ba3Sr(HgO2)4
_chemical_formula_sum   'Ba9 Sr3 Hg12 O24'
_cell_volume   1033.36613869
_cell_formula_units_Z   3
loop_
 _symmetry_equiv_pos_site_id
 _symmetry_equiv_pos_as_xyz
  1  'x, y, z'
loop_
 _atom_site_type_symbol
 _atom_site_label
 _atom_site_symmetry_multiplicity
 _atom_site_fract_x
 _atom_site_fract_y
 _atom_site_fract_z
 _atom_site_occupancy
  Ba  Ba0  1  0.33333300  0.66666700  0.23347800  1
  Ba  Ba1  1  0.33333300  0.66666700  0.73322100  1
  Ba  Ba2  1  0.66666700  0.33333300  0.76652200  1
  Ba  Ba3  1  0.66666700  0.33333300  0.26677900  1
  Ba  Ba4  1  0.66666700  0.33333300  0.98321900  1
  Ba  Ba5  1  0.66666700  0.33333300  0.48347600  1
  Ba  Ba6  1  0.33333300  0.66666700  0.01678100  1
  Ba  Ba7  1  0.33333300  0.66666700  0.51652400  1
  Ba  Ba8  1  0.00000000  0.00000000  0.00000000  1
  Sr  Sr9  1  0.00000000  0.00000000  0.50000000  1
  Sr  Sr10  1  0.00000000  0.00000000  0.25010600  1
  Sr  Sr11  1  0.00000000  0.00000000  0.74989400  1
  Hg  Hg12  1  0.17035200  0.82694100  0.87422700  1
  Hg  Hg13  1  0.16981300  0.83013600  0.37502100  1
  Hg  Hg14  1  0.17305900  0.34341100  0.87422700  1
  Hg  Hg15  1  0.16986400  0.33967700  0.37502100  1
  Hg  Hg16  1  0.65658900  0.82964800  0.87422700  1
  Hg  Hg17  1  0.66032300  0.83018700  0.37502100  1
  Hg  Hg18  1  0.82694100  0.17035200  0.12577300  1
  Hg  Hg19  1  0.83013600  0.16981300  0.62497900  1
  Hg  Hg20  1  0.34341100  0.17305900  0.12577300  1
  Hg  Hg21  1  0.33967700  0.16986400  0.62497900  1
  Hg  Hg22  1  0.82964800  0.65658900  0.12577300  1
  Hg  Hg23  1  0.83018700  0.66032300  0.62497900  1
  O  O24  1  0.66594300  0.70300900  0.80322100  1
  O  O25  1  0.66522400  0.70343400  0.30351100  1
  O  O26  1  0.29699100  0.96293500  0.80322100  1
  O  O27  1  0.29656600  0.96178900  0.30351100  1
  O  O28  1  0.03706500  0.33405700  0.80322100  1
  O  O29  1  0.03821100  0.33477600  0.30351100  1
  O  O30  1  0.70300900  0.66594300  0.19677900  1
  O  O31  1  0.70343400  0.66522400  0.69648900  1
  O  O32  1  0.96293500  0.29699100  0.19677900  1
  O  O33  1  0.96178900  0.29656600  0.69648900  1
  O  O34  1  0.33405700  0.03706500  0.19677900  1
  O  O35  1  0.33477600  0.03821100  0.69648900  1
  O  O36  1  0.35040600  0.31347100  0.05533900  1
  O  O37  1  0.33477200  0.29648900  0.55347300  1
  O  O38  1  0.68652900  0.03693400  0.05533900  1
  O  O39  1  0.70351100  0.03828300  0.55347300  1
  O  O40  1  0.96306600  0.64959400  0.05533900  1
  O  O41  1  0.96171700  0.66522800  0.55347300  1
  O  O42  1  0.31347100  0.35040600  0.94466100  1
  O  O43  1  0.29648900  0.33477200  0.44652700  1
  O  O44  1  0.03693400  0.68652900  0.94466100  1
  O  O45  1  0.03828300  0.70351100  0.44652700  1
  O  O46  1  0.64959400  0.96306600  0.94466100  1
  O  O47  1  0.66522800  0.96171700  0.44652700  1
