# generated using pymatgen
data_Ba2CuAg3(SnS4)2
_symmetry_space_group_name_H-M   'P 1'
_cell_length_a   6.49502800
_cell_length_b   6.51544988
_cell_length_c   10.78688749
_cell_angle_alpha   79.89862519
_cell_angle_beta   79.66224728
_cell_angle_gamma   68.02750686
_symmetry_Int_Tables_number   1
_chemical_formula_structural   Ba2CuAg3(SnS4)2
_chemical_formula_sum   'Ba2 Cu1 Ag3 Sn2 S8'
_cell_volume   413.50914705
_cell_formula_units_Z   1
loop_
 _symmetry_equiv_pos_site_id
 _symmetry_equiv_pos_as_xyz
  1  'x, y, z'
loop_
 _atom_site_type_symbol
 _atom_site_label
 _atom_site_symmetry_multiplicity
 _atom_site_fract_x
 _atom_site_fract_y
 _atom_site_fract_z
 _atom_site_occupancy
  Ba  Ba0  1  0.99884000  0.99893300  0.00073900  1
  Ba  Ba1  1  0.50019300  0.50041400  0.49850400  1
  Cu  Cu2  1  0.90303300  0.90164600  0.40259800  1
  Ag  Ag3  1  0.59746900  0.59423200  0.09966600  1
  Ag  Ag4  1  0.09795900  0.10071300  0.59525500  1
  Ag  Ag5  1  0.40096200  0.40177900  0.90148000  1
  Sn  Sn6  1  0.75403600  0.75157000  0.74619700  1
  Sn  Sn7  1  0.24584800  0.24853800  0.25388500  1
  S  S8  1  0.75938400  0.37197300  0.76647300  1
  S  S9  1  0.22455000  0.87595900  0.27823600  1
  S  S10  1  0.53902200  0.92431600  0.93504500  1
  S  S11  1  0.03876300  0.43767600  0.43657200  1
  S  S12  1  0.62957000  0.23469100  0.23664400  1
  S  S13  1  0.13406500  0.74503000  0.73299500  1
  S  S14  1  0.07237800  0.45836900  0.06603800  1
  S  S15  1  0.60392700  0.95416200  0.54967200  1
