# generated using pymatgen
data_Al2Zn2S5
_symmetry_space_group_name_H-M   'P 1'
_cell_length_a   6.19710700
_cell_length_b   6.57637000
_cell_length_c   9.99316704
_cell_angle_alpha   70.81608386
_cell_angle_beta   90.00000000
_cell_angle_gamma   90.00000000
_symmetry_Int_Tables_number   1
_chemical_formula_structural   Al2Zn2S5
_chemical_formula_sum   'Al4 Zn4 S10'
_cell_volume   384.65017008
_cell_formula_units_Z   2
loop_
 _symmetry_equiv_pos_site_id
 _symmetry_equiv_pos_as_xyz
  1  'x, y, z'
loop_
 _atom_site_type_symbol
 _atom_site_label
 _atom_site_symmetry_multiplicity
 _atom_site_fract_x
 _atom_site_fract_y
 _atom_site_fract_z
 _atom_site_occupancy
  Al  Al0  1  0.87797200  0.15967800  0.50022300  1
  Al  Al1  1  0.87431000  0.37178300  0.10322100  1
  Al  Al2  1  0.37431000  0.62821700  0.89677900  1
  Al  Al3  1  0.37797200  0.84032200  0.49977700  1
  Zn  Zn4  1  0.88052100  0.96734900  0.89053900  1
  Zn  Zn5  1  0.86628300  0.76270000  0.30639600  1
  Zn  Zn6  1  0.38052100  0.03265100  0.10946100  1
  Zn  Zn7  1  0.36628300  0.23730000  0.69360400  1
  S  S8  1  0.49495600  0.95685300  0.90132500  1
  S  S9  1  0.49863400  0.57340300  0.69805800  1
  S  S10  1  0.50932100  0.16307300  0.49714400  1
  S  S11  1  0.49137500  0.76027200  0.30903200  1
  S  S12  1  0.50662800  0.37777300  0.09402400  1
  S  S13  1  0.99495600  0.04314700  0.09867500  1
  S  S14  1  0.00662800  0.62222700  0.90597600  1
  S  S15  1  0.99137500  0.23972800  0.69096800  1
  S  S16  1  0.00932100  0.83692700  0.50285600  1
  S  S17  1  0.99863400  0.42659700  0.30194200  1
