# generated using pymatgen
data_B2CN2
_symmetry_space_group_name_H-M   'P 1'
_cell_length_a   10.57713830
_cell_length_b   10.57713830
_cell_length_c   10.57713783
_cell_angle_alpha   13.99199428
_cell_angle_beta   13.99199428
_cell_angle_gamma   13.99198934
_symmetry_Int_Tables_number   1
_chemical_formula_structural   B2CN2
_chemical_formula_sum   'B4 C2 N4'
_cell_volume   60.20760375
_cell_formula_units_Z   2
loop_
 _symmetry_equiv_pos_site_id
 _symmetry_equiv_pos_as_xyz
  1  'x, y, z'
loop_
 _atom_site_type_symbol
 _atom_site_label
 _atom_site_symmetry_multiplicity
 _atom_site_fract_x
 _atom_site_fract_y
 _atom_site_fract_z
 _atom_site_occupancy
  B  B0  1  0.39924800  0.39924800  0.39924800  1
  B  B1  1  0.79910600  0.79910600  0.79910600  1
  B  B2  1  0.19927200  0.19927200  0.19927200  1
  B  B3  1  0.59934800  0.59934800  0.59934800  1
  C  C4  1  0.00361200  0.00361200  0.00361200  1
  C  C5  1  0.04840000  0.04840000  0.04840000  1
  N  N6  1  0.45024300  0.45024300  0.45024300  1
  N  N7  1  0.85049600  0.85049600  0.85049600  1
  N  N8  1  0.25054100  0.25054100  0.25054100  1
  N  N9  1  0.64973400  0.64973400  0.64973400  1
