# generated using pymatgen
data_Al2PbSe4
_symmetry_space_group_name_H-M   'P 1'
_cell_length_a   6.29021133
_cell_length_b   6.32360652
_cell_length_c   11.04458900
_cell_angle_alpha   90.00000000
_cell_angle_beta   90.00000000
_cell_angle_gamma   119.57710288
_symmetry_Int_Tables_number   1
_chemical_formula_structural   Al2PbSe4
_chemical_formula_sum   'Al4 Pb2 Se8'
_cell_volume   382.07202152
_cell_formula_units_Z   2
loop_
 _symmetry_equiv_pos_site_id
 _symmetry_equiv_pos_as_xyz
  1  'x, y, z'
loop_
 _atom_site_type_symbol
 _atom_site_label
 _atom_site_symmetry_multiplicity
 _atom_site_fract_x
 _atom_site_fract_y
 _atom_site_fract_z
 _atom_site_occupancy
  Al  Al0  1  0.22164900  0.95086300  0.50000000  1
  Al  Al1  1  0.77402200  0.23354200  0.50000000  1
  Al  Al2  1  0.76366600  0.24293600  0.00000000  1
  Al  Al3  1  0.23766600  0.76052100  0.00000000  1
  Pb  Pb4  1  0.50057300  0.49559600  0.24975800  1
  Pb  Pb5  1  0.50057300  0.49559600  0.75024200  1
  Se  Se6  1  0.80834700  0.63479500  0.50000000  1
  Se  Se7  1  0.18588100  0.31796300  0.50000000  1
  Se  Se8  1  0.35018100  0.18684600  0.00000000  1
  Se  Se9  1  0.65087100  0.81815200  0.00000000  1
  Se  Se10  1  0.00035200  0.50188100  0.16682600  1
  Se  Se11  1  0.49843400  0.01521400  0.33378000  1
  Se  Se12  1  0.00035200  0.50188100  0.83317400  1
  Se  Se13  1  0.49843400  0.01521400  0.66622000  1
