# generated using pymatgen
data_Ba2Er2Zn8O13
_symmetry_space_group_name_H-M   'P 1'
_cell_length_a   6.42447060
_cell_length_b   6.42447060
_cell_length_c   10.57047097
_cell_angle_alpha   89.45530075
_cell_angle_beta   89.45530075
_cell_angle_gamma   59.69846925
_symmetry_Int_Tables_number   1
_chemical_formula_structural   Ba2Er2Zn8O13
_chemical_formula_sum   'Ba2 Er2 Zn8 O13'
_cell_volume   376.65693440
_cell_formula_units_Z   1
loop_
 _symmetry_equiv_pos_site_id
 _symmetry_equiv_pos_as_xyz
  1  'x, y, z'
loop_
 _atom_site_type_symbol
 _atom_site_label
 _atom_site_symmetry_multiplicity
 _atom_site_fract_x
 _atom_site_fract_y
 _atom_site_fract_z
 _atom_site_occupancy
  Ba  Ba0  1  0.15412700  0.15412700  0.06173600  1
  Ba  Ba1  1  0.83297900  0.83297900  0.49125000  1
  Er  Er2  1  0.18441800  0.18441800  0.62614100  1
  Er  Er3  1  0.83253700  0.83253700  0.14235200  1
  Zn  Zn4  1  0.17788900  0.60863100  0.84669200  1
  Zn  Zn5  1  0.60863100  0.17788900  0.84669200  1
  Zn  Zn6  1  0.83785000  0.32837000  0.33705600  1
  Zn  Zn7  1  0.32837000  0.83785000  0.33705600  1
  Zn  Zn8  1  0.50881300  0.50881300  0.08319500  1
  Zn  Zn9  1  0.50335300  0.50335300  0.57960000  1
  Zn  Zn10  1  0.66956200  0.66956200  0.83352900  1
  Zn  Zn11  1  0.33247600  0.33247600  0.32643100  1
  O  O12  1  0.50238500  0.50238500  0.27016700  1
  O  O13  1  0.49973100  0.49973200  0.77028900  1
  O  O14  1  0.69365300  0.17028200  0.01709700  1
  O  O15  1  0.17028200  0.69365300  0.01709700  1
  O  O16  1  0.31337400  0.84079600  0.52445500  1
  O  O17  1  0.84079600  0.31337400  0.52445500  1
  O  O18  1  0.99742900  0.50520800  0.75556100  1
  O  O19  1  0.50520800  0.99742900  0.75556100  1
  O  O20  1  0.99608200  0.50334500  0.26631100  1
  O  O21  1  0.50334500  0.99608200  0.26631100  1
  O  O22  1  0.67512900  0.67513000  0.01793800  1
  O  O23  1  0.33664000  0.33664000  0.51302900  1
  O  O24  1  0.99904100  0.99904100  0.26399700  1
