# generated using pymatgen
data_Ba2Ti4Cr2O13
_symmetry_space_group_name_H-M   'P 1'
_cell_length_a   7.84720675
_cell_length_b   7.90059000
_cell_length_c   10.04823286
_cell_angle_alpha   66.84836995
_cell_angle_beta   103.13830062
_cell_angle_gamma   104.57862129
_symmetry_Int_Tables_number   1
_chemical_formula_structural   Ba2Ti4Cr2O13
_chemical_formula_sum   'Ba4 Ti8 Cr4 O26'
_cell_volume   548.55904133
_cell_formula_units_Z   2
loop_
 _symmetry_equiv_pos_site_id
 _symmetry_equiv_pos_as_xyz
  1  'x, y, z'
loop_
 _atom_site_type_symbol
 _atom_site_label
 _atom_site_symmetry_multiplicity
 _atom_site_fract_x
 _atom_site_fract_y
 _atom_site_fract_z
 _atom_site_occupancy
  Ba  Ba0  1  0.89628800  0.11024500  0.22764200  1
  Ba  Ba1  1  0.89628500  0.61024700  0.22765500  1
  Ba  Ba2  1  0.10369900  0.88976000  0.77233800  1
  Ba  Ba3  1  0.10370800  0.38974700  0.77234700  1
  Ti  Ti4  1  0.24760200  0.01832100  0.08698000  1
  Ti  Ti5  1  0.24762200  0.51833000  0.08699000  1
  Ti  Ti6  1  0.75238300  0.98167400  0.91300700  1
  Ti  Ti7  1  0.75240400  0.48167900  0.91302000  1
  Ti  Ti8  1  0.33209400  0.86444900  0.43714900  1
  Ti  Ti9  1  0.33209500  0.36444600  0.43715000  1
  Ti  Ti10  1  0.66790300  0.13555100  0.56285200  1
  Ti  Ti11  1  0.66791000  0.63555200  0.56285300  1
  Cr  Cr12  1  0.48973500  0.74255200  0.75973000  1
  Cr  Cr13  1  0.51025500  0.75744100  0.24028400  1
  Cr  Cr14  1  0.48976600  0.24257200  0.75974200  1
  Cr  Cr15  1  0.51023500  0.25743500  0.24026800  1
  O  O16  1  0.00000300  0.50000100  0.00000200  1
  O  O17  1  0.00000200  0.99999900  0.99999500  1
  O  O18  1  0.60210800  0.86476200  0.57152000  1
  O  O19  1  0.60211900  0.36476500  0.57152500  1
  O  O20  1  0.39787400  0.13523300  0.42847600  1
  O  O21  1  0.39788800  0.63523800  0.42847700  1
  O  O22  1  0.26046400  0.75600600  0.61815400  1
  O  O23  1  0.26048200  0.25601300  0.61816200  1
  O  O24  1  0.73951600  0.24398400  0.38183600  1
  O  O25  1  0.73953900  0.74398800  0.38185200  1
  O  O26  1  0.33815600  0.62535500  0.91838700  1
  O  O27  1  0.33815900  0.12535900  0.91838800  1
  O  O28  1  0.66184400  0.37464400  0.08161400  1
  O  O29  1  0.66185400  0.87464500  0.08161400  1
  O  O30  1  0.73697900  0.74177400  0.88485900  1
  O  O31  1  0.73698900  0.24178000  0.88486600  1
  O  O32  1  0.26301300  0.25822400  0.11512900  1
  O  O33  1  0.26302800  0.75822800  0.11513700  1
  O  O34  1  0.13627300  0.88177400  0.30462400  1
  O  O35  1  0.13627200  0.38177000  0.30462800  1
  O  O36  1  0.86372700  0.11823200  0.69537200  1
  O  O37  1  0.86372800  0.61822200  0.69537500  1
  O  O38  1  0.47282900  0.99697600  0.24245400  1
  O  O39  1  0.47283200  0.49697800  0.24245500  1
  O  O40  1  0.52717100  0.00302500  0.75754700  1
  O  O41  1  0.52716900  0.50302400  0.75754700  1
