# generated using pymatgen
data_Ba2ScAlO5
_symmetry_space_group_name_H-M   'P 1'
_cell_length_a   5.88229345
_cell_length_b   5.88229345
_cell_length_c   14.61090713
_cell_angle_alpha   89.99331355
_cell_angle_beta   89.99331355
_cell_angle_gamma   59.30015131
_symmetry_Int_Tables_number   1
_chemical_formula_structural   Ba2ScAlO5
_chemical_formula_sum   'Ba6 Sc3 Al3 O15'
_cell_volume   434.70543758
_cell_formula_units_Z   3
loop_
 _symmetry_equiv_pos_site_id
 _symmetry_equiv_pos_as_xyz
  1  'x, y, z'
loop_
 _atom_site_type_symbol
 _atom_site_label
 _atom_site_symmetry_multiplicity
 _atom_site_fract_x
 _atom_site_fract_y
 _atom_site_fract_z
 _atom_site_occupancy
  Ba  Ba0  1  0.00363500  0.00363500  0.75450400  1
  Ba  Ba1  1  0.98455900  0.98455900  0.25276900  1
  Ba  Ba2  1  0.66790600  0.66790600  0.09972800  1
  Ba  Ba3  1  0.33118500  0.33118500  0.93386800  1
  Ba  Ba4  1  0.33447500  0.33447500  0.55987000  1
  Ba  Ba5  1  0.66718800  0.66718800  0.40287600  1
  Sc  Sc6  1  0.99830800  0.99830800  0.49117300  1
  Sc  Sc7  1  0.00164300  0.00164300  0.01183500  1
  Sc  Sc8  1  0.66120500  0.66120500  0.63949200  1
  Al  Al9  1  0.31269100  0.31269100  0.34509700  1
  Al  Al10  1  0.31152200  0.31152200  0.15334200  1
  Al  Al11  1  0.64579500  0.64579500  0.87107100  1
  O  O12  1  0.84955200  0.33220800  0.57546700  1
  O  O13  1  0.84719600  0.84719600  0.60231500  1
  O  O14  1  0.33220800  0.84955200  0.57546700  1
  O  O15  1  0.17705100  0.64170600  0.41023800  1
  O  O16  1  0.16065200  0.16065200  0.40742200  1
  O  O17  1  0.64170600  0.17705100  0.41023800  1
  O  O18  1  0.16913200  0.63823400  0.08613100  1
  O  O19  1  0.15758100  0.15758100  0.09369300  1
  O  O20  1  0.63823400  0.16913200  0.08613100  1
  O  O21  1  0.83656200  0.33531000  0.92537300  1
  O  O22  1  0.81938300  0.81938300  0.87670700  1
  O  O23  1  0.33531000  0.83656200  0.92537300  1
  O  O24  1  0.56901300  0.56901300  0.76203300  1
  O  O25  1  0.49612800  0.07018000  0.24889400  1
  O  O26  1  0.07018000  0.49612800  0.24889400  1
