# generated using pymatgen
data_Al3CrO6
_symmetry_space_group_name_H-M   'P 1'
_cell_length_a   7.16522665
_cell_length_b   7.16608335
_cell_length_c   8.45137483
_cell_angle_alpha   113.16286211
_cell_angle_beta   113.16108311
_cell_angle_gamma   85.83979882
_symmetry_Int_Tables_number   1
_chemical_formula_structural   Al3CrO6
_chemical_formula_sum   'Al12 Cr4 O24'
_cell_volume   365.07617837
_cell_formula_units_Z   4
loop_
 _symmetry_equiv_pos_site_id
 _symmetry_equiv_pos_as_xyz
  1  'x, y, z'
loop_
 _atom_site_type_symbol
 _atom_site_label
 _atom_site_symmetry_multiplicity
 _atom_site_fract_x
 _atom_site_fract_y
 _atom_site_fract_z
 _atom_site_occupancy
  Al  Al0  1  0.97315500  0.47316900  0.64873800  1
  Al  Al1  1  0.47314300  0.97315900  0.64872800  1
  Al  Al2  1  0.22321200  0.22320200  0.14882300  1
  Al  Al3  1  0.72318100  0.72317300  0.14878300  1
  Al  Al4  1  0.97523500  0.97523700  0.65012800  1
  Al  Al5  1  0.47525000  0.47523000  0.65012700  1
  Al  Al6  1  0.22522500  0.72524400  0.15016400  1
  Al  Al7  1  0.72522600  0.22523700  0.15016800  1
  Al  Al8  1  0.52897000  0.02896100  0.35261600  1
  Al  Al9  1  0.02897700  0.52895700  0.35262300  1
  Al  Al10  1  0.77900900  0.77901600  0.85266900  1
  Al  Al11  1  0.27900800  0.27902400  0.85267700  1
  Cr  Cr12  1  0.52741000  0.52740200  0.35158000  1
  Cr  Cr13  1  0.27738500  0.77739000  0.85155700  1
  Cr  Cr14  1  0.02747600  0.02749300  0.35163600  1
  Cr  Cr15  1  0.77749500  0.27745000  0.85164900  1
  O  O16  1  0.04465300  0.70411700  0.59449800  1
  O  O17  1  0.54463900  0.20407900  0.59450300  1
  O  O18  1  0.29456200  0.45404400  0.09444100  1
  O  O19  1  0.79454500  0.95402900  0.09443400  1
  O  O20  1  0.78051900  0.96829400  0.74728100  1
  O  O21  1  0.28050800  0.46829600  0.74728700  1
  O  O22  1  0.03043900  0.71820200  0.24730300  1
  O  O23  1  0.53043300  0.21822700  0.24732200  1
  O  O24  1  0.79807400  0.95080400  0.40687900  1
  O  O25  1  0.29807700  0.45085600  0.40691400  1
  O  O26  1  0.04794600  0.70075300  0.90689800  1
  O  O27  1  0.54785700  0.20076000  0.90693100  1
  O  O28  1  0.72998300  0.52820500  0.24468900  1
  O  O29  1  0.22996400  0.02817400  0.24463400  1
  O  O30  1  0.97991500  0.27833000  0.74455000  1
  O  O31  1  0.47991600  0.77831800  0.74453400  1
  O  O32  1  0.70986900  0.54839600  0.60788600  1
  O  O33  1  0.20987000  0.04840400  0.60791400  1
  O  O34  1  0.95975400  0.29843200  0.10770800  1
  O  O35  1  0.45970800  0.79844400  0.10763800  1
  O  O36  1  0.44764200  0.81054900  0.40589100  1
  O  O37  1  0.94764100  0.31058200  0.40591300  1
  O  O38  1  0.69765700  0.56078300  0.90604200  1
  O  O39  1  0.19767600  0.06077600  0.90605100  1
