# generated using pymatgen
data_Ba4SrRe3ClO15
_symmetry_space_group_name_H-M   'P 1'
_cell_length_a   11.00376746
_cell_length_b   11.00376746
_cell_length_c   7.89237200
_cell_angle_alpha   90.00000000
_cell_angle_beta   90.00000000
_cell_angle_gamma   119.99999674
_symmetry_Int_Tables_number   1
_chemical_formula_structural   Ba4SrRe3ClO15
_chemical_formula_sum   'Ba8 Sr2 Re6 Cl2 O30'
_cell_volume   827.60098887
_cell_formula_units_Z   2
loop_
 _symmetry_equiv_pos_site_id
 _symmetry_equiv_pos_as_xyz
  1  'x, y, z'
loop_
 _atom_site_type_symbol
 _atom_site_label
 _atom_site_symmetry_multiplicity
 _atom_site_fract_x
 _atom_site_fract_y
 _atom_site_fract_z
 _atom_site_occupancy
  Ba  Ba0  1  0.73599400  0.00000000  0.76068700  1
  Ba  Ba1  1  0.26400600  0.26400600  0.76068700  1
  Ba  Ba2  1  0.00000000  0.73599400  0.76068700  1
  Ba  Ba3  1  0.26386000  0.00000000  0.26030500  1
  Ba  Ba4  1  0.73614000  0.73614000  0.26030500  1
  Ba  Ba5  1  0.00000000  0.26386000  0.26030500  1
  Ba  Ba6  1  0.33333300  0.66666700  0.50149800  1
  Ba  Ba7  1  0.66666700  0.33333300  0.50149800  1
  Sr  Sr8  1  0.66666700  0.33333300  0.00478100  1
  Sr  Sr9  1  0.33333300  0.66666700  0.00478100  1
  Re  Re10  1  0.60904200  0.00000000  0.20168000  1
  Re  Re11  1  0.39095800  0.39095800  0.20168000  1
  Re  Re12  1  0.00000000  0.60904200  0.20168000  1
  Re  Re13  1  0.39043300  0.00000000  0.70588400  1
  Re  Re14  1  0.60956700  0.60956700  0.70588400  1
  Re  Re15  1  0.00000000  0.39043300  0.70588400  1
  Cl  Cl16  1  0.00000000  0.00000000  0.03530300  1
  Cl  Cl17  1  0.00000000  0.00000000  0.53529400  1
  O  O18  1  0.60810700  0.86587800  0.05996200  1
  O  O19  1  0.25777100  0.39189300  0.05996200  1
  O  O20  1  0.13412200  0.74222900  0.05996200  1
  O  O21  1  0.74222900  0.13412200  0.05996200  1
  O  O22  1  0.86587800  0.60810700  0.05996200  1
  O  O23  1  0.39189300  0.25777100  0.05996200  1
  O  O24  1  0.38969100  0.13243700  0.56172600  1
  O  O25  1  0.74274600  0.61030900  0.56172600  1
  O  O26  1  0.86756300  0.25725400  0.56172600  1
  O  O27  1  0.25725400  0.86756300  0.56172600  1
  O  O28  1  0.13243700  0.38969100  0.56172600  1
  O  O29  1  0.61030900  0.74274600  0.56172600  1
  O  O30  1  0.42092300  0.86662300  0.24223900  1
  O  O31  1  0.44570000  0.57907700  0.24223900  1
  O  O32  1  0.13337700  0.55430000  0.24223900  1
  O  O33  1  0.55430000  0.13337700  0.24223900  1
  O  O34  1  0.86662300  0.42092300  0.24223900  1
  O  O35  1  0.57907700  0.44570000  0.24223900  1
  O  O36  1  0.57781800  0.13352000  0.75006800  1
  O  O37  1  0.55570200  0.42218200  0.75006800  1
  O  O38  1  0.86648000  0.44429800  0.75006800  1
  O  O39  1  0.44429800  0.86648000  0.75006800  1
  O  O40  1  0.13352000  0.57781800  0.75006800  1
  O  O41  1  0.42218200  0.55570200  0.75006800  1
  O  O42  1  0.70652600  0.00000000  0.37963300  1
  O  O43  1  0.29347400  0.29347400  0.37963300  1
  O  O44  1  0.00000000  0.70652600  0.37963300  1
  O  O45  1  0.29168400  0.00000000  0.88123900  1
  O  O46  1  0.70831600  0.70831600  0.88123900  1
  O  O47  1  0.00000000  0.29168400  0.88123900  1
