# generated using pymatgen
data_Ba3V2Ni6(PO6)4
_symmetry_space_group_name_H-M   'P 1'
_cell_length_a   4.92066209
_cell_length_b   9.74495930
_cell_length_c   10.91503989
_cell_angle_alpha   78.03014275
_cell_angle_beta   76.97962765
_cell_angle_gamma   90.04579055
_symmetry_Int_Tables_number   1
_chemical_formula_structural   Ba3V2Ni6(PO6)4
_chemical_formula_sum   'Ba3 V2 Ni6 P4 O24'
_cell_volume   498.22953248
_cell_formula_units_Z   1
loop_
 _symmetry_equiv_pos_site_id
 _symmetry_equiv_pos_as_xyz
  1  'x, y, z'
loop_
 _atom_site_type_symbol
 _atom_site_label
 _atom_site_symmetry_multiplicity
 _atom_site_fract_x
 _atom_site_fract_y
 _atom_site_fract_z
 _atom_site_occupancy
  Ba  Ba0  1  0.00065500  0.00050600  0.99569800  1
  Ba  Ba1  1  0.33520600  0.66257900  0.32994300  1
  Ba  Ba2  1  0.66682900  0.33037300  0.66918100  1
  V  V3  1  0.38128900  0.04538400  0.23690900  1
  V  V4  1  0.71458900  0.71254600  0.56997100  1
  Ni  Ni5  1  0.44864100  0.38823100  0.10574300  1
  Ni  Ni6  1  0.77813200  0.05627900  0.44343200  1
  Ni  Ni7  1  0.10926900  0.71695100  0.77943000  1
  Ni  Ni8  1  0.55344200  0.61311000  0.89504200  1
  Ni  Ni9  1  0.88667900  0.28647600  0.22381300  1
  Ni  Ni10  1  0.21909700  0.95039900  0.56171900  1
  P  P11  1  0.95238800  0.62193600  0.09711600  1
  P  P12  1  0.28464600  0.28905300  0.42970400  1
  P  P13  1  0.61713500  0.95366800  0.76456200  1
  P  P14  1  0.04998000  0.37988100  0.90401400  1
  O  O15  1  0.91008000  0.72923900  0.18337900  1
  O  O16  1  0.24118300  0.39618000  0.51618000  1
  O  O17  1  0.57398700  0.06168600  0.85018000  1
  O  O18  1  0.09137600  0.27225800  0.81778600  1
  O  O19  1  0.42932000  0.92640300  0.14117400  1
  O  O20  1  0.76281100  0.59330300  0.47458000  1
  O  O21  1  0.26787600  0.58304100  0.07193200  1
  O  O22  1  0.59971800  0.24993100  0.40423700  1
  O  O23  1  0.93256300  0.91516800  0.73937700  1
  O  O24  1  0.75658200  0.48768000  0.16798300  1
  O  O25  1  0.09120800  0.15393100  0.50086500  1
  O  O26  1  0.42415100  0.81846500  0.83460400  1
  O  O27  1  0.87211000  0.68889000  0.96663100  1
  O  O28  1  0.20737500  0.35486500  0.29821500  1
  O  O29  1  0.53905000  0.02110000  0.63371100  1
  O  O30  1  0.73414600  0.41775400  0.92953200  1
  O  O31  1  0.02797400  0.08765400  0.26051300  1
  O  O32  1  0.35887700  0.75000000  0.59827500  1
  O  O33  1  0.24560700  0.51432200  0.83321400  1
  O  O34  1  0.59684500  0.19503600  0.15287000  1
  O  O35  1  0.93291500  0.86166700  0.48729400  1
  O  O36  1  0.13296100  0.31376400  0.03408600  1
  O  O37  1  0.47312500  0.96736500  0.38142300  1
  O  O38  1  0.80018700  0.63292700  0.71568200  1
