# generated using pymatgen
data_Ba2La2MgTi3O12
_symmetry_space_group_name_H-M   'P 1'
_cell_length_a   9.69228058
_cell_length_b   9.69228058
_cell_length_c   9.69228171
_cell_angle_alpha   34.12505833
_cell_angle_beta   34.12505833
_cell_angle_gamma   34.12505477
_symmetry_Int_Tables_number   1
_chemical_formula_structural   Ba2La2MgTi3O12
_chemical_formula_sum   'Ba2 La2 Mg1 Ti3 O12'
_cell_volume   255.48000368
_cell_formula_units_Z   1
loop_
 _symmetry_equiv_pos_site_id
 _symmetry_equiv_pos_as_xyz
  1  'x, y, z'
loop_
 _atom_site_type_symbol
 _atom_site_label
 _atom_site_symmetry_multiplicity
 _atom_site_fract_x
 _atom_site_fract_y
 _atom_site_fract_z
 _atom_site_occupancy
  Ba  Ba0  1  0.62447000  0.62447000  0.62447000  1
  Ba  Ba1  1  0.37553000  0.37553000  0.37553000  1
  La  La2  1  0.12622900  0.12622900  0.12622900  1
  La  La3  1  0.87377100  0.87377100  0.87377100  1
  Mg  Mg4  1  0.50000000  0.50000000  0.50000000  1
  Ti  Ti5  1  0.00000000  0.00000000  0.00000000  1
  Ti  Ti6  1  0.75295500  0.75295500  0.75295500  1
  Ti  Ti7  1  0.24704500  0.24704500  0.24704500  1
  O  O8  1  0.10878800  0.63587400  0.63587400  1
  O  O9  1  0.36665100  0.88241800  0.88241800  1
  O  O10  1  0.89121200  0.36412600  0.36412600  1
  O  O11  1  0.63334900  0.11758200  0.11758200  1
  O  O12  1  0.36412600  0.89121200  0.36412600  1
  O  O13  1  0.63587400  0.10878800  0.63587400  1
  O  O14  1  0.11758200  0.63334900  0.11758200  1
  O  O15  1  0.88241800  0.36665100  0.88241800  1
  O  O16  1  0.36412600  0.36412600  0.89121200  1
  O  O17  1  0.63587400  0.63587400  0.10878800  1
  O  O18  1  0.11758200  0.11758200  0.63334900  1
  O  O19  1  0.88241800  0.88241800  0.36665100  1
