# generated using pymatgen
data_Ba5Mn(Co2O7)2
_symmetry_space_group_name_H-M   'P 1'
_cell_length_a   5.78992900
_cell_length_b   10.01660700
_cell_length_c   12.08968310
_cell_angle_alpha   89.94737559
_cell_angle_beta   90.00000000
_cell_angle_gamma   90.00000000
_symmetry_Int_Tables_number   1
_chemical_formula_structural   Ba5Mn(Co2O7)2
_chemical_formula_sum   'Ba10 Mn2 Co8 O28'
_cell_volume   701.14623558
_cell_formula_units_Z   2
loop_
 _symmetry_equiv_pos_site_id
 _symmetry_equiv_pos_as_xyz
  1  'x, y, z'
loop_
 _atom_site_type_symbol
 _atom_site_label
 _atom_site_symmetry_multiplicity
 _atom_site_fract_x
 _atom_site_fract_y
 _atom_site_fract_z
 _atom_site_occupancy
  Ba  Ba0  1  0.75000000  0.74864700  0.99881300  1
  Ba  Ba1  1  0.25000000  0.25135300  0.00118700  1
  Ba  Ba2  1  0.75000000  0.08179300  0.57769600  1
  Ba  Ba3  1  0.25000000  0.58482100  0.57849400  1
  Ba  Ba4  1  0.25000000  0.91820700  0.42230400  1
  Ba  Ba5  1  0.75000000  0.41517900  0.42150600  1
  Ba  Ba6  1  0.75000000  0.08666200  0.23040800  1
  Ba  Ba7  1  0.25000000  0.57987100  0.22872100  1
  Ba  Ba8  1  0.25000000  0.91333800  0.76959200  1
  Ba  Ba9  1  0.75000000  0.42012900  0.77127900  1
  Mn  Mn10  1  0.25000000  0.25021000  0.70603000  1
  Mn  Mn11  1  0.75000000  0.74979000  0.29397000  1
  Co  Co12  1  0.75000000  0.08503400  0.86170800  1
  Co  Co13  1  0.25000000  0.58198600  0.86337600  1
  Co  Co14  1  0.25000000  0.91496600  0.13829200  1
  Co  Co15  1  0.75000000  0.41801400  0.13662400  1
  Co  Co16  1  0.75000000  0.74903500  0.70251400  1
  Co  Co17  1  0.25000000  0.25096500  0.29748600  1
  Co  Co18  1  0.75000000  0.75018000  0.50132900  1
  Co  Co19  1  0.25000000  0.24982000  0.49867100  1
  O  O20  1  0.00566700  0.16911600  0.80438800  1
  O  O21  1  0.50419000  0.66762000  0.80752000  1
  O  O22  1  0.49433300  0.16911600  0.80438800  1
  O  O23  1  0.99581000  0.66762000  0.80752000  1
  O  O24  1  0.75000000  0.91737900  0.80818300  1
  O  O25  1  0.25000000  0.41173800  0.80406800  1
  O  O26  1  0.99433300  0.83088400  0.19561200  1
  O  O27  1  0.49581000  0.33238000  0.19248000  1
  O  O28  1  0.50566700  0.83088400  0.19561200  1
  O  O29  1  0.00419000  0.33238000  0.19248000  1
  O  O30  1  0.25000000  0.08262100  0.19181700  1
  O  O31  1  0.75000000  0.58826200  0.19593200  1
  O  O32  1  0.75000000  0.08518700  0.00541900  1
  O  O33  1  0.25000000  0.58148100  0.00741800  1
  O  O34  1  0.25000000  0.91481300  0.99458100  1
  O  O35  1  0.75000000  0.41851900  0.99258200  1
  O  O36  1  0.02527100  0.17537700  0.40018300  1
  O  O37  1  0.52954600  0.67638700  0.39535700  1
  O  O38  1  0.47472900  0.17537700  0.40018300  1
  O  O39  1  0.97045400  0.67638700  0.39535700  1
  O  O40  1  0.75000000  0.89649900  0.39515700  1
  O  O41  1  0.25000000  0.40207100  0.40187700  1
  O  O42  1  0.97472900  0.82462300  0.59981700  1
  O  O43  1  0.47045400  0.32361300  0.60464300  1
  O  O44  1  0.52527100  0.82462300  0.59981700  1
  O  O45  1  0.02954600  0.32361300  0.60464300  1
  O  O46  1  0.25000000  0.10350100  0.60484300  1
  O  O47  1  0.75000000  0.59792900  0.59812300  1
