# generated using pymatgen
data_Ba2Tm2Zn8O13
_symmetry_space_group_name_H-M   'P 1'
_cell_length_a   6.43075813
_cell_length_b   6.43075813
_cell_length_c   10.33807170
_cell_angle_alpha   89.75246497
_cell_angle_beta   89.75246497
_cell_angle_gamma   60.04267780
_symmetry_Int_Tables_number   1
_chemical_formula_structural   Ba2Tm2Zn8O13
_chemical_formula_sum   'Ba2 Tm2 Zn8 O13'
_cell_volume   370.40404698
_cell_formula_units_Z   1
loop_
 _symmetry_equiv_pos_site_id
 _symmetry_equiv_pos_as_xyz
  1  'x, y, z'
loop_
 _atom_site_type_symbol
 _atom_site_label
 _atom_site_symmetry_multiplicity
 _atom_site_fract_x
 _atom_site_fract_y
 _atom_site_fract_z
 _atom_site_occupancy
  Ba  Ba0  1  0.13987400  0.13987400  0.93638400  1
  Ba  Ba1  1  0.84511100  0.84511100  0.44306800  1
  Tm  Tm2  1  0.14351700  0.14351700  0.29631800  1
  Tm  Tm3  1  0.83199800  0.83199800  0.80993900  1
  Zn  Zn4  1  0.15761000  0.65375400  0.12063100  1
  Zn  Zn5  1  0.65375400  0.15761000  0.12063100  1
  Zn  Zn6  1  0.84864600  0.32998600  0.62429800  1
  Zn  Zn7  1  0.32998600  0.84864600  0.62429800  1
  Zn  Zn8  1  0.49915200  0.49915200  0.88167800  1
  Zn  Zn9  1  0.53370500  0.53370500  0.36490300  1
  Zn  Zn10  1  0.67626300  0.67626300  0.12653700  1
  Zn  Zn11  1  0.33835300  0.33835300  0.66039100  1
  O  O12  1  0.15685500  0.65256100  0.93062600  1
  O  O13  1  0.65256100  0.15685500  0.93062600  1
  O  O14  1  0.82766000  0.28640400  0.43383400  1
  O  O15  1  0.28640400  0.82766000  0.43383400  1
  O  O16  1  0.99787400  0.50749500  0.21774400  1
  O  O17  1  0.50749500  0.99787400  0.21774400  1
  O  O18  1  0.99904800  0.53197600  0.65428400  1
  O  O19  1  0.53197600  0.99904800  0.65428400  1
  O  O20  1  0.49976500  0.49976500  0.18148900  1
  O  O21  1  0.51003100  0.51003100  0.68402500  1
  O  O22  1  0.66876800  0.66876800  0.93652200  1
  O  O23  1  0.00640900  0.00640900  0.16224300  1
  O  O24  1  0.01708300  0.01708300  0.71226800  1
