# generated using pymatgen
data_B12S
_symmetry_space_group_name_H-M   'P 1'
_cell_length_a   5.22895605
_cell_length_b   5.22895605
_cell_length_c   5.22895583
_cell_angle_alpha   64.64423120
_cell_angle_beta   64.64423120
_cell_angle_gamma   64.64423757
_symmetry_Int_Tables_number   1
_chemical_formula_structural   B12S
_chemical_formula_sum   'B12 S1'
_cell_volume   111.37946217
_cell_formula_units_Z   1
loop_
 _symmetry_equiv_pos_site_id
 _symmetry_equiv_pos_as_xyz
  1  'x, y, z'
loop_
 _atom_site_type_symbol
 _atom_site_label
 _atom_site_symmetry_multiplicity
 _atom_site_fract_x
 _atom_site_fract_y
 _atom_site_fract_z
 _atom_site_occupancy
  B  B0  1  0.82809100  0.50398800  0.50398800  1
  B  B1  1  0.50398800  0.50398800  0.82809100  1
  B  B2  1  0.50398800  0.82809100  0.50398800  1
  B  B3  1  0.16621200  0.49470400  0.49470400  1
  B  B4  1  0.49470400  0.49470400  0.16621200  1
  B  B5  1  0.49470400  0.16621200  0.49470400  1
  B  B6  1  0.82094000  0.30059100  0.30059100  1
  B  B7  1  0.30059100  0.30059100  0.82094000  1
  B  B8  1  0.30059100  0.82094000  0.30059100  1
  B  B9  1  0.20094900  0.68619900  0.68619900  1
  B  B10  1  0.68619900  0.68619900  0.20094900  1
  B  B11  1  0.68619900  0.20094900  0.68619900  1
  S  S12  1  0.91364500  0.91364500  0.91364500  1
