# generated using pymatgen
data_Ba3TiMoO8
_symmetry_space_group_name_H-M   'P 1'
_cell_length_a   6.04878657
_cell_length_b   6.04878657
_cell_length_c   8.00745118
_cell_angle_alpha   90.00000067
_cell_angle_beta   112.19112176
_cell_angle_gamma   59.99999373
_symmetry_Int_Tables_number   1
_chemical_formula_structural   Ba3TiMoO8
_chemical_formula_sum   'Ba3 Ti1 Mo1 O8'
_cell_volume   228.32235023
_cell_formula_units_Z   1
loop_
 _symmetry_equiv_pos_site_id
 _symmetry_equiv_pos_as_xyz
  1  'x, y, z'
loop_
 _atom_site_type_symbol
 _atom_site_label
 _atom_site_symmetry_multiplicity
 _atom_site_fract_x
 _atom_site_fract_y
 _atom_site_fract_z
 _atom_site_occupancy
  Ba  Ba0  1  0.97761800  0.01119100  0.96642700  1
  Ba  Ba1  1  0.60335000  0.19832500  0.40502500  1
  Ba  Ba2  1  0.41207800  0.79396100  0.61811700  1
  Ti  Ti3  1  0.18832300  0.40583900  0.78248400  1
  Mo  Mo4  1  0.81685300  0.59157400  0.22527900  1
  O  O5  1  0.45696900  0.27151500  0.69211100  1
  O  O6  1  0.96362600  0.27151500  0.69211100  1
  O  O7  1  0.96362600  0.76485800  0.69211100  1
  O  O8  1  0.54340700  0.72829700  0.30448000  1
  O  O9  1  0.03277700  0.72829700  0.30448000  1
  O  O10  1  0.03277700  0.23892600  0.30448000  1
  O  O11  1  0.35655900  0.32172100  0.03483800  1
  O  O12  1  0.65203800  0.67398100  0.97805600  1
