# generated using pymatgen
data_Ba3Ti4Sb4O21
_symmetry_space_group_name_H-M   'P 1'
_cell_length_a   9.09698379
_cell_length_b   9.09698379
_cell_length_c   12.05451147
_cell_angle_alpha   89.73779186
_cell_angle_beta   89.73779186
_cell_angle_gamma   60.09264803
_symmetry_Int_Tables_number   1
_chemical_formula_structural   Ba3Ti4Sb4O21
_chemical_formula_sum   'Ba6 Ti8 Sb8 O42'
_cell_volume   864.71643173
_cell_formula_units_Z   2
loop_
 _symmetry_equiv_pos_site_id
 _symmetry_equiv_pos_as_xyz
  1  'x, y, z'
loop_
 _atom_site_type_symbol
 _atom_site_label
 _atom_site_symmetry_multiplicity
 _atom_site_fract_x
 _atom_site_fract_y
 _atom_site_fract_z
 _atom_site_occupancy
  Ba  Ba0  1  0.40627100  0.99977100  0.24939600  1
  Ba  Ba1  1  0.00022900  0.59372900  0.25060400  1
  Ba  Ba2  1  0.59084300  0.40915700  0.25000000  1
  Ba  Ba3  1  0.59372900  0.00022900  0.75060400  1
  Ba  Ba4  1  0.99977100  0.40627100  0.74939600  1
  Ba  Ba5  1  0.40915700  0.59084300  0.75000000  1
  Ti  Ti6  1  0.99656700  0.25235700  0.40072800  1
  Ti  Ti7  1  0.24717100  0.74818600  0.40227700  1
  Ti  Ti8  1  0.00343300  0.74764300  0.59927200  1
  Ti  Ti9  1  0.75282900  0.25181400  0.59772300  1
  Ti  Ti10  1  0.25235700  0.99656700  0.90072800  1
  Ti  Ti11  1  0.74818600  0.24717100  0.90227700  1
  Ti  Ti12  1  0.74764300  0.00343300  0.09927200  1
  Ti  Ti13  1  0.25181400  0.75282900  0.09772300  1
  Sb  Sb14  1  0.33432900  0.33167300  0.50017800  1
  Sb  Sb15  1  0.66567100  0.66832700  0.49982200  1
  Sb  Sb16  1  0.66832700  0.66567100  0.99982200  1
  Sb  Sb17  1  0.33167300  0.33432900  0.00017800  1
  Sb  Sb18  1  0.76220600  0.00000100  0.41358000  1
  Sb  Sb19  1  0.23779400  0.99999900  0.58642000  1
  Sb  Sb20  1  0.00000100  0.76220600  0.91358000  1
  Sb  Sb21  1  0.99999900  0.23779400  0.08642000  1
  O  O22  1  0.31328100  0.51690100  0.39909700  1
  O  O23  1  0.51331900  0.16913500  0.39418000  1
  O  O24  1  0.16827900  0.31387400  0.40212200  1
  O  O25  1  0.82921500  0.48356700  0.39966600  1
  O  O26  1  0.68166300  0.83177600  0.39408000  1
  O  O27  1  0.48068100  0.68733700  0.40165200  1
  O  O28  1  0.68671900  0.48309900  0.60090300  1
  O  O29  1  0.48668100  0.83086500  0.60582000  1
  O  O30  1  0.83172100  0.68612600  0.59787800  1
  O  O31  1  0.17078500  0.51643300  0.60033400  1
  O  O32  1  0.31833700  0.16822400  0.60592000  1
  O  O33  1  0.51931900  0.31266300  0.59834800  1
  O  O34  1  0.68733700  0.48068100  0.90165200  1
  O  O35  1  0.48356700  0.82921500  0.89966600  1
  O  O36  1  0.83177600  0.68166300  0.89408000  1
  O  O37  1  0.16913500  0.51331900  0.89418000  1
  O  O38  1  0.31387400  0.16827900  0.90212200  1
  O  O39  1  0.51690100  0.31328100  0.89909700  1
  O  O40  1  0.31266300  0.51931900  0.09834800  1
  O  O41  1  0.51643300  0.17078500  0.10033400  1
  O  O42  1  0.16822400  0.31833700  0.10592000  1
  O  O43  1  0.83086500  0.48668100  0.10582000  1
  O  O44  1  0.68612600  0.83172100  0.09787800  1
  O  O45  1  0.48309900  0.68671900  0.10090300  1
  O  O46  1  0.19989700  0.00047200  0.42220500  1
  O  O47  1  0.99948200  0.79758900  0.42640000  1
  O  O48  1  0.79666900  0.20256500  0.42557900  1
  O  O49  1  0.80010300  0.99952800  0.57779500  1
  O  O50  1  0.00051800  0.20241100  0.57360000  1
  O  O51  1  0.20333100  0.79743500  0.57442100  1
  O  O52  1  0.79758900  0.99948200  0.92640000  1
  O  O53  1  0.00047200  0.19989700  0.92220500  1
  O  O54  1  0.20256500  0.79666900  0.92557900  1
  O  O55  1  0.20241100  0.00051800  0.07360000  1
  O  O56  1  0.99952800  0.80010300  0.07779500  1
  O  O57  1  0.79743500  0.20333100  0.07442100  1
  O  O58  1  0.78271800  0.99912600  0.24989000  1
  O  O59  1  0.00087400  0.21728200  0.25011000  1
  O  O60  1  0.21681900  0.78318100  0.25000000  1
  O  O61  1  0.21728200  0.00087400  0.75011000  1
  O  O62  1  0.99912600  0.78271800  0.74989000  1
  O  O63  1  0.78318100  0.21681900  0.75000000  1
