data_image0
_chemical_formula_structural       Al4Ge2NiTb2
_chemical_formula_sum              "Al4 Ge2 Ni1 Tb2"
_cell_length_a       4.15385
_cell_length_b       4.15385
_cell_length_c       10.1586
_cell_angle_alpha    101.797
_cell_angle_beta     101.797
_cell_angle_gamma    90

_space_group_name_H-M_alt    "P 1"
_space_group_IT_number       1

loop_
  _space_group_symop_operation_xyz
  'x, y, z'

loop_
  _atom_site_type_symbol
  _atom_site_label
  _atom_site_symmetry_multiplicity
  _atom_site_fract_x
  _atom_site_fract_y
  _atom_site_fract_z
  _atom_site_occupancy
  Al  Al1       1.0  0.56700  0.06730  0.13500  1.0000
  Al  Al2       1.0  0.06730  0.56700  0.13500  1.0000
  Al  Al3       1.0  0.93300  0.43300  0.86500  1.0000
  Al  Al4       1.0  0.43300  0.93300  0.86500  1.0000
  Ge  Ge1       1.0  0.66200  0.66200  0.32400  1.0000
  Ge  Ge2       1.0  0.33800  0.33800  0.67600  1.0000
  Ni  Ni1       1.0  0.00000  0.00000  0.00000  1.0000
  Tb  Tb1       1.0  0.18600  0.18600  0.37300  1.0000
  Tb  Tb2       1.0  0.81400  0.81400  0.62700  1.0000
