# generated using pymatgen
data_Ba2PrGaS5
_symmetry_space_group_name_H-M   'P 1'
_cell_length_a   8.24296263
_cell_length_b   8.24296263
_cell_length_c   8.94962035
_cell_angle_alpha   63.22406245
_cell_angle_beta   63.22406245
_cell_angle_gamma   91.24644107
_symmetry_Int_Tables_number   1
_chemical_formula_structural   Ba2PrGaS5
_chemical_formula_sum   'Ba4 Pr2 Ga2 S10'
_cell_volume   465.02037261
_cell_formula_units_Z   2
loop_
 _symmetry_equiv_pos_site_id
 _symmetry_equiv_pos_as_xyz
  1  'x, y, z'
loop_
 _atom_site_type_symbol
 _atom_site_label
 _atom_site_symmetry_multiplicity
 _atom_site_fract_x
 _atom_site_fract_y
 _atom_site_fract_z
 _atom_site_occupancy
  Ba  Ba0  1  0.25000000  0.25000000  0.50000000  1
  Ba  Ba1  1  0.75000000  0.75000000  0.50000000  1
  Ba  Ba2  1  0.84147700  0.65852300  0.00000000  1
  Ba  Ba3  1  0.15852300  0.34147700  0.00000000  1
  Pr  Pr4  1  0.66645000  0.16645000  0.00000000  1
  Pr  Pr5  1  0.33355000  0.83355000  0.00000000  1
  Ga  Ga6  1  0.75222900  0.25222900  0.49554100  1
  Ga  Ga7  1  0.24777100  0.74777100  0.50445900  1
  S  S8  1  0.50000000  0.50000000  0.00000000  1
  S  S9  1  0.00000000  0.00000000  0.00000000  1
  S  S10  1  0.22159600  0.00069500  0.27770900  1
  S  S11  1  0.50069500  0.72159600  0.27770900  1
  S  S12  1  0.01073700  0.51073700  0.29255000  1
  S  S13  1  0.69671300  0.19671300  0.29255000  1
  S  S14  1  0.77840400  0.99930500  0.72229100  1
  S  S15  1  0.49930500  0.27840400  0.72229100  1
  S  S16  1  0.98926300  0.48926300  0.70745000  1
  S  S17  1  0.30328700  0.80328700  0.70745000  1
