# generated using pymatgen
data_Ba3Sr3Np2
_symmetry_space_group_name_H-M   'P 1'
_cell_length_a   6.47371000
_cell_length_b   6.47371000
_cell_length_c   9.16364000
_cell_angle_alpha   90.00000000
_cell_angle_beta   90.00000000
_cell_angle_gamma   90.00000000
_symmetry_Int_Tables_number   1
_chemical_formula_structural   Ba3Sr3Np2
_chemical_formula_sum   'Ba3 Sr3 Np2'
_cell_volume   384.03826634
_cell_formula_units_Z   1
loop_
 _symmetry_equiv_pos_site_id
 _symmetry_equiv_pos_as_xyz
  1  'x, y, z'
loop_
 _atom_site_type_symbol
 _atom_site_label
 _atom_site_symmetry_multiplicity
 _atom_site_fract_x
 _atom_site_fract_y
 _atom_site_fract_z
 _atom_site_occupancy
  Ba  Ba0  1  0.00000000  0.00000000  0.00000000  1
  Ba  Ba1  1  0.50000000  0.50000000  0.00000000  1
  Ba  Ba2  1  0.00000000  0.00000000  0.50000000  1
  Sr  Sr3  1  0.50000000  0.00000000  0.25087300  1
  Sr  Sr4  1  0.00000000  0.50000000  0.74912700  1
  Sr  Sr5  1  0.50000000  0.50000000  0.50000000  1
  Np  Np6  1  0.50000000  0.00000000  0.74938300  1
  Np  Np7  1  0.00000000  0.50000000  0.25061700  1
