# generated using pymatgen
data_Ba6Mn4Si12Cl3O34
_symmetry_space_group_name_H-M   'P 1'
_cell_length_a   6.99621200
_cell_length_b   9.79161100
_cell_length_c   13.36982925
_cell_angle_alpha   89.86116832
_cell_angle_beta   90.00000000
_cell_angle_gamma   90.00000000
_symmetry_Int_Tables_number   1
_chemical_formula_structural   Ba6Mn4Si12Cl3O34
_chemical_formula_sum   'Ba6 Mn4 Si12 Cl3 O34'
_cell_volume   915.88658599
_cell_formula_units_Z   1
loop_
 _symmetry_equiv_pos_site_id
 _symmetry_equiv_pos_as_xyz
  1  'x, y, z'
loop_
 _atom_site_type_symbol
 _atom_site_label
 _atom_site_symmetry_multiplicity
 _atom_site_fract_x
 _atom_site_fract_y
 _atom_site_fract_z
 _atom_site_occupancy
  Ba  Ba0  1  0.50000000  0.50590600  0.75549000  1
  Ba  Ba1  1  0.50000000  0.47527000  0.23929900  1
  Ba  Ba2  1  0.00000000  0.64630500  0.47362200  1
  Ba  Ba3  1  0.00000000  0.35181300  0.97413100  1
  Ba  Ba4  1  0.50000000  0.98487700  0.42694800  1
  Ba  Ba5  1  0.50000000  0.03651900  0.92057800  1
  Mn  Mn6  1  0.00000000  0.37211000  0.29265500  1
  Mn  Mn7  1  0.00000000  0.62929300  0.79075900  1
  Mn  Mn8  1  0.00000000  0.01816700  0.51487200  1
  Mn  Mn9  1  0.00000000  0.98149400  0.01325100  1
  Si  Si10  1  0.26827100  0.84112100  0.67225100  1
  Si  Si11  1  0.73172900  0.84112100  0.67225100  1
  Si  Si12  1  0.73171800  0.15689800  0.17137600  1
  Si  Si13  1  0.26828200  0.15689800  0.17137600  1
  Si  Si14  1  0.73295900  0.30249600  0.48698700  1
  Si  Si15  1  0.26704100  0.30249600  0.48698700  1
  Si  Si16  1  0.26730300  0.69947300  0.98573900  1
  Si  Si17  1  0.73269700  0.69947300  0.98573900  1
  Si  Si18  1  0.00000000  0.32883000  0.66403600  1
  Si  Si19  1  0.00000000  0.67163800  0.16376300  1
  Si  Si20  1  0.00000000  0.04788500  0.77274500  1
  Si  Si21  1  0.00000000  0.95140100  0.27365100  1
  Cl  Cl22  1  0.50000000  0.67647800  0.41545000  1
  Cl  Cl23  1  0.50000000  0.20338000  0.73382400  1
  Cl  Cl24  1  0.50000000  0.35578000  0.97782000  1
  O  O25  1  0.81309600  0.37059600  0.59293200  1
  O  O26  1  0.18690400  0.37059600  0.59293200  1
  O  O27  1  0.19018000  0.63355700  0.09428400  1
  O  O28  1  0.80982000  0.63355700  0.09428400  1
  O  O29  1  0.18784900  0.94752100  0.75797300  1
  O  O30  1  0.81215100  0.94752100  0.75797300  1
  O  O31  1  0.80847600  0.04744400  0.25717100  1
  O  O32  1  0.19152400  0.04744400  0.25717100  1
  O  O33  1  0.19899400  0.68389400  0.69279200  1
  O  O34  1  0.80100600  0.68389400  0.69279200  1
  O  O35  1  0.80010500  0.31325600  0.19273100  1
  O  O36  1  0.19989500  0.31325600  0.19273100  1
  O  O37  1  0.79650600  0.14485300  0.47430000  1
  O  O38  1  0.20349400  0.14485300  0.47430000  1
  O  O39  1  0.20457700  0.85791500  0.97435600  1
  O  O40  1  0.79542300  0.85791500  0.97435600  1
  O  O41  1  0.00000000  0.41469000  0.76560900  1
  O  O42  1  0.00000000  0.58684800  0.26534700  1
  O  O43  1  0.00000000  0.16082700  0.68003000  1
  O  O44  1  0.00000000  0.83924600  0.18086800  1
  O  O45  1  0.00000000  0.88624000  0.38221000  1
  O  O46  1  0.00000000  0.11357500  0.88171100  1
  O  O47  1  0.20787000  0.88988800  0.56075200  1
  O  O48  1  0.79213000  0.88988800  0.56075200  1
  O  O49  1  0.79461900  0.10777200  0.06061500  1
  O  O50  1  0.20538100  0.10777200  0.06061500  1
  O  O51  1  0.50000000  0.30238600  0.49164300  1
  O  O52  1  0.50000000  0.69823400  0.99390400  1
  O  O53  1  0.50000000  0.84157500  0.68862700  1
  O  O54  1  0.50000000  0.15169300  0.19087400  1
  O  O55  1  0.79423500  0.40235800  0.39434100  1
  O  O56  1  0.20576500  0.40235800  0.39434100  1
  O  O57  1  0.20220100  0.60092500  0.89412300  1
  O  O58  1  0.79779900  0.60092500  0.89412300  1
