# generated using pymatgen
data_Ca14MnP9(O12F)3
_symmetry_space_group_name_H-M   'P 1'
_cell_length_a   9.46051137
_cell_length_b   9.46051137
_cell_length_c   20.71867800
_cell_angle_alpha   90.00000000
_cell_angle_beta   90.00000000
_cell_angle_gamma   119.99999561
_symmetry_Int_Tables_number   1
_chemical_formula_structural   Ca14MnP9(O12F)3
_chemical_formula_sum   'Ca28 Mn2 P18 O72 F6'
_cell_volume   1605.91263840
_cell_formula_units_Z   2
loop_
 _symmetry_equiv_pos_site_id
 _symmetry_equiv_pos_as_xyz
  1  'x, y, z'
loop_
 _atom_site_type_symbol
 _atom_site_label
 _atom_site_symmetry_multiplicity
 _atom_site_fract_x
 _atom_site_fract_y
 _atom_site_fract_z
 _atom_site_occupancy
  Ca  Ca0  1  0.00000000  0.00000000  0.83098700  1
  Ca  Ca1  1  0.00000000  0.00000000  0.49867100  1
  Ca  Ca2  1  0.00000000  0.00000000  0.16616900  1
  Ca  Ca3  1  0.33333300  0.66666700  0.99849600  1
  Ca  Ca4  1  0.33333300  0.66666700  0.66497100  1
  Ca  Ca5  1  0.33333300  0.66666700  0.33163900  1
  Ca  Ca6  1  0.33333300  0.66666700  0.83214700  1
  Ca  Ca7  1  0.33333300  0.66666700  0.49886500  1
  Ca  Ca8  1  0.33333300  0.66666700  0.16571400  1
  Ca  Ca9  1  0.00000000  0.00000000  0.99901200  1
  Ca  Ca10  1  0.91383400  0.57638100  0.91517600  1
  Ca  Ca11  1  0.91373900  0.57671600  0.58205800  1
  Ca  Ca12  1  0.91373300  0.57666900  0.24880000  1
  Ca  Ca13  1  0.66254600  0.08616600  0.91517600  1
  Ca  Ca14  1  0.66297800  0.08626100  0.58205800  1
  Ca  Ca15  1  0.66293500  0.08626700  0.24880000  1
  Ca  Ca16  1  0.42361900  0.33745400  0.91517600  1
  Ca  Ca17  1  0.42328400  0.33702200  0.58205800  1
  Ca  Ca18  1  0.42333100  0.33706500  0.24880000  1
  Ca  Ca19  1  0.41943600  0.09021100  0.74824800  1
  Ca  Ca20  1  0.41923900  0.09011000  0.41500000  1
  Ca  Ca21  1  0.41929600  0.09012700  0.08199500  1
  Ca  Ca22  1  0.67077500  0.58056400  0.74824800  1
  Ca  Ca23  1  0.67087000  0.58076100  0.41500000  1
  Ca  Ca24  1  0.67083100  0.58070400  0.08199500  1
  Ca  Ca25  1  0.90978900  0.32922500  0.74824800  1
  Ca  Ca26  1  0.90989000  0.32913000  0.41500000  1
  Ca  Ca27  1  0.90987300  0.32916900  0.08199500  1
  Mn  Mn28  1  0.00000000  0.00000000  0.66631200  1
  Mn  Mn29  1  0.00000000  0.00000000  0.33316000  1
  P  P30  1  0.69590200  0.73125400  0.91484000  1
  P  P31  1  0.69738500  0.73179900  0.58238200  1
  P  P32  1  0.69731100  0.73174400  0.24910700  1
  P  P33  1  0.03535200  0.30409800  0.91484000  1
  P  P34  1  0.03441500  0.30261500  0.58238200  1
  P  P35  1  0.03443300  0.30268900  0.24910700  1
  P  P36  1  0.26874600  0.96464800  0.91484000  1
  P  P37  1  0.26820100  0.96558500  0.58238200  1
  P  P38  1  0.26825600  0.96556700  0.24910700  1
  P  P39  1  0.63923000  0.93530300  0.74736800  1
  P  P40  1  0.63931600  0.93529700  0.41404100  1
  P  P41  1  0.63758700  0.93535000  0.08158900  1
  P  P42  1  0.29607300  0.36077000  0.74736800  1
  P  P43  1  0.29598200  0.36068400  0.41404100  1
  P  P44  1  0.29776300  0.36241300  0.08158900  1
  P  P45  1  0.06469700  0.70392700  0.74736800  1
  P  P46  1  0.06470300  0.70401800  0.41404100  1
  P  P47  1  0.06465000  0.70223700  0.08158900  1
  O  O48  1  0.75449000  0.67926800  0.85396700  1
  O  O49  1  0.75546900  0.68135400  0.52085500  1
  O  O50  1  0.75544900  0.68129700  0.18761900  1
  O  O51  1  0.92477800  0.24551000  0.85396700  1
  O  O52  1  0.92588500  0.24453100  0.52085500  1
  O  O53  1  0.92584800  0.24455100  0.18761900  1
  O  O54  1  0.32073200  0.07522200  0.85396700  1
  O  O55  1  0.31864600  0.07411500  0.52085500  1
  O  O56  1  0.31870300  0.07415200  0.18761900  1
  O  O57  1  0.57872100  0.98708400  0.68715100  1
  O  O58  1  0.57872000  0.98714600  0.35386800  1
  O  O59  1  0.57882500  0.98740400  0.02080500  1
  O  O60  1  0.40836300  0.42127900  0.68715100  1
  O  O61  1  0.40842600  0.42128000  0.35386800  1
  O  O62  1  0.40858000  0.42117500  0.02080500  1
  O  O63  1  0.01291600  0.59163700  0.68715100  1
  O  O64  1  0.01285400  0.59157400  0.35386800  1
  O  O65  1  0.01259600  0.59142000  0.02080500  1
  O  O66  1  0.58886600  0.99858600  0.80732300  1
  O  O67  1  0.58903900  0.99848100  0.47410300  1
  O  O68  1  0.58519100  0.99765100  0.14125600  1
  O  O69  1  0.40972100  0.41113400  0.80732300  1
  O  O70  1  0.40944200  0.41096100  0.47410300  1
  O  O71  1  0.41246000  0.41480900  0.14125600  1
  O  O72  1  0.00141400  0.59027900  0.80732300  1
  O  O73  1  0.00151900  0.59055800  0.47410300  1
  O  O74  1  0.00234900  0.58754000  0.14125600  1
  O  O75  1  0.74827900  0.66878700  0.97442000  1
  O  O76  1  0.74625200  0.66448900  0.64120200  1
  O  O77  1  0.74624300  0.66447000  0.30792400  1
  O  O78  1  0.92050900  0.25172100  0.97442000  1
  O  O79  1  0.91823800  0.25374800  0.64120200  1
  O  O80  1  0.91822800  0.25375700  0.30792400  1
  O  O81  1  0.33121300  0.07949100  0.97442000  1
  O  O82  1  0.33551100  0.08176200  0.64120200  1
  O  O83  1  0.33553000  0.08177200  0.30792400  1
  O  O84  1  0.50860700  0.65988500  0.91426000  1
  O  O85  1  0.51026400  0.66254100  0.58095400  1
  O  O86  1  0.51029600  0.66271700  0.24770500  1
  O  O87  1  0.15127700  0.49139300  0.91426000  1
  O  O88  1  0.15227700  0.48973600  0.58095400  1
  O  O89  1  0.15242000  0.48970400  0.24770500  1
  O  O90  1  0.34011500  0.84872300  0.91426000  1
  O  O91  1  0.33745900  0.84772300  0.58095400  1
  O  O92  1  0.33728300  0.84758000  0.24770500  1
  O  O93  1  0.82723000  0.00564600  0.74526700  1
  O  O94  1  0.82728700  0.00565300  0.41200100  1
  O  O95  1  0.82473300  0.00650000  0.08107400  1
  O  O96  1  0.17841600  0.17277000  0.74526700  1
  O  O97  1  0.17836600  0.17271300  0.41200100  1
  O  O98  1  0.18176700  0.17526700  0.08107400  1
  O  O99  1  0.99435400  0.82158400  0.74526700  1
  O  O100  1  0.99434700  0.82163400  0.41200100  1
  O  O101  1  0.99350000  0.81823300  0.08107400  1
  O  O102  1  0.78847800  0.92153000  0.91652800  1
  O  O103  1  0.79304900  0.92259900  0.58604200  1
  O  O104  1  0.79298900  0.92257100  0.25277900  1
  O  O105  1  0.13305200  0.21152200  0.91652800  1
  O  O106  1  0.12955100  0.20695100  0.58604200  1
  O  O107  1  0.12958300  0.20701100  0.25277900  1
  O  O108  1  0.07847000  0.86694800  0.91652800  1
  O  O109  1  0.07740100  0.87044900  0.58604200  1
  O  O110  1  0.07742900  0.87041700  0.25277900  1
  O  O111  1  0.54550400  0.74501100  0.74982100  1
  O  O112  1  0.54548100  0.74500100  0.41646400  1
  O  O113  1  0.54484400  0.74502300  0.08325100  1
  O  O114  1  0.19950600  0.45449600  0.74982100  1
  O  O115  1  0.19952000  0.45451900  0.41646400  1
  O  O116  1  0.20017900  0.45515600  0.08325100  1
  O  O117  1  0.25498900  0.80049400  0.74982100  1
  O  O118  1  0.25499900  0.80048000  0.41646400  1
  O  O119  1  0.25497700  0.79982100  0.08325100  1
  F  F120  1  0.66666700  0.33333300  0.91460300  1
  F  F121  1  0.66666700  0.33333300  0.58107700  1
  F  F122  1  0.66666700  0.33333300  0.24771200  1
  F  F123  1  0.66666700  0.33333300  0.74798600  1
  F  F124  1  0.66666700  0.33333300  0.41468100  1
  F  F125  1  0.66666700  0.33333300  0.08127200  1
