# generated using pymatgen
data_Ba2CaEu2Ti3(CuO7)2
_symmetry_space_group_name_H-M   'P 1'
_cell_length_a   3.91348900
_cell_length_b   3.91348900
_cell_length_c   19.90957300
_cell_angle_alpha   90.00000000
_cell_angle_beta   90.00000000
_cell_angle_gamma   90.00000000
_symmetry_Int_Tables_number   1
_chemical_formula_structural   Ba2CaEu2Ti3(CuO7)2
_chemical_formula_sum   'Ba2 Ca1 Eu2 Ti3 Cu2 O14'
_cell_volume   304.92299773
_cell_formula_units_Z   1
loop_
 _symmetry_equiv_pos_site_id
 _symmetry_equiv_pos_as_xyz
  1  'x, y, z'
loop_
 _atom_site_type_symbol
 _atom_site_label
 _atom_site_symmetry_multiplicity
 _atom_site_fract_x
 _atom_site_fract_y
 _atom_site_fract_z
 _atom_site_occupancy
  Ba  Ba0  1  0.50000000  0.50000000  0.80832500  1
  Ba  Ba1  1  0.50000000  0.50000000  0.18940100  1
  Ca  Ca2  1  0.50000000  0.50000000  0.60666700  1
  Eu  Eu3  1  0.50000000  0.50000000  0.99963700  1
  Eu  Eu4  1  0.50000000  0.50000000  0.40151400  1
  Ti  Ti5  1  0.00000000  0.00000000  0.69978700  1
  Ti  Ti6  1  0.00000000  0.00000000  0.30038200  1
  Ti  Ti7  1  0.00000000  0.00000000  0.50272800  1
  Cu  Cu8  1  0.00000000  0.00000000  0.91215300  1
  Cu  Cu9  1  0.00000000  0.00000000  0.08704300  1
  O  O10  1  0.50000000  0.00000000  0.92394300  1
  O  O11  1  0.00000000  0.50000000  0.92394300  1
  O  O12  1  0.50000000  0.00000000  0.07630200  1
  O  O13  1  0.00000000  0.50000000  0.07630200  1
  O  O14  1  0.00000000  0.00000000  0.79440600  1
  O  O15  1  0.00000000  0.00000000  0.20570100  1
  O  O16  1  0.00000000  0.00000000  0.59614000  1
  O  O17  1  0.00000000  0.00000000  0.40221200  1
  O  O18  1  0.50000000  0.00000000  0.69126300  1
  O  O19  1  0.00000000  0.50000000  0.69126300  1
  O  O20  1  0.50000000  0.00000000  0.30891100  1
  O  O21  1  0.00000000  0.50000000  0.30891100  1
  O  O22  1  0.50000000  0.00000000  0.49653200  1
  O  O23  1  0.00000000  0.50000000  0.49653200  1
