# generated using pymatgen
data_AlSb
_symmetry_space_group_name_H-M   'P 1'
_cell_length_a   4.16317243
_cell_length_b   4.16317243
_cell_length_c   4.16317243
_cell_angle_alpha   98.49394679
_cell_angle_beta   98.49394679
_cell_angle_gamma   134.79644284
_symmetry_Int_Tables_number   1
_chemical_formula_structural   AlSb
_chemical_formula_sum   'Al1 Sb1'
_cell_volume   47.27055002
_cell_formula_units_Z   1
loop_
 _symmetry_equiv_pos_site_id
 _symmetry_equiv_pos_as_xyz
  1  'x, y, z'
loop_
 _atom_site_type_symbol
 _atom_site_label
 _atom_site_symmetry_multiplicity
 _atom_site_fract_x
 _atom_site_fract_y
 _atom_site_fract_z
 _atom_site_occupancy
  Al  Al0  1  0.75000000  0.25000000  0.50000000  1
  Sb  Sb1  1  0.00000000  0.00000000  0.00000000  1
