# generated using pymatgen
data_Ba5Ce4ZrO15
_symmetry_space_group_name_H-M   'P 1'
_cell_length_a   6.22479400
_cell_length_b   6.23105591
_cell_length_c   25.63030371
_cell_angle_alpha   83.12578926
_cell_angle_beta   83.17214978
_cell_angle_gamma   60.45174651
_symmetry_Int_Tables_number   1
_chemical_formula_structural   Ba5Ce4ZrO15
_chemical_formula_sum   'Ba10 Ce8 Zr2 O30'
_cell_volume   856.54686205
_cell_formula_units_Z   2
loop_
 _symmetry_equiv_pos_site_id
 _symmetry_equiv_pos_as_xyz
  1  'x, y, z'
loop_
 _atom_site_type_symbol
 _atom_site_label
 _atom_site_symmetry_multiplicity
 _atom_site_fract_x
 _atom_site_fract_y
 _atom_site_fract_z
 _atom_site_occupancy
  Ba  Ba0  1  0.95634000  0.94310900  0.65074900  1
  Ba  Ba1  1  0.35674000  0.34326500  0.44989700  1
  Ba  Ba2  1  0.15551700  0.14451700  0.04915400  1
  Ba  Ba3  1  0.75681400  0.74470900  0.24753000  1
  Ba  Ba4  1  0.55489900  0.54304600  0.85236800  1
  Ba  Ba5  1  0.64326000  0.65673500  0.55010300  1
  Ba  Ba6  1  0.04366000  0.05689100  0.34925100  1
  Ba  Ba7  1  0.84448300  0.85548300  0.95084600  1
  Ba  Ba8  1  0.44510100  0.45695400  0.14763200  1
  Ba  Ba9  1  0.24318600  0.25529100  0.75247000  1
  Ce  Ce10  1  0.89892700  0.89873100  0.80303100  1
  Ce  Ce11  1  0.29971000  0.29995800  0.60034500  1
  Ce  Ce12  1  0.70029000  0.70004200  0.39965500  1
  Ce  Ce13  1  0.10107300  0.10126900  0.19696900  1
  Ce  Ce14  1  0.50000000  0.50000000  0.00000000  1
  Ce  Ce15  1  0.59957800  0.59942500  0.70104600  1
  Ce  Ce16  1  0.00000000  0.00000000  0.50000000  1
  Ce  Ce17  1  0.40042200  0.40057500  0.29895400  1
  Zr  Zr18  1  0.80008000  0.80063000  0.09925600  1
  Zr  Zr19  1  0.19992000  0.19937000  0.90074400  1
  O  O20  1  0.97236900  0.47508800  0.65831000  1
  O  O21  1  0.37474800  0.87429400  0.45808500  1
  O  O22  1  0.15990100  0.67437300  0.05756600  1
  O  O23  1  0.77792100  0.27139400  0.25656800  1
  O  O24  1  0.55547600  0.07757400  0.85908900  1
  O  O25  1  0.42660500  0.92393500  0.64217200  1
  O  O26  1  0.82543100  0.32587900  0.44181400  1
  O  O27  1  0.63571300  0.12119500  0.04455400  1
  O  O28  1  0.22485200  0.73141200  0.24114500  1
  O  O29  1  0.03694800  0.51488800  0.84557200  1
  O  O30  1  0.17456900  0.67412100  0.55818600  1
  O  O31  1  0.57339500  0.07606500  0.35782800  1
  O  O32  1  0.36428700  0.87880500  0.95544600  1
  O  O33  1  0.96305200  0.48511200  0.15442800  1
  O  O34  1  0.77514800  0.26858800  0.75885500  1
  O  O35  1  0.62525200  0.12570600  0.54191500  1
  O  O36  1  0.02763100  0.52491200  0.34169000  1
  O  O37  1  0.84009900  0.32562700  0.94243400  1
  O  O38  1  0.44452400  0.92242600  0.14091100  1
  O  O39  1  0.22207900  0.72860600  0.74343200  1
  O  O40  1  0.68116100  0.82235700  0.75109100  1
  O  O41  1  0.07552800  0.22469100  0.55003200  1
  O  O42  1  0.47520600  0.62310800  0.34980000  1
  O  O43  1  0.88056200  0.00726100  0.14744400  1
  O  O44  1  0.28571100  0.40632700  0.94867600  1
  O  O45  1  0.92447200  0.77530900  0.44996800  1
  O  O46  1  0.31883900  0.17764300  0.24890900  1
  O  O47  1  0.71428900  0.59367300  0.05132400  1
  O  O48  1  0.11943800  0.99273900  0.85255600  1
  O  O49  1  0.52479400  0.37689200  0.65020000  1
