data_image0
_chemical_formula_structural       B2Lu2O6
_chemical_formula_sum              "B2 Lu2 O6"
_cell_length_a       4.88854
_cell_length_b       4.88854
_cell_length_c       6.035
_cell_angle_alpha    113.892
_cell_angle_beta     113.892
_cell_angle_gamma    60

_space_group_name_H-M_alt    "P 1"
_space_group_IT_number       1

loop_
  _space_group_symop_operation_xyz
  'x, y, z'

loop_
  _atom_site_type_symbol
  _atom_site_label
  _atom_site_symmetry_multiplicity
  _atom_site_fract_x
  _atom_site_fract_y
  _atom_site_fract_z
  _atom_site_occupancy
  B   B1        1.0  0.75000  0.75000  0.25000  1.0000
  B   B2        1.0  0.25000  0.25000  0.75000  1.0000
  Lu  Lu1       1.0  0.00000  0.00000  0.00000  1.0000
  Lu  Lu2       1.0  0.50000  0.50000  0.50000  1.0000
  O   O1        1.0  0.46700  0.03290  0.25000  1.0000
  O   O2        1.0  0.75000  0.46700  0.25000  1.0000
  O   O3        1.0  0.03290  0.75000  0.25000  1.0000
  O   O4        1.0  0.96700  0.25000  0.75000  1.0000
  O   O5        1.0  0.25000  0.53300  0.75000  1.0000
  O   O6        1.0  0.53300  0.96700  0.75000  1.0000
