# generated using pymatgen
data_Ba3NdV3O12
_symmetry_space_group_name_H-M   'P 1'
_cell_length_a   11.46656376
_cell_length_b   11.46656376
_cell_length_c   9.64979619
_cell_angle_alpha   85.47966051
_cell_angle_beta   85.47966051
_cell_angle_gamma   28.96392203
_symmetry_Int_Tables_number   1
_chemical_formula_structural   Ba3NdV3O12
_chemical_formula_sum   'Ba6 Nd2 V6 O24'
_cell_volume   612.37670904
_cell_formula_units_Z   2
loop_
 _symmetry_equiv_pos_site_id
 _symmetry_equiv_pos_as_xyz
  1  'x, y, z'
loop_
 _atom_site_type_symbol
 _atom_site_label
 _atom_site_symmetry_multiplicity
 _atom_site_fract_x
 _atom_site_fract_y
 _atom_site_fract_z
 _atom_site_occupancy
  Ba  Ba0  1  0.00387700  0.00387700  0.01512800  1
  Ba  Ba1  1  0.33282000  0.33282000  0.65884000  1
  Ba  Ba2  1  0.66122200  0.66122200  0.32499300  1
  Ba  Ba3  1  0.80096000  0.80096000  0.99265500  1
  Ba  Ba4  1  0.13698200  0.13698200  0.66138000  1
  Ba  Ba5  1  0.19540800  0.19540800  0.01076000  1
  Nd  Nd6  1  0.51252900  0.51252900  0.63182600  1
  Nd  Nd7  1  0.87702900  0.87702900  0.32852500  1
  V  V8  1  0.93795900  0.93795900  0.66065000  1
  V  V9  1  0.27468800  0.27468800  0.32085100  1
  V  V10  1  0.60294800  0.60294800  0.98040600  1
  V  V11  1  0.05374800  0.05374800  0.36454000  1
  V  V12  1  0.39727200  0.39727200  0.01705900  1
  V  V13  1  0.73514400  0.73514400  0.66273800  1
  O  O14  1  0.54994700  0.54994700  0.11766600  1
  O  O15  1  0.88145800  0.88145800  0.78939600  1
  O  O16  1  0.22170700  0.22170700  0.46128700  1
  O  O17  1  0.45229100  0.45229100  0.87340000  1
  O  O18  1  0.79538100  0.79538100  0.52823100  1
  O  O19  1  0.10841100  0.10841100  0.22727600  1
  O  O20  1  0.30993000  0.82307900  0.47003500  1
  O  O21  1  0.65571000  0.14231200  0.11738600  1
  O  O22  1  0.98159700  0.49824800  0.77051500  1
  O  O23  1  0.82307900  0.30993000  0.47003500  1
  O  O24  1  0.14231200  0.65571000  0.11738600  1
  O  O25  1  0.49824800  0.98159700  0.77051500  1
  O  O26  1  0.98216100  0.98216100  0.30293200  1
  O  O27  1  0.32699400  0.32699400  0.95066400  1
  O  O28  1  0.66317800  0.66317800  0.60444300  1
  O  O29  1  0.67976300  0.18757700  0.55960600  1
  O  O30  1  0.01523900  0.51136100  0.22085900  1
  O  O31  1  0.34358600  0.84687200  0.88201700  1
  O  O32  1  0.18757700  0.67976300  0.55960600  1
  O  O33  1  0.51136100  0.01523900  0.22085900  1
  O  O34  1  0.84687200  0.34358600  0.88201700  1
  O  O35  1  0.00813400  0.00813400  0.72499100  1
  O  O36  1  0.34702300  0.34702300  0.37854100  1
  O  O37  1  0.67536700  0.67536700  0.04525300  1
