# generated using pymatgen
data_Ca19Mg(AsO4)14
_symmetry_space_group_name_H-M   'P 1'
_cell_length_a   14.20154728
_cell_length_b   14.20154728
_cell_length_c   14.20154757
_cell_angle_alpha   45.13258240
_cell_angle_beta   45.13258240
_cell_angle_gamma   45.13258541
_symmetry_Int_Tables_number   1
_chemical_formula_structural   Ca19Mg(AsO4)14
_chemical_formula_sum   'Ca19 Mg1 As14 O56'
_cell_volume   1309.87999685
_cell_formula_units_Z   1
loop_
 _symmetry_equiv_pos_site_id
 _symmetry_equiv_pos_as_xyz
  1  'x, y, z'
loop_
 _atom_site_type_symbol
 _atom_site_label
 _atom_site_symmetry_multiplicity
 _atom_site_fract_x
 _atom_site_fract_y
 _atom_site_fract_z
 _atom_site_occupancy
  Ca  Ca0  1  0.40696800  0.83378900  0.82756200  1
  Ca  Ca1  1  0.83378900  0.82756200  0.40696800  1
  Ca  Ca2  1  0.82756200  0.40696800  0.83378900  1
  Ca  Ca3  1  0.33241100  0.90442000  0.32769400  1
  Ca  Ca4  1  0.90442000  0.32769400  0.33241100  1
  Ca  Ca5  1  0.32769400  0.33241100  0.90442000  1
  Ca  Ca6  1  0.09940500  0.66136300  0.70151700  1
  Ca  Ca7  1  0.66136300  0.70151700  0.09940500  1
  Ca  Ca8  1  0.70151700  0.09940500  0.66136300  1
  Ca  Ca9  1  0.16188300  0.60170100  0.20134200  1
  Ca  Ca10  1  0.60170100  0.20134200  0.16188300  1
  Ca  Ca11  1  0.20134200  0.16188300  0.60170100  1
  Ca  Ca12  1  0.28948400  0.74204600  0.71275600  1
  Ca  Ca13  1  0.74204600  0.71275600  0.28948400  1
  Ca  Ca14  1  0.71275600  0.28948400  0.74204600  1
  Ca  Ca15  1  0.24076600  0.78980100  0.21329000  1
  Ca  Ca16  1  0.78980100  0.21329000  0.24076600  1
  Ca  Ca17  1  0.21329000  0.24076600  0.78980100  1
  Ca  Ca18  1  0.25538700  0.25538700  0.25538700  1
  Mg  Mg19  1  0.75519300  0.75519300  0.75519300  1
  As  As20  1  0.07454800  0.53339800  0.56576800  1
  As  As21  1  0.53339800  0.56576800  0.07454800  1
  As  As22  1  0.56576800  0.07454800  0.53339800  1
  As  As23  1  0.02937100  0.57845800  0.06189400  1
  As  As24  1  0.57845800  0.06189400  0.02937100  1
  As  As25  1  0.06189400  0.02937100  0.57845800  1
  As  As26  1  0.93210200  0.44478900  0.48972600  1
  As  As27  1  0.44478900  0.48972600  0.93210200  1
  As  As28  1  0.48972600  0.93210200  0.44478900  1
  As  As29  1  0.94168800  0.43641600  0.98396200  1
  As  As30  1  0.43641600  0.98396200  0.94168800  1
  As  As31  1  0.98396200  0.94168800  0.43641600  1
  As  As32  1  0.49890500  0.49890500  0.49890500  1
  As  As33  1  0.99915800  0.99915800  0.99915800  1
  O  O34  1  0.53156000  0.65353900  0.35466000  1
  O  O35  1  0.65353900  0.35466000  0.53156000  1
  O  O36  1  0.35466000  0.53156000  0.65353900  1
  O  O37  1  0.15284300  0.03300300  0.85517800  1
  O  O38  1  0.03300300  0.85517800  0.15284300  1
  O  O39  1  0.85517800  0.15284300  0.03300300  1
  O  O40  1  0.89115800  0.33526500  0.67244400  1
  O  O41  1  0.33526500  0.67244400  0.89115800  1
  O  O42  1  0.67244400  0.89115800  0.33526500  1
  O  O43  1  0.83480800  0.39544900  0.16754200  1
  O  O44  1  0.39544900  0.16754200  0.83480800  1
  O  O45  1  0.16754200  0.83480800  0.39544900  1
  O  O46  1  0.88807800  0.63763500  0.63156500  1
  O  O47  1  0.63763500  0.63156500  0.88807800  1
  O  O48  1  0.63156500  0.88807800  0.63763500  1
  O  O49  1  0.13044500  0.39146300  0.12210900  1
  O  O50  1  0.39146300  0.12210900  0.13044500  1
  O  O51  1  0.12210900  0.13044500  0.39146300  1
  O  O52  1  0.88618900  0.62284700  0.42417300  1
  O  O53  1  0.62284700  0.42417300  0.88618900  1
  O  O54  1  0.42417300  0.88618900  0.62284700  1
  O  O55  1  0.11862400  0.39447500  0.91830900  1
  O  O56  1  0.39447500  0.91830900  0.11862400  1
  O  O57  1  0.91830900  0.11862400  0.39447500  1
  O  O58  1  0.14294800  0.61250200  0.37956000  1
  O  O59  1  0.61250200  0.37956000  0.14294800  1
  O  O60  1  0.37956000  0.14294800  0.61250200  1
  O  O61  1  0.10756100  0.65087500  0.87593900  1
  O  O62  1  0.65087500  0.87593900  0.10756100  1
  O  O63  1  0.87593900  0.10756100  0.65087500  1
  O  O64  1  0.12007500  0.36847300  0.40097800  1
  O  O65  1  0.36847300  0.40097800  0.12007500  1
  O  O66  1  0.40097800  0.12007500  0.36847300  1
  O  O67  1  0.86115200  0.62360100  0.89165500  1
  O  O68  1  0.62360100  0.89165500  0.86115200  1
  O  O69  1  0.89165500  0.86115200  0.62360100  1
  O  O70  1  0.08762200  0.36079100  0.65079900  1
  O  O71  1  0.36079100  0.65079900  0.08762200  1
  O  O72  1  0.65079900  0.08762200  0.36079100  1
  O  O73  1  0.85565700  0.59291600  0.14899600  1
  O  O74  1  0.59291600  0.14899600  0.85565700  1
  O  O75  1  0.14899600  0.85565700  0.59291600  1
  O  O76  1  0.15445100  0.50857000  0.63569200  1
  O  O77  1  0.50857000  0.63569200  0.15445100  1
  O  O78  1  0.63569200  0.15445100  0.50857000  1
  O  O79  1  0.01158600  0.64794500  0.13717800  1
  O  O80  1  0.64794500  0.13717800  0.01158600  1
  O  O81  1  0.13717800  0.01158600  0.64794500  1
  O  O82  1  0.45320600  0.45320600  0.45320600  1
  O  O83  1  0.95352000  0.95352000  0.95352000  1
  O  O84  1  0.83534100  0.44712600  0.45470000  1
  O  O85  1  0.44712600  0.45470000  0.83534100  1
  O  O86  1  0.45470000  0.83534100  0.44712600  1
  O  O87  1  0.94856400  0.33137800  0.95531900  1
  O  O88  1  0.33137800  0.95531900  0.94856400  1
  O  O89  1  0.95531900  0.94856400  0.33137800  1
