# generated using pymatgen
data_AlWC
_symmetry_space_group_name_H-M   'P 1'
_cell_length_a   2.84611400
_cell_length_b   2.85787200
_cell_length_c   4.81645100
_cell_angle_alpha   90.00000000
_cell_angle_beta   90.00000000
_cell_angle_gamma   90.00000000
_symmetry_Int_Tables_number   1
_chemical_formula_structural   AlWC
_chemical_formula_sum   'Al1 W1 C1'
_cell_volume   39.17619127
_cell_formula_units_Z   1
loop_
 _symmetry_equiv_pos_site_id
 _symmetry_equiv_pos_as_xyz
  1  'x, y, z'
loop_
 _atom_site_type_symbol
 _atom_site_label
 _atom_site_symmetry_multiplicity
 _atom_site_fract_x
 _atom_site_fract_y
 _atom_site_fract_z
 _atom_site_occupancy
  Al  Al0  1  0.00000000  0.00000000  0.49812100  1
  W  W1  1  0.50000000  0.00000000  0.98978100  1
  C  C2  1  0.50000000  0.50000000  0.67874800  1
