# generated using pymatgen
data_Ba8Sr2Yb5(Cu3O7)5
_symmetry_space_group_name_H-M   'P 1'
_cell_length_a   3.80625100
_cell_length_b   14.14122000
_cell_length_c   16.57154775
_cell_angle_alpha   77.44174901
_cell_angle_beta   90.00000000
_cell_angle_gamma   90.00000000
_symmetry_Int_Tables_number   1
_chemical_formula_structural   Ba8Sr2Yb5(Cu3O7)5
_chemical_formula_sum   'Ba8 Sr2 Yb5 Cu15 O35'
_cell_volume   870.62426482
_cell_formula_units_Z   1
loop_
 _symmetry_equiv_pos_site_id
 _symmetry_equiv_pos_as_xyz
  1  'x, y, z'
loop_
 _atom_site_type_symbol
 _atom_site_label
 _atom_site_symmetry_multiplicity
 _atom_site_fract_x
 _atom_site_fract_y
 _atom_site_fract_z
 _atom_site_occupancy
  Ba  Ba0  1  0.50000000  0.98599500  0.82427100  1
  Ba  Ba1  1  0.50000000  0.38745600  0.42435600  1
  Ba  Ba2  1  0.50000000  0.78713700  0.02509700  1
  Ba  Ba3  1  0.50000000  0.18709000  0.62442200  1
  Ba  Ba4  1  0.50000000  0.58655400  0.22420100  1
  Ba  Ba5  1  0.50000000  0.61386000  0.57401100  1
  Ba  Ba6  1  0.50000000  0.01237300  0.17533000  1
  Ba  Ba7  1  0.50000000  0.41190900  0.77636600  1
  Sr  Sr8  1  0.50000000  0.81536500  0.37656900  1
  Sr  Sr9  1  0.50000000  0.21542400  0.97754000  1
  Yb  Yb10  1  0.50000000  0.99909100  0.49931700  1
  Yb  Yb11  1  0.50000000  0.79983300  0.69959300  1
  Yb  Yb12  1  0.50000000  0.19967200  0.29976900  1
  Yb  Yb13  1  0.50000000  0.39912900  0.09946700  1
  Yb  Yb14  1  0.50000000  0.59963200  0.90008100  1
  Cu  Cu15  1  0.00000000  0.98561600  0.65694900  1
  Cu  Cu16  1  0.00000000  0.78562200  0.85712100  1
  Cu  Cu17  1  0.00000000  0.18550900  0.45701300  1
  Cu  Cu18  1  0.00000000  0.38541100  0.25676900  1
  Cu  Cu19  1  0.00000000  0.58544200  0.05693500  1
  Cu  Cu20  1  0.00000000  0.81311100  0.54134000  1
  Cu  Cu21  1  0.00000000  0.61397200  0.74271400  1
  Cu  Cu22  1  0.00000000  0.01220700  0.34213600  1
  Cu  Cu23  1  0.00000000  0.21278900  0.14145300  1
  Cu  Cu24  1  0.00000000  0.41232400  0.94234700  1
  Cu  Cu25  1  0.00000000  0.20061900  0.80114000  1
  Cu  Cu26  1  0.00000000  0.00129700  0.00061300  1
  Cu  Cu27  1  0.00000000  0.40046200  0.60020100  1
  Cu  Cu28  1  0.00000000  0.60161100  0.40012400  1
  Cu  Cu29  1  0.00000000  0.80100300  0.20102500  1
  O  O30  1  0.50000000  0.97420400  0.64940000  1
  O  O31  1  0.50000000  0.77434300  0.84962700  1
  O  O32  1  0.50000000  0.17399200  0.44934100  1
  O  O33  1  0.50000000  0.37411600  0.24945800  1
  O  O34  1  0.50000000  0.57411900  0.04953300  1
  O  O35  1  0.50000000  0.82506600  0.54856200  1
  O  O36  1  0.50000000  0.62534000  0.75022400  1
  O  O37  1  0.50000000  0.02338900  0.35003700  1
  O  O38  1  0.50000000  0.22483800  0.14856600  1
  O  O39  1  0.50000000  0.42315300  0.95029300  1
  O  O40  1  0.00000000  0.10557400  0.73891000  1
  O  O41  1  0.00000000  0.90774800  0.93685200  1
  O  O42  1  0.00000000  0.30600800  0.53759800  1
  O  O43  1  0.00000000  0.50766000  0.33673900  1
  O  O44  1  0.00000000  0.70575100  0.13863700  1
  O  O45  1  0.00000000  0.70161200  0.45772900  1
  O  O46  1  0.00000000  0.49443900  0.66310200  1
  O  O47  1  0.00000000  0.89062400  0.26928100  1
  O  O48  1  0.00000000  0.10150100  0.05823500  1
  O  O49  1  0.00000000  0.28921400  0.86984100  1
  O  O50  1  0.00000000  0.30026600  0.70133500  1
  O  O51  1  0.00000000  0.10256700  0.90177800  1
  O  O52  1  0.00000000  0.50168700  0.49991700  1
  O  O53  1  0.00000000  0.70246800  0.30148200  1
  O  O54  1  0.00000000  0.90189400  0.10125400  1
  O  O55  1  0.00000000  0.87552800  0.75033300  1
  O  O56  1  0.00000000  0.27533100  0.35026400  1
  O  O57  1  0.00000000  0.67556500  0.95030000  1
  O  O58  1  0.00000000  0.07473900  0.54994500  1
  O  O59  1  0.00000000  0.47480000  0.14983000  1
  O  O60  1  0.00000000  0.72445500  0.64903200  1
  O  O61  1  0.00000000  0.12372100  0.24911200  1
  O  O62  1  0.00000000  0.52372300  0.84979600  1
  O  O63  1  0.00000000  0.92157500  0.44764200  1
  O  O64  1  0.00000000  0.32147500  0.04774400  1
