# generated using pymatgen
data_BaFe5Bi4O15
_symmetry_space_group_name_H-M   'P 1'
_cell_length_a   9.92412918
_cell_length_b   9.92412918
_cell_length_c   13.85234460
_cell_angle_alpha   61.65718228
_cell_angle_beta   61.65718228
_cell_angle_gamma   33.08875308
_symmetry_Int_Tables_number   1
_chemical_formula_structural   BaFe5Bi4O15
_chemical_formula_sum   'Ba2 Fe10 Bi8 O30'
_cell_volume   647.06245920
_cell_formula_units_Z   2
loop_
 _symmetry_equiv_pos_site_id
 _symmetry_equiv_pos_as_xyz
  1  'x, y, z'
loop_
 _atom_site_type_symbol
 _atom_site_label
 _atom_site_symmetry_multiplicity
 _atom_site_fract_x
 _atom_site_fract_y
 _atom_site_fract_z
 _atom_site_occupancy
  Ba  Ba0  1  0.37761200  0.39026000  0.15155700  1
  Ba  Ba1  1  0.39026000  0.37761200  0.65155700  1
  Fe  Fe2  1  0.57406500  0.58404900  0.10492900  1
  Fe  Fe3  1  0.38233900  0.38899900  0.89775100  1
  Fe  Fe4  1  0.18390100  0.17824400  0.70720600  1
  Fe  Fe5  1  0.99079100  0.98284200  0.50469100  1
  Fe  Fe6  1  0.78258500  0.78091500  0.30689100  1
  Fe  Fe7  1  0.98284200  0.99079100  0.00469100  1
  Fe  Fe8  1  0.78091500  0.78258500  0.80689100  1
  Fe  Fe9  1  0.58404900  0.57406500  0.60492900  1
  Fe  Fe10  1  0.38899900  0.38233900  0.39775100  1
  Fe  Fe11  1  0.17824400  0.18390100  0.20720600  1
  Bi  Bi12  1  0.20538700  0.19669400  0.95788400  1
  Bi  Bi13  1  0.01688600  0.99363300  0.74945900  1
  Bi  Bi14  1  0.81367000  0.80401300  0.54159900  1
  Bi  Bi15  1  0.59637200  0.61404100  0.34910800  1
  Bi  Bi16  1  0.80401300  0.81367000  0.04159900  1
  Bi  Bi17  1  0.61404100  0.59637200  0.84910800  1
  Bi  Bi18  1  0.19669400  0.20538700  0.45788400  1
  Bi  Bi19  1  0.99363300  0.01688600  0.24945900  1
  O  O20  1  0.74283600  0.60340100  0.45190000  1
  O  O21  1  0.90688800  0.83588900  0.65024300  1
  O  O22  1  0.14440200  0.99963100  0.84877100  1
  O  O23  1  0.33462800  0.20952800  0.05627400  1
  O  O24  1  0.55376700  0.40187100  0.25052700  1
  O  O25  1  0.43708800  0.98848400  0.29049200  1
  O  O26  1  0.66574900  0.16611100  0.47108900  1
  O  O27  1  0.83890400  0.38704300  0.69102000  1
  O  O28  1  0.05135000  0.57136700  0.88609700  1
  O  O29  1  0.23124400  0.81653800  0.08131000  1
  O  O30  1  0.93288700  0.52264000  0.23296700  1
  O  O31  1  0.14798400  0.70570900  0.43971800  1
  O  O32  1  0.32532000  0.92653100  0.63218500  1
  O  O33  1  0.54681400  0.10165300  0.84814000  1
  O  O34  1  0.74645900  0.32798600  0.02219300  1
  O  O35  1  0.10165300  0.54681400  0.34814000  1
  O  O36  1  0.32798600  0.74645900  0.52219300  1
  O  O37  1  0.52264000  0.93288700  0.73296700  1
  O  O38  1  0.70570900  0.14798400  0.93971800  1
  O  O39  1  0.92653100  0.32532000  0.13218500  1
  O  O40  1  0.57136700  0.05135000  0.38609700  1
  O  O41  1  0.81653800  0.23124400  0.58131000  1
  O  O42  1  0.98848400  0.43708800  0.79049200  1
  O  O43  1  0.16611100  0.66574900  0.97108900  1
  O  O44  1  0.38704300  0.83890400  0.19102000  1
  O  O45  1  0.83588900  0.90688800  0.15024300  1
  O  O46  1  0.99963100  0.14440200  0.34877100  1
  O  O47  1  0.20952800  0.33462800  0.55627400  1
  O  O48  1  0.40187100  0.55376700  0.75052700  1
  O  O49  1  0.60340100  0.74283600  0.95190000  1
