# generated using pymatgen
data_Ca8ScFe7(SiO3)20
_symmetry_space_group_name_H-M   'P 1'
_cell_length_a   6.72085700
_cell_length_b   11.90105305
_cell_length_c   15.04436169
_cell_angle_alpha   103.57730677
_cell_angle_beta   93.82279249
_cell_angle_gamma   93.02984696
_symmetry_Int_Tables_number   1
_chemical_formula_structural   Ca8ScFe7(SiO3)20
_chemical_formula_sum   'Ca8 Sc1 Fe7 Si20 O60'
_cell_volume   1164.18166323
_cell_formula_units_Z   1
loop_
 _symmetry_equiv_pos_site_id
 _symmetry_equiv_pos_as_xyz
  1  'x, y, z'
loop_
 _atom_site_type_symbol
 _atom_site_label
 _atom_site_symmetry_multiplicity
 _atom_site_fract_x
 _atom_site_fract_y
 _atom_site_fract_z
 _atom_site_occupancy
  Ca  Ca0  1  0.16157800  0.95495800  0.89283500  1
  Ca  Ca1  1  0.15841100  0.95127300  0.39203700  1
  Ca  Ca2  1  0.83809600  0.04432200  0.60778600  1
  Ca  Ca3  1  0.83839200  0.04486200  0.10504700  1
  Ca  Ca4  1  0.29304400  0.52126900  0.61465400  1
  Ca  Ca5  1  0.29400600  0.51880100  0.11484800  1
  Ca  Ca6  1  0.70566700  0.48167200  0.88572000  1
  Ca  Ca7  1  0.70621900  0.48154800  0.38535800  1
  Sc  Sc8  1  0.19005700  0.22854800  0.52371900  1
  Fe  Fe9  1  0.06589900  0.65048600  0.79620900  1
  Fe  Fe10  1  0.06508600  0.65033300  0.29553400  1
  Fe  Fe11  1  0.93517900  0.35016700  0.70569500  1
  Fe  Fe12  1  0.93323200  0.34893400  0.20349900  1
  Fe  Fe13  1  0.18974900  0.23038900  0.02427400  1
  Fe  Fe14  1  0.81021400  0.76986500  0.97599400  1
  Fe  Fe15  1  0.81046700  0.77056300  0.47609800  1
  Si  Si16  1  0.11534900  0.83565100  0.66136200  1
  Si  Si17  1  0.11510000  0.83641800  0.16067900  1
  Si  Si18  1  0.88518800  0.16358100  0.83927100  1
  Si  Si19  1  0.88157100  0.16159900  0.33657200  1
  Si  Si20  1  0.21140000  0.44304800  0.90336200  1
  Si  Si21  1  0.21129100  0.44615700  0.40190700  1
  Si  Si22  1  0.78982000  0.55762000  0.59734700  1
  Si  Si23  1  0.78872400  0.55706500  0.09705300  1
  Si  Si24  1  0.34573000  0.05108200  0.64504500  1
  Si  Si25  1  0.34586100  0.05409100  0.14370600  1
  Si  Si26  1  0.65435800  0.94606500  0.85644000  1
  Si  Si27  1  0.65048300  0.94588200  0.35633200  1
  Si  Si28  1  0.31347000  0.71180000  0.99031800  1
  Si  Si29  1  0.31446800  0.71321900  0.49013500  1
  Si  Si30  1  0.69292500  0.28923900  0.50993400  1
  Si  Si31  1  0.68631600  0.28845200  0.00940600  1
  Si  Si32  1  0.42459500  0.31374600  0.73325300  1
  Si  Si33  1  0.42336500  0.31370800  0.23210800  1
  Si  Si34  1  0.57653300  0.68649800  0.76803600  1
  Si  Si35  1  0.57555200  0.68635100  0.26781300  1
  O  O36  1  0.35469100  0.62376100  0.77397700  1
  O  O37  1  0.35405100  0.62303200  0.27368200  1
  O  O38  1  0.64681400  0.37628800  0.72745300  1
  O  O39  1  0.64493500  0.37699900  0.22617200  1
  O  O40  1  0.06213400  0.78777100  0.75086100  1
  O  O41  1  0.06337600  0.78889400  0.25068500  1
  O  O42  1  0.93688000  0.21068900  0.74908400  1
  O  O43  1  0.93243800  0.20977800  0.24685600  1
  O  O44  1  0.12474800  0.74350800  0.92656800  1
  O  O45  1  0.12489200  0.74413200  0.42632100  1
  O  O46  1  0.87972500  0.25808900  0.57467800  1
  O  O47  1  0.87501500  0.25663200  0.07304000  1
  O  O48  1  0.48236500  0.23708600  0.52798700  1
  O  O49  1  0.47306100  0.23798200  0.02700900  1
  O  O50  1  0.52664500  0.76255300  0.97282500  1
  O  O51  1  0.52730800  0.76494200  0.47333500  1
  O  O52  1  0.15011600  0.38238500  0.98378200  1
  O  O53  1  0.14786700  0.38639800  0.48208300  1
  O  O54  1  0.84910900  0.61888200  0.51690500  1
  O  O55  1  0.84874100  0.61816600  0.01670300  1
  O  O56  1  0.07850400  0.14625200  0.90417300  1
  O  O57  1  0.07653800  0.14231200  0.39886700  1
  O  O58  1  0.92324300  0.85405900  0.59627200  1
  O  O59  1  0.92166000  0.85399700  0.09596000  1
  O  O60  1  0.53119900  0.99087900  0.60257500  1
  O  O61  1  0.52969500  0.99331600  0.09986200  1
  O  O62  1  0.47067800  0.00715800  0.90024800  1
  O  O63  1  0.46682600  0.00591600  0.40105400  1
  O  O64  1  0.25528400  0.73920000  0.59835300  1
  O  O65  1  0.25514500  0.73959000  0.09850200  1
  O  O66  1  0.74455000  0.26027200  0.90121900  1
  O  O67  1  0.74810800  0.26057200  0.40130000  1
  O  O68  1  0.41446600  0.17546800  0.72169400  1
  O  O69  1  0.41639700  0.17601400  0.22250900  1
  O  O70  1  0.58359200  0.82429400  0.77781600  1
  O  O71  1  0.58042000  0.82393900  0.27760300  1
  O  O72  1  0.23940100  0.34975900  0.66889300  1
  O  O73  1  0.23650800  0.34687200  0.16663400  1
  O  O74  1  0.76295200  0.65294400  0.83341400  1
  O  O75  1  0.76240600  0.65339500  0.33336000  1
  O  O76  1  0.22413900  0.96648900  0.70293200  1
  O  O77  1  0.22244800  0.96799700  0.19971400  1
  O  O78  1  0.77803200  0.03182100  0.80021100  1
  O  O79  1  0.76898000  0.03147100  0.29857900  1
  O  O80  1  0.38496800  0.37772500  0.84237400  1
  O  O81  1  0.38324000  0.37882000  0.34089700  1
  O  O82  1  0.61598100  0.62156700  0.65903800  1
  O  O83  1  0.61565400  0.62156700  0.15891900  1
  O  O84  1  0.03103000  0.46924600  0.83260500  1
  O  O85  1  0.03094400  0.47161000  0.33089100  1
  O  O86  1  0.96968000  0.53140500  0.66830500  1
  O  O87  1  0.96934800  0.53101600  0.16755500  1
  O  O88  1  0.17270500  0.07771300  0.56994000  1
  O  O89  1  0.17368900  0.08534900  0.06962700  1
  O  O90  1  0.82684000  0.91503000  0.93048300  1
  O  O91  1  0.82495600  0.91515400  0.42978000  1
  O  O92  1  0.32702200  0.56710500  0.96505400  1
  O  O93  1  0.33091000  0.56889100  0.46361200  1
  O  O94  1  0.67632200  0.43343700  0.53487300  1
  O  O95  1  0.67323300  0.43314800  0.03490800  1
