# generated using pymatgen
data_Ba3Ga4Sb5
_symmetry_space_group_name_H-M   'P 1'
_cell_length_a   4.49331100
_cell_length_b   13.53705600
_cell_length_c   25.68597700
_cell_angle_alpha   90.00000000
_cell_angle_beta   90.00000000
_cell_angle_gamma   90.00000000
_symmetry_Int_Tables_number   1
_chemical_formula_structural   Ba3Ga4Sb5
_chemical_formula_sum   'Ba12 Ga16 Sb20'
_cell_volume   1562.38044181
_cell_formula_units_Z   4
loop_
 _symmetry_equiv_pos_site_id
 _symmetry_equiv_pos_as_xyz
  1  'x, y, z'
loop_
 _atom_site_type_symbol
 _atom_site_label
 _atom_site_symmetry_multiplicity
 _atom_site_fract_x
 _atom_site_fract_y
 _atom_site_fract_z
 _atom_site_occupancy
  Ba  Ba0  1  0.50000000  0.07088800  0.00366300  1
  Ba  Ba1  1  0.50000000  0.57883500  0.49142900  1
  Ba  Ba2  1  0.00000000  0.42116500  0.99142900  1
  Ba  Ba3  1  0.00000000  0.92911200  0.50366300  1
  Ba  Ba4  1  0.00000000  0.27266800  0.38060900  1
  Ba  Ba5  1  0.00000000  0.76251200  0.11497600  1
  Ba  Ba6  1  0.50000000  0.23748800  0.61497600  1
  Ba  Ba7  1  0.50000000  0.72733200  0.88061000  1
  Ba  Ba8  1  0.50000000  0.11112300  0.22200200  1
  Ba  Ba9  1  0.50000000  0.60242300  0.28200800  1
  Ba  Ba10  1  0.00000000  0.39757700  0.78200800  1
  Ba  Ba11  1  0.00000000  0.88887700  0.72200200  1
  Ga  Ga12  1  0.00000000  0.34657800  0.22428900  1
  Ga  Ga13  1  0.00000000  0.84708800  0.27871300  1
  Ga  Ga14  1  0.50000000  0.15291200  0.77871300  1
  Ga  Ga15  1  0.50000000  0.65342200  0.72428900  1
  Ga  Ga16  1  0.50000000  0.00965800  0.38421200  1
  Ga  Ga17  1  0.50000000  0.49637800  0.11513900  1
  Ga  Ga18  1  0.00000000  0.50362200  0.61513900  1
  Ga  Ga19  1  0.00000000  0.99034200  0.88421200  1
  Ga  Ga20  1  0.00000000  0.25254700  0.13734200  1
  Ga  Ga21  1  0.00000000  0.74192300  0.36499100  1
  Ga  Ga22  1  0.50000000  0.25807700  0.86499100  1
  Ga  Ga23  1  0.50000000  0.74745300  0.63734200  1
  Ga  Ga24  1  0.50000000  0.93392000  0.11639600  1
  Ga  Ga25  1  0.00000000  0.06608000  0.61639600  1
  Ga  Ga26  1  0.00000000  0.66402700  0.97162600  1
  Ga  Ga27  1  0.50000000  0.33597300  0.47162600  1
  Sb  Sb28  1  0.50000000  0.83721600  0.21678700  1
  Sb  Sb29  1  0.50000000  0.34213600  0.28390200  1
  Sb  Sb30  1  0.00000000  0.65786400  0.78390200  1
  Sb  Sb31  1  0.00000000  0.16278400  0.71678700  1
  Sb  Sb32  1  0.50000000  0.30376000  0.08239000  1
  Sb  Sb33  1  0.50000000  0.81152300  0.41486800  1
  Sb  Sb34  1  0.00000000  0.18847700  0.91486800  1
  Sb  Sb35  1  0.00000000  0.69624000  0.58239000  1
  Sb  Sb36  1  0.00000000  0.05212500  0.11537500  1
  Sb  Sb37  1  0.00000000  0.54446400  0.38548700  1
  Sb  Sb38  1  0.50000000  0.45553600  0.88548700  1
  Sb  Sb39  1  0.50000000  0.94787500  0.61537500  1
  Sb  Sb40  1  0.50000000  0.12719300  0.47125400  1
  Sb  Sb41  1  0.50000000  0.63364600  0.03574000  1
  Sb  Sb42  1  0.00000000  0.36635400  0.53574000  1
  Sb  Sb43  1  0.00000000  0.87280700  0.97125400  1
  Sb  Sb44  1  0.00000000  0.02947900  0.32311300  1
  Sb  Sb45  1  0.00000000  0.52530600  0.17554900  1
  Sb  Sb46  1  0.50000000  0.47469400  0.67554900  1
  Sb  Sb47  1  0.50000000  0.97052100  0.82311300  1
