# generated using pymatgen
data_B11Rh18
_symmetry_space_group_name_H-M   'P 1'
_cell_length_a   5.53540800
_cell_length_b   6.91950284
_cell_length_c   9.19488511
_cell_angle_alpha   110.85992323
_cell_angle_beta   94.54050228
_cell_angle_gamma   90.42886723
_symmetry_Int_Tables_number   1
_chemical_formula_structural   B11Rh18
_chemical_formula_sum   'B11 Rh18'
_cell_volume   327.82708107
_cell_formula_units_Z   1
loop_
 _symmetry_equiv_pos_site_id
 _symmetry_equiv_pos_as_xyz
  1  'x, y, z'
loop_
 _atom_site_type_symbol
 _atom_site_label
 _atom_site_symmetry_multiplicity
 _atom_site_fract_x
 _atom_site_fract_y
 _atom_site_fract_z
 _atom_site_occupancy
  B  B0  1  0.64957700  0.95718000  0.45616600  1
  B  B1  1  0.35362200  0.04335000  0.54598000  1
  B  B2  1  0.98356500  0.62202800  0.18596400  1
  B  B3  1  0.01899700  0.37670600  0.80863800  1
  B  B4  1  0.90899900  0.90353600  0.77952400  1
  B  B5  1  0.09393700  0.09788100  0.22241200  1
  B  B6  1  0.53775400  0.23160800  0.94118800  1
  B  B7  1  0.46226000  0.76798700  0.05828900  1
  B  B8  1  0.79000800  0.23330200  0.26945600  1
  B  B9  1  0.21110700  0.76001200  0.72619900  1
  B  B10  1  0.84617300  0.47353100  0.45450800  1
  Rh  Rh11  1  0.74031300  0.52571500  0.97354900  1
  Rh  Rh12  1  0.25800200  0.47383300  0.02341200  1
  Rh  Rh13  1  0.57424600  0.85493400  0.87005400  1
  Rh  Rh14  1  0.42481300  0.14497600  0.12975700  1
  Rh  Rh15  1  0.84934900  0.56051300  0.69108100  1
  Rh  Rh16  1  0.15071300  0.44502500  0.31236900  1
  Rh  Rh17  1  0.45927200  0.74249800  0.54390300  1
  Rh  Rh18  1  0.53636800  0.25791300  0.45450800  1
  Rh  Rh19  1  0.33899200  0.47862800  0.72933600  1
  Rh  Rh20  1  0.65413300  0.52587300  0.26834700  1
  Rh  Rh21  1  0.89665100  0.18477300  0.03460400  1
  Rh  Rh22  1  0.10418500  0.81679300  0.96562300  1
  Rh  Rh23  1  0.72406700  0.14544000  0.72095800  1
  Rh  Rh24  1  0.27686800  0.85398600  0.28036800  1
  Rh  Rh25  1  0.23173600  0.09758800  0.76966700  1
  Rh  Rh26  1  0.76902500  0.90018200  0.22913600  1
  Rh  Rh27  1  0.95580800  0.80052600  0.51840300  1
  Rh  Rh28  1  0.04146100  0.19668100  0.48460000  1
