# generated using pymatgen
data_Ba3Sc3In(CuO4)3
_symmetry_space_group_name_H-M   'P 1'
_cell_length_a   8.52777600
_cell_length_b   9.56253918
_cell_length_c   9.56253918
_cell_angle_alpha   101.23201061
_cell_angle_beta   116.48061211
_cell_angle_gamma   63.51938789
_symmetry_Int_Tables_number   1
_chemical_formula_structural   Ba3Sc3In(CuO4)3
_chemical_formula_sum   'Ba6 Sc6 In2 Cu6 O24'
_cell_volume   624.74899108
_cell_formula_units_Z   2
loop_
 _symmetry_equiv_pos_site_id
 _symmetry_equiv_pos_as_xyz
  1  'x, y, z'
loop_
 _atom_site_type_symbol
 _atom_site_label
 _atom_site_symmetry_multiplicity
 _atom_site_fract_x
 _atom_site_fract_y
 _atom_site_fract_z
 _atom_site_occupancy
  Ba  Ba0  1  0.50188200  0.00000000  0.00000000  1
  Ba  Ba1  1  0.99811800  0.00000000  0.00000000  1
  Ba  Ba2  1  0.27768300  0.50122000  0.05716200  1
  Ba  Ba3  1  0.72174100  0.49878000  0.94283800  1
  Ba  Ba4  1  0.22231700  0.05716200  0.50122000  1
  Ba  Ba5  1  0.77825900  0.94283800  0.49878000  1
  Sc  Sc6  1  0.25000000  0.24034900  0.24034900  1
  Sc  Sc7  1  0.25000000  0.75965100  0.75965100  1
  Sc  Sc8  1  0.99333800  0.75666200  0.24333800  1
  Sc  Sc9  1  0.50666200  0.24333800  0.75666200  1
  Sc  Sc10  1  0.48963200  0.76036800  0.23963200  1
  Sc  Sc11  1  0.01036800  0.23963200  0.76036800  1
  In  In12  1  0.75000000  0.24197900  0.24197900  1
  In  In13  1  0.75000000  0.75802100  0.75802100  1
  Cu  Cu14  1  0.10765200  0.49686500  0.70870000  1
  Cu  Cu15  1  0.89581700  0.50313500  0.29130000  1
  Cu  Cu16  1  0.39234800  0.70870000  0.49686500  1
  Cu  Cu17  1  0.60418300  0.29130000  0.50313500  1
  Cu  Cu18  1  0.75000000  0.50000000  0.50000000  1
  Cu  Cu19  1  0.25000000  0.50000000  0.50000000  1
  O  O20  1  0.88092200  0.99225400  0.25745100  1
  O  O21  1  0.61572500  0.00774600  0.74254900  1
  O  O22  1  0.12338700  0.25412800  0.99994500  1
  O  O23  1  0.37757000  0.74587200  0.00005500  1
  O  O24  1  0.88427500  0.74254900  0.00774600  1
  O  O25  1  0.61907800  0.25745100  0.99225400  1
  O  O26  1  0.37661300  0.99994500  0.25412800  1
  O  O27  1  0.12243000  0.00005500  0.74587200  1
  O  O28  1  0.00786500  0.73245300  0.73920600  1
  O  O29  1  0.00111200  0.26754700  0.26079400  1
  O  O30  1  0.49213500  0.73920600  0.73245300  1
  O  O31  1  0.49888800  0.26079400  0.26754700  1
  O  O32  1  0.73882400  0.26165600  0.73649500  1
  O  O33  1  0.26398500  0.73834400  0.26350500  1
  O  O34  1  0.23601500  0.26350500  0.73834400  1
  O  O35  1  0.76117600  0.73649500  0.26165600  1
  O  O36  1  0.34747300  0.50019800  0.73036500  1
  O  O37  1  0.11730500  0.49980200  0.26963500  1
  O  O38  1  0.61063000  0.73019500  0.49818800  1
  O  O39  1  0.84263800  0.26980500  0.50181200  1
  O  O40  1  0.65736200  0.50181200  0.26980500  1
  O  O41  1  0.88937000  0.49818800  0.73019500  1
  O  O42  1  0.38269500  0.26963500  0.49980200  1
  O  O43  1  0.15252700  0.73036500  0.50019800  1
