# generated using pymatgen
data_Al8V5
_symmetry_space_group_name_H-M   'P 1'
_cell_length_a   7.97802652
_cell_length_b   7.97802652
_cell_length_c   7.92634340
_cell_angle_alpha   71.23526648
_cell_angle_beta   71.23526648
_cell_angle_gamma   110.18136419
_symmetry_Int_Tables_number   1
_chemical_formula_structural   Al8V5
_chemical_formula_sum   'Al16 V10'
_cell_volume   391.63881711
_cell_formula_units_Z   2
loop_
 _symmetry_equiv_pos_site_id
 _symmetry_equiv_pos_as_xyz
  1  'x, y, z'
loop_
 _atom_site_type_symbol
 _atom_site_label
 _atom_site_symmetry_multiplicity
 _atom_site_fract_x
 _atom_site_fract_y
 _atom_site_fract_z
 _atom_site_occupancy
  Al  Al0  1  0.64347900  0.38342800  0.35106700  1
  Al  Al1  1  0.65567000  0.65567000  0.59731500  1
  Al  Al2  1  0.38342800  0.64347900  0.35106700  1
  Al  Al3  1  0.25845200  0.61296700  0.73445200  1
  Al  Al4  1  0.75707100  0.34761600  0.98718800  1
  Al  Al5  1  0.00576100  0.35501600  0.26430000  1
  Al  Al6  1  0.35501600  0.00576100  0.26430000  1
  Al  Al7  1  0.34761600  0.75707100  0.98718800  1
  Al  Al8  1  0.61296700  0.25845200  0.73445200  1
  Al  Al9  1  0.73805200  0.00764000  0.64771400  1
  Al  Al10  1  0.24824800  0.24824800  0.41238100  1
  Al  Al11  1  0.00764000  0.73805200  0.64771400  1
  Al  Al12  1  0.64753400  0.00220100  0.35306400  1
  Al  Al13  1  0.64590200  0.64590200  0.99764500  1
  Al  Al14  1  0.00220100  0.64753400  0.35306400  1
  Al  Al15  1  0.35623500  0.35623500  0.99821800  1
  V  V16  1  0.34056200  0.34056200  0.66696200  1
  V  V17  1  0.99099100  0.65870600  0.00709000  1
  V  V18  1  0.65870600  0.99099100  0.00709000  1
  V  V19  1  0.00290600  0.00290600  0.33342400  1
  V  V20  1  0.00419200  0.34580200  0.64522700  1
  V  V21  1  0.34580200  0.00419200  0.64522700  1
  V  V22  1  0.79210200  0.79210200  0.20415400  1
  V  V23  1  0.00406300  0.20224500  0.00287300  1
  V  V24  1  0.20224500  0.00406300  0.00287300  1
  V  V25  1  0.99316100  0.99316100  0.80395100  1
