# generated using pymatgen
data_Er20Cu6(Pb3S14)3
_symmetry_space_group_name_H-M   'P 1'
_cell_length_a   8.78340700
_cell_length_b   14.32375478
_cell_length_c   15.54824211
_cell_angle_alpha   102.11294638
_cell_angle_beta   104.99777518
_cell_angle_gamma   101.79022426
_symmetry_Int_Tables_number   1
_chemical_formula_structural   Er20Cu6(Pb3S14)3
_chemical_formula_sum   'Er20 Cu6 Pb9 S42'
_cell_volume   1776.81989240
_cell_formula_units_Z   1
loop_
 _symmetry_equiv_pos_site_id
 _symmetry_equiv_pos_as_xyz
  1  'x, y, z'
loop_
 _atom_site_type_symbol
 _atom_site_label
 _atom_site_symmetry_multiplicity
 _atom_site_fract_x
 _atom_site_fract_y
 _atom_site_fract_z
 _atom_site_occupancy
  Er  Er0  1  0.29930100  0.38517100  0.47128600  1
  Er  Er1  1  0.45693500  0.20765700  0.30689500  1
  Er  Er2  1  0.13148000  0.54908500  0.63729800  1
  Er  Er3  1  0.63984100  0.04918400  0.14413800  1
  Er  Er4  1  0.80320300  0.88313200  0.97767300  1
  Er  Er5  1  0.97001500  0.71861000  0.80827400  1
  Er  Er6  1  0.69943900  0.59688500  0.54146800  1
  Er  Er7  1  0.86120900  0.42792000  0.37329300  1
  Er  Er8  1  0.53351800  0.76546300  0.70839600  1
  Er  Er9  1  0.02921600  0.26092500  0.20948600  1
  Er  Er10  1  0.19974200  0.09420400  0.04319600  1
  Er  Er11  1  0.36801900  0.93078500  0.87737200  1
  Er  Er12  1  0.33281600  0.16254200  0.66859600  1
  Er  Er13  1  0.48563700  0.99847900  0.49167300  1
  Er  Er14  1  0.16080500  0.32749900  0.83162400  1
  Er  Er15  1  0.67291300  0.83539500  0.33360700  1
  Er  Er16  1  0.83110800  0.67069900  0.16668900  1
  Er  Er17  1  0.99879600  0.49971300  0.99974800  1
  Er  Er18  1  0.25770300  0.81124500  0.12899100  1
  Er  Er19  1  0.94474500  0.12719500  0.44378400  1
  Cu  Cu20  1  0.47556100  0.97910400  0.70250900  1
  Cu  Cu21  1  0.81220400  0.64776500  0.37020300  1
  Cu  Cu22  1  0.14526100  0.31169600  0.03746700  1
  Cu  Cu23  1  0.97802500  0.48266000  0.20241200  1
  Cu  Cu24  1  0.31167100  0.14513000  0.86899100  1
  Cu  Cu25  1  0.64518000  0.81490100  0.53531900  1
  Pb  Pb26  1  0.07121700  0.86811700  0.54717800  1
  Pb  Pb27  1  0.23807700  0.70175900  0.38165100  1
  Pb  Pb28  1  0.90617200  0.03367800  0.71604600  1
  Pb  Pb29  1  0.41185800  0.53746400  0.21898000  1
  Pb  Pb30  1  0.57583200  0.36859700  0.05168700  1
  Pb  Pb31  1  0.74408300  0.20034400  0.88765700  1
  Pb  Pb32  1  0.75613500  0.30027900  0.61303700  1
  Pb  Pb33  1  0.42175600  0.63507000  0.94662500  1
  Pb  Pb34  1  0.58543400  0.46627000  0.77917100  1
  S  S35  1  0.19827600  0.03851500  0.49670100  1
  S  S36  1  0.37445700  0.86393000  0.32305300  1
  S  S37  1  0.03853900  0.19705700  0.65619400  1
  S  S38  1  0.53195500  0.70599900  0.16329300  1
  S  S39  1  0.70939700  0.53385600  0.99946300  1
  S  S40  1  0.87467600  0.36606700  0.83226000  1
  S  S41  1  0.81131000  0.78184400  0.66087300  1
  S  S42  1  0.97547400  0.61096200  0.49420200  1
  S  S43  1  0.64387900  0.94802900  0.82912100  1
  S  S44  1  0.14153900  0.44772400  0.32695600  1
  S  S45  1  0.30865700  0.27713200  0.16437600  1
  S  S46  1  0.47817200  0.11424100  0.99606400  1
  S  S47  1  0.79161300  0.99345900  0.28529000  1
  S  S48  1  0.95844300  0.82187000  0.11306400  1
  S  S49  1  0.63713000  0.15057200  0.44233400  1
  S  S50  1  0.12183800  0.66724000  0.95931100  1
  S  S51  1  0.26868700  0.48305600  0.77619800  1
  S  S52  1  0.43873600  0.31633500  0.60887700  1
  S  S53  1  0.79048900  0.95882000  0.50985500  1
  S  S54  1  0.95914300  0.78543200  0.34572700  1
  S  S55  1  0.62190100  0.11812400  0.67345100  1
  S  S56  1  0.12656900  0.62571800  0.17770300  1
  S  S57  1  0.29051000  0.45233000  0.01045500  1
  S  S58  1  0.45740900  0.28701500  0.84522700  1
  S  S59  1  0.41476000  0.57599000  0.58866000  1
  S  S60  1  0.57865900  0.40527000  0.42046800  1
  S  S61  1  0.25009300  0.74113100  0.75596600  1
  S  S62  1  0.74042300  0.24217100  0.25234800  1
  S  S63  1  0.90818100  0.07859100  0.08186900  1
  S  S64  1  0.07922200  0.91047700  0.91989700  1
  S  S65  1  0.24141600  0.00773200  0.73850600  1
  S  S66  1  0.40878400  0.84568400  0.56809000  1
  S  S67  1  0.07579900  0.17478200  0.90455100  1
  S  S68  1  0.57671200  0.67757400  0.40492800  1
  S  S69  1  0.74194000  0.51128500  0.23669000  1
  S  S70  1  0.91237500  0.34489300  0.07240300  1
  S  S71  1  0.17879600  0.20099700  0.35625400  1
  S  S72  1  0.35372700  0.02506400  0.18109000  1
  S  S73  1  0.01914200  0.36187300  0.51366700  1
  S  S74  1  0.51741100  0.86801000  0.02232800  1
  S  S75  1  0.69087400  0.70492400  0.85016700  1
  S  S76  1  0.85798500  0.53860600  0.68564800  1
