# generated using pymatgen
data_AlIn(AgSe2)2
_symmetry_space_group_name_H-M   'P 1'
_cell_length_a   7.23776004
_cell_length_b   7.23776004
_cell_length_c   7.23776004
_cell_angle_alpha   129.99295226
_cell_angle_beta   129.99295226
_cell_angle_gamma   73.41803194
_symmetry_Int_Tables_number   1
_chemical_formula_structural   AlIn(AgSe2)2
_chemical_formula_sum   'Al1 In1 Ag2 Se4'
_cell_volume   217.21285115
_cell_formula_units_Z   1
loop_
 _symmetry_equiv_pos_site_id
 _symmetry_equiv_pos_as_xyz
  1  'x, y, z'
loop_
 _atom_site_type_symbol
 _atom_site_label
 _atom_site_symmetry_multiplicity
 _atom_site_fract_x
 _atom_site_fract_y
 _atom_site_fract_z
 _atom_site_occupancy
  Al  Al0  1  0.25000000  0.75000000  0.50000000  1
  In  In1  1  0.00000000  0.00000000  0.00000000  1
  Ag  Ag2  1  0.75000000  0.25000000  0.50000000  1
  Ag  Ag3  1  0.50000000  0.50000000  0.00000000  1
  Se  Se4  1  0.60177100  0.63750400  0.50414700  1
  Se  Se5  1  0.13335700  0.09762300  0.49585300  1
  Se  Se6  1  0.90237700  0.39822900  0.03573400  1
  Se  Se7  1  0.36249600  0.86664300  0.96426600  1
