# generated using pymatgen
data_AlGaSb2
_symmetry_space_group_name_H-M   'P 1'
_cell_length_a   7.62215677
_cell_length_b   7.62215677
_cell_length_c   7.62215724
_cell_angle_alpha   33.58097802
_cell_angle_beta   33.58097802
_cell_angle_gamma   33.58097213
_symmetry_Int_Tables_number   1
_chemical_formula_structural   AlGaSb2
_chemical_formula_sum   'Al1 Ga1 Sb2'
_cell_volume   120.67694619
_cell_formula_units_Z   1
loop_
 _symmetry_equiv_pos_site_id
 _symmetry_equiv_pos_as_xyz
  1  'x, y, z'
loop_
 _atom_site_type_symbol
 _atom_site_label
 _atom_site_symmetry_multiplicity
 _atom_site_fract_x
 _atom_site_fract_y
 _atom_site_fract_z
 _atom_site_occupancy
  Al  Al0  1  0.00008600  0.00008600  0.00008600  1
  Ga  Ga1  1  0.50005100  0.50005100  0.50005100  1
  Sb  Sb2  1  0.87494000  0.87494000  0.87494000  1
  Sb  Sb3  1  0.37492300  0.37492300  0.37492300  1
