# generated using pymatgen
data_As2H5CO6
_symmetry_space_group_name_H-M   'P 1'
_cell_length_a   7.42911876
_cell_length_b   7.42911876
_cell_length_c   7.52142481
_cell_angle_alpha   89.79399675
_cell_angle_beta   89.79399675
_cell_angle_gamma   116.94761875
_symmetry_Int_Tables_number   1
_chemical_formula_structural   As2H5CO6
_chemical_formula_sum   'As4 H10 C2 O12'
_cell_volume   370.03892597
_cell_formula_units_Z   2
loop_
 _symmetry_equiv_pos_site_id
 _symmetry_equiv_pos_as_xyz
  1  'x, y, z'
loop_
 _atom_site_type_symbol
 _atom_site_label
 _atom_site_symmetry_multiplicity
 _atom_site_fract_x
 _atom_site_fract_y
 _atom_site_fract_z
 _atom_site_occupancy
  As  As0  1  0.76510600  0.00852300  0.04360900  1
  As  As1  1  0.50491100  0.26773900  0.96467700  1
  As  As2  1  0.26773900  0.50491100  0.46467700  1
  As  As3  1  0.00852300  0.76510600  0.54360900  1
  H  H4  1  0.08019800  0.23598200  0.94959200  1
  H  H5  1  0.73092300  0.58816500  0.04479400  1
  H  H6  1  0.58816500  0.73092300  0.54479400  1
  H  H7  1  0.23598200  0.08019800  0.44959200  1
  H  H8  1  0.81800200  0.93163600  0.33569700  1
  H  H9  1  0.43758800  0.30440600  0.66446300  1
  H  H10  1  0.30440600  0.43758800  0.16446300  1
  H  H11  1  0.93163600  0.81800200  0.83569700  1
  H  H12  1  0.38047800  0.89793300  0.08483900  1
  H  H13  1  0.89793300  0.38047800  0.58483900  1
  C  C14  1  0.51516600  0.02333300  0.02870400  1
  C  C15  1  0.02333300  0.51516600  0.52870400  1
  O  O16  1  0.75492100  0.79146800  0.96374700  1
  O  O17  1  0.28834200  0.26983600  0.03139800  1
  O  O18  1  0.26983600  0.28834200  0.53139800  1
  O  O19  1  0.79146800  0.75492100  0.46374700  1
  O  O20  1  0.83579300  0.05799800  0.26573100  1
  O  O21  1  0.55615700  0.30791800  0.73743100  1
  O  O22  1  0.30791800  0.55615700  0.23743100  1
  O  O23  1  0.05799800  0.83579300  0.76573100  1
  O  O24  1  0.93739800  0.21534600  0.92235000  1
  O  O25  1  0.71644100  0.44753300  0.07256900  1
  O  O26  1  0.44753300  0.71644100  0.57256900  1
  O  O27  1  0.21534600  0.93739800  0.42235000  1
