# generated using pymatgen
data_AgGeBiTe3
_symmetry_space_group_name_H-M   'P 1'
_cell_length_a   7.55471917
_cell_length_b   7.55471917
_cell_length_c   7.55471917
_cell_angle_alpha   146.46736555
_cell_angle_beta   131.97921324
_cell_angle_gamma   59.83895164
_symmetry_Int_Tables_number   1
_chemical_formula_structural   AgGeBiTe3
_chemical_formula_sum   'Ag1 Ge1 Bi1 Te3'
_cell_volume   175.46346933
_cell_formula_units_Z   1
loop_
 _symmetry_equiv_pos_site_id
 _symmetry_equiv_pos_as_xyz
  1  'x, y, z'
loop_
 _atom_site_type_symbol
 _atom_site_label
 _atom_site_symmetry_multiplicity
 _atom_site_fract_x
 _atom_site_fract_y
 _atom_site_fract_z
 _atom_site_occupancy
  Ag  Ag0  1  0.99904700  0.99904700  0.00000000  1
  Ge  Ge1  1  0.67121200  0.67121200  0.00000000  1
  Bi  Bi2  1  0.33208100  0.33208100  0.00000000  1
  Te  Te3  1  0.82904800  0.32904800  0.50000000  1
  Te  Te4  1  0.50744400  0.00744400  0.50000000  1
  Te  Te5  1  0.16116900  0.66116900  0.50000000  1
