# generated using pymatgen
data_AlInGaSb3
_symmetry_space_group_name_H-M   'P 1'
_cell_length_a   10.01622422
_cell_length_b   10.01622422
_cell_length_c   10.01622422
_cell_angle_alpha   154.04313885
_cell_angle_beta   153.96343788
_cell_angle_gamma   37.09486625
_symmetry_Int_Tables_number   1
_chemical_formula_structural   AlInGaSb3
_chemical_formula_sum   'Al1 In1 Ga1 Sb3'
_cell_volume   192.78590653
_cell_formula_units_Z   1
loop_
 _symmetry_equiv_pos_site_id
 _symmetry_equiv_pos_as_xyz
  1  'x, y, z'
loop_
 _atom_site_type_symbol
 _atom_site_label
 _atom_site_symmetry_multiplicity
 _atom_site_fract_x
 _atom_site_fract_y
 _atom_site_fract_z
 _atom_site_occupancy
  Al  Al0  1  0.33637300  0.33637300  0.00000000  1
  In  In1  1  0.66660200  0.66660200  0.00000000  1
  Ga  Ga2  1  0.99698700  0.99698700  0.00000000  1
  Sb  Sb3  1  0.75735200  0.25735200  0.50000000  1
  Sb  Sb4  1  0.07616900  0.57616900  0.50000000  1
  Sb  Sb5  1  0.41651400  0.91651400  0.50000000  1
