# generated using pymatgen
data_Ba2CdGe10
_symmetry_space_group_name_H-M   'P 1'
_cell_length_a   11.02285300
_cell_length_b   11.02285300
_cell_length_c   10.95565500
_cell_angle_alpha   90.00000000
_cell_angle_beta   90.00000000
_cell_angle_gamma   90.01900956
_symmetry_Int_Tables_number   1
_chemical_formula_structural   Ba2CdGe10
_chemical_formula_sum   'Ba8 Cd4 Ge40'
_cell_volume   1331.14803527
_cell_formula_units_Z   4
loop_
 _symmetry_equiv_pos_site_id
 _symmetry_equiv_pos_as_xyz
  1  'x, y, z'
loop_
 _atom_site_type_symbol
 _atom_site_label
 _atom_site_symmetry_multiplicity
 _atom_site_fract_x
 _atom_site_fract_y
 _atom_site_fract_z
 _atom_site_occupancy
  Ba  Ba0  1  0.50043500  0.99936600  0.25000000  1
  Ba  Ba1  1  0.99936600  0.50043500  0.75000000  1
  Ba  Ba2  1  0.75524700  0.50301200  0.25000000  1
  Ba  Ba3  1  0.50301200  0.75524700  0.75000000  1
  Ba  Ba4  1  0.99735400  0.99735400  0.50000000  1
  Ba  Ba5  1  0.24510500  0.50282500  0.25000000  1
  Ba  Ba6  1  0.50282500  0.24510500  0.75000000  1
  Ba  Ba7  1  0.99735400  0.99735400  0.00000000  1
  Cd  Cd8  1  0.49979900  0.49979900  0.50000000  1
  Cd  Cd9  1  0.24957300  0.00008000  0.75000000  1
  Cd  Cd10  1  0.00008000  0.24957300  0.25000000  1
  Cd  Cd11  1  0.49979900  0.49979900  0.00000000  1
  Ge  Ge12  1  0.49988300  0.69810400  0.36450000  1
  Ge  Ge13  1  0.62122100  0.00012000  0.57142400  1
  Ge  Ge14  1  0.82074100  0.87942600  0.25000000  1
  Ge  Ge15  1  0.49986300  0.30221000  0.13554500  1
  Ge  Ge16  1  0.38916700  0.00006500  0.95051000  1
  Ge  Ge17  1  0.19978500  0.11068900  0.25000000  1
  Ge  Ge18  1  0.49986300  0.30221000  0.36445500  1
  Ge  Ge19  1  0.38916700  0.00006500  0.54949000  1
  Ge  Ge20  1  0.49988300  0.69810400  0.13550000  1
  Ge  Ge21  1  0.62122100  0.00012000  0.92857600  1
  Ge  Ge22  1  0.79970600  0.11066300  0.25000000  1
  Ge  Ge23  1  0.17862700  0.87923900  0.25000000  1
  Ge  Ge24  1  0.69810400  0.49988300  0.86450000  1
  Ge  Ge25  1  0.00012000  0.62122100  0.07142400  1
  Ge  Ge26  1  0.87942600  0.82074100  0.75000000  1
  Ge  Ge27  1  0.30221000  0.49986300  0.63554500  1
  Ge  Ge28  1  0.00006500  0.38916700  0.45051000  1
  Ge  Ge29  1  0.11068900  0.19978500  0.75000000  1
  Ge  Ge30  1  0.30221000  0.49986300  0.86445500  1
  Ge  Ge31  1  0.00006500  0.38916700  0.04949000  1
  Ge  Ge32  1  0.69810400  0.49988300  0.63550000  1
  Ge  Ge33  1  0.00012000  0.62122100  0.42857600  1
  Ge  Ge34  1  0.11066300  0.79970600  0.75000000  1
  Ge  Ge35  1  0.87923900  0.17862700  0.75000000  1
  Ge  Ge36  1  0.68494300  0.82042700  0.43304500  1
  Ge  Ge37  1  0.31670600  0.18428000  0.06661900  1
  Ge  Ge38  1  0.31670600  0.18428000  0.43338100  1
  Ge  Ge39  1  0.68494300  0.82042700  0.06695500  1
  Ge  Ge40  1  0.68178000  0.18098300  0.06343600  1
  Ge  Ge41  1  0.31379700  0.81704100  0.42992300  1
  Ge  Ge42  1  0.31379700  0.81704100  0.07007700  1
  Ge  Ge43  1  0.68178000  0.18098300  0.43656400  1
  Ge  Ge44  1  0.82042700  0.68494300  0.93304500  1
  Ge  Ge45  1  0.18428000  0.31670600  0.56661900  1
  Ge  Ge46  1  0.18428000  0.31670600  0.93338100  1
  Ge  Ge47  1  0.82042700  0.68494300  0.56695500  1
  Ge  Ge48  1  0.18098300  0.68178000  0.56343600  1
  Ge  Ge49  1  0.81704100  0.31379700  0.92992300  1
  Ge  Ge50  1  0.81704100  0.31379700  0.57007700  1
  Ge  Ge51  1  0.18098300  0.68178000  0.93656400  1
