# generated using pymatgen
data_AsH4NF6
_symmetry_space_group_name_H-M   'P 1'
_cell_length_a   5.29732782
_cell_length_b   4.91865846
_cell_length_c   4.98878907
_cell_angle_alpha   92.95657302
_cell_angle_beta   100.50489768
_cell_angle_gamma   95.69744414
_symmetry_Int_Tables_number   1
_chemical_formula_structural   AsH4NF6
_chemical_formula_sum   'As1 H4 N1 F6'
_cell_volume   126.85365313
_cell_formula_units_Z   1
loop_
 _symmetry_equiv_pos_site_id
 _symmetry_equiv_pos_as_xyz
  1  'x, y, z'
loop_
 _atom_site_type_symbol
 _atom_site_label
 _atom_site_symmetry_multiplicity
 _atom_site_fract_x
 _atom_site_fract_y
 _atom_site_fract_z
 _atom_site_occupancy
  As  As0  1  0.00000000  0.00000000  0.00000000  1
  H  H1  1  0.32633500  0.38575600  0.51870900  1
  H  H2  1  0.39479400  0.61688000  0.35098500  1
  H  H3  1  0.67366500  0.61424400  0.48129100  1
  H  H4  1  0.60520600  0.38312000  0.64901500  1
  N  N5  1  0.50000000  0.50000000  0.50000000  1
  F  F6  1  0.72300300  0.14611200  0.82666900  1
  F  F7  1  0.00205700  0.79179900  0.69887000  1
  F  F8  1  0.79276000  0.74041400  0.10556200  1
  F  F9  1  0.27699700  0.85388800  0.17333100  1
  F  F10  1  0.99794300  0.20820100  0.30113000  1
  F  F11  1  0.20724000  0.25958600  0.89443800  1
