# generated using pymatgen
data_Al2Fe2Bi2O9
_symmetry_space_group_name_H-M   'P 1'
_cell_length_a   5.88354600
_cell_length_b   7.99738200
_cell_length_c   8.43769700
_cell_angle_alpha   90.00000000
_cell_angle_beta   90.00000000
_cell_angle_gamma   90.00000000
_symmetry_Int_Tables_number   1
_chemical_formula_structural   Al2Fe2Bi2O9
_chemical_formula_sum   'Al4 Fe4 Bi4 O18'
_cell_volume   397.01866058
_cell_formula_units_Z   2
loop_
 _symmetry_equiv_pos_site_id
 _symmetry_equiv_pos_as_xyz
  1  'x, y, z'
loop_
 _atom_site_type_symbol
 _atom_site_label
 _atom_site_symmetry_multiplicity
 _atom_site_fract_x
 _atom_site_fract_y
 _atom_site_fract_z
 _atom_site_occupancy
  Al  Al0  1  0.25685900  0.00000000  0.50000000  1
  Al  Al1  1  0.74314100  0.50000000  0.00000000  1
  Al  Al2  1  0.74314100  0.00000000  0.50000000  1
  Al  Al3  1  0.25685900  0.50000000  0.00000000  1
  Fe  Fe4  1  0.50000000  0.84802400  0.16636700  1
  Fe  Fe5  1  0.50000000  0.15197600  0.83363300  1
  Fe  Fe6  1  0.50000000  0.34802400  0.33363300  1
  Fe  Fe7  1  0.50000000  0.65197600  0.66636700  1
  Bi  Bi8  1  0.00000000  0.67459000  0.33121300  1
  Bi  Bi9  1  0.00000000  0.32541000  0.66878700  1
  Bi  Bi10  1  0.00000000  0.17459000  0.16878700  1
  Bi  Bi11  1  0.00000000  0.82541000  0.83121300  1
  O  O12  1  0.24263400  0.87391000  0.30345600  1
  O  O13  1  0.24263400  0.12609000  0.69654400  1
  O  O14  1  0.75736600  0.37391000  0.19654400  1
  O  O15  1  0.75736600  0.62609000  0.80345600  1
  O  O16  1  0.75736600  0.12609000  0.69654400  1
  O  O17  1  0.75736600  0.87391000  0.30345600  1
  O  O18  1  0.24263400  0.62609000  0.80345600  1
  O  O19  1  0.24263400  0.37391000  0.19654400  1
  O  O20  1  0.00000000  0.64219200  0.07025700  1
  O  O21  1  0.00000000  0.35780800  0.92974300  1
  O  O22  1  0.00000000  0.14219200  0.42974300  1
  O  O23  1  0.00000000  0.85780800  0.57025700  1
  O  O24  1  0.50000000  0.62773000  0.08689400  1
  O  O25  1  0.50000000  0.37227000  0.91310600  1
  O  O26  1  0.50000000  0.12773000  0.41310600  1
  O  O27  1  0.50000000  0.87227000  0.58689400  1
  O  O28  1  0.50000000  0.50000000  0.50000000  1
  O  O29  1  0.50000000  0.00000000  0.00000000  1
