# generated using pymatgen
data_Ba10Ru3W(Cl2O9)2
_symmetry_space_group_name_H-M   'P 1'
_cell_length_a   5.96276031
_cell_length_b   5.96276031
_cell_length_c   25.11016000
_cell_angle_alpha   90.00000000
_cell_angle_beta   90.00000000
_cell_angle_gamma   120.00000349
_symmetry_Int_Tables_number   1
_chemical_formula_structural   Ba10Ru3W(Cl2O9)2
_chemical_formula_sum   'Ba10 Ru3 W1 Cl4 O18'
_cell_volume   773.16965573
_cell_formula_units_Z   1
loop_
 _symmetry_equiv_pos_site_id
 _symmetry_equiv_pos_as_xyz
  1  'x, y, z'
loop_
 _atom_site_type_symbol
 _atom_site_label
 _atom_site_symmetry_multiplicity
 _atom_site_fract_x
 _atom_site_fract_y
 _atom_site_fract_z
 _atom_site_occupancy
  Ba  Ba0  1  0.33333300  0.66666700  0.32982800  1
  Ba  Ba1  1  0.66666700  0.33333300  0.67150300  1
  Ba  Ba2  1  0.66666700  0.33333300  0.82889000  1
  Ba  Ba3  1  0.33333300  0.66666700  0.16911200  1
  Ba  Ba4  1  0.66666700  0.33333300  0.24400500  1
  Ba  Ba5  1  0.33333300  0.66666700  0.75031900  1
  Ba  Ba6  1  0.66666700  0.33333300  0.41783400  1
  Ba  Ba7  1  0.33333300  0.66666700  0.58299600  1
  Ba  Ba8  1  0.33333300  0.66666700  0.91830200  1
  Ba  Ba9  1  0.66666700  0.33333300  0.08277500  1
  Ru  Ru10  1  0.00000000  0.00000000  0.69334400  1
  Ru  Ru11  1  0.00000000  0.00000000  0.80685900  1
  Ru  Ru12  1  0.00000000  0.00000000  0.19596600  1
  W  W13  1  0.00000000  0.00000000  0.30391200  1
  Cl  Cl14  1  0.33333300  0.66666700  0.45343400  1
  Cl  Cl15  1  0.66666700  0.33333300  0.54503100  1
  Cl  Cl16  1  0.66666700  0.33333300  0.95368500  1
  Cl  Cl17  1  0.33333300  0.66666700  0.04534900  1
  O  O18  1  0.31426700  0.15713400  0.34370800  1
  O  O19  1  0.84286600  0.15713400  0.34370800  1
  O  O20  1  0.84286600  0.68573300  0.34370800  1
  O  O21  1  0.68155200  0.84077600  0.65485200  1
  O  O22  1  0.15922400  0.84077600  0.65485200  1
  O  O23  1  0.15922400  0.31844800  0.65485200  1
  O  O24  1  0.68109100  0.84054500  0.84488200  1
  O  O25  1  0.15945500  0.84054500  0.84488200  1
  O  O26  1  0.15945500  0.31890900  0.84488200  1
  O  O27  1  0.31925900  0.15962900  0.15627900  1
  O  O28  1  0.84037100  0.15962900  0.15627900  1
  O  O29  1  0.84037100  0.68074100  0.15627900  1
  O  O30  1  0.15672000  0.31344000  0.25270400  1
  O  O31  1  0.68656000  0.84328000  0.25270400  1
  O  O32  1  0.15672000  0.84328000  0.25270400  1
  O  O33  1  0.84962100  0.69924200  0.74985800  1
  O  O34  1  0.30075800  0.15037900  0.74985800  1
  O  O35  1  0.84962100  0.15037900  0.74985800  1
