# generated using pymatgen
data_Al8Zn3CoO16
_symmetry_space_group_name_H-M   'P 1'
_cell_length_a   8.17940300
_cell_length_b   17.35087447
_cell_length_c   8.17940300
_cell_angle_alpha   76.36677163
_cell_angle_beta   90.00000000
_cell_angle_gamma   76.36677163
_symmetry_Int_Tables_number   1
_chemical_formula_structural   Al8Zn3CoO16
_chemical_formula_sum   'Al32 Zn12 Co4 O64'
_cell_volume   1094.42880305
_cell_formula_units_Z   4
loop_
 _symmetry_equiv_pos_site_id
 _symmetry_equiv_pos_as_xyz
  1  'x, y, z'
loop_
 _atom_site_type_symbol
 _atom_site_label
 _atom_site_symmetry_multiplicity
 _atom_site_fract_x
 _atom_site_fract_y
 _atom_site_fract_z
 _atom_site_occupancy
  Al  Al0  1  0.68754700  0.12504500  0.93754700  1
  Al  Al1  1  0.18754700  0.12504500  0.43754700  1
  Al  Al2  1  0.93754700  0.62504500  0.18754700  1
  Al  Al3  1  0.43754700  0.62504500  0.68754700  1
  Al  Al4  1  0.43740900  0.12504500  0.68740900  1
  Al  Al5  1  0.93740900  0.12504500  0.18740900  1
  Al  Al6  1  0.68740900  0.62504500  0.93740900  1
  Al  Al7  1  0.18740900  0.62504500  0.43740900  1
  Al  Al8  1  0.00009100  0.49995500  0.99995300  1
  Al  Al9  1  0.50009100  0.49995500  0.49995300  1
  Al  Al10  1  0.25009100  0.99995500  0.24995300  1
  Al  Al11  1  0.75009100  0.99995500  0.74995300  1
  Al  Al12  1  0.24995300  0.49995500  0.75009100  1
  Al  Al13  1  0.74995300  0.49995500  0.25009100  1
  Al  Al14  1  0.49995300  0.99995500  0.00009100  1
  Al  Al15  1  0.99995300  0.99995500  0.50009100  1
  Al  Al16  1  0.06253600  0.37501700  0.81253600  1
  Al  Al17  1  0.56253600  0.37501700  0.31253600  1
  Al  Al18  1  0.31253600  0.87501700  0.06253600  1
  Al  Al19  1  0.81253600  0.87501700  0.56253600  1
  Al  Al20  1  0.31244700  0.37501700  0.06244700  1
  Al  Al21  1  0.81244700  0.37501700  0.56244700  1
  Al  Al22  1  0.56244700  0.87501700  0.31244700  1
  Al  Al23  1  0.06244700  0.87501700  0.81244700  1
  Al  Al24  1  0.12505300  0.24998300  0.62496400  1
  Al  Al25  1  0.62505300  0.24998300  0.12496400  1
  Al  Al26  1  0.37505300  0.74998300  0.87496400  1
  Al  Al27  1  0.87505300  0.74998300  0.37496400  1
  Al  Al28  1  0.37496400  0.24998300  0.37505300  1
  Al  Al29  1  0.87496400  0.24998300  0.87505300  1
  Al  Al30  1  0.62496400  0.74998300  0.62505300  1
  Al  Al31  1  0.12496400  0.74998300  0.12505300  1
  Zn  Zn32  1  0.46875000  0.31250000  0.71875000  1
  Zn  Zn33  1  0.96875000  0.31250000  0.21875000  1
  Zn  Zn34  1  0.71875000  0.81250000  0.96875000  1
  Zn  Zn35  1  0.21875000  0.81250000  0.46875000  1
  Zn  Zn36  1  0.15626800  0.43746400  0.40626800  1
  Zn  Zn37  1  0.65626800  0.43746400  0.90626800  1
  Zn  Zn38  1  0.40626800  0.93746400  0.65626800  1
  Zn  Zn39  1  0.90626800  0.93746400  0.15626800  1
  Zn  Zn40  1  0.28123200  0.18753600  0.03123200  1
  Zn  Zn41  1  0.78123200  0.18753600  0.53123200  1
  Zn  Zn42  1  0.53123200  0.68753600  0.28123200  1
  Zn  Zn43  1  0.03123200  0.68753600  0.78123200  1
  Co  Co44  1  0.59375000  0.06250000  0.34375000  1
  Co  Co45  1  0.84375000  0.56250000  0.59375000  1
  Co  Co46  1  0.09375000  0.06250000  0.84375000  1
  Co  Co47  1  0.34375000  0.56250000  0.09375000  1
  O  O48  1  0.36419400  0.24283100  0.61419400  1
  O  O49  1  0.86419400  0.24283100  0.11419400  1
  O  O50  1  0.61419400  0.74283100  0.86419400  1
  O  O51  1  0.11419400  0.74283100  0.36419400  1
  O  O52  1  0.64297500  0.24283100  0.89297500  1
  O  O53  1  0.14297500  0.24283100  0.39297500  1
  O  O54  1  0.89297500  0.74283100  0.14297500  1
  O  O55  1  0.39297500  0.74283100  0.64297500  1
  O  O56  1  0.29452500  0.38216900  0.82330600  1
  O  O57  1  0.79452500  0.38216900  0.32330600  1
  O  O58  1  0.54452500  0.88216900  0.07330600  1
  O  O59  1  0.04452500  0.88216900  0.57330600  1
  O  O60  1  0.07330600  0.38216900  0.04452500  1
  O  O61  1  0.57330600  0.38216900  0.54452500  1
  O  O62  1  0.32330600  0.88216900  0.29452500  1
  O  O63  1  0.82330600  0.88216900  0.79452500  1
  O  O64  1  0.23915900  0.49271900  0.98915900  1
  O  O65  1  0.73915900  0.49271900  0.48915900  1
  O  O66  1  0.48915900  0.99271900  0.23915900  1
  O  O67  1  0.98915900  0.99271900  0.73915900  1
  O  O68  1  0.01812200  0.49271900  0.76812200  1
  O  O69  1  0.51812200  0.49271900  0.26812200  1
  O  O70  1  0.26812200  0.99271900  0.01812200  1
  O  O71  1  0.76812200  0.99271900  0.51812200  1
  O  O72  1  0.41937800  0.13228100  0.44834100  1
  O  O73  1  0.91937800  0.13228100  0.94834100  1
  O  O74  1  0.66937800  0.63228100  0.69834100  1
  O  O75  1  0.16937800  0.63228100  0.19834100  1
  O  O76  1  0.19834100  0.13228100  0.66937800  1
  O  O77  1  0.69834100  0.13228100  0.16937800  1
  O  O78  1  0.44834100  0.63228100  0.91937800  1
  O  O79  1  0.94834100  0.63228100  0.41937800  1
  O  O80  1  0.38582900  0.25720700  0.13582900  1
  O  O81  1  0.88582900  0.25720700  0.63582900  1
  O  O82  1  0.63582900  0.75720700  0.38582900  1
  O  O83  1  0.13582900  0.75720700  0.88582900  1
  O  O84  1  0.10696400  0.25720700  0.85696400  1
  O  O85  1  0.60696400  0.25720700  0.35696400  1
  O  O86  1  0.35696400  0.75720700  0.10696400  1
  O  O87  1  0.85696400  0.75720700  0.60696400  1
  O  O88  1  0.83053600  0.36779300  0.80167100  1
  O  O89  1  0.33053600  0.36779300  0.30167100  1
  O  O90  1  0.08053600  0.86779300  0.05167100  1
  O  O91  1  0.58053600  0.86779300  0.55167100  1
  O  O92  1  0.05167100  0.36779300  0.58053600  1
  O  O93  1  0.55167100  0.36779300  0.08053600  1
  O  O94  1  0.30167100  0.86779300  0.83053600  1
  O  O95  1  0.80167100  0.86779300  0.33053600  1
  O  O96  1  0.51079900  0.00722300  0.76079900  1
  O  O97  1  0.01079900  0.00722300  0.26079900  1
  O  O98  1  0.76079900  0.50722300  0.01079900  1
  O  O99  1  0.26079900  0.50722300  0.51079900  1
  O  O100  1  0.73197900  0.00722300  0.98197900  1
  O  O101  1  0.23197900  0.00722300  0.48197900  1
  O  O102  1  0.98197900  0.50722300  0.23197900  1
  O  O103  1  0.48197900  0.50722300  0.73197900  1
  O  O104  1  0.45552100  0.11777700  0.92670100  1
  O  O105  1  0.95552100  0.11777700  0.42670100  1
  O  O106  1  0.70552100  0.61777700  0.17670100  1
  O  O107  1  0.20552100  0.61777700  0.67670100  1
  O  O108  1  0.67670100  0.11777700  0.70552100  1
  O  O109  1  0.17670100  0.11777700  0.20552100  1
  O  O110  1  0.92670100  0.61777700  0.95552100  1
  O  O111  1  0.42670100  0.61777700  0.45552100  1
