# generated using pymatgen
data_AlGaN2
_symmetry_space_group_name_H-M   'P 1'
_cell_length_a   3.16962322
_cell_length_b   3.16962322
_cell_length_c   5.13887400
_cell_angle_alpha   90.00000000
_cell_angle_beta   90.00000000
_cell_angle_gamma   119.99998365
_symmetry_Int_Tables_number   1
_chemical_formula_structural   AlGaN2
_chemical_formula_sum   'Al1 Ga1 N2'
_cell_volume   44.71095551
_cell_formula_units_Z   1
loop_
 _symmetry_equiv_pos_site_id
 _symmetry_equiv_pos_as_xyz
  1  'x, y, z'
loop_
 _atom_site_type_symbol
 _atom_site_label
 _atom_site_symmetry_multiplicity
 _atom_site_fract_x
 _atom_site_fract_y
 _atom_site_fract_z
 _atom_site_occupancy
  Al  Al0  1  0.00000000  0.00000000  0.99919000  1
  Ga  Ga1  1  0.66666700  0.33333300  0.49725400  1
  N  N2  1  0.66666700  0.33333300  0.11198300  1
  N  N3  1  0.00000000  0.00000000  0.62797300  1
