# generated using pymatgen
data_CsNd2Ti2NbO10
_symmetry_space_group_name_H-M   'P 1'
_cell_length_a   3.87325743
_cell_length_b   3.87325743
_cell_length_c   15.76811709
_cell_angle_alpha   89.48529947
_cell_angle_beta   89.48529947
_cell_angle_gamma   89.80186677
_symmetry_Int_Tables_number   1
_chemical_formula_structural   CsNd2Ti2NbO10
_chemical_formula_sum   'Cs1 Nd2 Ti2 Nb1 O10'
_cell_volume   236.53479560
_cell_formula_units_Z   1
loop_
 _symmetry_equiv_pos_site_id
 _symmetry_equiv_pos_as_xyz
  1  'x, y, z'
loop_
 _atom_site_type_symbol
 _atom_site_label
 _atom_site_symmetry_multiplicity
 _atom_site_fract_x
 _atom_site_fract_y
 _atom_site_fract_z
 _atom_site_occupancy
  Cs  Cs0  1  0.50005300  0.50005300  0.51186500  1
  Nd  Nd1  1  0.48761500  0.48761500  0.84506600  1
  Nd  Nd2  1  0.48463700  0.48463700  0.12739200  1
  Ti  Ti3  1  0.01106200  0.01106200  0.99846600  1
  Ti  Ti4  1  0.99943000  0.99943000  0.71714100  1
  Nb  Nb5  1  0.99907400  0.99907400  0.27845600  1
  O  O6  1  0.00187100  0.00187100  0.60887800  1
  O  O7  1  0.99669600  0.99669600  0.39250500  1
  O  O8  1  0.01652600  0.01652600  0.87916800  1
  O  O9  1  0.02336100  0.02336100  0.12711500  1
  O  O10  1  0.50069200  0.99791100  0.75286700  1
  O  O11  1  0.99791100  0.50069200  0.75286700  1
  O  O12  1  0.50494600  0.00969600  0.24527100  1
  O  O13  1  0.00969600  0.50494600  0.24527100  1
  O  O14  1  0.52476500  0.04566600  0.00883600  1
  O  O15  1  0.04566600  0.52476500  0.00883600  1
