# generated using pymatgen
data_Al9Si2BO19
_symmetry_space_group_name_H-M   'P 1'
_cell_length_a   8.12005008
_cell_length_b   8.12005008
_cell_length_c   7.67617076
_cell_angle_alpha   87.78977475
_cell_angle_beta   87.78977475
_cell_angle_gamma   41.79976709
_symmetry_Int_Tables_number   1
_chemical_formula_structural   Al9Si2BO19
_chemical_formula_sum   'Al9 Si2 B1 O19'
_cell_volume   337.06293236
_cell_formula_units_Z   1
loop_
 _symmetry_equiv_pos_site_id
 _symmetry_equiv_pos_as_xyz
  1  'x, y, z'
loop_
 _atom_site_type_symbol
 _atom_site_label
 _atom_site_symmetry_multiplicity
 _atom_site_fract_x
 _atom_site_fract_y
 _atom_site_fract_z
 _atom_site_occupancy
  Al  Al0  1  0.55069200  0.55069200  0.83282400  1
  Al  Al1  1  0.43820600  0.43820600  0.31430700  1
  Al  Al2  1  0.37865000  0.86498700  0.16389000  1
  Al  Al3  1  0.86498700  0.37865000  0.16389000  1
  Al  Al4  1  0.62913000  0.13576100  0.65008300  1
  Al  Al5  1  0.13576100  0.62913000  0.65008300  1
  Al  Al6  1  0.74678100  0.74678100  0.85281100  1
  Al  Al7  1  0.20441600  0.20441600  0.49258200  1
  Al  Al8  1  0.70289100  0.70289100  0.49680300  1
  Si  Si9  1  0.29553400  0.29553400  0.99637200  1
  Si  Si10  1  0.04924500  0.04924500  0.81888500  1
  B  B11  1  0.97651900  0.97651900  0.36333400  1
  O  O12  1  0.54904600  0.54904600  0.23701600  1
  O  O13  1  0.45554100  0.45554100  0.70973500  1
  O  O14  1  0.68580300  0.68580300  0.05567500  1
  O  O15  1  0.31881700  0.31881700  0.54615900  1
  O  O16  1  0.95066800  0.95066800  0.73586300  1
  O  O17  1  0.04977700  0.04977700  0.25211400  1
  O  O18  1  0.19187400  0.19187400  0.07311300  1
  O  O19  1  0.80565100  0.80565100  0.60780300  1
  O  O20  1  0.28392500  0.82219000  0.94495000  1
  O  O21  1  0.82219000  0.28392500  0.94495000  1
  O  O22  1  0.72938700  0.14859300  0.42050300  1
  O  O23  1  0.14859300  0.72938700  0.42050300  1
  O  O24  1  0.53916900  0.07882800  0.86689200  1
  O  O25  1  0.07882800  0.53916900  0.86689200  1
  O  O26  1  0.44092400  0.93304700  0.37180900  1
  O  O27  1  0.93304700  0.44092400  0.37180900  1
  O  O28  1  0.36488000  0.36488000  0.14687200  1
  O  O29  1  0.65131700  0.65131700  0.70928500  1
  O  O30  1  0.12544800  0.12544800  0.66658800  1
