# generated using pymatgen
data_Ag6Hg(P10I)2
_symmetry_space_group_name_H-M   'P 1'
_cell_length_a   28.08791900
_cell_length_b   6.79542800
_cell_length_c   7.45426972
_cell_angle_alpha   65.92383880
_cell_angle_beta   90.00000000
_cell_angle_gamma   90.00000000
_symmetry_Int_Tables_number   1
_chemical_formula_structural   Ag6Hg(P10I)2
_chemical_formula_sum   'Ag12 Hg2 P40 I4'
_cell_volume   1299.01497597
_cell_formula_units_Z   2
loop_
 _symmetry_equiv_pos_site_id
 _symmetry_equiv_pos_as_xyz
  1  'x, y, z'
loop_
 _atom_site_type_symbol
 _atom_site_label
 _atom_site_symmetry_multiplicity
 _atom_site_fract_x
 _atom_site_fract_y
 _atom_site_fract_z
 _atom_site_occupancy
  Ag  Ag0  1  0.15442900  0.09674600  0.97938900  1
  Ag  Ag1  1  0.65442900  0.90325400  0.02061100  1
  Ag  Ag2  1  0.84572900  0.90335300  0.01902100  1
  Ag  Ag3  1  0.34572900  0.09664700  0.98097900  1
  Ag  Ag4  1  0.07072300  0.16020800  0.43252300  1
  Ag  Ag5  1  0.57072300  0.83979200  0.56747700  1
  Ag  Ag6  1  0.92988700  0.84224800  0.57076400  1
  Ag  Ag7  1  0.42988700  0.15775200  0.42923600  1
  Ag  Ag8  1  0.24997800  0.84703100  0.57821700  1
  Ag  Ag9  1  0.74997800  0.15296900  0.42178300  1
  Ag  Ag10  1  0.00921100  0.14517300  0.97732700  1
  Ag  Ag11  1  0.50921100  0.85482700  0.02267300  1
  Hg  Hg12  1  0.25008200  0.47620200  0.16814500  1
  Hg  Hg13  1  0.75008200  0.52379800  0.83185500  1
  P  P14  1  0.16838300  0.71970400  0.71962300  1
  P  P15  1  0.66838300  0.28029600  0.28037700  1
  P  P16  1  0.83150200  0.27786800  0.28126300  1
  P  P17  1  0.33150200  0.72213200  0.71873700  1
  P  P18  1  0.93556000  0.29226500  0.09282600  1
  P  P19  1  0.43556000  0.70773500  0.90717400  1
  P  P20  1  0.06248500  0.71152300  0.91196600  1
  P  P21  1  0.56248500  0.28847700  0.08803400  1
  P  P22  1  0.16991100  0.44576800  0.01855300  1
  P  P23  1  0.66991100  0.55423200  0.98144700  1
  P  P24  1  0.83028800  0.55287000  0.98135100  1
  P  P25  1  0.33028800  0.44713000  0.01864900  1
  P  P26  1  0.99304100  0.35171300  0.46553000  1
  P  P27  1  0.49304100  0.64828700  0.53447000  1
  P  P28  1  0.00609600  0.64995000  0.52587800  1
  P  P29  1  0.50609600  0.35005000  0.47412200  1
  P  P30  1  0.11715800  0.95031400  0.74848900  1
  P  P31  1  0.61715800  0.04968600  0.25151100  1
  P  P32  1  0.88238700  0.04527000  0.25501900  1
  P  P33  1  0.38238700  0.95473000  0.74498100  1
  P  P34  1  0.10583000  0.49850200  0.16703200  1
  P  P35  1  0.60583000  0.50149800  0.83296800  1
  P  P36  1  0.89407300  0.50080200  0.83121800  1
  P  P37  1  0.39407300  0.49919800  0.16878200  1
  P  P38  1  0.12908600  0.51900800  0.59633400  1
  P  P39  1  0.62908600  0.48099200  0.40366600  1
  P  P40  1  0.87146500  0.47564100  0.40518300  1
  P  P41  1  0.37146500  0.52435900  0.59481700  1
  P  P42  1  0.04699600  0.89159600  0.29058400  1
  P  P43  1  0.54699600  0.10840400  0.70941600  1
  P  P44  1  0.95580000  0.10990600  0.71400900  1
  P  P45  1  0.45580000  0.89009400  0.28599100  1
  P  P46  1  0.05930600  0.48775100  0.76113700  1
  P  P47  1  0.55930600  0.51224900  0.23886300  1
  P  P48  1  0.93993700  0.52318000  0.23395500  1
  P  P49  1  0.43993700  0.47682000  0.76604500  1
  P  P50  1  0.11713400  0.75765100  0.28452200  1
  P  P51  1  0.61713400  0.24234900  0.71547800  1
  P  P52  1  0.88412100  0.23912800  0.71636200  1
  P  P53  1  0.38412100  0.76087200  0.28363800  1
  I  I54  1  0.24997600  0.26898000  0.59105400  1
  I  I55  1  0.74997600  0.73102000  0.40894600  1
  I  I56  1  0.25007700  0.92658800  0.16433700  1
  I  I57  1  0.75007700  0.07341200  0.83566300  1
