# generated using pymatgen
data_Ag6Au2Se3S
_symmetry_space_group_name_H-M   'P 1'
_cell_length_a   8.71726806
_cell_length_b   8.71726806
_cell_length_c   10.07415563
_cell_angle_alpha   54.81446317
_cell_angle_beta   54.81446317
_cell_angle_gamma   70.59740989
_symmetry_Int_Tables_number   1
_chemical_formula_structural   Ag6Au2Se3S
_chemical_formula_sum   'Ag12 Au4 Se6 S2'
_cell_volume   511.35466104
_cell_formula_units_Z   2
loop_
 _symmetry_equiv_pos_site_id
 _symmetry_equiv_pos_as_xyz
  1  'x, y, z'
loop_
 _atom_site_type_symbol
 _atom_site_label
 _atom_site_symmetry_multiplicity
 _atom_site_fract_x
 _atom_site_fract_y
 _atom_site_fract_z
 _atom_site_occupancy
  Ag  Ag0  1  0.87311600  0.12688400  0.50000000  1
  Ag  Ag1  1  0.62645300  0.37354700  0.00000000  1
  Ag  Ag2  1  0.37594600  0.62405400  0.50000000  1
  Ag  Ag3  1  0.13025900  0.86974100  0.00000000  1
  Ag  Ag4  1  0.75233100  0.74850700  0.12614200  1
  Ag  Ag5  1  0.25149300  0.24766900  0.87385800  1
  Ag  Ag6  1  0.74447200  0.75409700  0.62836300  1
  Ag  Ag7  1  0.24590300  0.25552800  0.37163700  1
  Ag  Ag8  1  0.37684600  0.87626000  0.62544000  1
  Ag  Ag9  1  0.12374000  0.62315400  0.37456000  1
  Ag  Ag10  1  0.87860800  0.37646200  0.12758900  1
  Ag  Ag11  1  0.62353800  0.12139200  0.87241100  1
  Au  Au12  1  0.49987300  0.24478500  0.50492000  1
  Au  Au13  1  0.75521500  0.50012700  0.49508000  1
  Au  Au14  1  0.75047100  0.00020700  0.24950800  1
  Au  Au15  1  0.99979300  0.24952900  0.75049200  1
  Se  Se16  1  0.46288200  0.00147500  0.24896300  1
  Se  Se17  1  0.99852500  0.53711800  0.75103700  1
  Se  Se18  1  0.46738900  0.50023700  0.78292800  1
  Se  Se19  1  0.49976300  0.53261100  0.21707200  1
  Se  Se20  1  0.03770600  0.00006700  0.24931400  1
  Se  Se21  1  0.99993300  0.96229400  0.75068600  1
  S  S22  1  0.49884600  0.97310100  0.77712300  1
  S  S23  1  0.02689900  0.50115400  0.22287700  1
