# generated using pymatgen
data_AgSb3PbS6
_symmetry_space_group_name_H-M   'P 1'
_cell_length_a   4.21170300
_cell_length_b   6.85347586
_cell_length_c   19.35077600
_cell_angle_alpha   90.00000000
_cell_angle_beta   90.00000000
_cell_angle_gamma   72.10535162
_symmetry_Int_Tables_number   1
_chemical_formula_structural   AgSb3PbS6
_chemical_formula_sum   'Ag2 Sb6 Pb2 S12'
_cell_volume   531.53515154
_cell_formula_units_Z   2
loop_
 _symmetry_equiv_pos_site_id
 _symmetry_equiv_pos_as_xyz
  1  'x, y, z'
loop_
 _atom_site_type_symbol
 _atom_site_label
 _atom_site_symmetry_multiplicity
 _atom_site_fract_x
 _atom_site_fract_y
 _atom_site_fract_z
 _atom_site_occupancy
  Ag  Ag0  1  0.58915400  0.82169200  0.12983900  1
  Ag  Ag1  1  0.41084600  0.17830800  0.62983900  1
  Sb  Sb2  1  0.85817800  0.28364400  0.05792100  1
  Sb  Sb3  1  0.11941900  0.76116200  0.95110400  1
  Sb  Sb4  1  0.88058100  0.23883800  0.45110400  1
  Sb  Sb5  1  0.14182200  0.71635600  0.55792100  1
  Sb  Sb6  1  0.38226100  0.23547700  0.86569700  1
  Sb  Sb7  1  0.61773900  0.76452300  0.36569700  1
  Pb  Pb8  1  0.66538300  0.66923400  0.73997700  1
  Pb  Pb9  1  0.33461700  0.33076600  0.23997700  1
  S  S10  1  0.96118100  0.07763800  0.16261300  1
  S  S11  1  0.01062400  0.97875100  0.84131100  1
  S  S12  1  0.98937600  0.02124900  0.34131100  1
  S  S13  1  0.03881900  0.92236200  0.66261300  1
  S  S14  1  0.68220300  0.63559400  0.24550600  1
  S  S15  1  0.31779700  0.36440600  0.74550600  1
  S  S16  1  0.74088900  0.51822200  0.89928700  1
  S  S17  1  0.25286100  0.49427800  0.09322300  1
  S  S18  1  0.74713900  0.50572200  0.59322300  1
  S  S19  1  0.25911100  0.48177800  0.39928700  1
  S  S20  1  0.51570200  0.96859500  0.00502000  1
  S  S21  1  0.48429800  0.03140500  0.50502000  1
