# generated using pymatgen
data_Ag2Hg3P4Br3
_symmetry_space_group_name_H-M   'P 1'
_cell_length_a   8.93490145
_cell_length_b   8.32962249
_cell_length_c   8.32962200
_cell_angle_alpha   82.29161574
_cell_angle_beta   79.77985571
_cell_angle_gamma   79.77985711
_symmetry_Int_Tables_number   1
_chemical_formula_structural   Ag2Hg3P4Br3
_chemical_formula_sum   'Ag4 Hg6 P8 Br6'
_cell_volume   597.02867739
_cell_formula_units_Z   2
loop_
 _symmetry_equiv_pos_site_id
 _symmetry_equiv_pos_as_xyz
  1  'x, y, z'
loop_
 _atom_site_type_symbol
 _atom_site_label
 _atom_site_symmetry_multiplicity
 _atom_site_fract_x
 _atom_site_fract_y
 _atom_site_fract_z
 _atom_site_occupancy
  Ag  Ag0  1  0.51252200  0.50848500  0.98830500  1
  Ag  Ag1  1  0.48747800  0.01169500  0.49151500  1
  Ag  Ag2  1  0.68123000  0.65864800  0.64777500  1
  Ag  Ag3  1  0.31877000  0.35222500  0.34135200  1
  Hg  Hg4  1  0.77003200  0.76560900  0.13399100  1
  Hg  Hg5  1  0.76847300  0.12994900  0.76466900  1
  Hg  Hg6  1  0.11822600  0.75169600  0.75255800  1
  Hg  Hg7  1  0.23152700  0.23533100  0.87005100  1
  Hg  Hg8  1  0.22996800  0.86600900  0.23439100  1
  Hg  Hg9  1  0.88177400  0.24744200  0.24830400  1
  P  P10  1  0.93646800  0.93603100  0.93540100  1
  P  P11  1  0.06353200  0.06459900  0.06396900  1
  P  P12  1  0.57796000  0.58065400  0.25363700  1
  P  P13  1  0.57868500  0.25400600  0.58068300  1
  P  P14  1  0.28187200  0.56251100  0.56194300  1
  P  P15  1  0.42131500  0.41931700  0.74599400  1
  P  P16  1  0.42204000  0.74636300  0.41934600  1
  P  P17  1  0.71812800  0.43805700  0.43748900  1
  Br  Br18  1  0.46110400  0.85797800  0.85168000  1
  Br  Br19  1  0.85791500  0.86893000  0.45535900  1
  Br  Br20  1  0.85727700  0.46001700  0.86331300  1
  Br  Br21  1  0.53889600  0.14832000  0.14202200  1
  Br  Br22  1  0.14272300  0.13668700  0.53998300  1
  Br  Br23  1  0.14208500  0.54464100  0.13107000  1
