# generated using pymatgen
data_Ag8Sb5As3S16
_symmetry_space_group_name_H-M   'P 1'
_cell_length_a   5.97363300
_cell_length_b   8.81196699
_cell_length_c   13.71536900
_cell_angle_alpha   95.73033089
_cell_angle_beta   90.35217693
_cell_angle_gamma   90.08628863
_symmetry_Int_Tables_number   1
_chemical_formula_structural   Ag8Sb5As3S16
_chemical_formula_sum   'Ag8 Sb5 As3 S16'
_cell_volume   718.34658602
_cell_formula_units_Z   1
loop_
 _symmetry_equiv_pos_site_id
 _symmetry_equiv_pos_as_xyz
  1  'x, y, z'
loop_
 _atom_site_type_symbol
 _atom_site_label
 _atom_site_symmetry_multiplicity
 _atom_site_fract_x
 _atom_site_fract_y
 _atom_site_fract_z
 _atom_site_occupancy
  Ag  Ag0  1  0.26860200  0.97639700  0.57643500  1
  Ag  Ag1  1  0.23117100  0.47609900  0.07511500  1
  Ag  Ag2  1  0.73065600  0.02320700  0.42400100  1
  Ag  Ag3  1  0.77180600  0.52160700  0.92351100  1
  Ag  Ag4  1  0.75148600  0.92950400  0.78915700  1
  Ag  Ag5  1  0.75141300  0.42723700  0.29056800  1
  Ag  Ag6  1  0.25101700  0.07540100  0.21232800  1
  Ag  Ag7  1  0.24833800  0.57526600  0.71170500  1
  Sb  Sb8  1  0.28714700  0.22235400  0.85190800  1
  Sb  Sb9  1  0.22296900  0.71568900  0.36026700  1
  Sb  Sb10  1  0.71500300  0.78353500  0.14271300  1
  Sb  Sb11  1  0.78268500  0.28599800  0.64342000  1
  Sb  Sb12  1  0.27248200  0.83493400  0.96239400  1
  As  As13  1  0.24106400  0.32633400  0.45278500  1
  As  As14  1  0.73903300  0.17384300  0.04744400  1
  As  As15  1  0.75949100  0.67338000  0.54630700  1
  S  S16  1  0.36529900  0.24862900  0.66606700  1
  S  S17  1  0.13025600  0.74189700  0.16952900  1
  S  S18  1  0.63470900  0.75718500  0.33319100  1
  S  S19  1  0.86760400  0.25798000  0.83064500  1
  S  S20  1  0.12338200  0.18615100  0.05602200  1
  S  S21  1  0.37495500  0.68622900  0.55524800  1
  S  S22  1  0.85862000  0.81497300  0.94913900  1
  S  S23  1  0.62512500  0.31203400  0.44488300  1
  S  S24  1  0.83883700  0.91797300  0.60516400  1
  S  S25  1  0.66178900  0.41759000  0.10718300  1
  S  S26  1  0.16007200  0.08168700  0.39457600  1
  S  S27  1  0.34111300  0.56852700  0.89376400  1
  S  S28  1  0.30945400  0.94253100  0.79887800  1
  S  S29  1  0.18972400  0.43550600  0.30576600  1
  S  S30  1  0.68829400  0.06409100  0.19447800  1
  S  S31  1  0.81080300  0.56693400  0.69460800  1
