data_image0
_chemical_formula_structural       RhSc6Te2
_chemical_formula_sum              "Rh1 Sc6 Te2"
_cell_length_a       7.7584
_cell_length_b       7.7584
_cell_length_c       3.78091
_cell_angle_alpha    90
_cell_angle_beta     90
_cell_angle_gamma    119.999

_space_group_name_H-M_alt    "P 1"
_space_group_IT_number       1

loop_
  _space_group_symop_operation_xyz
  'x, y, z'

loop_
  _atom_site_type_symbol
  _atom_site_label
  _atom_site_symmetry_multiplicity
  _atom_site_fract_x
  _atom_site_fract_y
  _atom_site_fract_z
  _atom_site_occupancy
  Rh  Rh1       1.0  0.00001  0.00001  0.50000  1.0000
  Sc  Sc1       1.0  0.24200  0.00001  0.00000  1.0000
  Sc  Sc2       1.0  0.00001  0.24200  0.00000  1.0000
  Sc  Sc3       1.0  0.75800  0.75800  0.00000  1.0000
  Sc  Sc4       1.0  0.60700  0.00002  0.50000  1.0000
  Sc  Sc5       1.0  0.39300  0.39300  0.50000  1.0000
  Sc  Sc6       1.0  0.00002  0.60700  0.50000  1.0000
  Te  Te1       1.0  0.66700  0.33300  0.00000  1.0000
  Te  Te2       1.0  0.33300  0.66700  0.00000  1.0000
