# generated using pymatgen
data_Ba2Cu4As5H3O20
_symmetry_space_group_name_H-M   'P 1'
_cell_length_a   7.93318903
_cell_length_b   7.93538869
_cell_length_c   13.92392478
_cell_angle_alpha   89.40717062
_cell_angle_beta   89.75641287
_cell_angle_gamma   90.00404612
_symmetry_Int_Tables_number   1
_chemical_formula_structural   Ba2Cu4As5H3O20
_chemical_formula_sum   'Ba4 Cu8 As10 H6 O40'
_cell_volume   876.49713280
_cell_formula_units_Z   2
loop_
 _symmetry_equiv_pos_site_id
 _symmetry_equiv_pos_as_xyz
  1  'x, y, z'
loop_
 _atom_site_type_symbol
 _atom_site_label
 _atom_site_symmetry_multiplicity
 _atom_site_fract_x
 _atom_site_fract_y
 _atom_site_fract_z
 _atom_site_occupancy
  Ba  Ba0  1  0.23993600  0.75313200  0.32230400  1
  Ba  Ba1  1  0.25127000  0.75830900  0.82261900  1
  Ba  Ba2  1  0.74321300  0.24281200  0.67256900  1
  Ba  Ba3  1  0.75513500  0.24427200  0.17245000  1
  Cu  Cu4  1  0.42609100  0.18008600  0.44600300  1
  Cu  Cu5  1  0.07602800  0.31409900  0.44695400  1
  Cu  Cu6  1  0.68632200  0.57459800  0.94736400  1
  Cu  Cu7  1  0.82039500  0.92485900  0.94564800  1
  Cu  Cu8  1  0.56864200  0.82275100  0.55484900  1
  Cu  Cu9  1  0.92634600  0.68029700  0.55385200  1
  Cu  Cu10  1  0.32038600  0.42680600  0.05317600  1
  Cu  Cu11  1  0.17842400  0.06973600  0.05545800  1
  As  As12  1  0.25147500  0.25190100  0.25024900  1
  As  As13  1  0.75178800  0.74689600  0.75017900  1
  As  As14  1  0.98858800  0.67833700  0.10148700  1
  As  As15  1  0.50794600  0.82730300  0.09095800  1
  As  As16  1  0.17843400  0.01132300  0.60217800  1
  As  As17  1  0.32765900  0.49208500  0.59027100  1
  As  As18  1  0.01201900  0.32495400  0.90671100  1
  As  As19  1  0.49447900  0.17521600  0.90869500  1
  As  As20  1  0.82388400  0.99229700  0.40835800  1
  As  As21  1  0.67421300  0.50973700  0.40707200  1
  H  H22  1  0.63875400  0.64454000  0.20426900  1
  H  H23  1  0.14441600  0.36112400  0.70380800  1
  H  H24  1  0.13976300  0.14156700  0.78157100  1
  H  H25  1  0.36442500  0.34907200  0.79062400  1
  H  H26  1  0.65229000  0.86420300  0.29077200  1
  H  H27  1  0.85881500  0.63998800  0.28079900  1
  O  O28  1  0.95529000  0.76884900  0.21092600  1
  O  O29  1  0.54196100  0.72356300  0.20435100  1
  O  O30  1  0.26843800  0.04436300  0.71179900  1
  O  O31  1  0.22348400  0.45775700  0.70353400  1
  O  O32  1  0.03893600  0.21994100  0.79501900  1
  O  O33  1  0.47415700  0.29311100  0.80075300  1
  O  O34  1  0.70574900  0.97476200  0.30130600  1
  O  O35  1  0.77909600  0.53975400  0.29455600  1
  O  O36  1  0.81619100  0.55127800  0.07180200  1
  O  O37  1  0.67753400  0.95516600  0.06652500  1
  O  O38  1  0.05074300  0.18372000  0.57175600  1
  O  O39  1  0.45492600  0.32268300  0.56644200  1
  O  O40  1  0.18827600  0.44617600  0.92671000  1
  O  O41  1  0.31885200  0.05186000  0.93052000  1
  O  O42  1  0.94344600  0.81446400  0.42804700  1
  O  O43  1  0.54934000  0.68349200  0.42926000  1
  O  O44  1  0.16909900  0.56385400  0.12454300  1
  O  O45  1  0.33170900  0.93083800  0.12864000  1
  O  O46  1  0.06490700  0.82955500  0.62515300  1
  O  O47  1  0.43198600  0.66700400  0.62794700  1
  O  O48  1  0.83520000  0.43219600  0.87350900  1
  O  O49  1  0.66903900  0.06711400  0.87207800  1
  O  O50  1  0.93286900  0.16749100  0.37326700  1
  O  O51  1  0.56751400  0.33361400  0.37235800  1
  O  O52  1  0.01960700  0.82315000  0.00806100  1
  O  O53  1  0.48002300  0.67727300  0.00476500  1
  O  O54  1  0.32278600  0.98127900  0.50915000  1
  O  O55  1  0.17675400  0.52074100  0.50383100  1
  O  O56  1  0.97915200  0.17721900  0.99619700  1
  O  O57  1  0.52476500  0.31842100  0.99872500  1
  O  O58  1  0.67930000  0.02376700  0.49895900  1
  O  O59  1  0.82096900  0.47807700  0.49577900  1
  O  O60  1  0.16637100  0.40526100  0.32382200  1
  O  O61  1  0.33165500  0.09425900  0.32425500  1
  O  O62  1  0.90653200  0.83161600  0.82318300  1
  O  O63  1  0.59557500  0.66610900  0.82481000  1
  O  O64  1  0.83331600  0.59105400  0.67722100  1
  O  O65  1  0.66714400  0.90267000  0.67695400  1
  O  O66  1  0.09672900  0.16850900  0.17708600  1
  O  O67  1  0.40844200  0.33469300  0.17715700  1
