# generated using pymatgen
data_BaFe4Sn2O11
_symmetry_space_group_name_H-M   'P 1'
_cell_length_a   6.06210212
_cell_length_b   6.06210212
_cell_length_c   13.76946600
_cell_angle_alpha   90.00000000
_cell_angle_beta   90.00000000
_cell_angle_gamma   119.20123501
_symmetry_Int_Tables_number   1
_chemical_formula_structural   BaFe4Sn2O11
_chemical_formula_sum   'Ba2 Fe8 Sn4 O22'
_cell_volume   441.70654963
_cell_formula_units_Z   2
loop_
 _symmetry_equiv_pos_site_id
 _symmetry_equiv_pos_as_xyz
  1  'x, y, z'
loop_
 _atom_site_type_symbol
 _atom_site_label
 _atom_site_symmetry_multiplicity
 _atom_site_fract_x
 _atom_site_fract_y
 _atom_site_fract_z
 _atom_site_occupancy
  Ba  Ba0  1  0.66386800  0.33613200  0.75000000  1
  Ba  Ba1  1  0.33613200  0.66386800  0.25000000  1
  Fe  Fe2  1  0.50000000  0.50000000  0.00000000  1
  Fe  Fe3  1  0.50000000  0.50000000  0.50000000  1
  Fe  Fe4  1  0.66408000  0.33592000  0.25000000  1
  Fe  Fe5  1  0.33592000  0.66408000  0.75000000  1
  Fe  Fe6  1  0.00214500  0.99785500  0.85119300  1
  Fe  Fe7  1  0.99785500  0.00214500  0.14880700  1
  Fe  Fe8  1  0.00214500  0.99785500  0.64880700  1
  Fe  Fe9  1  0.99785500  0.00214500  0.35119300  1
  Sn  Sn10  1  0.50000000  0.00000000  0.00000000  1
  Sn  Sn11  1  0.00000000  0.50000000  0.00000000  1
  Sn  Sn12  1  0.50000000  0.00000000  0.50000000  1
  Sn  Sn13  1  0.00000000  0.50000000  0.50000000  1
  O  O14  1  0.84822600  0.15177400  0.25000000  1
  O  O15  1  0.15177400  0.84822600  0.75000000  1
  O  O16  1  0.65465700  0.82311400  0.08137100  1
  O  O17  1  0.82311400  0.65465700  0.91862900  1
  O  O18  1  0.65465700  0.82311400  0.41862900  1
  O  O19  1  0.82311400  0.65465700  0.58137100  1
  O  O20  1  0.34534300  0.17688600  0.91862900  1
  O  O21  1  0.17688600  0.34534300  0.08137100  1
  O  O22  1  0.34534300  0.17688600  0.58137100  1
  O  O23  1  0.17688600  0.34534300  0.41862900  1
  O  O24  1  0.66480300  0.33519700  0.41580200  1
  O  O25  1  0.33519700  0.66480300  0.58419800  1
  O  O26  1  0.66480300  0.33519700  0.08419800  1
  O  O27  1  0.33519700  0.66480300  0.91580200  1
  O  O28  1  0.82683000  0.17317000  0.58333300  1
  O  O29  1  0.17317000  0.82683000  0.41666700  1
  O  O30  1  0.82683000  0.17317000  0.91666700  1
  O  O31  1  0.17317000  0.82683000  0.08333300  1
  O  O32  1  0.69914100  0.85252100  0.75000000  1
  O  O33  1  0.85252100  0.69914100  0.25000000  1
  O  O34  1  0.30085900  0.14747900  0.25000000  1
  O  O35  1  0.14747900  0.30085900  0.75000000  1
