# generated using pymatgen
data_AlB2Pb6(OF)7
_symmetry_space_group_name_H-M   'P 1'
_cell_length_a   11.06595436
_cell_length_b   11.06595436
_cell_length_c   6.37499600
_cell_angle_alpha   90.00000000
_cell_angle_beta   90.00000000
_cell_angle_gamma   114.92163508
_symmetry_Int_Tables_number   1
_chemical_formula_structural   AlB2Pb6(OF)7
_chemical_formula_sum   'Al2 B4 Pb12 O14 F14'
_cell_volume   707.96187063
_cell_formula_units_Z   2
loop_
 _symmetry_equiv_pos_site_id
 _symmetry_equiv_pos_as_xyz
  1  'x, y, z'
loop_
 _atom_site_type_symbol
 _atom_site_label
 _atom_site_symmetry_multiplicity
 _atom_site_fract_x
 _atom_site_fract_y
 _atom_site_fract_z
 _atom_site_occupancy
  Al  Al0  1  0.25456200  0.74543800  0.52095900  1
  Al  Al1  1  0.74543800  0.25456200  0.02095900  1
  B  B2  1  0.75662300  0.75105100  0.24500100  1
  B  B3  1  0.24337700  0.24894900  0.74500100  1
  B  B4  1  0.75105100  0.75662300  0.74500100  1
  B  B5  1  0.24894900  0.24337700  0.24500100  1
  Pb  Pb6  1  0.94710900  0.05289100  0.99503700  1
  Pb  Pb7  1  0.56456300  0.43543700  0.02028900  1
  Pb  Pb8  1  0.05289100  0.94710900  0.49503700  1
  Pb  Pb9  1  0.43543700  0.56456300  0.52028900  1
  Pb  Pb10  1  0.97135600  0.68466900  0.99360400  1
  Pb  Pb11  1  0.19543900  0.49569800  0.96872900  1
  Pb  Pb12  1  0.68466900  0.97135600  0.49360400  1
  Pb  Pb13  1  0.49569800  0.19543900  0.46872900  1
  Pb  Pb14  1  0.50430200  0.80456100  0.96872900  1
  Pb  Pb15  1  0.31533100  0.02864400  0.99360400  1
  Pb  Pb16  1  0.80456100  0.50430200  0.46872900  1
  Pb  Pb17  1  0.02864400  0.31533100  0.49360400  1
  O  O18  1  0.81773700  0.67517500  0.75123000  1
  O  O19  1  0.18226300  0.32482500  0.25123000  1
  O  O20  1  0.67517500  0.81773700  0.25123000  1
  O  O21  1  0.32482500  0.18226300  0.75123000  1
  O  O22  1  0.89316000  0.82101000  0.20914100  1
  O  O23  1  0.29727600  0.38660700  0.76848200  1
  O  O24  1  0.82101000  0.89316000  0.70914100  1
  O  O25  1  0.38660700  0.29727600  0.26848200  1
  O  O26  1  0.61339300  0.70272400  0.76848200  1
  O  O27  1  0.17899000  0.10684000  0.20914100  1
  O  O28  1  0.70272400  0.61339300  0.26848200  1
  O  O29  1  0.10684000  0.17899000  0.70914100  1
  O  O30  1  0.32865800  0.67134200  0.72657100  1
  O  O31  1  0.67134200  0.32865800  0.22657100  1
  F  F32  1  0.09153500  0.68712500  0.65749600  1
  F  F33  1  0.19082700  0.58719700  0.36981900  1
  F  F34  1  0.68712500  0.09153500  0.15749500  1
  F  F35  1  0.58719700  0.19082700  0.86981900  1
  F  F36  1  0.41280300  0.80917300  0.36981900  1
  F  F37  1  0.31287500  0.90846500  0.65749600  1
  F  F38  1  0.80917300  0.41280300  0.86981900  1
  F  F39  1  0.90846500  0.31287500  0.15749600  1
  F  F40  1  0.08899400  0.91100600  0.89738700  1
  F  F41  1  0.41035800  0.58964200  0.10208300  1
  F  F42  1  0.91100600  0.08899400  0.39738700  1
  F  F43  1  0.58964200  0.41035800  0.60208300  1
  F  F44  1  0.18233500  0.81766500  0.31067200  1
  F  F45  1  0.81766500  0.18233500  0.81067200  1
