# generated using pymatgen
data_Ag4Sn2(HgSe3)3
_symmetry_space_group_name_H-M   'P 1'
_cell_length_a   7.57629700
_cell_length_b   7.58815512
_cell_length_c   10.69821618
_cell_angle_alpha   90.10087493
_cell_angle_beta   90.58399430
_cell_angle_gamma   119.77490420
_symmetry_Int_Tables_number   1
_chemical_formula_structural   Ag4Sn2(HgSe3)3
_chemical_formula_sum   'Ag4 Sn2 Hg3 Se9'
_cell_volume   533.80154654
_cell_formula_units_Z   1
loop_
 _symmetry_equiv_pos_site_id
 _symmetry_equiv_pos_as_xyz
  1  'x, y, z'
loop_
 _atom_site_type_symbol
 _atom_site_label
 _atom_site_symmetry_multiplicity
 _atom_site_fract_x
 _atom_site_fract_y
 _atom_site_fract_z
 _atom_site_occupancy
  Ag  Ag0  1  0.68197900  0.67570400  0.90199800  1
  Ag  Ag1  1  0.68800200  0.34419900  0.23859700  1
  Ag  Ag2  1  0.01120100  0.67878800  0.57949600  1
  Ag  Ag3  1  0.67859800  0.01059600  0.57930000  1
  Sn  Sn4  1  0.00807800  0.00635800  0.24189600  1
  Sn  Sn5  1  0.34673100  0.34668500  0.58776400  1
  Hg  Hg6  1  0.36592500  0.02052600  0.91374300  1
  Hg  Hg7  1  0.00586800  0.35702800  0.91420900  1
  Hg  Hg8  1  0.34575900  0.70108800  0.23001400  1
  Se  Se9  1  0.67363600  0.67316100  0.65340600  1
  Se  Se10  1  0.34398000  0.33812800  0.33203200  1
  Se  Se11  1  0.01046700  0.00922700  0.99870900  1
  Se  Se12  1  0.35693500  0.67842100  0.98523700  1
  Se  Se13  1  0.69403900  0.01801500  0.32844100  1
  Se  Se14  1  0.01752300  0.34561500  0.65527800  1
  Se  Se15  1  0.34575400  0.01742200  0.65484900  1
  Se  Se16  1  0.67993800  0.35666300  0.99493400  1
  Se  Se17  1  0.00958700  0.68637600  0.32810000  1
