# generated using pymatgen
data_Ba12Sm4Al3(CoO6)5
_symmetry_space_group_name_H-M   'P 1'
_cell_length_a   7.11338100
_cell_length_b   11.76475325
_cell_length_c   11.81383887
_cell_angle_alpha   119.63621119
_cell_angle_beta   90.67744310
_cell_angle_gamma   90.62647571
_symmetry_Int_Tables_number   1
_chemical_formula_structural   Ba12Sm4Al3(CoO6)5
_chemical_formula_sum   'Ba12 Sm4 Al3 Co5 O30'
_cell_volume   859.11169868
_cell_formula_units_Z   1
loop_
 _symmetry_equiv_pos_site_id
 _symmetry_equiv_pos_as_xyz
  1  'x, y, z'
loop_
 _atom_site_type_symbol
 _atom_site_label
 _atom_site_symmetry_multiplicity
 _atom_site_fract_x
 _atom_site_fract_y
 _atom_site_fract_z
 _atom_site_occupancy
  Ba  Ba0  1  0.99883700  0.66415500  0.34004800  1
  Ba  Ba1  1  0.51589400  0.33660900  0.66547600  1
  Ba  Ba2  1  0.49994000  0.99653600  0.99716300  1
  Ba  Ba3  1  0.01163500  0.99697700  0.99852200  1
  Ba  Ba4  1  0.32080600  0.34231500  0.17433500  1
  Ba  Ba5  1  0.33115100  0.82408100  0.64946100  1
  Ba  Ba6  1  0.32500200  0.83013600  0.18349400  1
  Ba  Ba7  1  0.82729200  0.65059100  0.82358000  1
  Ba  Ba8  1  0.82375500  0.17547400  0.34454700  1
  Ba  Ba9  1  0.82628300  0.18175600  0.82769200  1
  Ba  Ba10  1  0.65976100  0.95550200  0.47931800  1
  Ba  Ba11  1  0.15723500  0.47751400  0.95303200  1
  Sm  Sm12  1  0.65543500  0.52416700  0.04194700  1
  Sm  Sm13  1  0.64915000  0.52106800  0.47878800  1
  Sm  Sm14  1  0.16372800  0.04792200  0.52282300  1
  Sm  Sm15  1  0.14453300  0.47853000  0.52078500  1
  Al  Al16  1  0.33486200  0.63576900  0.81391800  1
  Al  Al17  1  0.32218900  0.18660800  0.36100300  1
  Al  Al18  1  0.33067400  0.18296300  0.82215600  1
  Co  Co19  1  0.45949100  0.66221800  0.33569800  1
  Co  Co20  1  0.97538400  0.33969400  0.66615900  1
  Co  Co21  1  0.81479800  0.35415200  0.17987100  1
  Co  Co22  1  0.83945400  0.82531800  0.64549400  1
  Co  Co23  1  0.82965500  0.82524000  0.18193800  1
  O  O24  1  0.42933200  0.07486900  0.40000400  1
  O  O25  1  0.47687800  0.32154900  0.92829600  1
  O  O26  1  0.46095400  0.60044300  0.67053700  1
  O  O27  1  0.44560600  0.06937900  0.67992700  1
  O  O28  1  0.45762000  0.33002900  0.39972500  1
  O  O29  1  0.47468400  0.60245200  0.92085200  1
  O  O30  1  0.98495600  0.92779500  0.60384500  1
  O  O31  1  0.92691800  0.66818000  0.05799500  1
  O  O32  1  0.94895800  0.40252300  0.33869700  1
  O  O33  1  0.98158900  0.93606000  0.32855100  1
  O  O34  1  0.96108100  0.66256700  0.59547600  1
  O  O35  1  0.92061400  0.40486000  0.07155100  1
  O  O36  1  0.31257900  0.82974200  0.41718700  1
  O  O37  1  0.33731800  0.58643500  0.17611600  1
  O  O38  1  0.31914600  0.57964000  0.42160100  1
  O  O39  1  0.84346600  0.18230400  0.58766000  1
  O  O40  1  0.81324400  0.41294400  0.82721600  1
  O  O41  1  0.82301500  0.41769000  0.57985700  1
  O  O42  1  0.63715600  0.49140800  0.25788100  1
  O  O43  1  0.65046700  0.73568900  0.50250500  1
  O  O44  1  0.65622800  0.73959100  0.24039100  1
  O  O45  1  0.15313400  0.50537400  0.73838500  1
  O  O46  1  0.14816100  0.25198100  0.48627500  1
  O  O47  1  0.15851500  0.23607900  0.74312900  1
  O  O48  1  0.23978100  0.79364900  0.89566500  1
  O  O49  1  0.24319700  0.10990900  0.19754700  1
  O  O50  1  0.23261400  0.11474300  0.91231100  1
  O  O51  1  0.74621700  0.18458000  0.10521400  1
  O  O52  1  0.73638800  0.89737300  0.80352000  1
  O  O53  1  0.73904200  0.91487000  0.10483600  1
