# generated using pymatgen
data_CeNb3O9
_symmetry_space_group_name_H-M   'P 1'
_cell_length_a   9.81725264
_cell_length_b   9.81725264
_cell_length_c   11.33322632
_cell_angle_alpha   72.95180029
_cell_angle_beta   72.95180029
_cell_angle_gamma   47.46196214
_symmetry_Int_Tables_number   1
_chemical_formula_structural   CeNb3O9
_chemical_formula_sum   'Ce4 Nb12 O36'
_cell_volume   762.43336292
_cell_formula_units_Z   4
loop_
 _symmetry_equiv_pos_site_id
 _symmetry_equiv_pos_as_xyz
  1  'x, y, z'
loop_
 _atom_site_type_symbol
 _atom_site_label
 _atom_site_symmetry_multiplicity
 _atom_site_fract_x
 _atom_site_fract_y
 _atom_site_fract_z
 _atom_site_occupancy
  Ce  Ce0  1  0.50000000  0.50000000  0.00000000  1
  Ce  Ce1  1  0.00000000  0.00000000  0.00000000  1
  Ce  Ce2  1  0.66870200  0.66870200  0.66185700  1
  Ce  Ce3  1  0.33129800  0.33129800  0.33814300  1
  Nb  Nb4  1  0.58442100  0.08427800  0.58399000  1
  Nb  Nb5  1  0.92467400  0.41804300  0.91598900  1
  Nb  Nb6  1  0.24957300  0.75636000  0.25795100  1
  Nb  Nb7  1  0.91572200  0.41557900  0.41601000  1
  Nb  Nb8  1  0.24364000  0.75042700  0.74204900  1
  Nb  Nb9  1  0.58195700  0.07532600  0.08401100  1
  Nb  Nb10  1  0.75042700  0.24364000  0.74204900  1
  Nb  Nb11  1  0.07532600  0.58195700  0.08401100  1
  Nb  Nb12  1  0.41557900  0.91572200  0.41601000  1
  Nb  Nb13  1  0.75636000  0.24957300  0.25795100  1
  Nb  Nb14  1  0.08427800  0.58442100  0.58399000  1
  Nb  Nb15  1  0.41804300  0.92467400  0.91598900  1
  O  O16  1  0.66574200  0.16624700  0.66598800  1
  O  O17  1  0.00000000  0.50000000  0.00000000  1
  O  O18  1  0.33425800  0.83375300  0.33401200  1
  O  O19  1  0.83375300  0.33425800  0.33401200  1
  O  O20  1  0.16624700  0.66574200  0.66598800  1
  O  O21  1  0.50000000  0.00000000  0.00000000  1
  O  O22  1  0.82084900  0.33612200  0.84326000  1
  O  O23  1  0.17915100  0.66387800  0.15674000  1
  O  O24  1  0.50000000  0.00000000  0.50000000  1
  O  O25  1  0.66387800  0.17915100  0.15674000  1
  O  O26  1  0.00000000  0.50000000  0.50000000  1
  O  O27  1  0.33612200  0.82084900  0.84326000  1
  O  O28  1  0.82353300  0.82353300  0.57871600  1
  O  O29  1  0.15694800  0.15694800  0.91321800  1
  O  O30  1  0.49133800  0.49133800  0.23368800  1
  O  O31  1  0.99431500  0.99431500  0.23780600  1
  O  O32  1  0.32690900  0.32690900  0.57185700  1
  O  O33  1  0.65318600  0.65318600  0.91058600  1
  O  O34  1  0.00568500  0.00568500  0.76219400  1
  O  O35  1  0.34681400  0.34681400  0.08941400  1
  O  O36  1  0.67309100  0.67309100  0.42814300  1
  O  O37  1  0.17646700  0.17646700  0.42128400  1
  O  O38  1  0.50866200  0.50866200  0.76631200  1
  O  O39  1  0.84305200  0.84305200  0.08678200  1
  O  O40  1  0.82931300  0.32220700  0.07664800  1
  O  O41  1  0.51228300  0.97671300  0.74656400  1
  O  O42  1  0.18041300  0.64453300  0.41010600  1
  O  O43  1  0.32220700  0.82931300  0.07664800  1
  O  O44  1  0.97671300  0.51228300  0.74656400  1
  O  O45  1  0.64453300  0.18041300  0.41010600  1
  O  O46  1  0.48771700  0.02328700  0.25343600  1
  O  O47  1  0.17068700  0.67779300  0.92335200  1
  O  O48  1  0.81958700  0.35546700  0.58989400  1
  O  O49  1  0.02328700  0.48771700  0.25343600  1
  O  O50  1  0.67779300  0.17068700  0.92335200  1
  O  O51  1  0.35546700  0.81958700  0.58989400  1
