# generated using pymatgen
data_Dy2MgS4
_symmetry_space_group_name_H-M   'P 1'
_cell_length_a   13.51628200
_cell_length_b   7.90635900
_cell_length_c   6.52759600
_cell_angle_alpha   90.00000000
_cell_angle_beta   90.00000000
_cell_angle_gamma   90.00000000
_symmetry_Int_Tables_number   1
_chemical_formula_structural   Dy2MgS4
_chemical_formula_sum   'Dy8 Mg4 S16'
_cell_volume   697.56879083
_cell_formula_units_Z   4
loop_
 _symmetry_equiv_pos_site_id
 _symmetry_equiv_pos_as_xyz
  1  'x, y, z'
loop_
 _atom_site_type_symbol
 _atom_site_label
 _atom_site_symmetry_multiplicity
 _atom_site_fract_x
 _atom_site_fract_y
 _atom_site_fract_z
 _atom_site_occupancy
  Dy  Dy0  1  0.00000000  0.00000000  0.50000000  1
  Dy  Dy1  1  0.50000000  0.00000000  0.00000000  1
  Dy  Dy2  1  0.50000000  0.50000000  0.00000000  1
  Dy  Dy3  1  0.00000000  0.50000000  0.50000000  1
  Dy  Dy4  1  0.23232400  0.75000000  0.99945500  1
  Dy  Dy5  1  0.76767600  0.25000000  0.00054500  1
  Dy  Dy6  1  0.26767600  0.25000000  0.49945500  1
  Dy  Dy7  1  0.73232400  0.75000000  0.50054500  1
  Mg  Mg8  1  0.09328800  0.25000000  0.92244900  1
  Mg  Mg9  1  0.90671200  0.75000000  0.07755100  1
  Mg  Mg10  1  0.40671200  0.75000000  0.42244900  1
  Mg  Mg11  1  0.59328800  0.25000000  0.57755100  1
  S  S12  1  0.16873400  0.00928800  0.74119700  1
  S  S13  1  0.83126600  0.99071200  0.25880300  1
  S  S14  1  0.33126600  0.99071200  0.24119700  1
  S  S15  1  0.66873400  0.00928800  0.75880300  1
  S  S16  1  0.66873400  0.49071200  0.75880300  1
  S  S17  1  0.33126600  0.50928800  0.24119700  1
  S  S18  1  0.83126600  0.50928800  0.25880300  1
  S  S19  1  0.16873400  0.49071200  0.74119700  1
  S  S20  1  0.07059800  0.75000000  0.24772000  1
  S  S21  1  0.92940100  0.25000000  0.75228000  1
  S  S22  1  0.42940100  0.25000000  0.74772000  1
  S  S23  1  0.57059900  0.75000000  0.25228000  1
  S  S24  1  0.09168600  0.25000000  0.28968700  1
  S  S25  1  0.90831400  0.75000000  0.71031300  1
  S  S26  1  0.40831400  0.75000000  0.78968700  1
  S  S27  1  0.59168600  0.25000000  0.21031300  1
