# generated using pymatgen
data_Ce8Ag6Ge8O
_symmetry_space_group_name_H-M   'P 1'
_cell_length_a   4.39935589
_cell_length_b   11.09072332
_cell_length_c   20.69768106
_cell_angle_alpha   90.00000000
_cell_angle_beta   90.00000000
_cell_angle_gamma   90.00000000
_symmetry_Int_Tables_number   1
_chemical_formula_structural   Ce8Ag6Ge8O
_chemical_formula_sum   'Ce16 Ag12 Ge16 O2'
_cell_volume   1009.88206071
_cell_formula_units_Z   2
loop_
 _symmetry_equiv_pos_site_id
 _symmetry_equiv_pos_as_xyz
  1  'x, y, z'
loop_
 _atom_site_type_symbol
 _atom_site_label
 _atom_site_symmetry_multiplicity
 _atom_site_fract_x
 _atom_site_fract_y
 _atom_site_fract_z
 _atom_site_occupancy
  Ce  Ce0  1  0.25000000  0.70642236  0.34926123  1
  Ce  Ce1  1  0.25000000  0.79357764  0.84926123  1
  Ce  Ce2  1  0.75000000  0.28914170  0.65058418  1
  Ce  Ce3  1  0.75000000  0.21085830  0.15058418  1
  Ce  Ce4  1  0.25000000  0.13243120  0.89510243  1
  Ce  Ce5  1  0.25000000  0.36756880  0.39510243  1
  Ce  Ce6  1  0.75000000  0.86685622  0.10448995  1
  Ce  Ce7  1  0.75000000  0.63314378  0.60448995  1
  Ce  Ce8  1  0.25000000  0.13075829  0.53476016  1
  Ce  Ce9  1  0.25000000  0.36924171  0.03476016  1
  Ce  Ce10  1  0.75000000  0.87086440  0.46849981  1
  Ce  Ce11  1  0.75000000  0.62913560  0.96849981  1
  Ce  Ce12  1  0.25000000  0.04662390  0.71258741  1
  Ce  Ce13  1  0.25000000  0.45337610  0.21258741  1
  Ce  Ce14  1  0.75000000  0.95801698  0.28386805  1
  Ce  Ce15  1  0.75000000  0.54198302  0.78386805  1
  Ag  Ag16  1  0.25000000  0.65405134  0.09498624  1
  Ag  Ag17  1  0.25000000  0.84594866  0.59498624  1
  Ag  Ag18  1  0.75000000  0.34773363  0.90507366  1
  Ag  Ag19  1  0.75000000  0.15226637  0.40507366  1
  Ag  Ag20  1  0.25000000  0.33307373  0.78167870  1
  Ag  Ag21  1  0.25000000  0.16692627  0.28167870  1
  Ag  Ag22  1  0.75000000  0.67027500  0.22148260  1
  Ag  Ag23  1  0.75000000  0.82972500  0.72148260  1
  Ag  Ag24  1  0.25000000  0.05623111  0.04543792  1
  Ag  Ag25  1  0.25000000  0.44376889  0.54543792  1
  Ag  Ag26  1  0.75000000  0.93890973  0.95278097  1
  Ag  Ag27  1  0.75000000  0.56109027  0.45278097  1
  Ge  Ge28  1  0.25000000  0.01490655  0.17688083  1
  Ge  Ge29  1  0.25000000  0.48509345  0.67688083  1
  Ge  Ge30  1  0.75000000  0.97914801  0.82404141  1
  Ge  Ge31  1  0.75000000  0.52085199  0.32404141  1
  Ge  Ge32  1  0.25000000  0.49479160  0.89146591  1
  Ge  Ge33  1  0.25000000  0.00520840  0.39146591  1
  Ge  Ge34  1  0.75000000  0.52054506  0.10732454  1
  Ge  Ge35  1  0.75000000  0.97945494  0.60732454  1
  Ge  Ge36  1  0.25000000  0.79841023  0.21134759  1
  Ge  Ge37  1  0.25000000  0.70158977  0.71134759  1
  Ge  Ge38  1  0.75000000  0.20111750  0.78932971  1
  Ge  Ge39  1  0.75000000  0.29888250  0.28932971  1
  Ge  Ge40  1  0.25000000  0.81799047  0.99682608  1
  Ge  Ge41  1  0.25000000  0.68200953  0.49682608  1
  Ge  Ge42  1  0.75000000  0.18025552  0.00247293  1
  Ge  Ge43  1  0.75000000  0.31974448  0.50247293  1
  O  O44  1  0.25000000  0.19906306  0.63871768  1
  O  O45  1  0.25000000  0.30093694  0.13871768  1
