# generated using pymatgen
data_Mg(ScS2)2
_symmetry_space_group_name_H-M   'P 1'
_cell_length_a   7.70540200
_cell_length_b   7.22156700
_cell_length_c   10.73463200
_cell_angle_alpha   90.00000000
_cell_angle_beta   90.00000000
_cell_angle_gamma   90.00000000
_symmetry_Int_Tables_number   1
_chemical_formula_structural   Mg(ScS2)2
_chemical_formula_sum   'Mg4 Sc8 S16'
_cell_volume   597.32942211
_cell_formula_units_Z   4
loop_
 _symmetry_equiv_pos_site_id
 _symmetry_equiv_pos_as_xyz
  1  'x, y, z'
loop_
 _atom_site_type_symbol
 _atom_site_label
 _atom_site_symmetry_multiplicity
 _atom_site_fract_x
 _atom_site_fract_y
 _atom_site_fract_z
 _atom_site_occupancy
  Mg  Mg0  1  0.17133100  0.25000000  0.39134300  1
  Mg  Mg1  1  0.82866900  0.75000000  0.60865700  1
  Mg  Mg2  1  0.32866900  0.75000000  0.89134300  1
  Mg  Mg3  1  0.67133100  0.25000000  0.10865700  1
  Sc  Sc4  1  0.03001800  0.75000000  0.29998200  1
  Sc  Sc5  1  0.96998200  0.25000000  0.70001800  1
  Sc  Sc6  1  0.46998200  0.25000000  0.79998200  1
  Sc  Sc7  1  0.53001800  0.75000000  0.20001800  1
  Sc  Sc8  1  0.06193800  0.25000000  0.00758700  1
  Sc  Sc9  1  0.93806200  0.75000000  0.99241300  1
  Sc  Sc10  1  0.43806200  0.75000000  0.50758700  1
  Sc  Sc11  1  0.56193800  0.25000000  0.49241300  1
  S  S12  1  0.09781900  0.51653300  0.83946300  1
  S  S13  1  0.90218100  0.48346700  0.16053700  1
  S  S14  1  0.40218100  0.48346700  0.33946300  1
  S  S15  1  0.59781900  0.51653300  0.66053700  1
  S  S16  1  0.59781900  0.98346700  0.66053700  1
  S  S17  1  0.40218100  0.01653300  0.33946300  1
  S  S18  1  0.90218100  0.01653300  0.16053700  1
  S  S19  1  0.09781900  0.98346700  0.83946300  1
  S  S20  1  0.88129300  0.25000000  0.47405400  1
  S  S21  1  0.11870700  0.75000000  0.52594600  1
  S  S22  1  0.61870700  0.75000000  0.97405400  1
  S  S23  1  0.38129300  0.25000000  0.02594600  1
  S  S24  1  0.23036000  0.75000000  0.11317600  1
  S  S25  1  0.76964000  0.25000000  0.88682400  1
  S  S26  1  0.26964000  0.25000000  0.61317600  1
  S  S27  1  0.73036000  0.75000000  0.38682400  1
