# generated using pymatgen
data_InSe2
_symmetry_space_group_name_H-M   'P 1'
_cell_length_a   3.89489300
_cell_length_b   3.89489300
_cell_length_c   9.62623100
_cell_angle_alpha   90.00000000
_cell_angle_beta   90.00000000
_cell_angle_gamma   90.00000000
_symmetry_Int_Tables_number   1
_chemical_formula_structural   InSe2
_chemical_formula_sum   'In2 Se4'
_cell_volume   146.03176751
_cell_formula_units_Z   2
loop_
 _symmetry_equiv_pos_site_id
 _symmetry_equiv_pos_as_xyz
  1  'x, y, z'
loop_
 _atom_site_type_symbol
 _atom_site_label
 _atom_site_symmetry_multiplicity
 _atom_site_fract_x
 _atom_site_fract_y
 _atom_site_fract_z
 _atom_site_occupancy
  In  In0  1  0.00000000  0.50000000  0.70646800  1
  In  In1  1  0.50000000  0.00000000  0.29353200  1
  Se  Se2  1  0.00000000  0.50000000  0.36621200  1
  Se  Se3  1  0.50000000  0.00000000  0.63378800  1
  Se  Se4  1  0.00000000  0.00000000  0.00000000  1
  Se  Se5  1  0.50000000  0.50000000  0.00000000  1
