# generated using pymatgen
data_Tb2MgS4
_symmetry_space_group_name_H-M   'P 1'
_cell_length_a   7.96763300
_cell_length_b   7.28631800
_cell_length_c   11.48953400
_cell_angle_alpha   90.00000000
_cell_angle_beta   90.00000000
_cell_angle_gamma   90.00000000
_symmetry_Int_Tables_number   1
_chemical_formula_structural   Tb2MgS4
_chemical_formula_sum   'Tb8 Mg4 S16'
_cell_volume   667.02153850
_cell_formula_units_Z   4
loop_
 _symmetry_equiv_pos_site_id
 _symmetry_equiv_pos_as_xyz
  1  'x, y, z'
loop_
 _atom_site_type_symbol
 _atom_site_label
 _atom_site_symmetry_multiplicity
 _atom_site_fract_x
 _atom_site_fract_y
 _atom_site_fract_z
 _atom_site_occupancy
  Tb  Tb0  1  0.04106200  0.75000000  0.30873300  1
  Tb  Tb1  1  0.95893800  0.25000000  0.69126700  1
  Tb  Tb2  1  0.45893800  0.25000000  0.80873300  1
  Tb  Tb3  1  0.54106200  0.75000000  0.19126700  1
  Tb  Tb4  1  0.07311300  0.25000000  0.02160300  1
  Tb  Tb5  1  0.92688700  0.75000000  0.97839700  1
  Tb  Tb6  1  0.42688700  0.75000000  0.52160300  1
  Tb  Tb7  1  0.57311300  0.25000000  0.47839700  1
  Mg  Mg8  1  0.18157800  0.25000000  0.40862200  1
  Mg  Mg9  1  0.81842200  0.75000000  0.59137800  1
  Mg  Mg10  1  0.31842200  0.75000000  0.90862200  1
  Mg  Mg11  1  0.68157800  0.25000000  0.09137800  1
  S  S12  1  0.13059000  0.50117700  0.84311400  1
  S  S13  1  0.86941000  0.49882300  0.15688600  1
  S  S14  1  0.36941000  0.49882300  0.34311400  1
  S  S15  1  0.63059000  0.50117700  0.65688600  1
  S  S16  1  0.63059000  0.99882300  0.65688600  1
  S  S17  1  0.36941000  0.00117700  0.34311400  1
  S  S18  1  0.86941000  0.00117700  0.15688600  1
  S  S19  1  0.13059000  0.99882300  0.84311400  1
  S  S20  1  0.89683200  0.25000000  0.45586400  1
  S  S21  1  0.10316800  0.75000000  0.54413600  1
  S  S22  1  0.60316800  0.75000000  0.95586400  1
  S  S23  1  0.39683200  0.25000000  0.04413600  1
  S  S24  1  0.22030200  0.75000000  0.10947000  1
  S  S25  1  0.77969800  0.25000000  0.89053000  1
  S  S26  1  0.27969800  0.25000000  0.60947000  1
  S  S27  1  0.72030200  0.75000000  0.39053000  1
