# generated using pymatgen
data_HoMgS3
_symmetry_space_group_name_H-M   'P 1'
_cell_length_a   6.96737106
_cell_length_b   6.96737106
_cell_length_c   6.64903896
_cell_angle_alpha   76.85721342
_cell_angle_beta   76.85721342
_cell_angle_gamma   118.93262828
_symmetry_Int_Tables_number   1
_chemical_formula_structural   HoMgS3
_chemical_formula_sum   'Ho2 Mg2 S6'
_cell_volume   252.61578468
_cell_formula_units_Z   2
loop_
 _symmetry_equiv_pos_site_id
 _symmetry_equiv_pos_as_xyz
  1  'x, y, z'
loop_
 _atom_site_type_symbol
 _atom_site_label
 _atom_site_symmetry_multiplicity
 _atom_site_fract_x
 _atom_site_fract_y
 _atom_site_fract_z
 _atom_site_occupancy
  Ho  Ho0  1  0.19792700  0.19792700  0.67866300  1
  Ho  Ho1  1  0.80207300  0.80207300  0.32133700  1
  Mg  Mg2  1  0.33752600  0.66247400  0.00000000  1
  Mg  Mg3  1  0.66247400  0.33752600  0.00000000  1
  S  S4  1  0.11300200  0.77622100  0.80102500  1
  S  S5  1  0.88699800  0.22377900  0.19897500  1
  S  S6  1  0.22377900  0.88699800  0.19897500  1
  S  S7  1  0.77622100  0.11300200  0.80102500  1
  S  S8  1  0.46724900  0.46724900  0.25660900  1
  S  S9  1  0.53275100  0.53275100  0.74339100  1
