# generated using pymatgen
data_PrMgSe3
_symmetry_space_group_name_H-M   'P 1'
_cell_length_a   7.37673564
_cell_length_b   7.37673564
_cell_length_c   6.88559159
_cell_angle_alpha   76.46579677
_cell_angle_beta   76.46579677
_cell_angle_gamma   115.88671336
_symmetry_Int_Tables_number   1
_chemical_formula_structural   PrMgSe3
_chemical_formula_sum   'Pr2 Mg2 Se6'
_cell_volume   302.55383843
_cell_formula_units_Z   2
loop_
 _symmetry_equiv_pos_site_id
 _symmetry_equiv_pos_as_xyz
  1  'x, y, z'
loop_
 _atom_site_type_symbol
 _atom_site_label
 _atom_site_symmetry_multiplicity
 _atom_site_fract_x
 _atom_site_fract_y
 _atom_site_fract_z
 _atom_site_occupancy
  Pr  Pr0  1  0.80620000  0.80620000  0.31372900  1
  Pr  Pr1  1  0.19380000  0.19380000  0.68627100  1
  Mg  Mg2  1  0.33257400  0.66742600  0.00000000  1
  Mg  Mg3  1  0.66742600  0.33257400  0.00000000  1
  Se  Se4  1  0.24083500  0.89511600  0.21688800  1
  Se  Se5  1  0.75916500  0.10488400  0.78311200  1
  Se  Se6  1  0.10488400  0.75916500  0.78311200  1
  Se  Se7  1  0.89511600  0.24083500  0.21688800  1
  Se  Se8  1  0.52911500  0.52911500  0.74860500  1
  Se  Se9  1  0.47088500  0.47088500  0.25139500  1
