# generated using pymatgen
data_Ba4Se4S16O31
_symmetry_space_group_name_H-M   'P 1'
_cell_length_a   10.73412100
_cell_length_b   5.33383800
_cell_length_c   22.14767051
_cell_angle_alpha   89.93004263
_cell_angle_beta   90.00000000
_cell_angle_gamma   90.00000000
_symmetry_Int_Tables_number   1
_chemical_formula_structural   Ba4Se4S16O31
_chemical_formula_sum   'Ba4 Se4 S16 O31'
_cell_volume   1268.04316604
_cell_formula_units_Z   1
loop_
 _symmetry_equiv_pos_site_id
 _symmetry_equiv_pos_as_xyz
  1  'x, y, z'
loop_
 _atom_site_type_symbol
 _atom_site_label
 _atom_site_symmetry_multiplicity
 _atom_site_fract_x
 _atom_site_fract_y
 _atom_site_fract_z
 _atom_site_occupancy
  Ba  Ba0  1  0.50000000  0.70416800  0.54420300  1
  Ba  Ba1  1  0.50000000  0.20678200  0.95327800  1
  Ba  Ba2  1  0.00000000  0.29407700  0.45457000  1
  Ba  Ba3  1  0.00000000  0.79440900  0.04582800  1
  Se  Se4  1  0.50000000  0.05434500  0.33046500  1
  Se  Se5  1  0.50000000  0.55533200  0.16848300  1
  Se  Se6  1  0.00000000  0.94585700  0.66943800  1
  Se  Se7  1  0.00000000  0.44520200  0.83105000  1
  S  S8  1  0.25824200  0.80998600  0.40930300  1
  S  S9  1  0.74202000  0.31000800  0.09037600  1
  S  S10  1  0.75689000  0.19137600  0.59077500  1
  S  S11  1  0.24190800  0.68986200  0.90954700  1
  S  S12  1  0.24311000  0.19137600  0.59077500  1
  S  S13  1  0.75809200  0.68986200  0.90954700  1
  S  S14  1  0.74175800  0.80998600  0.40930300  1
  S  S15  1  0.25798000  0.31000800  0.09037600  1
  S  S16  1  0.33596500  0.81197600  0.31819000  1
  S  S17  1  0.66390300  0.31311300  0.18158900  1
  S  S18  1  0.83621200  0.18954900  0.68131100  1
  S  S19  1  0.16393800  0.68777600  0.81846900  1
  S  S20  1  0.16378800  0.18954900  0.68131100  1
  S  S21  1  0.83606200  0.68777600  0.81846900  1
  S  S22  1  0.66403500  0.81197600  0.31819000  1
  S  S23  1  0.33609700  0.31311300  0.18158900  1
  O  O24  1  0.34996400  0.67860600  0.44638200  1
  O  O25  1  0.65073600  0.17822600  0.05341400  1
  O  O26  1  0.84820900  0.31815400  0.55268300  1
  O  O27  1  0.15067700  0.82155400  0.94656200  1
  O  O28  1  0.15179100  0.31815400  0.55268300  1
  O  O29  1  0.84932300  0.82155400  0.94656200  1
  O  O30  1  0.65003600  0.67860600  0.44638200  1
  O  O31  1  0.34926400  0.17822600  0.05341400  1
  O  O32  1  0.23787800  0.07216400  0.42540800  1
  O  O33  1  0.76240400  0.57247100  0.07432700  1
  O  O34  1  0.73324100  0.92921000  0.57535900  1
  O  O35  1  0.26234200  0.42749000  0.92569700  1
  O  O36  1  0.26675900  0.92921000  0.57535900  1
  O  O37  1  0.73765800  0.42749000  0.92569700  1
  O  O38  1  0.76212200  0.07216400  0.42540800  1
  O  O39  1  0.23759600  0.57247100  0.07432700  1
  O  O40  1  0.50000000  0.20503500  0.49459000  1
  O  O41  1  0.50000000  0.70142100  0.00921200  1
  O  O42  1  0.00000000  0.79638000  0.50775200  1
  O  O43  1  0.00000000  0.29665700  0.99228100  1
  O  O44  1  0.14359300  0.66825300  0.39784400  1
  O  O45  1  0.85702100  0.16923100  0.10223700  1
  O  O46  1  0.64324400  0.33698600  0.60253100  1
  O  O47  1  0.35696900  0.83081100  0.89783800  1
  O  O48  1  0.35675600  0.33698600  0.60253100  1
  O  O49  1  0.64303100  0.83081100  0.89783800  1
  O  O50  1  0.85640700  0.66825300  0.39784400  1
  O  O51  1  0.14297900  0.16923100  0.10223700  1
  O  O52  1  0.50000000  0.35088600  0.82680400  1
  O  O53  1  0.00000000  0.14849000  0.32544300  1
  O  O54  1  0.00000000  0.64835500  0.17462000  1
