# generated using pymatgen
data_Al4Fe2CuP4(H8O13)2
_symmetry_space_group_name_H-M   'P 1'
_cell_length_a   7.61284500
_cell_length_b   7.69315990
_cell_length_c   9.88402495
_cell_angle_alpha   92.40454510
_cell_angle_beta   110.29259796
_cell_angle_gamma   114.49957909
_symmetry_Int_Tables_number   1
_chemical_formula_structural   Al4Fe2CuP4(H8O13)2
_chemical_formula_sum   'Al4 Fe2 Cu1 P4 H16 O26'
_cell_volume   482.21684902
_cell_formula_units_Z   1
loop_
 _symmetry_equiv_pos_site_id
 _symmetry_equiv_pos_as_xyz
  1  'x, y, z'
loop_
 _atom_site_type_symbol
 _atom_site_label
 _atom_site_symmetry_multiplicity
 _atom_site_fract_x
 _atom_site_fract_y
 _atom_site_fract_z
 _atom_site_occupancy
  Al  Al0  1  0.05718000  0.27186000  0.25526800  1
  Al  Al1  1  0.94282000  0.72814000  0.74473200  1
  Al  Al2  1  0.55165000  0.76125000  0.72328800  1
  Al  Al3  1  0.44835000  0.23875000  0.27671200  1
  Fe  Fe4  1  0.26120100  0.25097300  0.75092100  1
  Fe  Fe5  1  0.73879900  0.74902700  0.24907900  1
  Cu  Cu6  1  0.00000000  0.00000000  0.00000000  1
  P  P7  1  0.67344000  0.34905100  0.05486400  1
  P  P8  1  0.32656000  0.65094900  0.94513600  1
  P  P9  1  0.14019700  0.82586000  0.56162400  1
  P  P10  1  0.85980300  0.17414000  0.43837600  1
  H  H11  1  0.26228000  0.63529500  0.42109600  1
  H  H12  1  0.73772000  0.36470500  0.57890400  1
  H  H13  1  0.27069800  0.14947000  0.45966800  1
  H  H14  1  0.72930200  0.85053000  0.54033200  1
  H  H15  1  0.73460900  0.98011200  0.08291700  1
  H  H16  1  0.26539100  0.01988800  0.91708300  1
  H  H17  1  0.33471100  0.43539500  0.56243700  1
  H  H18  1  0.66528900  0.56460500  0.43756300  1
  H  H19  1  0.61630200  0.42603000  0.66611700  1
  H  H20  1  0.38369800  0.57397000  0.33388300  1
  H  H21  1  0.19998400  0.87128400  0.27048400  1
  H  H22  1  0.80001600  0.12871600  0.72951600  1
  H  H23  1  0.76952400  0.65904100  0.94435000  1
  H  H24  1  0.23047600  0.34095900  0.05565000  1
  H  H25  1  0.65732400  0.13774300  0.81665300  1
  H  H26  1  0.34267600  0.86225700  0.18334700  1
  O  O27  1  0.79968500  0.74306300  0.87222500  1
  O  O28  1  0.20031500  0.25693700  0.12777500  1
  O  O29  1  0.32108700  0.76384800  0.57457100  1
  O  O30  1  0.67891300  0.23615200  0.42542900  1
  O  O31  1  0.01592400  0.77557700  0.38700100  1
  O  O32  1  0.98407600  0.22442300  0.61299900  1
  O  O33  1  0.55565900  0.26916800  0.88473400  1
  O  O34  1  0.44434100  0.73083200  0.11526600  1
  O  O35  1  0.41764100  0.47696400  0.66954500  1
  O  O36  1  0.58235900  0.52303600  0.33045500  1
  O  O37  1  0.72791800  0.56936600  0.08926700  1
  O  O38  1  0.27208200  0.43063400  0.91073300  1
  O  O39  1  0.47235900  0.77852500  0.87457300  1
  O  O40  1  0.52764100  0.22147500  0.12542700  1
  O  O41  1  0.27765000  0.22337200  0.37955900  1
  O  O42  1  0.72235000  0.77662800  0.62044100  1
  O  O43  1  0.86974500  0.98860200  0.15022800  1
  O  O44  1  0.13025500  0.01139800  0.84977200  1
  O  O45  1  0.71772800  0.05690800  0.78515200  1
  O  O46  1  0.28227200  0.94309200  0.21484800  1
  O  O47  1  0.25663900  0.05841600  0.60685200  1
  O  O48  1  0.74336100  0.94158400  0.39314800  1
  O  O49  1  0.87566000  0.32705500  0.10939200  1
  O  O50  1  0.12434000  0.67294500  0.89060800  1
  O  O51  1  0.24190500  0.54878600  0.33062100  1
  O  O52  1  0.75809500  0.45121400  0.66937900  1
