# generated using pymatgen
data_Sm2MgSe4
_symmetry_space_group_name_H-M   'P 1'
_cell_length_a   7.64662131
_cell_length_b   7.64662131
_cell_length_c   7.64662131
_cell_angle_alpha   110.75438954
_cell_angle_beta   110.75438954
_cell_angle_gamma   106.93428234
_symmetry_Int_Tables_number   1
_chemical_formula_structural   Sm2MgSe4
_chemical_formula_sum   'Sm4 Mg2 Se8'
_cell_volume   343.67770452
_cell_formula_units_Z   2
loop_
 _symmetry_equiv_pos_site_id
 _symmetry_equiv_pos_as_xyz
  1  'x, y, z'
loop_
 _atom_site_type_symbol
 _atom_site_label
 _atom_site_symmetry_multiplicity
 _atom_site_fract_x
 _atom_site_fract_y
 _atom_site_fract_z
 _atom_site_occupancy
  Sm  Sm0  1  0.87500000  0.75624300  0.38124300  1
  Sm  Sm1  1  0.50624300  0.12500000  0.88124300  1
  Sm  Sm2  1  0.37500000  0.49375700  0.61875700  1
  Sm  Sm3  1  0.24375700  0.62500000  0.11875700  1
  Mg  Mg4  1  0.00000000  0.00000000  0.00000000  1
  Mg  Mg5  1  0.75000000  0.25000000  0.50000000  1
  Se  Se6  1  0.50658400  0.37695500  0.26474400  1
  Se  Se7  1  0.75816000  0.49341600  0.87037000  1
  Se  Se8  1  0.11221000  0.24184000  0.73525600  1
  Se  Se9  1  0.62304500  0.88779000  0.12963000  1
  Se  Se10  1  0.24341600  0.00816000  0.37037000  1
  Se  Se11  1  0.99184000  0.36221000  0.23525600  1
  Se  Se12  1  0.63779000  0.87304500  0.62963000  1
  Se  Se13  1  0.12695500  0.75658400  0.76474400  1
