# generated using pymatgen
data_Tb2MgS4
_symmetry_space_group_name_H-M   'P 1'
_cell_length_a   7.58952500
_cell_length_b   12.70208700
_cell_length_c   12.82328600
_cell_angle_alpha   90.00000000
_cell_angle_beta   90.00000000
_cell_angle_gamma   90.00000000
_symmetry_Int_Tables_number   1
_chemical_formula_structural   Tb2MgS4
_chemical_formula_sum   'Tb16 Mg8 S32'
_cell_volume   1236.20076330
_cell_formula_units_Z   8
loop_
 _symmetry_equiv_pos_site_id
 _symmetry_equiv_pos_as_xyz
  1  'x, y, z'
loop_
 _atom_site_type_symbol
 _atom_site_label
 _atom_site_symmetry_multiplicity
 _atom_site_fract_x
 _atom_site_fract_y
 _atom_site_fract_z
 _atom_site_occupancy
  Tb  Tb0  1  0.88281500  0.10937700  0.68533500  1
  Tb  Tb1  1  0.11718500  0.89062300  0.18533500  1
  Tb  Tb2  1  0.88281500  0.39062300  0.18533500  1
  Tb  Tb3  1  0.11718500  0.60937700  0.68533500  1
  Tb  Tb4  1  0.38169500  0.12766800  0.32625900  1
  Tb  Tb5  1  0.61830500  0.87233200  0.82625900  1
  Tb  Tb6  1  0.38169500  0.37233200  0.82625900  1
  Tb  Tb7  1  0.61830500  0.62766800  0.32625900  1
  Tb  Tb8  1  0.62866300  0.13326900  0.99257900  1
  Tb  Tb9  1  0.37133700  0.86673100  0.49257900  1
  Tb  Tb10  1  0.62866300  0.36673100  0.49257900  1
  Tb  Tb11  1  0.37133700  0.63326900  0.99257900  1
  Tb  Tb12  1  0.12879500  0.13366700  0.99141100  1
  Tb  Tb13  1  0.87120500  0.86633300  0.49141100  1
  Tb  Tb14  1  0.12879500  0.36633300  0.49141100  1
  Tb  Tb15  1  0.87120500  0.63366700  0.99141100  1
  Mg  Mg16  1  0.38167500  0.11027900  0.69121900  1
  Mg  Mg17  1  0.61832500  0.88972100  0.19121900  1
  Mg  Mg18  1  0.38167500  0.38972100  0.19121900  1
  Mg  Mg19  1  0.61832500  0.61027900  0.69121900  1
  Mg  Mg20  1  0.87845800  0.12604500  0.32127800  1
  Mg  Mg21  1  0.12154200  0.87395500  0.82127800  1
  Mg  Mg22  1  0.87845800  0.37395500  0.82127800  1
  Mg  Mg23  1  0.12154200  0.62604500  0.32127800  1
  S  S24  1  0.87788400  0.01288700  0.87775200  1
  S  S25  1  0.12211600  0.98711300  0.37775200  1
  S  S26  1  0.87788400  0.48711300  0.37775200  1
  S  S27  1  0.12211600  0.51288700  0.87775200  1
  S  S28  1  0.37733500  0.03260900  0.13020700  1
  S  S29  1  0.62266500  0.96739100  0.63020700  1
  S  S30  1  0.37733500  0.46739100  0.63020700  1
  S  S31  1  0.62266500  0.53260900  0.13020700  1
  S  S32  1  0.37229700  0.02147700  0.86896400  1
  S  S33  1  0.62770300  0.97852300  0.36896400  1
  S  S34  1  0.37229700  0.47852300  0.36896400  1
  S  S35  1  0.62770300  0.52147700  0.86896400  1
  S  S36  1  0.87249100  0.04187200  0.13737800  1
  S  S37  1  0.12750900  0.95812800  0.63737800  1
  S  S38  1  0.87249100  0.45812800  0.63737800  1
  S  S39  1  0.12750900  0.54187200  0.13737800  1
  S  S40  1  0.87918100  0.21233400  0.50107500  1
  S  S41  1  0.12081900  0.78766600  0.00107500  1
  S  S42  1  0.87918100  0.28766600  0.00107500  1
  S  S43  1  0.12081900  0.71233400  0.50107500  1
  S  S44  1  0.37958200  0.21268100  0.52007300  1
  S  S45  1  0.62041800  0.78731900  0.02007300  1
  S  S46  1  0.37958200  0.28731900  0.02007300  1
  S  S47  1  0.62041800  0.71268100  0.52007300  1
  S  S48  1  0.12832700  0.23255200  0.77630300  1
  S  S49  1  0.87167300  0.76744800  0.27630300  1
  S  S50  1  0.12832700  0.26744800  0.27630300  1
  S  S51  1  0.87167300  0.73255200  0.77630300  1
  S  S52  1  0.63114100  0.23102100  0.77716800  1
  S  S53  1  0.36885900  0.76897900  0.27716800  1
  S  S54  1  0.63114100  0.26897900  0.27716800  1
  S  S55  1  0.36885900  0.73102100  0.77716800  1
