# generated using pymatgen
data_Nd2MgSe4
_symmetry_space_group_name_H-M   'P 1'
_cell_length_a   8.41206500
_cell_length_b   7.75066000
_cell_length_c   12.39358900
_cell_angle_alpha   90.00000000
_cell_angle_beta   90.00000000
_cell_angle_gamma   90.00000000
_symmetry_Int_Tables_number   1
_chemical_formula_structural   Nd2MgSe4
_chemical_formula_sum   'Nd8 Mg4 Se16'
_cell_volume   808.05029969
_cell_formula_units_Z   4
loop_
 _symmetry_equiv_pos_site_id
 _symmetry_equiv_pos_as_xyz
  1  'x, y, z'
loop_
 _atom_site_type_symbol
 _atom_site_label
 _atom_site_symmetry_multiplicity
 _atom_site_fract_x
 _atom_site_fract_y
 _atom_site_fract_z
 _atom_site_occupancy
  Nd  Nd0  1  0.04928300  0.75000000  0.31489200  1
  Nd  Nd1  1  0.95071700  0.25000000  0.68510800  1
  Nd  Nd2  1  0.45071700  0.25000000  0.81489200  1
  Nd  Nd3  1  0.54928300  0.75000000  0.18510800  1
  Nd  Nd4  1  0.06660700  0.25000000  0.03155200  1
  Nd  Nd5  1  0.93339300  0.75000000  0.96844800  1
  Nd  Nd6  1  0.43339300  0.75000000  0.53155200  1
  Nd  Nd7  1  0.56660700  0.25000000  0.46844800  1
  Mg  Mg8  1  0.18375500  0.25000000  0.41214800  1
  Mg  Mg9  1  0.81624500  0.75000000  0.58785200  1
  Mg  Mg10  1  0.31624500  0.75000000  0.91214800  1
  Mg  Mg11  1  0.68375500  0.25000000  0.08785200  1
  Se  Se12  1  0.14086000  0.49795400  0.84435200  1
  Se  Se13  1  0.85914000  0.50204600  0.15564800  1
  Se  Se14  1  0.35914000  0.50204600  0.34435200  1
  Se  Se15  1  0.64086000  0.49795400  0.65564800  1
  Se  Se16  1  0.64086000  0.00204600  0.65564800  1
  Se  Se17  1  0.35914000  0.99795400  0.34435200  1
  Se  Se18  1  0.85914000  0.99795400  0.15564800  1
  Se  Se19  1  0.14086000  0.00204600  0.84435200  1
  Se  Se20  1  0.89718100  0.25000000  0.45058800  1
  Se  Se21  1  0.10281900  0.75000000  0.54941200  1
  Se  Se22  1  0.60281900  0.75000000  0.95058800  1
  Se  Se23  1  0.39718100  0.25000000  0.04941200  1
  Se  Se24  1  0.21826600  0.75000000  0.11127400  1
  Se  Se25  1  0.78173400  0.25000000  0.88872600  1
  Se  Se26  1  0.28173400  0.25000000  0.61127400  1
  Se  Se27  1  0.71826600  0.75000000  0.38872600  1
