# generated using pymatgen
data_HoMgSe3
_symmetry_space_group_name_H-M   'P 1'
_cell_length_a   7.34091038
_cell_length_b   7.34091038
_cell_length_c   6.88838762
_cell_angle_alpha   76.39953926
_cell_angle_beta   76.39953926
_cell_angle_gamma   119.02001151
_symmetry_Int_Tables_number   1
_chemical_formula_structural   HoMgSe3
_chemical_formula_sum   'Ho2 Mg2 Se6'
_cell_volume   287.63789254
_cell_formula_units_Z   2
loop_
 _symmetry_equiv_pos_site_id
 _symmetry_equiv_pos_as_xyz
  1  'x, y, z'
loop_
 _atom_site_type_symbol
 _atom_site_label
 _atom_site_symmetry_multiplicity
 _atom_site_fract_x
 _atom_site_fract_y
 _atom_site_fract_z
 _atom_site_occupancy
  Ho  Ho0  1  0.80355500  0.80355500  0.31495200  1
  Ho  Ho1  1  0.19644500  0.19644500  0.68504800  1
  Mg  Mg2  1  0.33536700  0.66463300  0.00000000  1
  Mg  Mg3  1  0.66463300  0.33536700  0.00000000  1
  Se  Se4  1  0.22208500  0.88110200  0.21567800  1
  Se  Se5  1  0.77791500  0.11889800  0.78432200  1
  Se  Se6  1  0.11889800  0.77791500  0.78432200  1
  Se  Se7  1  0.88110200  0.22208500  0.21567800  1
  Se  Se8  1  0.53284800  0.53284800  0.74498500  1
  Se  Se9  1  0.46715200  0.46715200  0.25501500  1
