# generated using pymatgen
data_Nd2MgSe4
_symmetry_space_group_name_H-M   'P 1'
_cell_length_a   6.96636500
_cell_length_b   8.56518100
_cell_length_c   14.62945800
_cell_angle_alpha   90.00000000
_cell_angle_beta   90.00000000
_cell_angle_gamma   90.00000000
_symmetry_Int_Tables_number   1
_chemical_formula_structural   Nd2MgSe4
_chemical_formula_sum   'Nd8 Mg4 Se16'
_cell_volume   872.91309136
_cell_formula_units_Z   4
loop_
 _symmetry_equiv_pos_site_id
 _symmetry_equiv_pos_as_xyz
  1  'x, y, z'
loop_
 _atom_site_type_symbol
 _atom_site_label
 _atom_site_symmetry_multiplicity
 _atom_site_fract_x
 _atom_site_fract_y
 _atom_site_fract_z
 _atom_site_occupancy
  Nd  Nd0  1  0.50000000  0.00000000  0.00000000  1
  Nd  Nd1  1  0.00000000  0.00000000  0.50000000  1
  Nd  Nd2  1  0.00000000  0.50000000  0.50000000  1
  Nd  Nd3  1  0.50000000  0.50000000  0.00000000  1
  Nd  Nd4  1  0.00084100  0.75000000  0.23336400  1
  Nd  Nd5  1  0.99915900  0.25000000  0.76663600  1
  Nd  Nd6  1  0.50084100  0.25000000  0.26663600  1
  Nd  Nd7  1  0.49915900  0.75000000  0.73336400  1
  Mg  Mg8  1  0.91717700  0.25000000  0.09254400  1
  Mg  Mg9  1  0.08282300  0.75000000  0.90745600  1
  Mg  Mg10  1  0.41717700  0.75000000  0.40745600  1
  Mg  Mg11  1  0.58282300  0.25000000  0.59254400  1
  Se  Se12  1  0.74576400  0.01302000  0.16878700  1
  Se  Se13  1  0.25423600  0.98698000  0.83121300  1
  Se  Se14  1  0.24576400  0.98698000  0.33121300  1
  Se  Se15  1  0.75423600  0.01302000  0.66878700  1
  Se  Se16  1  0.75423600  0.48698000  0.66878700  1
  Se  Se17  1  0.24576400  0.51302000  0.33121300  1
  Se  Se18  1  0.25423600  0.51302000  0.83121300  1
  Se  Se19  1  0.74576400  0.48698000  0.16878700  1
  Se  Se20  1  0.24486900  0.75000000  0.06908300  1
  Se  Se21  1  0.75513100  0.25000000  0.93091700  1
  Se  Se22  1  0.74486900  0.25000000  0.43091700  1
  Se  Se23  1  0.25513100  0.75000000  0.56908300  1
  Se  Se24  1  0.28270500  0.25000000  0.09185000  1
  Se  Se25  1  0.71729500  0.75000000  0.90815000  1
  Se  Se26  1  0.78270500  0.75000000  0.40815000  1
  Se  Se27  1  0.21729500  0.25000000  0.59185000  1
