# generated using pymatgen
data_Ce2MgSe4
_symmetry_space_group_name_H-M   'P 1'
_cell_length_a   13.64006689
_cell_length_b   8.20931718
_cell_length_c   13.70409774
_cell_angle_alpha   90.00000000
_cell_angle_beta   90.00000000
_cell_angle_gamma   90.00000000
_symmetry_Int_Tables_number   1
_chemical_formula_structural   Ce2MgSe4
_chemical_formula_sum   'Ce16 Mg8 Se32'
_cell_volume   1534.52505279
_cell_formula_units_Z   8
loop_
 _symmetry_equiv_pos_site_id
 _symmetry_equiv_pos_as_xyz
  1  'x, y, z'
loop_
 _atom_site_type_symbol
 _atom_site_label
 _atom_site_symmetry_multiplicity
 _atom_site_fract_x
 _atom_site_fract_y
 _atom_site_fract_z
 _atom_site_occupancy
  Ce  Ce0  1  0.10796261  0.88486544  0.68585240  1
  Ce  Ce1  1  0.89203739  0.11513456  0.18585240  1
  Ce  Ce2  1  0.39203739  0.88486544  0.18585240  1
  Ce  Ce3  1  0.60796261  0.11513456  0.68585240  1
  Ce  Ce4  1  0.12575531  0.38382969  0.32606629  1
  Ce  Ce5  1  0.87424469  0.61617031  0.82606629  1
  Ce  Ce6  1  0.37424469  0.38382969  0.82606629  1
  Ce  Ce7  1  0.62575531  0.61617031  0.32606629  1
  Ce  Ce8  1  0.13346761  0.63025667  0.99291716  1
  Ce  Ce9  1  0.86653239  0.36974333  0.49291716  1
  Ce  Ce10  1  0.36653239  0.63025667  0.49291716  1
  Ce  Ce11  1  0.63346761  0.36974333  0.99291716  1
  Ce  Ce12  1  0.13442134  0.13037380  0.99300909  1
  Ce  Ce13  1  0.86557866  0.86962620  0.49300909  1
  Ce  Ce14  1  0.36557866  0.13037380  0.49300909  1
  Ce  Ce15  1  0.63442134  0.86962620  0.99300909  1
  Mg  Mg16  1  0.11072680  0.38457933  0.69249133  1
  Mg  Mg17  1  0.88927320  0.61542067  0.19249133  1
  Mg  Mg18  1  0.38927320  0.38457933  0.19249133  1
  Mg  Mg19  1  0.61072680  0.61542067  0.69249133  1
  Mg  Mg20  1  0.12508987  0.87983465  0.32022464  1
  Mg  Mg21  1  0.87491013  0.12016535  0.82022464  1
  Mg  Mg22  1  0.37491013  0.87983465  0.82022464  1
  Mg  Mg23  1  0.62508987  0.12016535  0.32022464  1
  Se  Se24  1  0.01078683  0.88067457  0.87967673  1
  Se  Se25  1  0.98921317  0.11932543  0.37967673  1
  Se  Se26  1  0.48921317  0.88067457  0.37967673  1
  Se  Se27  1  0.51078683  0.11932543  0.87967673  1
  Se  Se28  1  0.02829218  0.38145885  0.12932322  1
  Se  Se29  1  0.97170782  0.61854115  0.62932322  1
  Se  Se30  1  0.47170782  0.38145885  0.62932322  1
  Se  Se31  1  0.52829218  0.61854115  0.12932322  1
  Se  Se32  1  0.02382955  0.37295952  0.86822514  1
  Se  Se33  1  0.97617045  0.62704048  0.36822514  1
  Se  Se34  1  0.47617045  0.37295952  0.36822514  1
  Se  Se35  1  0.52382955  0.62704048  0.86822514  1
  Se  Se36  1  0.04518280  0.87373250  0.13966398  1
  Se  Se37  1  0.95481720  0.12626750  0.63966398  1
  Se  Se38  1  0.45481720  0.87373250  0.63966398  1
  Se  Se39  1  0.54518280  0.12626750  0.13966398  1
  Se  Se40  1  0.20857918  0.88085521  0.49765498  1
  Se  Se41  1  0.79142082  0.11914479  0.99765498  1
  Se  Se42  1  0.29142082  0.88085521  0.99765498  1
  Se  Se43  1  0.70857918  0.11914479  0.49765498  1
  Se  Se44  1  0.20980989  0.38173048  0.52255114  1
  Se  Se45  1  0.79019011  0.61826952  0.02255114  1
  Se  Se46  1  0.29019011  0.38173048  0.02255114  1
  Se  Se47  1  0.70980989  0.61826952  0.52255114  1
  Se  Se48  1  0.23242442  0.13422122  0.77313180  1
  Se  Se49  1  0.76757558  0.86577878  0.27313180  1
  Se  Se50  1  0.26757558  0.13422122  0.27313180  1
  Se  Se51  1  0.73242442  0.86577878  0.77313180  1
  Se  Se52  1  0.23346233  0.63659760  0.77621309  1
  Se  Se53  1  0.76653767  0.36340240  0.27621309  1
  Se  Se54  1  0.26653767  0.63659760  0.27621309  1
  Se  Se55  1  0.73346233  0.36340240  0.77621309  1
