# generated using pymatgen
data_Er2MgS4
_symmetry_space_group_name_H-M   'P 1'
_cell_length_a   13.43121500
_cell_length_b   7.83049700
_cell_length_c   6.49122500
_cell_angle_alpha   90.00000000
_cell_angle_beta   90.00000000
_cell_angle_gamma   90.00000000
_symmetry_Int_Tables_number   1
_chemical_formula_structural   Er2MgS4
_chemical_formula_sum   'Er8 Mg4 S16'
_cell_volume   682.70218311
_cell_formula_units_Z   4
loop_
 _symmetry_equiv_pos_site_id
 _symmetry_equiv_pos_as_xyz
  1  'x, y, z'
loop_
 _atom_site_type_symbol
 _atom_site_label
 _atom_site_symmetry_multiplicity
 _atom_site_fract_x
 _atom_site_fract_y
 _atom_site_fract_z
 _atom_site_occupancy
  Er  Er0  1  0.00000000  0.00000000  0.50000000  1
  Er  Er1  1  0.50000000  0.00000000  0.00000000  1
  Er  Er2  1  0.50000000  0.50000000  0.00000000  1
  Er  Er3  1  0.00000000  0.50000000  0.50000000  1
  Er  Er4  1  0.23238500  0.75000000  0.00070700  1
  Er  Er5  1  0.76761500  0.25000000  0.99929300  1
  Er  Er6  1  0.26761500  0.25000000  0.50070700  1
  Er  Er7  1  0.73238500  0.75000000  0.49929300  1
  Mg  Mg8  1  0.09252400  0.25000000  0.92558300  1
  Mg  Mg9  1  0.90747600  0.75000000  0.07441700  1
  Mg  Mg10  1  0.40747600  0.75000000  0.42558300  1
  Mg  Mg11  1  0.59252400  0.25000000  0.57441700  1
  S  S12  1  0.16818600  0.00793700  0.74281900  1
  S  S13  1  0.83181400  0.99206300  0.25718100  1
  S  S14  1  0.33181400  0.99206300  0.24281900  1
  S  S15  1  0.66818600  0.00793700  0.75718100  1
  S  S16  1  0.66818600  0.49206300  0.75718100  1
  S  S17  1  0.33181400  0.50793700  0.24281900  1
  S  S18  1  0.83181400  0.50793700  0.25718100  1
  S  S19  1  0.16818600  0.49206300  0.74281900  1
  S  S20  1  0.07150900  0.75000000  0.24836800  1
  S  S21  1  0.92849100  0.25000000  0.75163200  1
  S  S22  1  0.42849100  0.25000000  0.74836800  1
  S  S23  1  0.57150900  0.75000000  0.25163200  1
  S  S24  1  0.09214600  0.25000000  0.29367200  1
  S  S25  1  0.90785400  0.75000000  0.70632800  1
  S  S26  1  0.40785400  0.75000000  0.79367200  1
  S  S27  1  0.59214600  0.25000000  0.20632800  1
