# generated using pymatgen
data_Mg(ScS2)2
_symmetry_space_group_name_H-M   'P 1'
_cell_length_a   6.96104245
_cell_length_b   6.96104245
_cell_length_c   6.96104245
_cell_angle_alpha   110.09133028
_cell_angle_beta   110.09133028
_cell_angle_gamma   108.23799530
_symmetry_Int_Tables_number   1
_chemical_formula_structural   Mg(ScS2)2
_chemical_formula_sum   'Mg2 Sc4 S8'
_cell_volume   259.56756719
_cell_formula_units_Z   2
loop_
 _symmetry_equiv_pos_site_id
 _symmetry_equiv_pos_as_xyz
  1  'x, y, z'
loop_
 _atom_site_type_symbol
 _atom_site_label
 _atom_site_symmetry_multiplicity
 _atom_site_fract_x
 _atom_site_fract_y
 _atom_site_fract_z
 _atom_site_occupancy
  Mg  Mg0  1  0.00000000  0.00000000  0.00000000  1
  Mg  Mg1  1  0.75000000  0.25000000  0.50000000  1
  Sc  Sc2  1  0.87500000  0.75688300  0.38188300  1
  Sc  Sc3  1  0.50688300  0.12500000  0.88188300  1
  Sc  Sc4  1  0.37500000  0.49311700  0.61811700  1
  Sc  Sc5  1  0.24311700  0.62500000  0.11811700  1
  S  S6  1  0.52194200  0.38324400  0.25766800  1
  S  S7  1  0.73572600  0.47805800  0.86130200  1
  S  S8  1  0.12557600  0.26427400  0.74233200  1
  S  S9  1  0.61675600  0.87442400  0.13869800  1
  S  S10  1  0.22805800  0.98572600  0.36130200  1
  S  S11  1  0.01427400  0.37557600  0.24233200  1
  S  S12  1  0.62442400  0.86675600  0.63869800  1
  S  S13  1  0.13324400  0.77194200  0.75766800  1
