# generated using pymatgen
data_Lu2MgS4
_symmetry_space_group_name_H-M   'P 1'
_cell_length_a   13.30034000
_cell_length_b   7.75232800
_cell_length_c   6.44383100
_cell_angle_alpha   90.00000000
_cell_angle_beta   90.00000000
_cell_angle_gamma   90.00000000
_symmetry_Int_Tables_number   1
_chemical_formula_structural   Lu2MgS4
_chemical_formula_sum   'Lu8 Mg4 S16'
_cell_volume   664.41438139
_cell_formula_units_Z   4
loop_
 _symmetry_equiv_pos_site_id
 _symmetry_equiv_pos_as_xyz
  1  'x, y, z'
loop_
 _atom_site_type_symbol
 _atom_site_label
 _atom_site_symmetry_multiplicity
 _atom_site_fract_x
 _atom_site_fract_y
 _atom_site_fract_z
 _atom_site_occupancy
  Lu  Lu0  1  0.00000000  0.00000000  0.50000000  1
  Lu  Lu1  1  0.50000000  0.00000000  0.00000000  1
  Lu  Lu2  1  0.50000000  0.50000000  0.00000000  1
  Lu  Lu3  1  0.00000000  0.50000000  0.50000000  1
  Lu  Lu4  1  0.23172800  0.75000000  0.00079900  1
  Lu  Lu5  1  0.76827200  0.25000000  0.99920100  1
  Lu  Lu6  1  0.26827200  0.25000000  0.50079900  1
  Lu  Lu7  1  0.73172800  0.75000000  0.49920100  1
  Mg  Mg8  1  0.09205500  0.25000000  0.93038100  1
  Mg  Mg9  1  0.90794500  0.75000000  0.06961900  1
  Mg  Mg10  1  0.40794500  0.75000000  0.43038100  1
  Mg  Mg11  1  0.59205500  0.25000000  0.56961900  1
  S  S12  1  0.16773300  0.00620300  0.74490300  1
  S  S13  1  0.83226700  0.99379700  0.25509700  1
  S  S14  1  0.33226700  0.99379700  0.24490300  1
  S  S15  1  0.66773300  0.00620300  0.75509700  1
  S  S16  1  0.66773300  0.49379700  0.75509700  1
  S  S17  1  0.33226700  0.50620300  0.24490300  1
  S  S18  1  0.83226700  0.50620300  0.25509700  1
  S  S19  1  0.16773300  0.49379700  0.74490300  1
  S  S20  1  0.07229100  0.75000000  0.24899800  1
  S  S21  1  0.92770900  0.25000000  0.75100200  1
  S  S22  1  0.42770900  0.25000000  0.74899800  1
  S  S23  1  0.57229100  0.75000000  0.25100200  1
  S  S24  1  0.09224200  0.25000000  0.30053100  1
  S  S25  1  0.90775800  0.75000000  0.69946900  1
  S  S26  1  0.40775800  0.75000000  0.80053100  1
  S  S27  1  0.59224200  0.25000000  0.19946900  1
