# generated using pymatgen
data_Lu2MgS4
_symmetry_space_group_name_H-M   'P 1'
_cell_length_a   3.78503900
_cell_length_b   12.47181500
_cell_length_c   13.10569800
_cell_angle_alpha   90.00000000
_cell_angle_beta   90.00000000
_cell_angle_gamma   90.00000000
_symmetry_Int_Tables_number   1
_chemical_formula_structural   Lu2MgS4
_chemical_formula_sum   'Lu8 Mg4 S16'
_cell_volume   618.67159244
_cell_formula_units_Z   4
loop_
 _symmetry_equiv_pos_site_id
 _symmetry_equiv_pos_as_xyz
  1  'x, y, z'
loop_
 _atom_site_type_symbol
 _atom_site_label
 _atom_site_symmetry_multiplicity
 _atom_site_fract_x
 _atom_site_fract_y
 _atom_site_fract_z
 _atom_site_occupancy
  Lu  Lu0  1  0.25000000  0.11420000  0.07747900  1
  Lu  Lu1  1  0.75000000  0.88580000  0.92252100  1
  Lu  Lu2  1  0.75000000  0.38580000  0.57747900  1
  Lu  Lu3  1  0.25000000  0.61420000  0.42252100  1
  Lu  Lu4  1  0.25000000  0.14267300  0.70375800  1
  Lu  Lu5  1  0.75000000  0.85732700  0.29624200  1
  Lu  Lu6  1  0.75000000  0.35732700  0.20375800  1
  Lu  Lu7  1  0.25000000  0.64267300  0.79624200  1
  Mg  Mg8  1  0.75000000  0.11728900  0.43994100  1
  Mg  Mg9  1  0.25000000  0.88271100  0.56005900  1
  Mg  Mg10  1  0.25000000  0.38271100  0.93994100  1
  Mg  Mg11  1  0.75000000  0.61728900  0.06005900  1
  S  S12  1  0.75000000  0.01617900  0.61509700  1
  S  S13  1  0.25000000  0.98382100  0.38490300  1
  S  S14  1  0.25000000  0.48382100  0.11509700  1
  S  S15  1  0.75000000  0.51617900  0.88490300  1
  S  S16  1  0.25000000  0.02936800  0.88210700  1
  S  S17  1  0.75000000  0.97063200  0.11789300  1
  S  S18  1  0.75000000  0.47063200  0.38210700  1
  S  S19  1  0.25000000  0.52936800  0.61789300  1
  S  S20  1  0.25000000  0.22155100  0.25363400  1
  S  S21  1  0.75000000  0.77844900  0.74636600  1
  S  S22  1  0.75000000  0.27844900  0.75363400  1
  S  S23  1  0.25000000  0.72155100  0.24636600  1
  S  S24  1  0.75000000  0.25600100  0.01749900  1
  S  S25  1  0.25000000  0.74399900  0.98250100  1
  S  S26  1  0.25000000  0.24399900  0.51749900  1
  S  S27  1  0.75000000  0.75600100  0.48250100  1
