# generated using pymatgen
data_AlCu6H12SClO19
_symmetry_space_group_name_H-M   'P 1'
_cell_length_a   8.21822376
_cell_length_b   8.24339590
_cell_length_c   13.62070968
_cell_angle_alpha   89.98190635
_cell_angle_beta   89.96370278
_cell_angle_gamma   60.10095922
_symmetry_Int_Tables_number   1
_chemical_formula_structural   AlCu6H12SClO19
_chemical_formula_sum   'Al2 Cu12 H24 S2 Cl2 O38'
_cell_volume   799.93615054
_cell_formula_units_Z   2
loop_
 _symmetry_equiv_pos_site_id
 _symmetry_equiv_pos_as_xyz
  1  'x, y, z'
loop_
 _atom_site_type_symbol
 _atom_site_label
 _atom_site_symmetry_multiplicity
 _atom_site_fract_x
 _atom_site_fract_y
 _atom_site_fract_z
 _atom_site_occupancy
  Al  Al0  1  0.33311200  0.33370100  0.51490100  1
  Al  Al1  1  0.66681300  0.66629900  0.01490100  1
  Cu  Cu2  1  0.75784600  0.03521800  0.51316400  1
  Cu  Cu3  1  0.03521600  0.20637600  0.51388500  1
  Cu  Cu4  1  0.20668800  0.75888600  0.51372300  1
  Cu  Cu5  1  0.79306500  0.96478200  0.01316400  1
  Cu  Cu6  1  0.24159200  0.79362400  0.01388500  1
  Cu  Cu7  1  0.96557400  0.24111400  0.01372300  1
  Cu  Cu8  1  0.62853700  0.47380100  0.48882000  1
  Cu  Cu9  1  0.47299000  0.89821100  0.48766000  1
  Cu  Cu10  1  0.89781500  0.62882400  0.48855900  1
  Cu  Cu11  1  0.10233900  0.52619900  0.98882000  1
  Cu  Cu12  1  0.37120100  0.10178900  0.98766000  1
  Cu  Cu13  1  0.52663900  0.37117600  0.98855900  1
  H  H14  1  0.57654800  0.23516100  0.65745700  1
  H  H15  1  0.23506900  0.18848900  0.65727000  1
  H  H16  1  0.18901600  0.57532600  0.65766000  1
  H  H17  1  0.81171000  0.76483900  0.15745700  1
  H  H18  1  0.42355800  0.81151100  0.15727000  1
  H  H19  1  0.76434200  0.42467400  0.15766000  1
  H  H20  1  0.82611200  0.20828400  0.37392100  1
  H  H21  1  0.20759600  0.96624600  0.37258600  1
  H  H22  1  0.96635200  0.82521900  0.37348300  1
  H  H23  1  0.03439600  0.79171600  0.87392100  1
  H  H24  1  0.17384200  0.03375400  0.87258600  1
  H  H25  1  0.79157100  0.17478100  0.87348300  1
  H  H26  1  0.11729800  0.41162600  0.36124200  1
  H  H27  1  0.41047800  0.47270000  0.36171000  1
  H  H28  1  0.47091900  0.11916600  0.36110100  1
  H  H29  1  0.52892300  0.58837400  0.86124200  1
  H  H30  1  0.88317800  0.52730000  0.86171000  1
  H  H31  1  0.59008400  0.88083400  0.86110100  1
  H  H32  1  0.83167400  0.50039000  0.67001900  1
  H  H33  1  0.49591200  0.67268000  0.66942400  1
  H  H34  1  0.67372600  0.82710900  0.66938200  1
  H  H35  1  0.33206400  0.49961000  0.17001900  1
  H  H36  1  0.16859200  0.32732000  0.16942400  1
  H  H37  1  0.50083500  0.17289100  0.16938200  1
  S  S38  1  0.00018800  0.99902300  0.73065900  1
  S  S39  1  0.99921100  0.00097700  0.23065900  1
  Cl  Cl40  1  0.66413700  0.66721900  0.33927000  1
  Cl  Cl41  1  0.33135600  0.33278100  0.83927000  1
  O  O42  1  0.83993400  0.45929300  0.55048300  1
  O  O43  1  0.45946400  0.70245400  0.55054400  1
  O  O44  1  0.70091100  0.83938500  0.54983200  1
  O  O45  1  0.29922700  0.54070700  0.05048300  1
  O  O46  1  0.16191800  0.29754600  0.05054400  1
  O  O47  1  0.54029600  0.16061500  0.04983200  1
  O  O48  1  0.55907700  0.24052600  0.58641500  1
  O  O49  1  0.24075400  0.19960800  0.58607100  1
  O  O50  1  0.19974700  0.55925900  0.58641200  1
  O  O51  1  0.79960300  0.75947400  0.08641500  1
  O  O52  1  0.44036200  0.80039200  0.08607100  1
  O  O53  1  0.75900600  0.44074100  0.08641200  1
  O  O54  1  0.11321900  0.42040900  0.43402000  1
  O  O55  1  0.42019400  0.46591200  0.43443800  1
  O  O56  1  0.46675200  0.11400500  0.43392600  1
  O  O57  1  0.53362800  0.57959100  0.93402000  1
  O  O58  1  0.88610500  0.53408800  0.93443800  1
  O  O59  1  0.58075700  0.88599500  0.93392600  1
  O  O60  1  0.14762100  0.04096400  0.76492900  1
  O  O61  1  0.04116900  0.81118600  0.76580300  1
  O  O62  1  0.81097000  0.14646200  0.76466100  1
  O  O63  1  0.18858500  0.95903600  0.26492900  1
  O  O64  1  0.85235500  0.18881400  0.26580300  1
  O  O65  1  0.95743200  0.85353800  0.26466100  1
  O  O66  1  0.00125700  0.99755800  0.62057100  1
  O  O67  1  0.99881500  0.00244200  0.12057100  1
  O  O68  1  0.81467800  0.21929200  0.45060900  1
  O  O69  1  0.21897000  0.96663000  0.44925800  1
  O  O70  1  0.96664600  0.81429700  0.44992500  1
  O  O71  1  0.03396900  0.78070800  0.95060900  1
  O  O72  1  0.18560000  0.03337000  0.94925800  1
  O  O73  1  0.78094300  0.18570300  0.94992500  1
  O  O74  1  0.47617600  0.18079700  0.24273300  1
  O  O75  1  0.18019500  0.34331900  0.24260300  1
  O  O76  1  0.34421500  0.47663000  0.24346800  1
  O  O77  1  0.65697200  0.81920300  0.74273300  1
  O  O78  1  0.52351400  0.65668100  0.74260300  1
  O  O79  1  0.82084500  0.52337000  0.74346800  1
