data_image0
_chemical_formula_structural       Cl6PdS2
_chemical_formula_sum              "Cl6 Pd1 S2"
_cell_length_a       4.39729
_cell_length_b       6.86328
_cell_length_c       8.22637
_cell_angle_alpha    104.199
_cell_angle_beta     98.098
_cell_angle_gamma    93.4186

_space_group_name_H-M_alt    "P 1"
_space_group_IT_number       1

loop_
  _space_group_symop_operation_xyz
  'x, y, z'

loop_
  _atom_site_type_symbol
  _atom_site_label
  _atom_site_symmetry_multiplicity
  _atom_site_fract_x
  _atom_site_fract_y
  _atom_site_fract_z
  _atom_site_occupancy
  Cl  Cl1       1.0  0.69500  0.85700  0.15900  1.0000
  Cl  Cl2       1.0  0.09350  0.49200  0.21700  1.0000
  Cl  Cl3       1.0  0.25800  0.19300  0.44600  1.0000
  Cl  Cl4       1.0  0.74200  0.80700  0.55400  1.0000
  Cl  Cl5       1.0  0.90700  0.50800  0.78300  1.0000
  Cl  Cl6       1.0  0.30500  0.14300  0.84100  1.0000
  Pd  Pd1       1.0  0.00000  0.00000  0.00000  1.0000
  S   S1        1.0  0.31100  0.23600  0.21600  1.0000
  S   S2        1.0  0.68900  0.76400  0.78400  1.0000
