# generated using pymatgen
data_Al3(PO8)2
_symmetry_space_group_name_H-M   'P 1'
_cell_length_a   7.16821300
_cell_length_b   9.95116700
_cell_length_c   17.51765400
_cell_angle_alpha   90.00000000
_cell_angle_beta   90.00000000
_cell_angle_gamma   90.00000000
_symmetry_Int_Tables_number   1
_chemical_formula_structural   Al3(PO8)2
_chemical_formula_sum   'Al12 P8 O64'
_cell_volume   1249.57077808
_cell_formula_units_Z   4
loop_
 _symmetry_equiv_pos_site_id
 _symmetry_equiv_pos_as_xyz
  1  'x, y, z'
loop_
 _atom_site_type_symbol
 _atom_site_label
 _atom_site_symmetry_multiplicity
 _atom_site_fract_x
 _atom_site_fract_y
 _atom_site_fract_z
 _atom_site_occupancy
  Al  Al0  1  0.84637200  0.78820600  0.25000000  1
  Al  Al1  1  0.34637200  0.71179400  0.25000000  1
  Al  Al2  1  0.15362800  0.21179400  0.75000000  1
  Al  Al3  1  0.65362800  0.28820600  0.75000000  1
  Al  Al4  1  0.86279900  0.22981600  0.01800600  1
  Al  Al5  1  0.36279900  0.27018400  0.48199400  1
  Al  Al6  1  0.13720100  0.77018400  0.51800600  1
  Al  Al7  1  0.63720100  0.72981600  0.98199400  1
  Al  Al8  1  0.13720100  0.77018400  0.98199400  1
  Al  Al9  1  0.63720100  0.72981600  0.51800600  1
  Al  Al10  1  0.86279900  0.22981600  0.48199400  1
  Al  Al11  1  0.36279900  0.27018400  0.01800600  1
  P  P12  1  0.89010700  0.93117200  0.08908700  1
  P  P13  1  0.39010700  0.56882800  0.41091300  1
  P  P14  1  0.10989300  0.06882800  0.58908700  1
  P  P15  1  0.60989300  0.43117200  0.91091300  1
  P  P16  1  0.10989300  0.06882800  0.91091300  1
  P  P17  1  0.60989300  0.43117200  0.58908700  1
  P  P18  1  0.89010700  0.93117200  0.41091300  1
  P  P19  1  0.39010700  0.56882800  0.08908700  1
  O  O20  1  0.60691000  0.20260500  0.02611700  1
  O  O21  1  0.10691000  0.29739500  0.47388300  1
  O  O22  1  0.39309000  0.79739500  0.52611700  1
  O  O23  1  0.89309000  0.70260500  0.97388300  1
  O  O24  1  0.39309000  0.79739500  0.97388300  1
  O  O25  1  0.89309000  0.70260500  0.52611700  1
  O  O26  1  0.60691000  0.20260500  0.47388300  1
  O  O27  1  0.10691000  0.29739500  0.02611700  1
  O  O28  1  0.78624700  0.29753800  0.11886200  1
  O  O29  1  0.28624700  0.20246200  0.38113800  1
  O  O30  1  0.21375300  0.70246200  0.61886200  1
  O  O31  1  0.71375300  0.79753800  0.88113800  1
  O  O32  1  0.21375300  0.70246200  0.88113800  1
  O  O33  1  0.71375300  0.79753800  0.61886200  1
  O  O34  1  0.78624700  0.29753800  0.38113800  1
  O  O35  1  0.28624700  0.20246200  0.11886200  1
  O  O36  1  0.91580800  0.08489400  0.08083400  1
  O  O37  1  0.41580800  0.41510600  0.41916600  1
  O  O38  1  0.08419200  0.91510600  0.58083400  1
  O  O39  1  0.58419200  0.58489400  0.91916600  1
  O  O40  1  0.08419200  0.91510600  0.91916600  1
  O  O41  1  0.58419200  0.58489400  0.58083400  1
  O  O42  1  0.91580800  0.08489400  0.41916600  1
  O  O43  1  0.41580800  0.41510600  0.08083400  1
  O  O44  1  0.60131600  0.73522900  0.25000000  1
  O  O45  1  0.10131600  0.76477100  0.25000000  1
  O  O46  1  0.39868400  0.26477100  0.75000000  1
  O  O47  1  0.89868400  0.23522900  0.75000000  1
  O  O48  1  0.82995700  0.90541500  0.17108300  1
  O  O49  1  0.32995700  0.59458500  0.32891700  1
  O  O50  1  0.17004300  0.09458500  0.67108300  1
  O  O51  1  0.67004300  0.40541500  0.82891700  1
  O  O52  1  0.17004300  0.09458500  0.82891700  1
  O  O53  1  0.67004300  0.40541500  0.67108300  1
  O  O54  1  0.82995700  0.90541500  0.32891700  1
  O  O55  1  0.32995700  0.59458500  0.17108300  1
  O  O56  1  0.57659400  0.63830900  0.07012600  1
  O  O57  1  0.07659400  0.86169100  0.42987400  1
  O  O58  1  0.42340600  0.36169100  0.57012600  1
  O  O59  1  0.92340600  0.13830900  0.92987400  1
  O  O60  1  0.42340600  0.36169100  0.92987400  1
  O  O61  1  0.92340600  0.13830900  0.57012600  1
  O  O62  1  0.57659400  0.63830900  0.42987400  1
  O  O63  1  0.07659400  0.86169100  0.07012600  1
  O  O64  1  0.73670500  0.88150300  0.03168200  1
  O  O65  1  0.23670500  0.61849700  0.46831800  1
  O  O66  1  0.26329500  0.11849700  0.53168200  1
  O  O67  1  0.76329500  0.38150300  0.96831800  1
  O  O68  1  0.26329500  0.11849700  0.96831800  1
  O  O69  1  0.76329500  0.38150300  0.53168200  1
  O  O70  1  0.73670500  0.88150300  0.46831800  1
  O  O71  1  0.23670500  0.61849700  0.03168200  1
  O  O72  1  0.90158600  0.64723500  0.17648300  1
  O  O73  1  0.40158600  0.85276500  0.32351700  1
  O  O74  1  0.09841400  0.35276500  0.67648300  1
  O  O75  1  0.59841400  0.14723500  0.82351700  1
  O  O76  1  0.09841400  0.35276500  0.82351700  1
  O  O77  1  0.59841400  0.14723500  0.67648300  1
  O  O78  1  0.90158600  0.64723500  0.32351700  1
  O  O79  1  0.40158600  0.85276500  0.17648300  1
  O  O80  1  0.75235300  0.23987400  0.25000000  1
  O  O81  1  0.25235300  0.26012600  0.25000000  1
  O  O82  1  0.24764700  0.76012600  0.75000000  1
  O  O83  1  0.74764700  0.73987400  0.75000000  1
