# generated using pymatgen
data_Cu7H9(SN)4
_symmetry_space_group_name_H-M   'P 1'
_cell_length_a   6.83369807
_cell_length_b   8.19214001
_cell_length_c   10.49348941
_cell_angle_alpha   90.00931019
_cell_angle_beta   101.00966668
_cell_angle_gamma   89.99971139
_symmetry_Int_Tables_number   1
_chemical_formula_structural   Cu7H9(SN)4
_chemical_formula_sum   'Cu14 H18 S8 N8'
_cell_volume   576.64084722
_cell_formula_units_Z   2
loop_
 _symmetry_equiv_pos_site_id
 _symmetry_equiv_pos_as_xyz
  1  'x, y, z'
loop_
 _atom_site_type_symbol
 _atom_site_label
 _atom_site_symmetry_multiplicity
 _atom_site_fract_x
 _atom_site_fract_y
 _atom_site_fract_z
 _atom_site_occupancy
  Cu  Cu0  1  0.08470500  0.39873400  0.63113700  1
  Cu  Cu1  1  0.91521600  0.89874600  0.36883800  1
  Cu  Cu2  1  0.56020400  0.61589900  0.64128200  1
  Cu  Cu3  1  0.43961300  0.11578900  0.35869900  1
  Cu  Cu4  1  0.57072300  0.13878000  0.64404000  1
  Cu  Cu5  1  0.42926300  0.63872300  0.35584100  1
  Cu  Cu6  1  0.78458400  0.54726700  0.47253000  1
  Cu  Cu7  1  0.21519800  0.04745900  0.52751800  1
  Cu  Cu8  1  0.95017500  0.89616700  0.62658200  1
  Cu  Cu9  1  0.04979800  0.39622100  0.37343800  1
  Cu  Cu10  1  0.79948000  0.21850700  0.48041400  1
  Cu  Cu11  1  0.20056900  0.71868300  0.51946900  1
  Cu  Cu12  1  0.42519300  0.37642000  0.49559900  1
  Cu  Cu13  1  0.57477700  0.87640800  0.50435400  1
  H  H14  1  0.66351000  0.87751100  0.02844000  1
  H  H15  1  0.33670400  0.37752900  0.97163200  1
  H  H16  1  0.79315400  0.29266200  0.98879000  1
  H  H17  1  0.20683100  0.79259300  0.01124300  1
  H  H18  1  0.79485500  0.64420200  0.97388600  1
  H  H19  1  0.20499200  0.14416000  0.02602900  1
  H  H20  1  0.70614900  0.97465800  0.89736600  1
  H  H21  1  0.29387400  0.47469000  0.10267100  1
  H  H22  1  0.76943700  0.41302000  0.85367700  1
  H  H23  1  0.23053400  0.91297800  0.14637600  1
  H  H24  1  0.76486100  0.11289100  0.14972600  1
  H  H25  1  0.23517500  0.61280000  0.85030600  1
  H  H26  1  0.83678000  0.54269300  0.11192200  1
  H  H27  1  0.16369300  0.04240100  0.88809000  1
  H  H28  1  0.55309800  0.12433700  0.04311700  1
  H  H29  1  0.44686600  0.62445800  0.95697400  1
  H  H30  1  0.99622900  0.41876700  0.96233200  1
  H  H31  1  0.00379500  0.91879400  0.03766100  1
  S  S32  1  0.91312200  0.15134500  0.69093300  1
  S  S33  1  0.08686800  0.65132800  0.30900800  1
  S  S34  1  0.59797300  0.37658500  0.33011700  1
  S  S35  1  0.40196400  0.87675700  0.66982900  1
  S  S36  1  0.41583400  0.37762200  0.70841300  1
  S  S37  1  0.58411000  0.87753300  0.29153600  1
  S  S38  1  0.90384500  0.63512800  0.67360600  1
  S  S39  1  0.09602000  0.13513600  0.32638500  1
  N  N40  1  0.83675000  0.40745200  0.95107600  1
  N  N41  1  0.16327500  0.90741300  0.04896100  1
  N  N42  1  0.75112300  0.96514000  0.99662100  1
  N  N43  1  0.24896300  0.46510700  0.00341000  1
  N  N44  1  0.75616000  0.54002600  0.01756000  1
  N  N45  1  0.24399700  0.03993700  0.98253000  1
  N  N46  1  0.70619600  0.12006400  0.05160600  1
  N  N47  1  0.29376900  0.62004100  0.94843200  1
