# generated using pymatgen
data_Er2MgS4
_symmetry_space_group_name_H-M   'P 1'
_cell_length_a   7.13348659
_cell_length_b   7.13348659
_cell_length_c   7.13348659
_cell_angle_alpha   110.49071820
_cell_angle_beta   110.49071820
_cell_angle_gamma   107.45091979
_symmetry_Int_Tables_number   1
_chemical_formula_structural   Er2MgS4
_chemical_formula_sum   'Er4 Mg2 S8'
_cell_volume   279.17740246
_cell_formula_units_Z   2
loop_
 _symmetry_equiv_pos_site_id
 _symmetry_equiv_pos_as_xyz
  1  'x, y, z'
loop_
 _atom_site_type_symbol
 _atom_site_label
 _atom_site_symmetry_multiplicity
 _atom_site_fract_x
 _atom_site_fract_y
 _atom_site_fract_z
 _atom_site_occupancy
  Er  Er0  1  0.87500000  0.75715100  0.38215100  1
  Er  Er1  1  0.50715100  0.12500000  0.88215100  1
  Er  Er2  1  0.37500000  0.49284900  0.61784900  1
  Er  Er3  1  0.24284900  0.62500000  0.11784900  1
  Mg  Mg4  1  0.00000000  0.00000000  0.00000000  1
  Mg  Mg5  1  0.75000000  0.25000000  0.50000000  1
  S  S6  1  0.50691800  0.37917000  0.26125500  1
  S  S7  1  0.75433800  0.49308200  0.87225200  1
  S  S8  1  0.11791400  0.24566200  0.73874500  1
  S  S9  1  0.62083000  0.88208600  0.12774800  1
  S  S10  1  0.24308200  0.00433800  0.37225200  1
  S  S11  1  0.99566200  0.36791400  0.23874500  1
  S  S12  1  0.63208600  0.87083000  0.62774800  1
  S  S13  1  0.12917000  0.75691800  0.76125500  1
