# generated using pymatgen
data_Dy2MgS4
_symmetry_space_group_name_H-M   'P 1'
_cell_length_a   7.91264792
_cell_length_b   7.91264792
_cell_length_c   7.91264792
_cell_angle_alpha   60.00000000
_cell_angle_beta   60.00000000
_cell_angle_gamma   60.00000000
_symmetry_Int_Tables_number   1
_chemical_formula_structural   Dy2MgS4
_chemical_formula_sum   'Dy4 Mg2 S8'
_cell_volume   350.30838071
_cell_formula_units_Z   2
loop_
 _symmetry_equiv_pos_site_id
 _symmetry_equiv_pos_as_xyz
  1  'x, y, z'
loop_
 _atom_site_type_symbol
 _atom_site_label
 _atom_site_symmetry_multiplicity
 _atom_site_fract_x
 _atom_site_fract_y
 _atom_site_fract_z
 _atom_site_occupancy
  Dy  Dy0  1  0.12500000  0.62500000  0.12500000  1
  Dy  Dy1  1  0.12500000  0.12500000  0.62500000  1
  Dy  Dy2  1  0.62500000  0.12500000  0.12500000  1
  Dy  Dy3  1  0.12500000  0.12500000  0.12500000  1
  Mg  Mg4  1  0.50000000  0.50000000  0.50000000  1
  Mg  Mg5  1  0.75000000  0.75000000  0.75000000  1
  S  S6  1  0.87971100  0.87971100  0.87971100  1
  S  S7  1  0.36086600  0.87971100  0.87971100  1
  S  S8  1  0.87971100  0.36086600  0.87971100  1
  S  S9  1  0.87971100  0.87971100  0.36086600  1
  S  S10  1  0.37028900  0.37028900  0.88913400  1
  S  S11  1  0.37028900  0.88913400  0.37028900  1
  S  S12  1  0.88913400  0.37028900  0.37028900  1
  S  S13  1  0.37028900  0.37028900  0.37028900  1
