# generated using pymatgen
data_Sm2MgSe4
_symmetry_space_group_name_H-M   'P 1'
_cell_length_a   8.29779700
_cell_length_b   7.76863900
_cell_length_c   12.29110400
_cell_angle_alpha   90.00000000
_cell_angle_beta   90.00000000
_cell_angle_gamma   90.00000000
_symmetry_Int_Tables_number   1
_chemical_formula_structural   Sm2MgSe4
_chemical_formula_sum   'Sm8 Mg4 Se16'
_cell_volume   792.31639028
_cell_formula_units_Z   4
loop_
 _symmetry_equiv_pos_site_id
 _symmetry_equiv_pos_as_xyz
  1  'x, y, z'
loop_
 _atom_site_type_symbol
 _atom_site_label
 _atom_site_symmetry_multiplicity
 _atom_site_fract_x
 _atom_site_fract_y
 _atom_site_fract_z
 _atom_site_occupancy
  Sm  Sm0  1  0.05308400  0.75000000  0.31342700  1
  Sm  Sm1  1  0.94691600  0.25000000  0.68657300  1
  Sm  Sm2  1  0.44691600  0.25000000  0.81342700  1
  Sm  Sm3  1  0.55308400  0.75000000  0.18657300  1
  Sm  Sm4  1  0.06127300  0.25000000  0.02745400  1
  Sm  Sm5  1  0.93872700  0.75000000  0.97254600  1
  Sm  Sm6  1  0.43872700  0.75000000  0.52745400  1
  Sm  Sm7  1  0.56127300  0.25000000  0.47254600  1
  Mg  Mg8  1  0.17942400  0.25000000  0.40941600  1
  Mg  Mg9  1  0.82057600  0.75000000  0.59058400  1
  Mg  Mg10  1  0.32057600  0.75000000  0.90941600  1
  Mg  Mg11  1  0.67942400  0.25000000  0.09058400  1
  Se  Se12  1  0.13633100  0.50009600  0.84364400  1
  Se  Se13  1  0.86366900  0.49990400  0.15635600  1
  Se  Se14  1  0.36366900  0.49990400  0.34364400  1
  Se  Se15  1  0.63633100  0.50009600  0.65635600  1
  Se  Se16  1  0.63633100  0.99990400  0.65635600  1
  Se  Se17  1  0.36366900  0.00009600  0.34364400  1
  Se  Se18  1  0.86366900  0.00009600  0.15635600  1
  Se  Se19  1  0.13633100  0.99990400  0.84364400  1
  Se  Se20  1  0.89137600  0.25000000  0.45384300  1
  Se  Se21  1  0.10862400  0.75000000  0.54615700  1
  Se  Se22  1  0.60862400  0.75000000  0.95384300  1
  Se  Se23  1  0.39137600  0.25000000  0.04615700  1
  Se  Se24  1  0.22409800  0.75000000  0.11226000  1
  Se  Se25  1  0.77590200  0.25000000  0.88774000  1
  Se  Se26  1  0.27590200  0.25000000  0.61226000  1
  Se  Se27  1  0.72409800  0.75000000  0.38774000  1
