# generated using pymatgen
data_Nd2MgS4
_symmetry_space_group_name_H-M   'P 1'
_cell_length_a   7.81472800
_cell_length_b   13.01256500
_cell_length_c   13.05529600
_cell_angle_alpha   90.00000000
_cell_angle_beta   90.00000000
_cell_angle_gamma   90.00000000
_symmetry_Int_Tables_number   1
_chemical_formula_structural   Nd2MgS4
_chemical_formula_sum   'Nd16 Mg8 S32'
_cell_volume   1327.58855997
_cell_formula_units_Z   8
loop_
 _symmetry_equiv_pos_site_id
 _symmetry_equiv_pos_as_xyz
  1  'x, y, z'
loop_
 _atom_site_type_symbol
 _atom_site_label
 _atom_site_symmetry_multiplicity
 _atom_site_fract_x
 _atom_site_fract_y
 _atom_site_fract_z
 _atom_site_occupancy
  Nd  Nd0  1  0.88587900  0.68425400  0.10946300  1
  Nd  Nd1  1  0.11412100  0.18425400  0.89053700  1
  Nd  Nd2  1  0.88587900  0.18425400  0.39053700  1
  Nd  Nd3  1  0.11412100  0.68425400  0.60946300  1
  Nd  Nd4  1  0.38403100  0.32613200  0.12682000  1
  Nd  Nd5  1  0.61596900  0.82613200  0.87318000  1
  Nd  Nd6  1  0.38403100  0.82613200  0.37318000  1
  Nd  Nd7  1  0.61596900  0.32613200  0.62682000  1
  Nd  Nd8  1  0.63053900  0.99414700  0.13472700  1
  Nd  Nd9  1  0.36946100  0.49414700  0.86527300  1
  Nd  Nd10  1  0.63053900  0.49414700  0.36527300  1
  Nd  Nd11  1  0.36946100  0.99414700  0.63472700  1
  Nd  Nd12  1  0.13054900  0.99314200  0.13556000  1
  Nd  Nd13  1  0.86945100  0.49314200  0.86444000  1
  Nd  Nd14  1  0.13054900  0.49314200  0.36444000  1
  Nd  Nd15  1  0.86945100  0.99314200  0.63556000  1
  Mg  Mg16  1  0.38513300  0.69308300  0.11146700  1
  Mg  Mg17  1  0.61486700  0.19308300  0.88853300  1
  Mg  Mg18  1  0.38513300  0.19308300  0.38853300  1
  Mg  Mg19  1  0.61486700  0.69308300  0.61146700  1
  Mg  Mg20  1  0.87993700  0.32016100  0.12578400  1
  Mg  Mg21  1  0.12006300  0.82016100  0.87421600  1
  Mg  Mg22  1  0.87993700  0.82016100  0.37421600  1
  Mg  Mg23  1  0.12006300  0.32016100  0.62578400  1
  S  S24  1  0.88196500  0.87927300  0.01076500  1
  S  S25  1  0.11803500  0.37927300  0.98923500  1
  S  S26  1  0.88196500  0.37927300  0.48923500  1
  S  S27  1  0.11803500  0.87927300  0.51076500  1
  S  S28  1  0.38236200  0.12908500  0.02826900  1
  S  S29  1  0.61763800  0.62908500  0.97173100  1
  S  S30  1  0.38236200  0.62908500  0.47173100  1
  S  S31  1  0.61763800  0.12908500  0.52826900  1
  S  S32  1  0.37227100  0.86708500  0.02536300  1
  S  S33  1  0.62772900  0.36708500  0.97463700  1
  S  S34  1  0.37227100  0.36708500  0.47463700  1
  S  S35  1  0.62772900  0.86708500  0.52536300  1
  S  S36  1  0.87386200  0.14014500  0.04679400  1
  S  S37  1  0.12613800  0.64014500  0.95320600  1
  S  S38  1  0.87386200  0.64014500  0.45320600  1
  S  S39  1  0.12613800  0.14014500  0.54679400  1
  S  S40  1  0.88084000  0.49551900  0.20988500  1
  S  S41  1  0.11916000  0.99551900  0.79011500  1
  S  S42  1  0.88084000  0.99551900  0.29011500  1
  S  S43  1  0.11916000  0.49551900  0.70988500  1
  S  S44  1  0.38131900  0.52436300  0.21040100  1
  S  S45  1  0.61868100  0.02436300  0.78959900  1
  S  S46  1  0.38131900  0.02436300  0.28959900  1
  S  S47  1  0.61868100  0.52436300  0.71040100  1
  S  S48  1  0.13278300  0.77388200  0.23259800  1
  S  S49  1  0.86721700  0.27388200  0.76740200  1
  S  S50  1  0.13278300  0.27388200  0.26740200  1
  S  S51  1  0.86721700  0.77388200  0.73259800  1
  S  S52  1  0.63504500  0.77673100  0.23210800  1
  S  S53  1  0.36495500  0.27673100  0.76789200  1
  S  S54  1  0.63504500  0.27673100  0.26789200  1
  S  S55  1  0.36495500  0.77673100  0.73210800  1
