# generated using pymatgen
data_AsP3(PbO8)2
_symmetry_space_group_name_H-M   'P 1'
_cell_length_a   5.58549897
_cell_length_b   8.79016987
_cell_length_c   7.71922816
_cell_angle_alpha   118.83386233
_cell_angle_beta   100.31687208
_cell_angle_gamma   88.47058947
_symmetry_Int_Tables_number   1
_chemical_formula_structural   AsP3(PbO8)2
_chemical_formula_sum   'As1 P3 Pb2 O16'
_cell_volume   325.85574806
_cell_formula_units_Z   1
loop_
 _symmetry_equiv_pos_site_id
 _symmetry_equiv_pos_as_xyz
  1  'x, y, z'
loop_
 _atom_site_type_symbol
 _atom_site_label
 _atom_site_symmetry_multiplicity
 _atom_site_fract_x
 _atom_site_fract_y
 _atom_site_fract_z
 _atom_site_occupancy
  As  As0  1  0.12964100  0.80360000  0.70283300  1
  P  P1  1  0.86881900  0.19347900  0.29366900  1
  P  P2  1  0.71830200  0.29045000  0.80786700  1
  P  P3  1  0.28829500  0.70826600  0.19093200  1
  Pb  Pb4  1  0.70195100  0.73021100  0.93011800  1
  Pb  Pb5  1  0.30762400  0.27099000  0.07521300  1
  O  O6  1  0.54258700  0.18029600  0.84424400  1
  O  O7  1  0.47102100  0.81232800  0.15383000  1
  O  O8  1  0.73259500  0.15317600  0.57144900  1
  O  O9  1  0.26319800  0.85887900  0.41970500  1
  O  O10  1  0.93935500  0.22526600  0.52644900  1
  O  O11  1  0.04594400  0.79841500  0.46141100  1
  O  O12  1  0.97322900  0.33063400  0.93452700  1
  O  O13  1  0.04208600  0.66450500  0.05211700  1
  O  O14  1  0.14082900  0.00720600  0.90004100  1
  O  O15  1  0.85062300  0.00038100  0.14471600  1
  O  O16  1  0.60028500  0.45464700  0.82148300  1
  O  O17  1  0.39696700  0.55022500  0.20287200  1
  O  O18  1  0.86829400  0.69165800  0.67945200  1
  O  O19  1  0.09851600  0.29333200  0.30316400  1
  O  O20  1  0.38629000  0.69425200  0.69730600  1
  O  O21  1  0.63354800  0.28780700  0.28660000  1
