# generated using pymatgen
data_MgScSe3
_symmetry_space_group_name_H-M   'P 1'
_cell_length_a   7.26437613
_cell_length_b   7.26437613
_cell_length_c   6.79214662
_cell_angle_alpha   76.31356707
_cell_angle_beta   76.31356707
_cell_angle_gamma   121.85431743
_symmetry_Int_Tables_number   1
_chemical_formula_structural   MgScSe3
_chemical_formula_sum   'Mg2 Sc2 Se6'
_cell_volume   265.91734971
_cell_formula_units_Z   2
loop_
 _symmetry_equiv_pos_site_id
 _symmetry_equiv_pos_as_xyz
  1  'x, y, z'
loop_
 _atom_site_type_symbol
 _atom_site_label
 _atom_site_symmetry_multiplicity
 _atom_site_fract_x
 _atom_site_fract_y
 _atom_site_fract_z
 _atom_site_occupancy
  Mg  Mg0  1  0.33525300  0.66474700  0.00000000  1
  Mg  Mg1  1  0.66474700  0.33525300  0.00000000  1
  Sc  Sc2  1  0.80302100  0.80302100  0.32104700  1
  Sc  Sc3  1  0.19697900  0.19697900  0.67895300  1
  Se  Se4  1  0.20348100  0.86730800  0.22579200  1
  Se  Se5  1  0.79651900  0.13269200  0.77420800  1
  Se  Se6  1  0.13269200  0.79651900  0.77420800  1
  Se  Se7  1  0.86730800  0.20348100  0.22579200  1
  Se  Se8  1  0.52769100  0.52769100  0.74280600  1
  Se  Se9  1  0.47230900  0.47230900  0.25719400  1
