# generated using pymatgen
data_Mg(ScS2)2
_symmetry_space_group_name_H-M   'P 1'
_cell_length_a   3.63873100
_cell_length_b   12.10543600
_cell_length_c   12.58035000
_cell_angle_alpha   90.00000000
_cell_angle_beta   90.00000000
_cell_angle_gamma   90.00000000
_symmetry_Int_Tables_number   1
_chemical_formula_structural   Mg(ScS2)2
_chemical_formula_sum   'Mg4 Sc8 S16'
_cell_volume   554.14460649
_cell_formula_units_Z   4
loop_
 _symmetry_equiv_pos_site_id
 _symmetry_equiv_pos_as_xyz
  1  'x, y, z'
loop_
 _atom_site_type_symbol
 _atom_site_label
 _atom_site_symmetry_multiplicity
 _atom_site_fract_x
 _atom_site_fract_y
 _atom_site_fract_z
 _atom_site_occupancy
  Mg  Mg0  1  0.75000000  0.12506400  0.42510700  1
  Mg  Mg1  1  0.25000000  0.87493600  0.57489300  1
  Mg  Mg2  1  0.25000000  0.37493600  0.92510700  1
  Mg  Mg3  1  0.75000000  0.62506400  0.07489300  1
  Sc  Sc4  1  0.25000000  0.10956500  0.07949600  1
  Sc  Sc5  1  0.75000000  0.89043500  0.92050400  1
  Sc  Sc6  1  0.75000000  0.39043500  0.57949600  1
  Sc  Sc7  1  0.25000000  0.60956500  0.42050400  1
  Sc  Sc8  1  0.25000000  0.14655900  0.70217000  1
  Sc  Sc9  1  0.75000000  0.85344100  0.29783000  1
  Sc  Sc10  1  0.75000000  0.35344100  0.20217000  1
  Sc  Sc11  1  0.25000000  0.64655900  0.79783000  1
  S  S12  1  0.75000000  0.02537000  0.61393400  1
  S  S13  1  0.25000000  0.97463000  0.38606600  1
  S  S14  1  0.25000000  0.47463000  0.11393400  1
  S  S15  1  0.75000000  0.52537000  0.88606600  1
  S  S16  1  0.25000000  0.03283800  0.88106800  1
  S  S17  1  0.75000000  0.96716200  0.11893200  1
  S  S18  1  0.75000000  0.46716200  0.38106800  1
  S  S19  1  0.25000000  0.53283800  0.61893200  1
  S  S20  1  0.25000000  0.21692400  0.25902000  1
  S  S21  1  0.75000000  0.78307600  0.74098000  1
  S  S22  1  0.75000000  0.28307600  0.75902000  1
  S  S23  1  0.25000000  0.71692400  0.24098000  1
  S  S24  1  0.75000000  0.24869200  0.02180600  1
  S  S25  1  0.25000000  0.75130800  0.97819400  1
  S  S26  1  0.25000000  0.25130800  0.52180600  1
  S  S27  1  0.75000000  0.74869200  0.47819400  1
