# generated using pymatgen
data_Pm2MgS4
_symmetry_space_group_name_H-M   'P 1'
_cell_length_a   3.94482100
_cell_length_b   12.89227000
_cell_length_c   13.92799700
_cell_angle_alpha   90.00000000
_cell_angle_beta   90.00000000
_cell_angle_gamma   90.00000000
_symmetry_Int_Tables_number   1
_chemical_formula_structural   Pm2MgS4
_chemical_formula_sum   'Pm8 Mg4 S16'
_cell_volume   708.34585728
_cell_formula_units_Z   4
loop_
 _symmetry_equiv_pos_site_id
 _symmetry_equiv_pos_as_xyz
  1  'x, y, z'
loop_
 _atom_site_type_symbol
 _atom_site_label
 _atom_site_symmetry_multiplicity
 _atom_site_fract_x
 _atom_site_fract_y
 _atom_site_fract_z
 _atom_site_occupancy
  Pm  Pm0  1  0.25000000  0.12100300  0.07362400  1
  Pm  Pm1  1  0.75000000  0.87899700  0.92637600  1
  Pm  Pm2  1  0.75000000  0.37899700  0.57362400  1
  Pm  Pm3  1  0.25000000  0.62100300  0.42637600  1
  Pm  Pm4  1  0.25000000  0.13310400  0.70720500  1
  Pm  Pm5  1  0.75000000  0.86689600  0.29279500  1
  Pm  Pm6  1  0.75000000  0.36689600  0.20720500  1
  Pm  Pm7  1  0.25000000  0.63310400  0.79279500  1
  Mg  Mg8  1  0.75000000  0.10653000  0.46186800  1
  Mg  Mg9  1  0.25000000  0.89347000  0.53813200  1
  Mg  Mg10  1  0.25000000  0.39347000  0.96186800  1
  Mg  Mg11  1  0.75000000  0.60653000  0.03813200  1
  S  S12  1  0.75000000  0.00214900  0.61425300  1
  S  S13  1  0.25000000  0.99785100  0.38574700  1
  S  S14  1  0.25000000  0.49785100  0.11425300  1
  S  S15  1  0.75000000  0.50214900  0.88574700  1
  S  S16  1  0.25000000  0.02462300  0.88497600  1
  S  S17  1  0.75000000  0.97537700  0.11502400  1
  S  S18  1  0.75000000  0.47537700  0.38497600  1
  S  S19  1  0.25000000  0.52462300  0.61502400  1
  S  S20  1  0.25000000  0.22927700  0.24452800  1
  S  S21  1  0.75000000  0.77072300  0.75547200  1
  S  S22  1  0.75000000  0.27072300  0.74452800  1
  S  S23  1  0.25000000  0.72927700  0.25547200  1
  S  S24  1  0.75000000  0.26866800  0.01601600  1
  S  S25  1  0.25000000  0.73133200  0.98398400  1
  S  S26  1  0.25000000  0.23133200  0.51601600  1
  S  S27  1  0.75000000  0.76866800  0.48398400  1
