# generated using pymatgen
data_CeMgS3
_symmetry_space_group_name_H-M   'P 1'
_cell_length_a   6.68376168
_cell_length_b   6.68376168
_cell_length_c   6.82207241
_cell_angle_alpha   73.54189177
_cell_angle_beta   73.54189177
_cell_angle_gamma   109.63636125
_symmetry_Int_Tables_number   1
_chemical_formula_structural   CeMgS3
_chemical_formula_sum   'Ce2 Mg2 S6'
_cell_volume   249.93858953
_cell_formula_units_Z   2
loop_
 _symmetry_equiv_pos_site_id
 _symmetry_equiv_pos_as_xyz
  1  'x, y, z'
loop_
 _atom_site_type_symbol
 _atom_site_label
 _atom_site_symmetry_multiplicity
 _atom_site_fract_x
 _atom_site_fract_y
 _atom_site_fract_z
 _atom_site_occupancy
  Ce  Ce0  1  0.80480300  0.80480300  0.26277400  1
  Ce  Ce1  1  0.19519700  0.19519700  0.73722600  1
  Mg  Mg2  1  0.32613000  0.67387000  0.00000000  1
  Mg  Mg3  1  0.67387000  0.32613000  0.00000000  1
  S  S4  1  0.24786100  0.94414000  0.17647900  1
  S  S5  1  0.75213900  0.05586000  0.82352100  1
  S  S6  1  0.05586000  0.75213900  0.82352100  1
  S  S7  1  0.94414000  0.24786100  0.17647900  1
  S  S8  1  0.55594800  0.55594800  0.71521600  1
  S  S9  1  0.44405200  0.44405200  0.28478400  1
