data_image0
_chemical_formula_structural       Ba3Na3P3
_chemical_formula_sum              "Ba3 Na3 P3"
_cell_length_a       7.96549
_cell_length_b       7.96549
_cell_length_c       4.68328
_cell_angle_alpha    90
_cell_angle_beta     90
_cell_angle_gamma    120

_space_group_name_H-M_alt    "P 1"
_space_group_IT_number       1

loop_
  _space_group_symop_operation_xyz
  'x, y, z'

loop_
  _atom_site_type_symbol
  _atom_site_label
  _atom_site_symmetry_multiplicity
  _atom_site_fract_x
  _atom_site_fract_y
  _atom_site_fract_z
  _atom_site_occupancy
  Ba  Ba1       1.0  0.58500  0.00000  0.50000  1.0000
  Ba  Ba2       1.0  0.41500  0.41500  0.50000  1.0000
  Ba  Ba3       1.0  0.00000  0.58500  0.50000  1.0000
  Na  Na1       1.0  0.23800  0.00000  0.00000  1.0000
  Na  Na2       1.0  0.00000  0.23800  0.00000  1.0000
  Na  Na3       1.0  0.76200  0.76200  0.00000  1.0000
  P   P1        1.0  0.66700  0.33300  0.00000  1.0000
  P   P2        1.0  0.33300  0.66700  0.00000  1.0000
  P   P3        1.0  0.00000  0.00000  0.50000  1.0000
