# generated using pymatgen
data_CeMgS3
_symmetry_space_group_name_H-M   'P 1'
_cell_length_a   6.84561000
_cell_length_b   6.84560986
_cell_length_c   17.55469100
_cell_angle_alpha   90.00000000
_cell_angle_beta   90.00000000
_cell_angle_gamma   120.00000069
_symmetry_Int_Tables_number   1
_chemical_formula_structural   CeMgS3
_chemical_formula_sum   'Ce6 Mg6 S18'
_cell_volume   712.43970608
_cell_formula_units_Z   6
loop_
 _symmetry_equiv_pos_site_id
 _symmetry_equiv_pos_as_xyz
  1  'x, y, z'
loop_
 _atom_site_type_symbol
 _atom_site_label
 _atom_site_symmetry_multiplicity
 _atom_site_fract_x
 _atom_site_fract_y
 _atom_site_fract_z
 _atom_site_occupancy
  Ce  Ce0  1  0.00000000  0.00000000  0.35385200  1
  Ce  Ce1  1  0.00000000  0.00000000  0.64614800  1
  Ce  Ce2  1  0.66666700  0.33333300  0.68718500  1
  Ce  Ce3  1  0.66666700  0.33333300  0.97948100  1
  Ce  Ce4  1  0.33333300  0.66666700  0.02051900  1
  Ce  Ce5  1  0.33333300  0.66666700  0.31281500  1
  Mg  Mg6  1  0.00000000  0.00000000  0.15402600  1
  Mg  Mg7  1  0.00000000  0.00000000  0.84597400  1
  Mg  Mg8  1  0.66666700  0.33333300  0.48735900  1
  Mg  Mg9  1  0.66666700  0.33333300  0.17930700  1
  Mg  Mg10  1  0.33333300  0.66666700  0.82069300  1
  Mg  Mg11  1  0.33333300  0.66666700  0.51264100  1
  S  S12  1  0.97568700  0.35008200  0.58327900  1
  S  S13  1  0.02431300  0.64991800  0.41672100  1
  S  S14  1  0.64991800  0.62560500  0.58327900  1
  S  S15  1  0.35008200  0.37439500  0.41672100  1
  S  S16  1  0.37439500  0.02431300  0.58327900  1
  S  S17  1  0.62560500  0.97568700  0.41672100  1
  S  S18  1  0.64235400  0.68341500  0.91661200  1
  S  S19  1  0.69098000  0.98325100  0.75005400  1
  S  S20  1  0.31658500  0.95893800  0.91661200  1
  S  S21  1  0.01674900  0.70772800  0.75005400  1
  S  S22  1  0.04106200  0.35764600  0.91661200  1
  S  S23  1  0.29227200  0.30902000  0.75005400  1
  S  S24  1  0.30902000  0.01674900  0.24994600  1
  S  S25  1  0.35764600  0.31658500  0.08338800  1
  S  S26  1  0.98325100  0.29227200  0.24994600  1
  S  S27  1  0.68341500  0.04106200  0.08338800  1
  S  S28  1  0.70772800  0.69098000  0.24994600  1
  S  S29  1  0.95893800  0.64235400  0.08338800  1
