# generated using pymatgen
data_Yb2MgS4
_symmetry_space_group_name_H-M   'P 1'
_cell_length_a   10.59234600
_cell_length_b   8.58800500
_cell_length_c   7.12178100
_cell_angle_alpha   90.00000000
_cell_angle_beta   90.00000000
_cell_angle_gamma   90.00000000
_symmetry_Int_Tables_number   1
_chemical_formula_structural   Yb2MgS4
_chemical_formula_sum   'Yb8 Mg4 S16'
_cell_volume   647.84790976
_cell_formula_units_Z   4
loop_
 _symmetry_equiv_pos_site_id
 _symmetry_equiv_pos_as_xyz
  1  'x, y, z'
loop_
 _atom_site_type_symbol
 _atom_site_label
 _atom_site_symmetry_multiplicity
 _atom_site_fract_x
 _atom_site_fract_y
 _atom_site_fract_z
 _atom_site_occupancy
  Yb  Yb0  1  0.00000000  0.00000000  0.50000000  1
  Yb  Yb1  1  0.50000000  0.00000000  0.00000000  1
  Yb  Yb2  1  0.50000000  0.50000000  0.00000000  1
  Yb  Yb3  1  0.00000000  0.50000000  0.50000000  1
  Yb  Yb4  1  0.20413300  0.75000000  0.92069400  1
  Yb  Yb5  1  0.79586700  0.25000000  0.07930600  1
  Yb  Yb6  1  0.29586700  0.25000000  0.42069400  1
  Yb  Yb7  1  0.70413300  0.75000000  0.57930600  1
  Mg  Mg8  1  0.13058700  0.25000000  0.94501900  1
  Mg  Mg9  1  0.86941300  0.75000000  0.05498100  1
  Mg  Mg10  1  0.36941300  0.75000000  0.44501900  1
  Mg  Mg11  1  0.63058700  0.25000000  0.55498100  1
  S  S12  1  0.20996100  0.05019000  0.73967200  1
  S  S13  1  0.79003900  0.94981000  0.26032800  1
  S  S14  1  0.29003900  0.94981000  0.23967200  1
  S  S15  1  0.70996100  0.05019000  0.76032800  1
  S  S16  1  0.70996100  0.44981000  0.76032800  1
  S  S17  1  0.29003900  0.55019000  0.23967200  1
  S  S18  1  0.79003900  0.55019000  0.26032800  1
  S  S19  1  0.20996100  0.44981000  0.73967200  1
  S  S20  1  0.06411000  0.75000000  0.25147200  1
  S  S21  1  0.93589000  0.25000000  0.74852800  1
  S  S22  1  0.43589000  0.25000000  0.75147200  1
  S  S23  1  0.56411000  0.75000000  0.24852800  1
  S  S24  1  0.04726400  0.25000000  0.25963000  1
  S  S25  1  0.95273600  0.75000000  0.74037000  1
  S  S26  1  0.45273600  0.75000000  0.75963000  1
  S  S27  1  0.54726400  0.25000000  0.24037000  1
