# generated using pymatgen
data_La2MgS4
_symmetry_space_group_name_H-M   'P 1'
_cell_length_a   6.67064000
_cell_length_b   8.40316400
_cell_length_c   14.29171600
_cell_angle_alpha   90.00000000
_cell_angle_beta   90.00000000
_cell_angle_gamma   90.00000000
_symmetry_Int_Tables_number   1
_chemical_formula_structural   La2MgS4
_chemical_formula_sum   'La8 Mg4 S16'
_cell_volume   801.11473591
_cell_formula_units_Z   4
loop_
 _symmetry_equiv_pos_site_id
 _symmetry_equiv_pos_as_xyz
  1  'x, y, z'
loop_
 _atom_site_type_symbol
 _atom_site_label
 _atom_site_symmetry_multiplicity
 _atom_site_fract_x
 _atom_site_fract_y
 _atom_site_fract_z
 _atom_site_occupancy
  La  La0  1  0.50000000  0.00000000  0.00000000  1
  La  La1  1  0.00000000  0.00000000  0.50000000  1
  La  La2  1  0.00000000  0.50000000  0.50000000  1
  La  La3  1  0.50000000  0.50000000  0.00000000  1
  La  La4  1  0.99772800  0.75000000  0.22940200  1
  La  La5  1  0.00227200  0.25000000  0.77059800  1
  La  La6  1  0.49772800  0.25000000  0.27059800  1
  La  La7  1  0.50227200  0.75000000  0.72940200  1
  Mg  Mg8  1  0.92360100  0.25000000  0.09267100  1
  Mg  Mg9  1  0.07639900  0.75000000  0.90732900  1
  Mg  Mg10  1  0.42360100  0.75000000  0.40732900  1
  Mg  Mg11  1  0.57639900  0.25000000  0.59267100  1
  S  S12  1  0.75249700  0.02074500  0.16646300  1
  S  S13  1  0.24750300  0.97925500  0.83353700  1
  S  S14  1  0.25249700  0.97925500  0.33353700  1
  S  S15  1  0.74750300  0.02074500  0.66646300  1
  S  S16  1  0.74750300  0.47925500  0.66646300  1
  S  S17  1  0.25249700  0.52074500  0.33353700  1
  S  S18  1  0.24750300  0.52074500  0.83353700  1
  S  S19  1  0.75249700  0.47925500  0.16646300  1
  S  S20  1  0.24013800  0.75000000  0.06425600  1
  S  S21  1  0.75986200  0.25000000  0.93574400  1
  S  S22  1  0.74013800  0.25000000  0.43574400  1
  S  S23  1  0.25986200  0.75000000  0.56425600  1
  S  S24  1  0.28590800  0.25000000  0.09322000  1
  S  S25  1  0.71409200  0.75000000  0.90678000  1
  S  S26  1  0.78590800  0.75000000  0.40678000  1
  S  S27  1  0.21409200  0.25000000  0.59322000  1
