# generated using pymatgen
data_Tm2MgS4
_symmetry_space_group_name_H-M   'P 1'
_cell_length_a   12.49870000
_cell_length_b   7.45255200
_cell_length_c   12.69488900
_cell_angle_alpha   90.00000000
_cell_angle_beta   90.00000000
_cell_angle_gamma   90.00000000
_symmetry_Int_Tables_number   1
_chemical_formula_structural   Tm2MgS4
_chemical_formula_sum   'Tm16 Mg8 S32'
_cell_volume   1182.49351297
_cell_formula_units_Z   8
loop_
 _symmetry_equiv_pos_site_id
 _symmetry_equiv_pos_as_xyz
  1  'x, y, z'
loop_
 _atom_site_type_symbol
 _atom_site_label
 _atom_site_symmetry_multiplicity
 _atom_site_fract_x
 _atom_site_fract_y
 _atom_site_fract_z
 _atom_site_occupancy
  Tm  Tm0  1  0.10915000  0.88251500  0.68593400  1
  Tm  Tm1  1  0.89085000  0.11748500  0.18593400  1
  Tm  Tm2  1  0.39085000  0.88251500  0.18593400  1
  Tm  Tm3  1  0.60915000  0.11748500  0.68593400  1
  Tm  Tm4  1  0.12797000  0.38131800  0.32633400  1
  Tm  Tm5  1  0.87203000  0.61868200  0.82633400  1
  Tm  Tm6  1  0.37203000  0.38131800  0.82633400  1
  Tm  Tm7  1  0.62797000  0.61868200  0.32633400  1
  Tm  Tm8  1  0.13356900  0.62901800  0.99152000  1
  Tm  Tm9  1  0.86643100  0.37098200  0.49152000  1
  Tm  Tm10  1  0.36643100  0.62901800  0.49152000  1
  Tm  Tm11  1  0.63356900  0.37098200  0.99152000  1
  Tm  Tm12  1  0.13366600  0.12912500  0.99059600  1
  Tm  Tm13  1  0.86633400  0.87087500  0.49059600  1
  Tm  Tm14  1  0.36633400  0.12912500  0.49059600  1
  Tm  Tm15  1  0.63366600  0.87087500  0.99059600  1
  Mg  Mg16  1  0.11001700  0.38080300  0.68997800  1
  Mg  Mg17  1  0.88998300  0.61919700  0.18997800  1
  Mg  Mg18  1  0.38998300  0.38080300  0.18997800  1
  Mg  Mg19  1  0.61001700  0.61919700  0.68997800  1
  Mg  Mg20  1  0.12608300  0.87805100  0.32188900  1
  Mg  Mg21  1  0.87391700  0.12194900  0.82188900  1
  Mg  Mg22  1  0.37391700  0.87805100  0.82188900  1
  Mg  Mg23  1  0.62608300  0.12194900  0.32188900  1
  S  S24  1  0.01354600  0.87678800  0.87706200  1
  S  S25  1  0.98645400  0.12321200  0.37706200  1
  S  S26  1  0.48645400  0.87678800  0.37706200  1
  S  S27  1  0.51354600  0.12321200  0.87706200  1
  S  S28  1  0.03368200  0.37618100  0.13114000  1
  S  S29  1  0.96631800  0.62381900  0.63114000  1
  S  S30  1  0.46631800  0.37618100  0.63114000  1
  S  S31  1  0.53368200  0.62381900  0.13114000  1
  S  S32  1  0.02083100  0.37435400  0.87038900  1
  S  S33  1  0.97916900  0.62564600  0.37038900  1
  S  S34  1  0.47916900  0.37435400  0.37038900  1
  S  S35  1  0.52083100  0.62564600  0.87038900  1
  S  S36  1  0.04135400  0.87385500  0.13634200  1
  S  S37  1  0.95864600  0.12614500  0.63634200  1
  S  S38  1  0.45864600  0.87385500  0.63634200  1
  S  S39  1  0.54135400  0.12614500  0.13634200  1
  S  S40  1  0.21342300  0.87984700  0.50394600  1
  S  S41  1  0.78657700  0.12015300  0.00394600  1
  S  S42  1  0.28657700  0.87984700  0.00394600  1
  S  S43  1  0.71342300  0.12015300  0.50394600  1
  S  S44  1  0.21397800  0.37965900  0.51794700  1
  S  S45  1  0.78602200  0.62034100  0.01794700  1
  S  S46  1  0.28602200  0.37965900  0.01794700  1
  S  S47  1  0.71397800  0.62034100  0.51794700  1
  S  S48  1  0.23152800  0.12949400  0.77666400  1
  S  S49  1  0.76847200  0.87050600  0.27666400  1
  S  S50  1  0.26847200  0.12949400  0.27666400  1
  S  S51  1  0.73152800  0.87050600  0.77666400  1
  S  S52  1  0.23192400  0.63222200  0.77726000  1
  S  S53  1  0.76807600  0.36777800  0.27726000  1
  S  S54  1  0.26807600  0.63222200  0.27726000  1
  S  S55  1  0.73192400  0.36777800  0.77726000  1
