# generated using pymatgen
data_HoMgS3
_symmetry_space_group_name_H-M   'P 1'
_cell_length_a   6.64966900
_cell_length_b   6.64966901
_cell_length_c   18.00018600
_cell_angle_alpha   90.00000000
_cell_angle_beta   90.00000000
_cell_angle_gamma   120.00000494
_symmetry_Int_Tables_number   1
_chemical_formula_structural   HoMgS3
_chemical_formula_sum   'Ho6 Mg6 S18'
_cell_volume   689.29901726
_cell_formula_units_Z   6
loop_
 _symmetry_equiv_pos_site_id
 _symmetry_equiv_pos_as_xyz
  1  'x, y, z'
loop_
 _atom_site_type_symbol
 _atom_site_label
 _atom_site_symmetry_multiplicity
 _atom_site_fract_x
 _atom_site_fract_y
 _atom_site_fract_z
 _atom_site_occupancy
  Ho  Ho0  1  0.00000000  0.00000000  0.34939000  1
  Ho  Ho1  1  0.00000000  0.00000000  0.65061000  1
  Ho  Ho2  1  0.66666700  0.33333300  0.68272300  1
  Ho  Ho3  1  0.66666700  0.33333300  0.98394300  1
  Ho  Ho4  1  0.33333300  0.66666700  0.01605700  1
  Ho  Ho5  1  0.33333300  0.66666700  0.31727700  1
  Mg  Mg6  1  0.00000000  0.00000000  0.15582000  1
  Mg  Mg7  1  0.00000000  0.00000000  0.84418000  1
  Mg  Mg8  1  0.66666700  0.33333300  0.48915300  1
  Mg  Mg9  1  0.66666700  0.33333300  0.17751300  1
  Mg  Mg10  1  0.33333300  0.66666700  0.82248700  1
  Mg  Mg11  1  0.33333300  0.66666700  0.51084700  1
  S  S12  1  0.98455300  0.35240400  0.58266500  1
  S  S13  1  0.01544700  0.64759600  0.41733500  1
  S  S14  1  0.64759600  0.63214900  0.58266500  1
  S  S15  1  0.35240400  0.36785100  0.41733500  1
  S  S16  1  0.36785100  0.01544700  0.58266500  1
  S  S17  1  0.63214900  0.98455300  0.41733500  1
  S  S18  1  0.65122000  0.68573700  0.91599800  1
  S  S19  1  0.68211400  0.98092900  0.75066800  1
  S  S20  1  0.31426300  0.96548200  0.91599800  1
  S  S21  1  0.01907100  0.70118400  0.75066800  1
  S  S22  1  0.03451800  0.34878000  0.91599800  1
  S  S23  1  0.29881600  0.31788600  0.75066800  1
  S  S24  1  0.31788600  0.01907100  0.24933200  1
  S  S25  1  0.34878000  0.31426300  0.08400200  1
  S  S26  1  0.98092900  0.29881600  0.24933200  1
  S  S27  1  0.68573700  0.03451800  0.08400200  1
  S  S28  1  0.70118400  0.68211400  0.24933200  1
  S  S29  1  0.96548200  0.65122000  0.08400200  1
