# generated using pymatgen
data_KMg6Zr
_symmetry_space_group_name_H-M   'P 1'
_cell_length_a   6.67701727
_cell_length_b   6.67701727
_cell_length_c   4.70208900
_cell_angle_alpha   90.00000000
_cell_angle_beta   90.00000000
_cell_angle_gamma   90.12228874
_symmetry_Int_Tables_number   1
_chemical_formula_structural   KMg6Zr
_chemical_formula_sum   'K1 Mg6 Zr1'
_cell_volume   209.63068561
_cell_formula_units_Z   1
loop_
 _symmetry_equiv_pos_site_id
 _symmetry_equiv_pos_as_xyz
  1  'x, y, z'
loop_
 _atom_site_type_symbol
 _atom_site_label
 _atom_site_symmetry_multiplicity
 _atom_site_fract_x
 _atom_site_fract_y
 _atom_site_fract_z
 _atom_site_occupancy
  K  K0  1  0.13054000  0.86946000  0.00000000  1
  Mg  Mg1  1  0.63052200  0.87985300  0.00000000  1
  Mg  Mg2  1  0.12014700  0.36947800  0.00000000  1
  Mg  Mg3  1  0.84845400  0.60253200  0.50000000  1
  Mg  Mg4  1  0.39746800  0.15154600  0.50000000  1
  Mg  Mg5  1  0.84979500  0.15020500  0.50000000  1
  Mg  Mg6  1  0.40016400  0.59983600  0.50000000  1
  Zr  Zr7  1  0.62291100  0.37708900  0.00000000  1
