# generated using pymatgen
data_Pr2MgSe4
_symmetry_space_group_name_H-M   'P 1'
_cell_length_a   13.54030400
_cell_length_b   4.15907000
_cell_length_c   14.77434200
_cell_angle_alpha   90.00000000
_cell_angle_beta   90.00000000
_cell_angle_gamma   90.00000000
_symmetry_Int_Tables_number   1
_chemical_formula_structural   Pr2MgSe4
_chemical_formula_sum   'Pr8 Mg4 Se16'
_cell_volume   832.01813581
_cell_formula_units_Z   4
loop_
 _symmetry_equiv_pos_site_id
 _symmetry_equiv_pos_as_xyz
  1  'x, y, z'
loop_
 _atom_site_type_symbol
 _atom_site_label
 _atom_site_symmetry_multiplicity
 _atom_site_fract_x
 _atom_site_fract_y
 _atom_site_fract_z
 _atom_site_occupancy
  Pr  Pr0  1  0.11916900  0.25000000  0.07417600  1
  Pr  Pr1  1  0.88083100  0.75000000  0.92582400  1
  Pr  Pr2  1  0.38083100  0.75000000  0.57417600  1
  Pr  Pr3  1  0.61916900  0.25000000  0.42582400  1
  Pr  Pr4  1  0.13590100  0.25000000  0.70466400  1
  Pr  Pr5  1  0.86409900  0.75000000  0.29533600  1
  Pr  Pr6  1  0.36409900  0.75000000  0.20466400  1
  Pr  Pr7  1  0.63590100  0.25000000  0.79533600  1
  Mg  Mg8  1  0.10702700  0.75000000  0.46039700  1
  Mg  Mg9  1  0.89297300  0.25000000  0.53960300  1
  Mg  Mg10  1  0.39297300  0.25000000  0.96039700  1
  Mg  Mg11  1  0.60702700  0.75000000  0.03960300  1
  Se  Se12  1  0.00249000  0.75000000  0.61266000  1
  Se  Se13  1  0.99751000  0.25000000  0.38734000  1
  Se  Se14  1  0.49751000  0.25000000  0.11266000  1
  Se  Se15  1  0.50249000  0.75000000  0.88734000  1
  Se  Se16  1  0.02885500  0.25000000  0.88397300  1
  Se  Se17  1  0.97114500  0.75000000  0.11602700  1
  Se  Se18  1  0.47114500  0.75000000  0.38397300  1
  Se  Se19  1  0.52885500  0.25000000  0.61602700  1
  Se  Se20  1  0.22510100  0.25000000  0.24681200  1
  Se  Se21  1  0.77489900  0.75000000  0.75318800  1
  Se  Se22  1  0.27489900  0.75000000  0.74681200  1
  Se  Se23  1  0.72510100  0.25000000  0.25318800  1
  Se  Se24  1  0.26733500  0.75000000  0.01403700  1
  Se  Se25  1  0.73266500  0.25000000  0.98596300  1
  Se  Se26  1  0.23266500  0.25000000  0.51403700  1
  Se  Se27  1  0.76733500  0.75000000  0.48596300  1
