# generated using pymatgen
data_DyMgSe3
_symmetry_space_group_name_H-M   'P 1'
_cell_length_a   7.29236196
_cell_length_b   12.93289000
_cell_length_c   7.49556724
_cell_angle_alpha   90.00000000
_cell_angle_beta   123.76664007
_cell_angle_gamma   90.00000000
_symmetry_Int_Tables_number   1
_chemical_formula_structural   DyMgSe3
_chemical_formula_sum   'Dy4 Mg4 Se12'
_cell_volume   587.66575447
_cell_formula_units_Z   4
loop_
 _symmetry_equiv_pos_site_id
 _symmetry_equiv_pos_as_xyz
  1  'x, y, z'
loop_
 _atom_site_type_symbol
 _atom_site_label
 _atom_site_symmetry_multiplicity
 _atom_site_fract_x
 _atom_site_fract_y
 _atom_site_fract_z
 _atom_site_occupancy
  Dy  Dy0  1  0.12289800  0.00000000  0.31733300  1
  Dy  Dy1  1  0.87710200  0.00000000  0.68266700  1
  Dy  Dy2  1  0.62289800  0.50000000  0.31733300  1
  Dy  Dy3  1  0.37710200  0.50000000  0.68266700  1
  Mg  Mg4  1  0.00000000  0.33802900  0.00000000  1
  Mg  Mg5  1  0.00000000  0.66197100  0.00000000  1
  Mg  Mg6  1  0.50000000  0.83802900  0.00000000  1
  Mg  Mg7  1  0.50000000  0.16197100  0.00000000  1
  Se  Se8  1  0.25340000  0.17051800  0.20295000  1
  Se  Se9  1  0.74660000  0.82948200  0.79705000  1
  Se  Se10  1  0.74660000  0.17051800  0.79705000  1
  Se  Se11  1  0.25340000  0.82948200  0.20295000  1
  Se  Se12  1  0.75340000  0.67051800  0.20295000  1
  Se  Se13  1  0.24660000  0.32948200  0.79705000  1
  Se  Se14  1  0.24660000  0.67051800  0.79705000  1
  Se  Se15  1  0.75340000  0.32948200  0.20295000  1
  Se  Se16  1  0.28359700  0.00000000  0.74384500  1
  Se  Se17  1  0.71640300  0.00000000  0.25615500  1
  Se  Se18  1  0.78359700  0.50000000  0.74384500  1
  Se  Se19  1  0.21640300  0.50000000  0.25615500  1
