# generated using pymatgen
data_CeMgSe3
_symmetry_space_group_name_H-M   'P 1'
_cell_length_a   7.02310260
_cell_length_b   7.02310260
_cell_length_c   7.17032643
_cell_angle_alpha   72.55636475
_cell_angle_beta   72.55636475
_cell_angle_gamma   108.94478400
_symmetry_Int_Tables_number   1
_chemical_formula_structural   CeMgSe3
_chemical_formula_sum   'Ce2 Mg2 Se6'
_cell_volume   286.56556370
_cell_formula_units_Z   2
loop_
 _symmetry_equiv_pos_site_id
 _symmetry_equiv_pos_as_xyz
  1  'x, y, z'
loop_
 _atom_site_type_symbol
 _atom_site_label
 _atom_site_symmetry_multiplicity
 _atom_site_fract_x
 _atom_site_fract_y
 _atom_site_fract_z
 _atom_site_occupancy
  Ce  Ce0  1  0.79891300  0.79891300  0.24785900  1
  Ce  Ce1  1  0.20108700  0.20108700  0.75214100  1
  Mg  Mg2  1  0.32388400  0.67611600  0.00000000  1
  Mg  Mg3  1  0.67611600  0.32388400  0.00000000  1
  Se  Se4  1  0.23971800  0.93842700  0.18197500  1
  Se  Se5  1  0.76028200  0.06157300  0.81802500  1
  Se  Se6  1  0.06157300  0.76028200  0.81802500  1
  Se  Se7  1  0.93842700  0.23971800  0.18197500  1
  Se  Se8  1  0.56513200  0.56513200  0.71288800  1
  Se  Se9  1  0.43486800  0.43486800  0.28711200  1
