# generated using pymatgen
data_Yb2MgS4
_symmetry_space_group_name_H-M   'P 1'
_cell_length_a   9.27513200
_cell_length_b   5.24332800
_cell_length_c   13.03455000
_cell_angle_alpha   90.00000000
_cell_angle_beta   90.00000000
_cell_angle_gamma   90.00000000
_symmetry_Int_Tables_number   1
_chemical_formula_structural   Yb2MgS4
_chemical_formula_sum   'Yb8 Mg4 S16'
_cell_volume   633.90352608
_cell_formula_units_Z   4
loop_
 _symmetry_equiv_pos_site_id
 _symmetry_equiv_pos_as_xyz
  1  'x, y, z'
loop_
 _atom_site_type_symbol
 _atom_site_label
 _atom_site_symmetry_multiplicity
 _atom_site_fract_x
 _atom_site_fract_y
 _atom_site_fract_z
 _atom_site_occupancy
  Yb  Yb0  1  0.99067600  0.75000000  0.29584800  1
  Yb  Yb1  1  0.00932400  0.25000000  0.70415200  1
  Yb  Yb2  1  0.50932400  0.25000000  0.79584800  1
  Yb  Yb3  1  0.49067600  0.75000000  0.20415200  1
  Yb  Yb4  1  0.12822100  0.25000000  0.03106900  1
  Yb  Yb5  1  0.87177900  0.75000000  0.96893100  1
  Yb  Yb6  1  0.37177900  0.75000000  0.53106900  1
  Yb  Yb7  1  0.62822100  0.25000000  0.46893100  1
  Mg  Mg8  1  0.16201100  0.25000000  0.47427800  1
  Mg  Mg9  1  0.83798900  0.75000000  0.52572200  1
  Mg  Mg10  1  0.33798900  0.75000000  0.97427800  1
  Mg  Mg11  1  0.66201100  0.25000000  0.02572200  1
  S  S12  1  0.22459500  0.44827800  0.83695900  1
  S  S13  1  0.77540500  0.55172200  0.16304100  1
  S  S14  1  0.27540500  0.55172200  0.33695900  1
  S  S15  1  0.72459500  0.44827800  0.66304100  1
  S  S16  1  0.72459500  0.05172200  0.66304100  1
  S  S17  1  0.27540500  0.94827800  0.33695900  1
  S  S18  1  0.77540500  0.94827800  0.16304100  1
  S  S19  1  0.22459500  0.05172200  0.83695900  1
  S  S20  1  0.91860700  0.25000000  0.41342200  1
  S  S21  1  0.08139300  0.75000000  0.58657800  1
  S  S22  1  0.58139300  0.75000000  0.91342200  1
  S  S23  1  0.41860700  0.25000000  0.08657800  1
  S  S24  1  0.12825400  0.75000000  0.09270900  1
  S  S25  1  0.87174600  0.25000000  0.90729100  1
  S  S26  1  0.37174600  0.25000000  0.59270900  1
  S  S27  1  0.62825400  0.75000000  0.40729100  1
