# generated using pymatgen
data_La2MgS4
_symmetry_space_group_name_H-M   'P 1'
_cell_length_a   7.48593848
_cell_length_b   7.48593848
_cell_length_c   7.48593848
_cell_angle_alpha   111.09396409
_cell_angle_beta   111.09396409
_cell_angle_gamma   106.27231805
_symmetry_Int_Tables_number   1
_chemical_formula_structural   La2MgS4
_chemical_formula_sum   'La4 Mg2 S8'
_cell_volume   322.18670741
_cell_formula_units_Z   2
loop_
 _symmetry_equiv_pos_site_id
 _symmetry_equiv_pos_as_xyz
  1  'x, y, z'
loop_
 _atom_site_type_symbol
 _atom_site_label
 _atom_site_symmetry_multiplicity
 _atom_site_fract_x
 _atom_site_fract_y
 _atom_site_fract_z
 _atom_site_occupancy
  La  La0  1  0.87500000  0.75807700  0.38307700  1
  La  La1  1  0.50807700  0.12500000  0.88307700  1
  La  La2  1  0.37500000  0.49192300  0.61692300  1
  La  La3  1  0.24192300  0.62500000  0.11692300  1
  Mg  Mg4  1  0.00000000  0.00000000  0.00000000  1
  Mg  Mg5  1  0.75000000  0.25000000  0.50000000  1
  S  S6  1  0.50752200  0.37542200  0.26901000  1
  S  S7  1  0.76148900  0.49247800  0.86790000  1
  S  S8  1  0.10641100  0.23851100  0.73099000  1
  S  S9  1  0.62457800  0.89358900  0.13210000  1
  S  S10  1  0.24247800  0.01148900  0.36790000  1
  S  S11  1  0.98851100  0.35641100  0.23099000  1
  S  S12  1  0.64358900  0.87457800  0.63210000  1
  S  S13  1  0.12542200  0.75752200  0.76901000  1
