# generated using pymatgen
data_Mg(InS2)2
_symmetry_space_group_name_H-M   'P 1'
_cell_length_a   12.40551200
_cell_length_b   7.43596100
_cell_length_c   12.69222700
_cell_angle_alpha   90.00000000
_cell_angle_beta   90.00000000
_cell_angle_gamma   90.00000000
_symmetry_Int_Tables_number   1
_chemical_formula_structural   Mg(InS2)2
_chemical_formula_sum   'Mg8 In16 S32'
_cell_volume   1170.81863822
_cell_formula_units_Z   8
loop_
 _symmetry_equiv_pos_site_id
 _symmetry_equiv_pos_as_xyz
  1  'x, y, z'
loop_
 _atom_site_type_symbol
 _atom_site_label
 _atom_site_symmetry_multiplicity
 _atom_site_fract_x
 _atom_site_fract_y
 _atom_site_fract_z
 _atom_site_occupancy
  Mg  Mg0  1  0.11076000  0.37729400  0.69580400  1
  Mg  Mg1  1  0.88924000  0.62270600  0.19580400  1
  Mg  Mg2  1  0.38924000  0.37729400  0.19580400  1
  Mg  Mg3  1  0.61076000  0.62270600  0.69580400  1
  Mg  Mg4  1  0.12750400  0.87921100  0.31771800  1
  Mg  Mg5  1  0.87249600  0.12078900  0.81771800  1
  Mg  Mg6  1  0.37249600  0.87921100  0.81771800  1
  Mg  Mg7  1  0.62750400  0.12078900  0.31771800  1
  In  In8  1  0.10431400  0.88175400  0.68290200  1
  In  In9  1  0.89568600  0.11824600  0.18290200  1
  In  In10  1  0.39568600  0.88175400  0.18290200  1
  In  In11  1  0.60431400  0.11824600  0.68290200  1
  In  In12  1  0.12612500  0.38012600  0.32616700  1
  In  In13  1  0.87387500  0.61987400  0.82616700  1
  In  In14  1  0.37387500  0.38012600  0.82616700  1
  In  In15  1  0.62612500  0.61987400  0.32616700  1
  In  In16  1  0.14238900  0.62955400  0.97240200  1
  In  In17  1  0.85761100  0.37044600  0.47240200  1
  In  In18  1  0.35761100  0.62955400  0.47240200  1
  In  In19  1  0.64238900  0.37044600  0.97240200  1
  In  In20  1  0.14057300  0.12298600  0.98309300  1
  In  In21  1  0.85942700  0.87701400  0.48309300  1
  In  In22  1  0.35942700  0.12298600  0.48309300  1
  In  In23  1  0.64057300  0.87701400  0.98309300  1
  S  S24  1  0.01778800  0.88046500  0.87235000  1
  S  S25  1  0.98221200  0.11953500  0.37235000  1
  S  S26  1  0.48221200  0.88046500  0.37235000  1
  S  S27  1  0.51778800  0.11953500  0.87235000  1
  S  S28  1  0.02811600  0.38571400  0.14797600  1
  S  S29  1  0.97188400  0.61428600  0.64797600  1
  S  S30  1  0.47188400  0.38571400  0.64797600  1
  S  S31  1  0.52811600  0.61428600  0.14797600  1
  S  S32  1  0.02103600  0.36938500  0.88296000  1
  S  S33  1  0.97896400  0.63061500  0.38296000  1
  S  S34  1  0.47896400  0.36938500  0.38296000  1
  S  S35  1  0.52103600  0.63061500  0.88296000  1
  S  S36  1  0.04101700  0.87800000  0.13402700  1
  S  S37  1  0.95898300  0.12200000  0.63402700  1
  S  S38  1  0.45898300  0.87800000  0.63402700  1
  S  S39  1  0.54101700  0.12200000  0.13402700  1
  S  S40  1  0.21280300  0.87704500  0.50825100  1
  S  S41  1  0.78719700  0.12295500  0.00825100  1
  S  S42  1  0.28719700  0.87704500  0.00825100  1
  S  S43  1  0.71280300  0.12295500  0.50825100  1
  S  S44  1  0.21967400  0.37705700  0.51736300  1
  S  S45  1  0.78032600  0.62294300  0.01736300  1
  S  S46  1  0.28032600  0.37705700  0.01736300  1
  S  S47  1  0.71967400  0.62294300  0.51736300  1
  S  S48  1  0.23243400  0.12849300  0.77768600  1
  S  S49  1  0.76756600  0.87150700  0.27768600  1
  S  S50  1  0.26756600  0.12849300  0.27768600  1
  S  S51  1  0.73243400  0.87150700  0.77768600  1
  S  S52  1  0.23559200  0.63058400  0.77830300  1
  S  S53  1  0.76440800  0.36941600  0.27830300  1
  S  S54  1  0.26440800  0.63058400  0.27830300  1
  S  S55  1  0.73559200  0.36941600  0.77830300  1
