# generated using pymatgen
data_Y2MgSe4
_symmetry_space_group_name_H-M   'P 1'
_cell_length_a   14.17935700
_cell_length_b   8.26640000
_cell_length_c   6.84520700
_cell_angle_alpha   90.00000000
_cell_angle_beta   90.00000000
_cell_angle_gamma   90.00000000
_symmetry_Int_Tables_number   1
_chemical_formula_structural   Y2MgSe4
_chemical_formula_sum   'Y8 Mg4 Se16'
_cell_volume   802.34202318
_cell_formula_units_Z   4
loop_
 _symmetry_equiv_pos_site_id
 _symmetry_equiv_pos_as_xyz
  1  'x, y, z'
loop_
 _atom_site_type_symbol
 _atom_site_label
 _atom_site_symmetry_multiplicity
 _atom_site_fract_x
 _atom_site_fract_y
 _atom_site_fract_z
 _atom_site_occupancy
  Y  Y0  1  0.00000000  0.00000000  0.50000000  1
  Y  Y1  1  0.50000000  0.00000000  0.00000000  1
  Y  Y2  1  0.50000000  0.50000000  0.00000000  1
  Y  Y3  1  0.00000000  0.50000000  0.50000000  1
  Y  Y4  1  0.23488100  0.75000000  0.00430600  1
  Y  Y5  1  0.76511900  0.25000000  0.99569400  1
  Y  Y6  1  0.26511900  0.25000000  0.50430600  1
  Y  Y7  1  0.73488100  0.75000000  0.49569400  1
  Mg  Mg8  1  0.09245100  0.25000000  0.91951900  1
  Mg  Mg9  1  0.90754900  0.75000000  0.08048100  1
  Mg  Mg10  1  0.40754900  0.75000000  0.41951900  1
  Mg  Mg11  1  0.59245100  0.25000000  0.58048100  1
  Se  Se12  1  0.16911900  0.00596500  0.74117200  1
  Se  Se13  1  0.83088100  0.99403500  0.25882800  1
  Se  Se14  1  0.33088100  0.99403500  0.24117200  1
  Se  Se15  1  0.66911900  0.00596500  0.75882800  1
  Se  Se16  1  0.66911900  0.49403500  0.75882800  1
  Se  Se17  1  0.33088100  0.50596500  0.24117200  1
  Se  Se18  1  0.83088100  0.50596500  0.25882800  1
  Se  Se19  1  0.16911900  0.49403500  0.74117200  1
  Se  Se20  1  0.07266600  0.75000000  0.24969900  1
  Se  Se21  1  0.92733400  0.25000000  0.75030100  1
  Se  Se22  1  0.42733400  0.25000000  0.74969900  1
  Se  Se23  1  0.57266600  0.75000000  0.25030100  1
  Se  Se24  1  0.09186400  0.25000000  0.28908400  1
  Se  Se25  1  0.90813600  0.75000000  0.71091600  1
  Se  Se26  1  0.40813600  0.75000000  0.78908400  1
  Se  Se27  1  0.59186400  0.25000000  0.21091600  1
