# generated using pymatgen
data_Ho2MgSe4
_symmetry_space_group_name_H-M   'P 1'
_cell_length_a   8.04516300
_cell_length_b   7.77528700
_cell_length_c   12.08479100
_cell_angle_alpha   90.00000000
_cell_angle_beta   90.00000000
_cell_angle_gamma   90.00000000
_symmetry_Int_Tables_number   1
_chemical_formula_structural   Ho2MgSe4
_chemical_formula_sum   'Ho8 Mg4 Se16'
_cell_volume   755.94538513
_cell_formula_units_Z   4
loop_
 _symmetry_equiv_pos_site_id
 _symmetry_equiv_pos_as_xyz
  1  'x, y, z'
loop_
 _atom_site_type_symbol
 _atom_site_label
 _atom_site_symmetry_multiplicity
 _atom_site_fract_x
 _atom_site_fract_y
 _atom_site_fract_z
 _atom_site_occupancy
  Ho  Ho0  1  0.06637400  0.75000000  0.30961600  1
  Ho  Ho1  1  0.93362600  0.25000000  0.69038400  1
  Ho  Ho2  1  0.43362600  0.25000000  0.80961600  1
  Ho  Ho3  1  0.56637400  0.75000000  0.19038400  1
  Ho  Ho4  1  0.04735400  0.25000000  0.01724000  1
  Ho  Ho5  1  0.95264600  0.75000000  0.98276000  1
  Ho  Ho6  1  0.45264600  0.75000000  0.51724000  1
  Ho  Ho7  1  0.54735400  0.25000000  0.48276000  1
  Mg  Mg8  1  0.16882300  0.25000000  0.39757800  1
  Mg  Mg9  1  0.83117700  0.75000000  0.60242200  1
  Mg  Mg10  1  0.33117700  0.75000000  0.89757800  1
  Mg  Mg11  1  0.66882300  0.25000000  0.10242200  1
  Se  Se12  1  0.12423700  0.50353600  0.84199600  1
  Se  Se13  1  0.87576300  0.49646400  0.15800400  1
  Se  Se14  1  0.37576300  0.49646400  0.34199600  1
  Se  Se15  1  0.62423700  0.50353600  0.65800400  1
  Se  Se16  1  0.62423700  0.99646400  0.65800400  1
  Se  Se17  1  0.37576300  0.00353600  0.34199600  1
  Se  Se18  1  0.87576300  0.00353600  0.15800400  1
  Se  Se19  1  0.12423700  0.99646400  0.84199600  1
  Se  Se20  1  0.87790200  0.25000000  0.46029900  1
  Se  Se21  1  0.12209800  0.75000000  0.53970100  1
  Se  Se22  1  0.62209800  0.75000000  0.96029900  1
  Se  Se23  1  0.37790200  0.25000000  0.03970100  1
  Se  Se24  1  0.24200600  0.75000000  0.11130400  1
  Se  Se25  1  0.75799400  0.25000000  0.88869600  1
  Se  Se26  1  0.25799400  0.25000000  0.61130400  1
  Se  Se27  1  0.74200600  0.75000000  0.38869600  1
