# generated using pymatgen
data_Y2MgSe4
_symmetry_space_group_name_H-M   'P 1'
_cell_length_a   7.55106935
_cell_length_b   7.55106935
_cell_length_c   7.55106935
_cell_angle_alpha   110.50857121
_cell_angle_beta   110.50857121
_cell_angle_gamma   107.41586465
_symmetry_Int_Tables_number   1
_chemical_formula_structural   Y2MgSe4
_chemical_formula_sum   'Y4 Mg2 Se8'
_cell_volume   331.12044521
_cell_formula_units_Z   2
loop_
 _symmetry_equiv_pos_site_id
 _symmetry_equiv_pos_as_xyz
  1  'x, y, z'
loop_
 _atom_site_type_symbol
 _atom_site_label
 _atom_site_symmetry_multiplicity
 _atom_site_fract_x
 _atom_site_fract_y
 _atom_site_fract_z
 _atom_site_occupancy
  Y  Y0  1  0.87500000  0.75642100  0.38142100  1
  Y  Y1  1  0.50642100  0.12500000  0.88142100  1
  Y  Y2  1  0.37500000  0.49357900  0.61857900  1
  Y  Y3  1  0.24357900  0.62500000  0.11857900  1
  Mg  Mg4  1  0.00000000  0.00000000  0.00000000  1
  Mg  Mg5  1  0.75000000  0.25000000  0.50000000  1
  Se  Se6  1  0.50792900  0.37826300  0.26196400  1
  Se  Se7  1  0.75403500  0.49207100  0.87033400  1
  Se  Se8  1  0.11629900  0.24596500  0.73803600  1
  Se  Se9  1  0.62173700  0.88370100  0.12966600  1
  Se  Se10  1  0.24207100  0.00403500  0.37033400  1
  Se  Se11  1  0.99596500  0.36629900  0.23803600  1
  Se  Se12  1  0.63370100  0.87173700  0.62966600  1
  Se  Se13  1  0.12826300  0.75792900  0.76196400  1
