# generated using pymatgen
data_TbMgSe3
_symmetry_space_group_name_H-M   'P 1'
_cell_length_a   8.47384037
_cell_length_b   11.95110400
_cell_length_c   7.57551661
_cell_angle_alpha   90.00000000
_cell_angle_beta   133.88083382
_cell_angle_gamma   90.00000000
_symmetry_Int_Tables_number   1
_chemical_formula_structural   TbMgSe3
_chemical_formula_sum   'Tb4 Mg4 Se12'
_cell_volume   552.97450379
_cell_formula_units_Z   4
loop_
 _symmetry_equiv_pos_site_id
 _symmetry_equiv_pos_as_xyz
  1  'x, y, z'
loop_
 _atom_site_type_symbol
 _atom_site_label
 _atom_site_symmetry_multiplicity
 _atom_site_fract_x
 _atom_site_fract_y
 _atom_site_fract_z
 _atom_site_occupancy
  Tb  Tb0  1  0.96340700  0.00000000  0.18940600  1
  Tb  Tb1  1  0.03659300  0.00000000  0.81059400  1
  Tb  Tb2  1  0.46340700  0.50000000  0.18940600  1
  Tb  Tb3  1  0.53659300  0.50000000  0.81059400  1
  Mg  Mg4  1  0.00000000  0.32786500  0.00000000  1
  Mg  Mg5  1  0.00000000  0.67213500  0.00000000  1
  Mg  Mg6  1  0.50000000  0.82786500  0.00000000  1
  Mg  Mg7  1  0.50000000  0.17213500  0.00000000  1
  Se  Se8  1  0.25829100  0.15441400  0.23429300  1
  Se  Se9  1  0.74170900  0.84558700  0.76570700  1
  Se  Se10  1  0.74170900  0.15441400  0.76570700  1
  Se  Se11  1  0.25829100  0.84558700  0.23429300  1
  Se  Se12  1  0.75829100  0.65441300  0.23429300  1
  Se  Se13  1  0.24170900  0.34558700  0.76570700  1
  Se  Se14  1  0.24170900  0.65441300  0.76570700  1
  Se  Se15  1  0.75829100  0.34558700  0.23429300  1
  Se  Se16  1  0.29367100  0.00000000  0.69812800  1
  Se  Se17  1  0.70632900  0.00000000  0.30187200  1
  Se  Se18  1  0.79367100  0.50000000  0.69812800  1
  Se  Se19  1  0.20632900  0.50000000  0.30187200  1
