# generated using pymatgen
data_YbMgS3
_symmetry_space_group_name_H-M   'P 1'
_cell_length_a   7.43158716
_cell_length_b   11.65483500
_cell_length_c   6.65942645
_cell_angle_alpha   90.00000000
_cell_angle_beta   115.94650479
_cell_angle_gamma   90.00000000
_symmetry_Int_Tables_number   1
_chemical_formula_structural   YbMgS3
_chemical_formula_sum   'Yb4 Mg4 S12'
_cell_volume   518.65940024
_cell_formula_units_Z   4
loop_
 _symmetry_equiv_pos_site_id
 _symmetry_equiv_pos_as_xyz
  1  'x, y, z'
loop_
 _atom_site_type_symbol
 _atom_site_label
 _atom_site_symmetry_multiplicity
 _atom_site_fract_x
 _atom_site_fract_y
 _atom_site_fract_z
 _atom_site_occupancy
  Yb  Yb0  1  0.09734400  0.00000000  0.27972000  1
  Yb  Yb1  1  0.90265600  0.00000000  0.72028000  1
  Yb  Yb2  1  0.59734400  0.50000000  0.27972000  1
  Yb  Yb3  1  0.40265600  0.50000000  0.72028000  1
  Mg  Mg4  1  0.00000000  0.36584100  0.00000000  1
  Mg  Mg5  1  0.00000000  0.63415900  0.00000000  1
  Mg  Mg6  1  0.50000000  0.86584100  0.00000000  1
  Mg  Mg7  1  0.50000000  0.13415900  0.00000000  1
  S  S8  1  0.27856200  0.20694600  0.15610500  1
  S  S9  1  0.72143800  0.79305400  0.84389500  1
  S  S10  1  0.72143800  0.20694600  0.84389500  1
  S  S11  1  0.27856200  0.79305400  0.15610500  1
  S  S12  1  0.77856200  0.70694600  0.15610500  1
  S  S13  1  0.22143800  0.29305400  0.84389500  1
  S  S14  1  0.22143800  0.70694600  0.84389500  1
  S  S15  1  0.77856200  0.29305400  0.15610500  1
  S  S16  1  0.27029600  0.00000000  0.71548900  1
  S  S17  1  0.72970400  0.00000000  0.28451100  1
  S  S18  1  0.77029600  0.50000000  0.71548900  1
  S  S19  1  0.22970400  0.50000000  0.28451100  1
