# generated using pymatgen
data_Lu2MgSe4
_symmetry_space_group_name_H-M   'P 1'
_cell_length_a   7.45590422
_cell_length_b   7.45590422
_cell_length_c   7.45590422
_cell_angle_alpha   110.30752645
_cell_angle_beta   110.30752645
_cell_angle_gamma   107.81125294
_symmetry_Int_Tables_number   1
_chemical_formula_structural   Lu2MgSe4
_chemical_formula_sum   'Lu4 Mg2 Se8'
_cell_volume   318.86478486
_cell_formula_units_Z   2
loop_
 _symmetry_equiv_pos_site_id
 _symmetry_equiv_pos_as_xyz
  1  'x, y, z'
loop_
 _atom_site_type_symbol
 _atom_site_label
 _atom_site_symmetry_multiplicity
 _atom_site_fract_x
 _atom_site_fract_y
 _atom_site_fract_z
 _atom_site_occupancy
  Lu  Lu0  1  0.87500000  0.75688500  0.38188500  1
  Lu  Lu1  1  0.50688500  0.12500000  0.88188500  1
  Lu  Lu2  1  0.37500000  0.49311500  0.61811500  1
  Lu  Lu3  1  0.24311500  0.62500000  0.11811500  1
  Mg  Mg4  1  0.00000000  0.00000000  0.00000000  1
  Mg  Mg5  1  0.75000000  0.25000000  0.50000000  1
  Se  Se6  1  0.50884100  0.37950800  0.25982800  1
  Se  Se7  1  0.75098700  0.49115900  0.87066800  1
  Se  Se8  1  0.11968000  0.24901300  0.74017200  1
  Se  Se9  1  0.62049200  0.88032000  0.12933200  1
  Se  Se10  1  0.24115900  0.00098700  0.37066800  1
  Se  Se11  1  0.99901300  0.36968000  0.24017200  1
  Se  Se12  1  0.63032000  0.87049200  0.62933200  1
  Se  Se13  1  0.12950800  0.75884100  0.75982800  1
