# generated using pymatgen
data_Yb2MgSe4
_symmetry_space_group_name_H-M   'P 1'
_cell_length_a   9.13731353
_cell_length_b   8.20180950
_cell_length_c   11.10028696
_cell_angle_alpha   78.73877319
_cell_angle_beta   84.26256094
_cell_angle_gamma   116.18185300
_symmetry_Int_Tables_number   1
_chemical_formula_structural   Yb2MgSe4
_chemical_formula_sum   'Yb8 Mg4 Se16'
_cell_volume   715.59704137
_cell_formula_units_Z   4
loop_
 _symmetry_equiv_pos_site_id
 _symmetry_equiv_pos_as_xyz
  1  'x, y, z'
loop_
 _atom_site_type_symbol
 _atom_site_label
 _atom_site_symmetry_multiplicity
 _atom_site_fract_x
 _atom_site_fract_y
 _atom_site_fract_z
 _atom_site_occupancy
  Yb  Yb0  1  0.08616700  0.64720000  0.62380000  1
  Yb  Yb1  1  0.91383300  0.35280000  0.37620000  1
  Yb  Yb2  1  0.19782200  0.82337300  0.06182900  1
  Yb  Yb3  1  0.80217800  0.17662700  0.93817100  1
  Yb  Yb4  1  0.41117600  0.61980300  0.36603700  1
  Yb  Yb5  1  0.58882400  0.38019800  0.63396300  1
  Yb  Yb6  1  0.41733600  0.11953800  0.36026500  1
  Yb  Yb7  1  0.58266400  0.88046200  0.63973500  1
  Mg  Mg8  1  0.09061300  0.12565800  0.62384100  1
  Mg  Mg9  1  0.90938700  0.87434200  0.37615900  1
  Mg  Mg10  1  0.31578800  0.44530000  0.90207500  1
  Mg  Mg11  1  0.68421200  0.55470000  0.09792500  1
  Se  Se12  1  0.09059600  0.56859600  0.89776000  1
  Se  Se13  1  0.90940400  0.43140400  0.10224000  1
  Se  Se14  1  0.10504500  0.08944100  0.90184200  1
  Se  Se15  1  0.89495500  0.91055900  0.09815800  1
  Se  Se16  1  0.15493400  0.74999200  0.34631200  1
  Se  Se17  1  0.84506600  0.25000800  0.65368800  1
  Se  Se18  1  0.16001400  0.23200900  0.36992000  1
  Se  Se19  1  0.83998600  0.76799100  0.63008000  1
  Se  Se20  1  0.33316200  0.01488600  0.63167000  1
  Se  Se21  1  0.66683800  0.98511400  0.36833000  1
  Se  Se22  1  0.32879000  0.49777900  0.64470500  1
  Se  Se23  1  0.67121000  0.50222100  0.35529500  1
  Se  Se24  1  0.48456600  0.15793600  0.08607000  1
  Se  Se25  1  0.51543400  0.84206400  0.91393000  1
  Se  Se26  1  0.39346100  0.58154500  0.10420300  1
  Se  Se27  1  0.60653900  0.41845500  0.89579700  1
