# generated using pymatgen
data_Ho2MgS4
_symmetry_space_group_name_H-M   'P 1'
_cell_length_a   7.25657800
_cell_length_b   7.94310300
_cell_length_c   11.41020700
_cell_angle_alpha   90.00000000
_cell_angle_beta   90.00000000
_cell_angle_gamma   90.00000000
_symmetry_Int_Tables_number   1
_chemical_formula_structural   Ho2MgS4
_chemical_formula_sum   'Ho8 Mg4 S16'
_cell_volume   657.68143878
_cell_formula_units_Z   4
loop_
 _symmetry_equiv_pos_site_id
 _symmetry_equiv_pos_as_xyz
  1  'x, y, z'
loop_
 _atom_site_type_symbol
 _atom_site_label
 _atom_site_symmetry_multiplicity
 _atom_site_fract_x
 _atom_site_fract_y
 _atom_site_fract_z
 _atom_site_occupancy
  Ho  Ho0  1  0.75000000  0.03601400  0.30988500  1
  Ho  Ho1  1  0.25000000  0.96398600  0.69011500  1
  Ho  Ho2  1  0.25000000  0.46398600  0.80988500  1
  Ho  Ho3  1  0.75000000  0.53601400  0.19011500  1
  Ho  Ho4  1  0.25000000  0.07466300  0.02171500  1
  Ho  Ho5  1  0.75000000  0.92533700  0.97828500  1
  Ho  Ho6  1  0.75000000  0.42533700  0.52171500  1
  Ho  Ho7  1  0.25000000  0.57466300  0.47828500  1
  Mg  Mg8  1  0.25000000  0.18338700  0.40841200  1
  Mg  Mg9  1  0.75000000  0.81661300  0.59158800  1
  Mg  Mg10  1  0.75000000  0.31661300  0.90841200  1
  Mg  Mg11  1  0.25000000  0.68338700  0.09158800  1
  S  S12  1  0.50036100  0.12765600  0.84403000  1
  S  S13  1  0.49963900  0.87234400  0.15597000  1
  S  S14  1  0.49963900  0.37234400  0.34403000  1
  S  S15  1  0.50036100  0.62765600  0.65597000  1
  S  S16  1  0.99963900  0.62765600  0.65597000  1
  S  S17  1  0.00036100  0.37234400  0.34403000  1
  S  S18  1  0.00036100  0.87234400  0.15597000  1
  S  S19  1  0.99963900  0.12765600  0.84403000  1
  S  S20  1  0.25000000  0.89743800  0.45494200  1
  S  S21  1  0.75000000  0.10256200  0.54505800  1
  S  S22  1  0.75000000  0.60256200  0.95494200  1
  S  S23  1  0.25000000  0.39743800  0.04505800  1
  S  S24  1  0.75000000  0.21871600  0.11131800  1
  S  S25  1  0.25000000  0.78128400  0.88868200  1
  S  S26  1  0.25000000  0.28128400  0.61131800  1
  S  S27  1  0.75000000  0.71871600  0.38868200  1
