# generated using pymatgen
data_Pm2MgS4
_symmetry_space_group_name_H-M   'P 1'
_cell_length_a   13.89961400
_cell_length_b   8.15525400
_cell_length_c   6.62239200
_cell_angle_alpha   90.00000000
_cell_angle_beta   90.00000000
_cell_angle_gamma   90.00000000
_symmetry_Int_Tables_number   1
_chemical_formula_structural   Pm2MgS4
_chemical_formula_sum   'Pm8 Mg4 S16'
_cell_volume   750.68046817
_cell_formula_units_Z   4
loop_
 _symmetry_equiv_pos_site_id
 _symmetry_equiv_pos_as_xyz
  1  'x, y, z'
loop_
 _atom_site_type_symbol
 _atom_site_label
 _atom_site_symmetry_multiplicity
 _atom_site_fract_x
 _atom_site_fract_y
 _atom_site_fract_z
 _atom_site_occupancy
  Pm  Pm0  1  0.00000000  0.00000000  0.50000000  1
  Pm  Pm1  1  0.50000000  0.00000000  0.00000000  1
  Pm  Pm2  1  0.50000000  0.50000000  0.00000000  1
  Pm  Pm3  1  0.00000000  0.50000000  0.50000000  1
  Pm  Pm4  1  0.23105600  0.75000000  0.99865900  1
  Pm  Pm5  1  0.76894400  0.25000000  0.00134100  1
  Pm  Pm6  1  0.26894400  0.25000000  0.49865900  1
  Pm  Pm7  1  0.73105600  0.75000000  0.50134100  1
  Mg  Mg8  1  0.09322000  0.25000000  0.92223900  1
  Mg  Mg9  1  0.90678000  0.75000000  0.07776100  1
  Mg  Mg10  1  0.40678000  0.75000000  0.42223900  1
  Mg  Mg11  1  0.59322000  0.25000000  0.57776100  1
  S  S12  1  0.16807000  0.01539100  0.74691100  1
  S  S13  1  0.83193000  0.98460900  0.25308900  1
  S  S14  1  0.33193000  0.98460900  0.24691100  1
  S  S15  1  0.66807000  0.01539100  0.75308900  1
  S  S16  1  0.66807000  0.48460900  0.75308900  1
  S  S17  1  0.33193000  0.51539100  0.24691100  1
  S  S18  1  0.83193000  0.51539100  0.25308900  1
  S  S19  1  0.16807000  0.48460900  0.74691100  1
  S  S20  1  0.06724100  0.75000000  0.24394300  1
  S  S21  1  0.93275900  0.25000000  0.75605700  1
  S  S22  1  0.43275900  0.25000000  0.74394300  1
  S  S23  1  0.56724100  0.75000000  0.25605700  1
  S  S24  1  0.09225100  0.25000000  0.28578800  1
  S  S25  1  0.90774900  0.75000000  0.71421200  1
  S  S26  1  0.40774900  0.75000000  0.78578800  1
  S  S27  1  0.59225100  0.25000000  0.21421200  1
