# generated using pymatgen
data_PrMgS3
_symmetry_space_group_name_H-M   'P 1'
_cell_length_a   8.15770461
_cell_length_b   11.44898500
_cell_length_c   7.78389793
_cell_angle_alpha   90.00000000
_cell_angle_beta   128.62925230
_cell_angle_gamma   90.00000000
_symmetry_Int_Tables_number   1
_chemical_formula_structural   PrMgS3
_chemical_formula_sum   'Pr4 Mg4 S12'
_cell_volume   567.93071509
_cell_formula_units_Z   4
loop_
 _symmetry_equiv_pos_site_id
 _symmetry_equiv_pos_as_xyz
  1  'x, y, z'
loop_
 _atom_site_type_symbol
 _atom_site_label
 _atom_site_symmetry_multiplicity
 _atom_site_fract_x
 _atom_site_fract_y
 _atom_site_fract_z
 _atom_site_occupancy
  Pr  Pr0  1  0.03737000  0.00000000  0.25534800  1
  Pr  Pr1  1  0.96263000  0.00000000  0.74465200  1
  Pr  Pr2  1  0.53737000  0.50000000  0.25534800  1
  Pr  Pr3  1  0.46263000  0.50000000  0.74465200  1
  Mg  Mg4  1  0.00000000  0.34076200  0.00000000  1
  Mg  Mg5  1  0.00000000  0.65923800  0.00000000  1
  Mg  Mg6  1  0.50000000  0.84076200  0.00000000  1
  Mg  Mg7  1  0.50000000  0.15923800  0.00000000  1
  S  S8  1  0.21953000  0.15504400  0.13936200  1
  S  S9  1  0.78047000  0.84495600  0.86063800  1
  S  S10  1  0.78047000  0.15504400  0.86063800  1
  S  S11  1  0.21953000  0.84495600  0.13936200  1
  S  S12  1  0.71953000  0.65504400  0.13936200  1
  S  S13  1  0.28047000  0.34495600  0.86063800  1
  S  S14  1  0.28047000  0.65504400  0.86063800  1
  S  S15  1  0.71953000  0.34495600  0.13936200  1
  S  S16  1  0.29436700  0.00000000  0.71859500  1
  S  S17  1  0.70563300  0.00000000  0.28140500  1
  S  S18  1  0.79436700  0.50000000  0.71859500  1
  S  S19  1  0.20563300  0.50000000  0.28140500  1
