# generated using pymatgen
data_Lu2MgS4
_symmetry_space_group_name_H-M   'P 1'
_cell_length_a   7.84495700
_cell_length_b   7.28583300
_cell_length_c   11.19556400
_cell_angle_alpha   90.00000000
_cell_angle_beta   90.00000000
_cell_angle_gamma   90.00000000
_symmetry_Int_Tables_number   1
_chemical_formula_structural   Lu2MgS4
_chemical_formula_sum   'Lu8 Mg4 S16'
_cell_volume   639.90537320
_cell_formula_units_Z   4
loop_
 _symmetry_equiv_pos_site_id
 _symmetry_equiv_pos_as_xyz
  1  'x, y, z'
loop_
 _atom_site_type_symbol
 _atom_site_label
 _atom_site_symmetry_multiplicity
 _atom_site_fract_x
 _atom_site_fract_y
 _atom_site_fract_z
 _atom_site_occupancy
  Lu  Lu0  1  0.03771900  0.75000000  0.30602700  1
  Lu  Lu1  1  0.96228100  0.25000000  0.69397300  1
  Lu  Lu2  1  0.46228100  0.25000000  0.80602700  1
  Lu  Lu3  1  0.53771900  0.75000000  0.19397300  1
  Lu  Lu4  1  0.06684500  0.25000000  0.01588000  1
  Lu  Lu5  1  0.93315500  0.75000000  0.98412000  1
  Lu  Lu6  1  0.43315500  0.75000000  0.51588000  1
  Lu  Lu7  1  0.56684500  0.25000000  0.48412000  1
  Mg  Mg8  1  0.17744500  0.25000000  0.40293000  1
  Mg  Mg9  1  0.82255500  0.75000000  0.59707000  1
  Mg  Mg10  1  0.32255500  0.75000000  0.90293000  1
  Mg  Mg11  1  0.67744500  0.25000000  0.09707000  1
  S  S12  1  0.11818500  0.50546500  0.84230800  1
  S  S13  1  0.88181500  0.49453500  0.15769200  1
  S  S14  1  0.38181500  0.49453500  0.34230800  1
  S  S15  1  0.61818500  0.50546500  0.65769200  1
  S  S16  1  0.61818500  0.99453500  0.65769200  1
  S  S17  1  0.38181500  0.00546500  0.34230800  1
  S  S18  1  0.88181500  0.00546500  0.15769200  1
  S  S19  1  0.11818500  0.99453500  0.84230800  1
  S  S20  1  0.88959700  0.25000000  0.46132200  1
  S  S21  1  0.11040300  0.75000000  0.53867800  1
  S  S22  1  0.61040300  0.75000000  0.96132200  1
  S  S23  1  0.38959700  0.25000000  0.03867800  1
  S  S24  1  0.22556300  0.75000000  0.11116300  1
  S  S25  1  0.77443700  0.25000000  0.88883700  1
  S  S26  1  0.27443700  0.25000000  0.61116300  1
  S  S27  1  0.72556300  0.75000000  0.38883700  1
