# generated using pymatgen
data_YMgS3
_symmetry_space_group_name_H-M   'P 1'
_cell_length_a   7.25363236
_cell_length_b   12.00085900
_cell_length_c   7.26845454
_cell_angle_alpha   90.00000000
_cell_angle_beta   126.07413653
_cell_angle_gamma   90.00000000
_symmetry_Int_Tables_number   1
_chemical_formula_structural   YMgS3
_chemical_formula_sum   'Y4 Mg4 S12'
_cell_volume   511.39769162
_cell_formula_units_Z   4
loop_
 _symmetry_equiv_pos_site_id
 _symmetry_equiv_pos_as_xyz
  1  'x, y, z'
loop_
 _atom_site_type_symbol
 _atom_site_label
 _atom_site_symmetry_multiplicity
 _atom_site_fract_x
 _atom_site_fract_y
 _atom_site_fract_z
 _atom_site_occupancy
  Y  Y0  1  0.09619900  0.00000000  0.29837000  1
  Y  Y1  1  0.90380100  0.00000000  0.70163000  1
  Y  Y2  1  0.59619900  0.50000000  0.29837000  1
  Y  Y3  1  0.40380100  0.50000000  0.70163000  1
  Mg  Mg4  1  0.00000000  0.33766000  0.00000000  1
  Mg  Mg5  1  0.00000000  0.66234000  0.00000000  1
  Mg  Mg6  1  0.50000000  0.83766000  0.00000000  1
  Mg  Mg7  1  0.50000000  0.16234000  0.00000000  1
  S  S8  1  0.24686500  0.16571000  0.19178100  1
  S  S9  1  0.75313500  0.83429000  0.80821900  1
  S  S10  1  0.75313500  0.16571000  0.80821900  1
  S  S11  1  0.24686500  0.83429000  0.19178100  1
  S  S12  1  0.74686500  0.66571000  0.19178100  1
  S  S13  1  0.25313500  0.33429000  0.80821900  1
  S  S14  1  0.25313500  0.66571000  0.80821900  1
  S  S15  1  0.74686500  0.33429000  0.19178100  1
  S  S16  1  0.28659600  0.00000000  0.73601000  1
  S  S17  1  0.71340400  0.00000000  0.26399000  1
  S  S18  1  0.78659600  0.50000000  0.73601000  1
  S  S19  1  0.21340400  0.50000000  0.26399000  1
