# generated using pymatgen
data_Hf8Mg(N2O)4
_symmetry_space_group_name_H-M   'P 1'
_cell_length_a   5.41536288
_cell_length_b   5.64875506
_cell_length_c   11.20532325
_cell_angle_alpha   100.78134596
_cell_angle_beta   78.75130278
_cell_angle_gamma   59.90900397
_symmetry_Int_Tables_number   1
_chemical_formula_structural   Hf8Mg(N2O)4
_chemical_formula_sum   'Hf8 Mg1 N8 O4'
_cell_volume   274.00068168
_cell_formula_units_Z   1
loop_
 _symmetry_equiv_pos_site_id
 _symmetry_equiv_pos_as_xyz
  1  'x, y, z'
loop_
 _atom_site_type_symbol
 _atom_site_label
 _atom_site_symmetry_multiplicity
 _atom_site_fract_x
 _atom_site_fract_y
 _atom_site_fract_z
 _atom_site_occupancy
  Hf  Hf0  1  0.19102500  0.31438700  0.31323200  1
  Hf  Hf1  1  0.10405900  0.01168500  0.78071400  1
  Hf  Hf2  1  0.36668700  0.44598200  0.93184400  1
  Hf  Hf3  1  0.62395800  0.20655700  0.54567700  1
  Hf  Hf4  1  0.37046700  0.78816900  0.48093600  1
  Hf  Hf5  1  0.88522500  0.94275900  0.24489200  1
  Hf  Hf6  1  0.62998300  0.83708400  0.01579700  1
  Hf  Hf7  1  0.83532600  0.62530800  0.71475100  1
  Mg  Mg8  1  0.85522700  0.30606000  0.08417600  1
  N  N9  1  0.48004300  0.03615100  0.39039600  1
  N  N10  1  0.57966100  0.18191600  0.16296000  1
  N  N11  1  0.23759200  0.61321500  0.63045600  1
  N  N12  1  0.76369100  0.36232900  0.40164400  1
  N  N13  1  0.40363400  0.76745400  0.87356200  1
  N  N14  1  0.00113300  0.58869400  0.09428000  1
  N  N15  1  0.93771500  0.20071500  0.63330800  1
  N  N16  1  0.72890200  0.01425100  0.87235000  1
  O  O17  1  0.18530900  0.03984700  0.15705800  1
  O  O18  1  0.09229000  0.73739600  0.38342900  1
  O  O19  1  0.06885300  0.42303900  0.84020100  1
  O  O20  1  0.56155600  0.89738400  0.62361000  1
