# generated using pymatgen
data_AlTlFe2F2
_symmetry_space_group_name_H-M   'P 1'
_cell_length_a   8.10779237
_cell_length_b   8.10779237
_cell_length_c   5.15869275
_cell_angle_alpha   88.55900440
_cell_angle_beta   88.55900440
_cell_angle_gamma   38.44065773
_symmetry_Int_Tables_number   1
_chemical_formula_structural   AlTlFe2F2
_chemical_formula_sum   'Al2 Tl2 Fe4 F4'
_cell_volume   210.75326520
_cell_formula_units_Z   2
loop_
 _symmetry_equiv_pos_site_id
 _symmetry_equiv_pos_as_xyz
  1  'x, y, z'
loop_
 _atom_site_type_symbol
 _atom_site_label
 _atom_site_symmetry_multiplicity
 _atom_site_fract_x
 _atom_site_fract_y
 _atom_site_fract_z
 _atom_site_occupancy
  Al  Al0  1  0.00000000  0.50000000  0.00000000  1
  Al  Al1  1  0.50000000  0.00000000  0.50000000  1
  Tl  Tl2  1  0.13996900  0.86003100  0.25000000  1
  Tl  Tl3  1  0.86003100  0.13996900  0.75000000  1
  Fe  Fe4  1  0.03979200  0.63399800  0.53155200  1
  Fe  Fe5  1  0.96020800  0.36600200  0.46844800  1
  Fe  Fe6  1  0.36600200  0.96020800  0.96844800  1
  Fe  Fe7  1  0.63399800  0.03979200  0.03155200  1
  F  F8  1  0.72285800  0.55958100  0.08038200  1
  F  F9  1  0.27714200  0.44041900  0.91961800  1
  F  F10  1  0.44041900  0.27714200  0.41961800  1
  F  F11  1  0.55958100  0.72285800  0.58038200  1
