# generated using pymatgen
data_K2Li2Cu(IO)2
_symmetry_space_group_name_H-M   'P 1'
_cell_length_a   12.10853141
_cell_length_b   12.10853141
_cell_length_c   12.10853141
_cell_angle_alpha   160.23033657
_cell_angle_beta   160.23033657
_cell_angle_gamma   28.10083771
_symmetry_Int_Tables_number   1
_chemical_formula_structural   K2Li2Cu(IO)2
_chemical_formula_sum   'K2 Li2 Cu1 I2 O2'
_cell_volume   203.01273200
_cell_formula_units_Z   1
loop_
 _symmetry_equiv_pos_site_id
 _symmetry_equiv_pos_as_xyz
  1  'x, y, z'
loop_
 _atom_site_type_symbol
 _atom_site_label
 _atom_site_symmetry_multiplicity
 _atom_site_fract_x
 _atom_site_fract_y
 _atom_site_fract_z
 _atom_site_occupancy
  K  K0  1  0.93342000  0.93342000  0.00000000  1
  K  K1  1  0.06658000  0.06658000  0.00000000  1
  Li  Li2  1  0.75000000  0.25000000  0.50000000  1
  Li  Li3  1  0.25000000  0.75000000  0.50000000  1
  Cu  Cu4  1  0.50000000  0.50000000  0.00000000  1
  I  I5  1  0.32401800  0.32401800  0.00000000  1
  I  I6  1  0.67598200  0.67598200  0.00000000  1
  O  O7  1  0.50000000  0.00000000  0.50000000  1
  O  O8  1  0.00000000  0.50000000  0.50000000  1
