# generated using pymatgen
data_CaTi6(H2O7)2
_symmetry_space_group_name_H-M   'P 1'
_cell_length_a   8.28890685
_cell_length_b   8.20918604
_cell_length_c   9.39669234
_cell_angle_alpha   78.89354968
_cell_angle_beta   101.14075408
_cell_angle_gamma   153.20334093
_symmetry_Int_Tables_number   1
_chemical_formula_structural   CaTi6(H2O7)2
_chemical_formula_sum   'Ca1 Ti6 H4 O14'
_cell_volume   282.53160411
_cell_formula_units_Z   1
loop_
 _symmetry_equiv_pos_site_id
 _symmetry_equiv_pos_as_xyz
  1  'x, y, z'
loop_
 _atom_site_type_symbol
 _atom_site_label
 _atom_site_symmetry_multiplicity
 _atom_site_fract_x
 _atom_site_fract_y
 _atom_site_fract_z
 _atom_site_occupancy
  Ca  Ca0  1  0.49953800  0.52875000  0.54404700  1
  Ti  Ti1  1  0.78473300  0.22722200  0.78741100  1
  Ti  Ti2  1  0.23594100  0.79021000  0.21619200  1
  Ti  Ti3  1  0.82569600  0.18835500  0.47000400  1
  Ti  Ti4  1  0.18635800  0.84062600  0.52974100  1
  Ti  Ti5  1  0.86822800  0.13061400  0.17786000  1
  Ti  Ti6  1  0.15674900  0.88933700  0.82945700  1
  H  H7  1  0.71936300  0.70756600  0.10492000  1
  H  H8  1  0.03445300  0.92196200  0.23489000  1
  H  H9  1  0.08748300  0.09370900  0.95479100  1
  H  H10  1  0.99390300  0.09416300  0.78244900  1
  O  O11  1  0.83818000  0.16461600  0.96756300  1
  O  O12  1  0.18117300  0.85082100  0.03613200  1
  O  O13  1  0.86624700  0.12340300  0.67348700  1
  O  O14  1  0.14874000  0.88926600  0.32448600  1
  O  O15  1  0.92390000  0.08158400  0.40594800  1
  O  O16  1  0.08831400  0.94159400  0.60543700  1
  O  O17  1  0.93451300  0.94159900  0.14946700  1
  O  O18  1  0.09401500  0.07898900  0.85492900  1
  O  O19  1  0.67375900  0.36738200  0.81613400  1
  O  O20  1  0.34791600  0.64762800  0.19004700  1
  O  O21  1  0.71371600  0.31132500  0.54615100  1
  O  O22  1  0.30167800  0.71255600  0.45769300  1
  O  O23  1  0.76218100  0.25559600  0.25076300  1
  O  O24  1  0.25676600  0.76357600  0.74880700  1
