# generated using pymatgen
data_MgInSe3
_symmetry_space_group_name_H-M   'P 1'
_cell_length_a   6.58990800
_cell_length_b   6.58990823
_cell_length_c   30.14602900
_cell_angle_alpha   90.00000000
_cell_angle_beta   90.00000000
_cell_angle_gamma   119.99999885
_symmetry_Int_Tables_number   1
_chemical_formula_structural   MgInSe3
_chemical_formula_sum   'Mg6 In6 Se18'
_cell_volume   1133.75565812
_cell_formula_units_Z   6
loop_
 _symmetry_equiv_pos_site_id
 _symmetry_equiv_pos_as_xyz
  1  'x, y, z'
loop_
 _atom_site_type_symbol
 _atom_site_label
 _atom_site_symmetry_multiplicity
 _atom_site_fract_x
 _atom_site_fract_y
 _atom_site_fract_z
 _atom_site_occupancy
  Mg  Mg0  1  0.00000000  0.00000000  0.16675600  1
  Mg  Mg1  1  0.00000000  0.00000000  0.83324400  1
  Mg  Mg2  1  0.66666700  0.33333300  0.50008900  1
  Mg  Mg3  1  0.66666700  0.33333300  0.16657700  1
  Mg  Mg4  1  0.33333300  0.66666700  0.83342300  1
  Mg  Mg5  1  0.33333300  0.66666700  0.49991100  1
  In  In6  1  0.00000000  0.00000000  0.43959400  1
  In  In7  1  0.00000000  0.00000000  0.56040600  1
  In  In8  1  0.66666700  0.33333300  0.77292700  1
  In  In9  1  0.66666700  0.33333300  0.89373900  1
  In  In10  1  0.33333300  0.66666700  0.10626100  1
  In  In11  1  0.33333300  0.66666700  0.22707300  1
  Se  Se12  1  0.00034900  0.38680200  0.56106500  1
  Se  Se13  1  0.99965100  0.61319800  0.43893500  1
  Se  Se14  1  0.61319800  0.61354600  0.56106500  1
  Se  Se15  1  0.38680200  0.38645400  0.43893500  1
  Se  Se16  1  0.38645400  0.99965100  0.56106500  1
  Se  Se17  1  0.61354600  0.00034900  0.43893500  1
  Se  Se18  1  0.66701600  0.72013500  0.89439800  1
  Se  Se19  1  0.66631800  0.94653100  0.77226800  1
  Se  Se20  1  0.27986500  0.94687900  0.89439800  1
  Se  Se21  1  0.05346900  0.71978700  0.77226800  1
  Se  Se22  1  0.05312100  0.33298400  0.89439800  1
  Se  Se23  1  0.28021300  0.33368200  0.77226800  1
  Se  Se24  1  0.33368200  0.05346900  0.22773200  1
  Se  Se25  1  0.33298400  0.27986500  0.10560200  1
  Se  Se26  1  0.94653100  0.28021300  0.22773200  1
  Se  Se27  1  0.72013500  0.05312100  0.10560200  1
  Se  Se28  1  0.71978700  0.66631800  0.22773200  1
  Se  Se29  1  0.94687900  0.66701600  0.10560200  1
