# generated using pymatgen
data_Pm2MgS4
_symmetry_space_group_name_H-M   'P 1'
_cell_length_a   8.19281200
_cell_length_b   7.23096800
_cell_length_c   11.66625500
_cell_angle_alpha   90.00000000
_cell_angle_beta   90.00000000
_cell_angle_gamma   90.00000000
_symmetry_Int_Tables_number   1
_chemical_formula_structural   Pm2MgS4
_chemical_formula_sum   'Pm8 Mg4 S16'
_cell_volume   691.13182842
_cell_formula_units_Z   4
loop_
 _symmetry_equiv_pos_site_id
 _symmetry_equiv_pos_as_xyz
  1  'x, y, z'
loop_
 _atom_site_type_symbol
 _atom_site_label
 _atom_site_symmetry_multiplicity
 _atom_site_fract_x
 _atom_site_fract_y
 _atom_site_fract_z
 _atom_site_occupancy
  Pm  Pm0  1  0.02937400  0.75000000  0.31282900  1
  Pm  Pm1  1  0.97062600  0.25000000  0.68717100  1
  Pm  Pm2  1  0.47062600  0.25000000  0.81282900  1
  Pm  Pm3  1  0.52937400  0.75000000  0.18717100  1
  Pm  Pm4  1  0.08598800  0.25000000  0.03155300  1
  Pm  Pm5  1  0.91401200  0.75000000  0.96844700  1
  Pm  Pm6  1  0.41401200  0.75000000  0.53155300  1
  Pm  Pm7  1  0.58598800  0.25000000  0.46844700  1
  Mg  Mg8  1  0.19021400  0.25000000  0.41453000  1
  Mg  Mg9  1  0.80978600  0.75000000  0.58547000  1
  Mg  Mg10  1  0.30978600  0.75000000  0.91453000  1
  Mg  Mg11  1  0.69021400  0.25000000  0.08547000  1
  S  S12  1  0.14161500  0.49649800  0.84512800  1
  S  S13  1  0.85838500  0.50350200  0.15487200  1
  S  S14  1  0.35838500  0.50350200  0.34512800  1
  S  S15  1  0.64161500  0.49649800  0.65487200  1
  S  S16  1  0.64161500  0.00350200  0.65487200  1
  S  S17  1  0.35838500  0.99649800  0.34512800  1
  S  S18  1  0.85838500  0.99649800  0.15487200  1
  S  S19  1  0.14161500  0.00350200  0.84512800  1
  S  S20  1  0.90979700  0.25000000  0.44636200  1
  S  S21  1  0.09020300  0.75000000  0.55363800  1
  S  S22  1  0.59020300  0.75000000  0.94636200  1
  S  S23  1  0.40979700  0.25000000  0.05363800  1
  S  S24  1  0.20591100  0.75000000  0.10901400  1
  S  S25  1  0.79408900  0.25000000  0.89098600  1
  S  S26  1  0.29408900  0.25000000  0.60901400  1
  S  S27  1  0.70591100  0.75000000  0.39098600  1
