# generated using pymatgen
data_KTl(CN)4
_symmetry_space_group_name_H-M   'P 1'
_cell_length_a   9.48355033
_cell_length_b   9.48355033
_cell_length_c   9.48355033
_cell_angle_alpha   131.48864108
_cell_angle_beta   131.48864108
_cell_angle_gamma   71.03787173
_symmetry_Int_Tables_number   1
_chemical_formula_structural   KTl(CN)4
_chemical_formula_sum   'K2 Tl2 C8 N8'
_cell_volume   468.63729996
_cell_formula_units_Z   2
loop_
 _symmetry_equiv_pos_site_id
 _symmetry_equiv_pos_as_xyz
  1  'x, y, z'
loop_
 _atom_site_type_symbol
 _atom_site_label
 _atom_site_symmetry_multiplicity
 _atom_site_fract_x
 _atom_site_fract_y
 _atom_site_fract_z
 _atom_site_occupancy
  K  K0  1  0.25000000  0.75000000  0.50000000  1
  K  K1  1  0.50000000  0.50000000  0.00000000  1
  Tl  Tl2  1  0.00000000  0.00000000  0.00000000  1
  Tl  Tl3  1  0.75000000  0.25000000  0.50000000  1
  C  C4  1  0.09998000  0.04542000  0.31626100  1
  C  C5  1  0.53372000  0.34998000  0.55456000  1
  C  C6  1  0.79542000  0.97915900  0.44544000  1
  C  C7  1  0.72915900  0.78372000  0.68373900  1
  C  C8  1  0.95458000  0.27084100  0.05456000  1
  C  C9  1  0.02084100  0.46628000  0.81626100  1
  C  C10  1  0.65002000  0.20458000  0.18373900  1
  C  C11  1  0.21628000  0.90002000  0.94544000  1
  N  N12  1  0.58421000  0.67203400  0.52368700  1
  N  N13  1  0.81052200  0.83421000  0.41217600  1
  N  N14  1  0.42203400  0.39834700  0.58782400  1
  N  N15  1  0.14834700  0.06052200  0.47631300  1
  N  N16  1  0.93947800  0.41579000  0.08782400  1
  N  N17  1  0.16579000  0.57796600  0.97631300  1
  N  N18  1  0.60165300  0.18947800  0.02368700  1
  N  N19  1  0.32796600  0.85165300  0.91217600  1
