# generated using pymatgen
data_CaAl2(Si3O8)2
_symmetry_space_group_name_H-M   'P 1'
_cell_length_a   4.98719665
_cell_length_b   8.58614259
_cell_length_c   8.80761710
_cell_angle_alpha   89.24441981
_cell_angle_beta   90.76126263
_cell_angle_gamma   91.73233745
_symmetry_Int_Tables_number   1
_chemical_formula_structural   CaAl2(Si3O8)2
_chemical_formula_sum   'Ca1 Al2 Si6 O16'
_cell_volume   376.91255750
_cell_formula_units_Z   1
loop_
 _symmetry_equiv_pos_site_id
 _symmetry_equiv_pos_as_xyz
  1  'x, y, z'
loop_
 _atom_site_type_symbol
 _atom_site_label
 _atom_site_symmetry_multiplicity
 _atom_site_fract_x
 _atom_site_fract_y
 _atom_site_fract_z
 _atom_site_occupancy
  Ca  Ca0  1  0.83210700  0.03874700  0.49209900  1
  Al  Al1  1  0.60809700  0.32975200  0.31587400  1
  Al  Al2  1  0.85197200  0.17401100  0.81513500  1
  Si  Si3  1  0.89903500  0.80342700  0.82411000  1
  Si  Si4  1  0.59544300  0.69617100  0.33607300  1
  Si  Si5  1  0.41434200  0.66786800  0.66390500  1
  Si  Si6  1  0.09939800  0.83524100  0.17220400  1
  Si  Si7  1  0.36403200  0.30146400  0.64270800  1
  Si  Si8  1  0.11418500  0.19052600  0.15719500  1
  O  O9  1  0.98562900  0.19704500  0.99121300  1
  O  O10  1  0.50168200  0.23286100  0.48842200  1
  O  O11  1  0.33542500  0.71740400  0.22311500  1
  O  O12  1  0.15735300  0.76315700  0.71999600  1
  O  O13  1  0.22415500  0.01036100  0.19277500  1
  O  O14  1  0.32568600  0.49143100  0.62093200  1
  O  O15  1  0.79836800  0.97223800  0.76551400  1
  O  O16  1  0.70391800  0.52457700  0.33946600  1
  O  O17  1  0.84390800  0.82372200  0.29312700  1
  O  O18  1  0.65619300  0.67473400  0.79089200  1
  O  O19  1  0.51976100  0.76271400  0.50738100  1
  O  O20  1  0.98383600  0.79485000  0.00363700  1
  O  O21  1  0.06619100  0.21712000  0.65676900  1
  O  O22  1  0.35875800  0.31283600  0.17999600  1
  O  O23  1  0.55215400  0.26673700  0.78731600  1
  O  O24  1  0.88337400  0.20814800  0.28826000  1
