# generated using pymatgen
data_KB6(HO)6
_symmetry_space_group_name_H-M   'P 1'
_cell_length_a   10.25780800
_cell_length_b   7.20640900
_cell_length_c   11.21081266
_cell_angle_alpha   54.25162817
_cell_angle_beta   90.00000000
_cell_angle_gamma   90.00000000
_symmetry_Int_Tables_number   1
_chemical_formula_structural   KB6(HO)6
_chemical_formula_sum   'K4 B24 H24 O24'
_cell_volume   672.58560505
_cell_formula_units_Z   4
loop_
 _symmetry_equiv_pos_site_id
 _symmetry_equiv_pos_as_xyz
  1  'x, y, z'
loop_
 _atom_site_type_symbol
 _atom_site_label
 _atom_site_symmetry_multiplicity
 _atom_site_fract_x
 _atom_site_fract_y
 _atom_site_fract_z
 _atom_site_occupancy
  K  K0  1  0.05099900  0.74666800  0.98760500  1
  K  K1  1  0.44900100  0.74666800  0.48760500  1
  K  K2  1  0.94900100  0.25333200  0.01239500  1
  K  K3  1  0.55099900  0.25333200  0.51239500  1
  B  B4  1  0.02848400  0.42022900  0.38525800  1
  B  B5  1  0.47151600  0.42022900  0.88525800  1
  B  B6  1  0.97151600  0.57977100  0.61474200  1
  B  B7  1  0.52848400  0.57977100  0.11474200  1
  B  B8  1  0.05880000  0.70739700  0.32803600  1
  B  B9  1  0.44120000  0.70739700  0.82803600  1
  B  B10  1  0.94120000  0.29260300  0.67196400  1
  B  B11  1  0.55880000  0.29260300  0.17196400  1
  B  B12  1  0.15990100  0.47546800  0.46748700  1
  B  B13  1  0.34009900  0.47546800  0.96748700  1
  B  B14  1  0.84009900  0.52453200  0.53251300  1
  B  B15  1  0.65990100  0.52453200  0.03251300  1
  B  B16  1  0.05856000  0.22856800  0.58043600  1
  B  B17  1  0.44144000  0.22856800  0.08043600  1
  B  B18  1  0.94144000  0.77143200  0.41956400  1
  B  B19  1  0.55856000  0.77143200  0.91956400  1
  B  B20  1  0.89519800  0.30476900  0.51391000  1
  B  B21  1  0.60480200  0.30476900  0.01391000  1
  B  B22  1  0.10480200  0.69523100  0.48609000  1
  B  B23  1  0.39519800  0.69523100  0.98609000  1
  B  B24  1  0.89579800  0.60429100  0.35667500  1
  B  B25  1  0.60420200  0.60429100  0.85667500  1
  B  B26  1  0.10420200  0.39570900  0.64332500  1
  B  B27  1  0.39579800  0.39570900  0.14332500  1
  H  H28  1  0.13953900  0.34509600  0.26896200  1
  H  H29  1  0.36046100  0.34509600  0.76896200  1
  H  H30  1  0.86046100  0.65490400  0.73103800  1
  H  H31  1  0.63953900  0.65490400  0.23103800  1
  H  H32  1  0.19664200  0.92290300  0.18076800  1
  H  H33  1  0.30335800  0.92290300  0.68076800  1
  H  H34  1  0.80335800  0.07709700  0.81923200  1
  H  H35  1  0.69664200  0.07709700  0.31923200  1
  H  H36  1  0.30736000  0.41642300  0.37715300  1
  H  H37  1  0.19264000  0.41642300  0.87715300  1
  H  H38  1  0.69264000  0.58357700  0.62284700  1
  H  H39  1  0.80736000  0.58357700  0.12284700  1
  H  H40  1  0.04816900  0.88265900  0.67633200  1
  H  H41  1  0.45183100  0.88265900  0.17633200  1
  H  H42  1  0.95183100  0.11734100  0.32366800  1
  H  H43  1  0.54816900  0.11734100  0.82366800  1
  H  H44  1  0.82914900  0.08490100  0.47087700  1
  H  H45  1  0.67085100  0.08490100  0.97087700  1
  H  H46  1  0.17085100  0.91509900  0.52912300  1
  H  H47  1  0.32914900  0.91509900  0.02912300  1
  H  H48  1  0.78368200  0.85495100  0.18270400  1
  H  H49  1  0.71631800  0.85495100  0.68270400  1
  H  H50  1  0.21631800  0.14504900  0.81729600  1
  H  H51  1  0.28368200  0.14504900  0.31729600  1
  O  O52  1  0.04561900  0.35523100  0.28533000  1
  O  O53  1  0.45438100  0.35523100  0.78533000  1
  O  O54  1  0.95438100  0.64476900  0.71467000  1
  O  O55  1  0.54561900  0.64476900  0.21467000  1
  O  O56  1  0.10530100  0.88023000  0.18136500  1
  O  O57  1  0.39469900  0.88023000  0.68136500  1
  O  O58  1  0.89469900  0.11977000  0.81863500  1
  O  O59  1  0.60530100  0.11977000  0.31863500  1
  O  O60  1  0.29713400  0.45877600  0.44580100  1
  O  O61  1  0.20286600  0.45877600  0.94580100  1
  O  O62  1  0.70286600  0.54122400  0.55419900  1
  O  O63  1  0.79713400  0.54122400  0.05419900  1
  O  O64  1  0.11453000  0.00210600  0.64834000  1
  O  O65  1  0.38547000  0.00210600  0.14834000  1
  O  O66  1  0.88547000  0.99789400  0.35166000  1
  O  O67  1  0.61453000  0.99789400  0.85166000  1
  O  O68  1  0.80351500  0.13711500  0.53138400  1
  O  O69  1  0.69648500  0.13711500  0.03138400  1
  O  O70  1  0.19648500  0.86288500  0.46861600  1
  O  O71  1  0.30351500  0.86288500  0.96861600  1
  O  O72  1  0.80513700  0.69167000  0.23415800  1
  O  O73  1  0.69486300  0.69167000  0.73415800  1
  O  O74  1  0.19486300  0.30833000  0.76584200  1
  O  O75  1  0.30513700  0.30833000  0.26584200  1
