# generated using pymatgen
data_MgCdTe
_symmetry_space_group_name_H-M   'P 1'
_cell_length_a   5.45793419
_cell_length_b   5.45793419
_cell_length_c   6.67921270
_cell_angle_alpha   68.37062787
_cell_angle_beta   68.37062787
_cell_angle_gamma   89.42386901
_symmetry_Int_Tables_number   1
_chemical_formula_structural   MgCdTe
_chemical_formula_sum   'Mg2 Cd2 Te2'
_cell_volume   170.10228133
_cell_formula_units_Z   2
loop_
 _symmetry_equiv_pos_site_id
 _symmetry_equiv_pos_as_xyz
  1  'x, y, z'
loop_
 _atom_site_type_symbol
 _atom_site_label
 _atom_site_symmetry_multiplicity
 _atom_site_fract_x
 _atom_site_fract_y
 _atom_site_fract_z
 _atom_site_occupancy
  Mg  Mg0  1  0.86156700  0.23459500  0.00281900  1
  Mg  Mg1  1  0.23459500  0.86156700  0.50281900  1
  Cd  Cd2  1  0.63046400  0.74570400  0.00539400  1
  Cd  Cd3  1  0.74570400  0.63046400  0.50539400  1
  Te  Te4  1  0.13667300  0.36758000  0.24178700  1
  Te  Te5  1  0.36758000  0.13667300  0.74178700  1
