# generated using pymatgen
data_ZnCdTe
_symmetry_space_group_name_H-M   'P 1'
_cell_length_a   5.13902167
_cell_length_b   5.13902860
_cell_length_c   6.86321825
_cell_angle_alpha   108.59262370
_cell_angle_beta   108.59253825
_cell_angle_gamma   90.73682143
_symmetry_Int_Tables_number   1
_chemical_formula_structural   ZnCdTe
_chemical_formula_sum   'Zn2 Cd2 Te2'
_cell_volume   161.50054410
_cell_formula_units_Z   2
loop_
 _symmetry_equiv_pos_site_id
 _symmetry_equiv_pos_as_xyz
  1  'x, y, z'
loop_
 _atom_site_type_symbol
 _atom_site_label
 _atom_site_symmetry_multiplicity
 _atom_site_fract_x
 _atom_site_fract_y
 _atom_site_fract_z
 _atom_site_occupancy
  Zn  Zn0  1  0.83280700  0.04802700  0.89233100  1
  Zn  Zn1  1  0.29802700  0.58280700  0.39233100  1
  Cd  Cd2  1  0.53241100  0.43852000  0.07927800  1
  Cd  Cd3  1  0.68852000  0.28241000  0.57927800  1
  Te  Te4  1  0.96487600  0.95677600  0.27839200  1
  Te  Te5  1  0.20677600  0.71487500  0.77839100  1
