# generated using pymatgen
data_ZnTe(H2N)4
_symmetry_space_group_name_H-M   'P 1'
_cell_length_a   7.21674700
_cell_length_b   7.92878500
_cell_length_c   14.32681444
_cell_angle_alpha   58.87970054
_cell_angle_beta   90.00000000
_cell_angle_gamma   90.00000000
_symmetry_Int_Tables_number   1
_chemical_formula_structural   ZnTe(H2N)4
_chemical_formula_sum   'Zn4 Te4 H32 N16'
_cell_volume   701.80127326
_cell_formula_units_Z   4
loop_
 _symmetry_equiv_pos_site_id
 _symmetry_equiv_pos_as_xyz
  1  'x, y, z'
loop_
 _atom_site_type_symbol
 _atom_site_label
 _atom_site_symmetry_multiplicity
 _atom_site_fract_x
 _atom_site_fract_y
 _atom_site_fract_z
 _atom_site_occupancy
  Zn  Zn0  1  0.55617300  0.28989800  0.26718900  1
  Zn  Zn1  1  0.44382700  0.28989800  0.76718900  1
  Zn  Zn2  1  0.78270000  0.34156400  0.50546200  1
  Zn  Zn3  1  0.21730000  0.34156400  0.00546200  1
  Te  Te4  1  0.42318200  0.23035200  0.59139700  1
  Te  Te5  1  0.57681800  0.23035200  0.09139700  1
  Te  Te6  1  0.87857900  0.30152900  0.34096600  1
  Te  Te7  1  0.12142100  0.30152900  0.84096600  1
  H  H8  1  0.52768300  0.66277900  0.16587700  1
  H  H9  1  0.47231700  0.66277900  0.66587700  1
  H  H10  1  0.42182200  0.90532200  0.32038100  1
  H  H11  1  0.57817800  0.90532200  0.82038100  1
  H  H12  1  0.05777100  0.14381300  0.64156900  1
  H  H13  1  0.94222900  0.14381300  0.14156900  1
  H  H14  1  0.07584500  0.52972800  0.58529700  1
  H  H15  1  0.92415500  0.52972800  0.08529700  1
  H  H16  1  0.36106300  0.58717000  0.11203500  1
  H  H17  1  0.63893700  0.58717000  0.61203500  1
  H  H18  1  0.92254400  0.97064600  0.55667200  1
  H  H19  1  0.07745600  0.97064600  0.05667200  1
  H  H20  1  0.32401000  0.58901500  0.22551700  1
  H  H21  1  0.67599000  0.58901500  0.72551700  1
  H  H22  1  0.68608900  0.68945200  0.42945400  1
  H  H23  1  0.31391100  0.68945200  0.92945400  1
  H  H24  1  0.49846600  0.99702100  0.15332800  1
  H  H25  1  0.50153400  0.99702100  0.65332800  1
  H  H26  1  0.01272800  0.83509100  0.67937800  1
  H  H27  1  0.98727200  0.83509100  0.17937800  1
  H  H28  1  0.91307000  0.87602500  0.41799300  1
  H  H29  1  0.08693000  0.87602500  0.91799300  1
  H  H30  1  0.86015800  0.07416200  0.71494300  1
  H  H31  1  0.13984200  0.07416200  0.21494300  1
  H  H32  1  0.25822000  0.13688200  0.39516300  1
  H  H33  1  0.74178000  0.13688200  0.89516300  1
  H  H34  1  0.43882400  0.99877700  0.45956900  1
  H  H35  1  0.56117600  0.99877700  0.95956900  1
  H  H36  1  0.25344100  0.81662400  0.41834300  1
  H  H37  1  0.74655900  0.81662400  0.91834300  1
  H  H38  1  0.17607800  0.57564700  0.35297600  1
  H  H39  1  0.82392200  0.57564700  0.85297600  1
  N  N40  1  0.92043700  0.10643500  0.64164600  1
  N  N41  1  0.07956300  0.10643500  0.14164600  1
  N  N42  1  0.91318000  0.67613900  0.02627300  1
  N  N43  1  0.08682000  0.67613900  0.52627300  1
  N  N44  1  0.30999000  0.94183200  0.35031700  1
  N  N45  1  0.69001000  0.94183200  0.85031700  1
  N  N46  1  0.77614600  0.60938700  0.49263800  1
  N  N47  1  0.22385400  0.60938700  0.99263800  1
  N  N48  1  0.37505800  0.07389700  0.38439200  1
  N  N49  1  0.62494200  0.07389700  0.88439200  1
  N  N50  1  0.42481500  0.56083800  0.18491600  1
  N  N51  1  0.57518500  0.56083800  0.68491600  1
  N  N52  1  0.90552800  0.92871600  0.63695100  1
  N  N53  1  0.09447200  0.92871600  0.13695100  1
  N  N54  1  0.93677700  0.72591000  0.46230800  1
  N  N55  1  0.06322300  0.72591000  0.96230800  1
