# generated using pymatgen
data_Rb2MnH12(SeO7)2
_symmetry_space_group_name_H-M   'P 1'
_cell_length_a   13.06221200
_cell_length_b   7.00377400
_cell_length_c   9.52042636
_cell_angle_alpha   72.04462215
_cell_angle_beta   90.00000000
_cell_angle_gamma   90.00000000
_symmetry_Int_Tables_number   1
_chemical_formula_structural   Rb2MnH12(SeO7)2
_chemical_formula_sum   'Rb4 Mn2 H24 Se4 O28'
_cell_volume   828.55497137
_cell_formula_units_Z   2
loop_
 _symmetry_equiv_pos_site_id
 _symmetry_equiv_pos_as_xyz
  1  'x, y, z'
loop_
 _atom_site_type_symbol
 _atom_site_label
 _atom_site_symmetry_multiplicity
 _atom_site_fract_x
 _atom_site_fract_y
 _atom_site_fract_z
 _atom_site_occupancy
  Rb  Rb0  1  0.12288900  0.68185600  0.57924000  1
  Rb  Rb1  1  0.62288900  0.31814400  0.92076000  1
  Rb  Rb2  1  0.87711100  0.31814400  0.42076000  1
  Rb  Rb3  1  0.37711100  0.68185600  0.07924000  1
  Mn  Mn4  1  0.50000000  0.00000000  0.50000000  1
  Mn  Mn5  1  0.00000000  0.00000000  0.00000000  1
  H  H6  1  0.43363800  0.54300600  0.70375000  1
  H  H7  1  0.93363800  0.45699400  0.79625000  1
  H  H8  1  0.56636200  0.45699400  0.29625000  1
  H  H9  1  0.06636200  0.54300600  0.20375000  1
  H  H10  1  0.23399400  0.14347100  0.11772500  1
  H  H11  1  0.73399400  0.85652900  0.38227500  1
  H  H12  1  0.76600600  0.85652900  0.88227500  1
  H  H13  1  0.26600600  0.14347100  0.61772500  1
  H  H14  1  0.41735400  0.07346600  0.24559500  1
  H  H15  1  0.91735400  0.92653400  0.25440500  1
  H  H16  1  0.58264600  0.92653400  0.75440500  1
  H  H17  1  0.08264600  0.07346600  0.74559500  1
  H  H18  1  0.32839400  0.00233700  0.36974800  1
  H  H19  1  0.82839400  0.99766300  0.13025200  1
  H  H20  1  0.67160600  0.99766300  0.63025200  1
  H  H21  1  0.17160600  0.00233700  0.86974800  1
  H  H22  1  0.55309200  0.65228300  0.34627300  1
  H  H23  1  0.05309200  0.34771700  0.15372700  1
  H  H24  1  0.44690800  0.34771700  0.65372700  1
  H  H25  1  0.94690800  0.65228300  0.84627300  1
  H  H26  1  0.60524900  0.67683400  0.56469600  1
  H  H27  1  0.10524900  0.32316600  0.93530400  1
  H  H28  1  0.39475100  0.32316600  0.43530400  1
  H  H29  1  0.89475100  0.67683400  0.06469600  1
  Se  Se30  1  0.30353200  0.22728500  0.98555300  1
  Se  Se31  1  0.80353200  0.77271500  0.51444700  1
  Se  Se32  1  0.69646800  0.77271500  0.01444700  1
  Se  Se33  1  0.19646800  0.22728500  0.48555300  1
  O  O34  1  0.25724800  0.45490300  0.90334800  1
  O  O35  1  0.75724800  0.54509700  0.59665200  1
  O  O36  1  0.74275200  0.54509700  0.09665200  1
  O  O37  1  0.24275200  0.45490300  0.40334800  1
  O  O38  1  0.41865200  0.22008300  0.06455500  1
  O  O39  1  0.91865200  0.77991700  0.43544500  1
  O  O40  1  0.58134800  0.77991700  0.93544500  1
  O  O41  1  0.08134800  0.22008300  0.56455500  1
  O  O42  1  0.45143100  0.39829900  0.73983400  1
  O  O43  1  0.95143100  0.60170100  0.76016600  1
  O  O44  1  0.54856900  0.60170100  0.26016600  1
  O  O45  1  0.04856900  0.39829900  0.23983400  1
  O  O46  1  0.29026000  0.06323800  0.89006000  1
  O  O47  1  0.79026000  0.93676200  0.60994000  1
  O  O48  1  0.70974000  0.93676200  0.10994000  1
  O  O49  1  0.20974000  0.06323800  0.39006000  1
  O  O50  1  0.43680600  0.23641300  0.51517300  1
  O  O51  1  0.93680600  0.76358700  0.98482700  1
  O  O52  1  0.56319400  0.76358700  0.48482700  1
  O  O53  1  0.06319400  0.23641300  0.01517300  1
  O  O54  1  0.40144200  0.97483800  0.34518300  1
  O  O55  1  0.90144200  0.02516200  0.15481700  1
  O  O56  1  0.59855800  0.02516200  0.65481700  1
  O  O57  1  0.09855800  0.97483800  0.84518300  1
  O  O58  1  0.42717200  0.80678400  0.64367900  1
  O  O59  1  0.92717200  0.19321600  0.85632100  1
  O  O60  1  0.57282800  0.19321600  0.35632100  1
  O  O61  1  0.07282800  0.80678400  0.14367900  1
