# generated using pymatgen
data_SbPH2F10
_symmetry_space_group_name_H-M   'P 1'
_cell_length_a   11.29806600
_cell_length_b   5.58735800
_cell_length_c   13.79161289
_cell_angle_alpha   81.60213155
_cell_angle_beta   90.00000000
_cell_angle_gamma   90.00000000
_symmetry_Int_Tables_number   1
_chemical_formula_structural   SbPH2F10
_chemical_formula_sum   'Sb4 P4 H8 F40'
_cell_volume   861.27911010
_cell_formula_units_Z   4
loop_
 _symmetry_equiv_pos_site_id
 _symmetry_equiv_pos_as_xyz
  1  'x, y, z'
loop_
 _atom_site_type_symbol
 _atom_site_label
 _atom_site_symmetry_multiplicity
 _atom_site_fract_x
 _atom_site_fract_y
 _atom_site_fract_z
 _atom_site_occupancy
  Sb  Sb0  1  0.75323100  0.65309400  0.52534100  1
  Sb  Sb1  1  0.25323100  0.34690600  0.97465900  1
  Sb  Sb2  1  0.24676900  0.34690600  0.47465900  1
  Sb  Sb3  1  0.74676900  0.65309400  0.02534100  1
  P  P4  1  0.56084600  0.08003600  0.78603500  1
  P  P5  1  0.06084600  0.91996400  0.71396500  1
  P  P6  1  0.43915400  0.91996400  0.21396500  1
  P  P7  1  0.93915400  0.08003600  0.28603500  1
  H  H8  1  0.64066800  0.19552800  0.48555900  1
  H  H9  1  0.14066800  0.80447200  0.01444100  1
  H  H10  1  0.35933200  0.80447200  0.51444100  1
  H  H11  1  0.85933200  0.19552800  0.98555900  1
  H  H12  1  0.40705200  0.73793900  0.79998500  1
  H  H13  1  0.90705200  0.26206100  0.70001500  1
  H  H14  1  0.59294800  0.26206100  0.20001500  1
  H  H15  1  0.09294800  0.73793900  0.29998500  1
  F  F16  1  0.78818200  0.70282300  0.39044400  1
  F  F17  1  0.28818200  0.29717700  0.10955600  1
  F  F18  1  0.21181800  0.29717700  0.60955600  1
  F  F19  1  0.71181800  0.70282300  0.89044400  1
  F  F20  1  0.67498800  0.56042900  0.64486300  1
  F  F21  1  0.17498800  0.43957100  0.85513700  1
  F  F22  1  0.32501200  0.43957100  0.35513700  1
  F  F23  1  0.82501200  0.56042900  0.14486300  1
  F  F24  1  0.63030800  0.37371700  0.47789000  1
  F  F25  1  0.13030800  0.62628300  0.02211000  1
  F  F26  1  0.36969200  0.62628300  0.52211000  1
  F  F27  1  0.86969200  0.37371700  0.97789000  1
  F  F28  1  0.63487600  0.90995100  0.49569100  1
  F  F29  1  0.13487600  0.09004900  0.00430900  1
  F  F30  1  0.36512400  0.09004900  0.50430900  1
  F  F31  1  0.86512400  0.90995100  0.99569100  1
  F  F32  1  0.86377600  0.87197600  0.56547900  1
  F  F33  1  0.36377600  0.12802400  0.93452100  1
  F  F34  1  0.13622400  0.12802400  0.43452100  1
  F  F35  1  0.63622400  0.87197600  0.06547900  1
  F  F36  1  0.86089100  0.38915900  0.55120100  1
  F  F37  1  0.36089100  0.61084100  0.94879900  1
  F  F38  1  0.13910900  0.61084100  0.44879900  1
  F  F39  1  0.63910900  0.38915900  0.05120100  1
  F  F40  1  0.60562200  0.25798800  0.26790100  1
  F  F41  1  0.10562200  0.74201200  0.23209900  1
  F  F42  1  0.39437800  0.74201200  0.73209900  1
  F  F43  1  0.89437800  0.25798800  0.76790100  1
  F  F44  1  0.63535200  0.26512600  0.83979300  1
  F  F45  1  0.13535200  0.73487400  0.66020700  1
  F  F46  1  0.36464800  0.73487400  0.16020700  1
  F  F47  1  0.86464800  0.26512600  0.33979300  1
  F  F48  1  0.47745600  0.27162200  0.72194600  1
  F  F49  1  0.97745600  0.72837800  0.77805400  1
  F  F50  1  0.52254400  0.72837800  0.27805400  1
  F  F51  1  0.02254400  0.27162200  0.22194600  1
  F  F52  1  0.65434100  0.04817300  0.70150100  1
  F  F53  1  0.15434100  0.95182700  0.79849900  1
  F  F54  1  0.34565900  0.95182700  0.29849900  1
  F  F55  1  0.84565900  0.04817300  0.20150100  1
