# generated using pymatgen
data_TcC4NO4
_symmetry_space_group_name_H-M   'P 1'
_cell_length_a   5.52050300
_cell_length_b   10.07029500
_cell_length_c   11.90294500
_cell_angle_alpha   90.00000000
_cell_angle_beta   90.00000000
_cell_angle_gamma   90.00000000
_symmetry_Int_Tables_number   1
_chemical_formula_structural   TcC4NO4
_chemical_formula_sum   'Tc4 C16 N4 O16'
_cell_volume   661.72153739
_cell_formula_units_Z   4
loop_
 _symmetry_equiv_pos_site_id
 _symmetry_equiv_pos_as_xyz
  1  'x, y, z'
loop_
 _atom_site_type_symbol
 _atom_site_label
 _atom_site_symmetry_multiplicity
 _atom_site_fract_x
 _atom_site_fract_y
 _atom_site_fract_z
 _atom_site_occupancy
  Tc  Tc0  1  0.59173600  0.26930700  0.75659500  1
  Tc  Tc1  1  0.59173600  0.73069300  0.24340500  1
  Tc  Tc2  1  0.40826400  0.23069300  0.25659500  1
  Tc  Tc3  1  0.40826400  0.76930700  0.74340500  1
  C  C4  1  0.86288200  0.53795900  0.08332900  1
  C  C5  1  0.86288200  0.46204100  0.91667100  1
  C  C6  1  0.13711800  0.96204100  0.58332900  1
  C  C7  1  0.13711800  0.03795900  0.41667100  1
  C  C8  1  0.11646900  0.49905700  0.94679800  1
  C  C9  1  0.11646900  0.50094300  0.05320200  1
  C  C10  1  0.88353100  0.00094300  0.44679800  1
  C  C11  1  0.88353100  0.99905700  0.55320200  1
  C  C12  1  0.09443300  0.42786600  0.53915900  1
  C  C13  1  0.09443300  0.57213400  0.46084100  1
  C  C14  1  0.90556700  0.07213400  0.03915900  1
  C  C15  1  0.90556700  0.92786600  0.96084100  1
  C  C16  1  0.17829700  0.44136700  0.41893100  1
  C  C17  1  0.17829700  0.55863300  0.58106900  1
  C  C18  1  0.82170300  0.05863300  0.91893100  1
  C  C19  1  0.82170300  0.94136700  0.08106900  1
  N  N20  1  0.70740100  0.50000000  0.00000000  1
  N  N21  1  0.29259900  0.00000000  0.50000000  1
  N  N22  1  0.87257900  0.50000000  0.50000000  1
  N  N23  1  0.12742100  0.00000000  0.00000000  1
  O  O24  1  0.29716400  0.28612400  0.79736100  1
  O  O25  1  0.29716400  0.71387600  0.20263900  1
  O  O26  1  0.70283600  0.21387600  0.29736100  1
  O  O27  1  0.70283600  0.78612400  0.70263900  1
  O  O28  1  0.80456100  0.40314600  0.82636800  1
  O  O29  1  0.80456100  0.59685400  0.17363200  1
  O  O30  1  0.19543900  0.09685400  0.32636800  1
  O  O31  1  0.19543900  0.90314600  0.67363200  1
  O  O32  1  0.66164300  0.25539300  0.61785800  1
  O  O33  1  0.66164300  0.74460700  0.38214200  1
  O  O34  1  0.33835700  0.24460700  0.11785800  1
  O  O35  1  0.33835700  0.75539300  0.88214200  1
  O  O36  1  0.79125500  0.11775200  0.82847300  1
  O  O37  1  0.79125500  0.88224800  0.17152700  1
  O  O38  1  0.20874500  0.38224800  0.32847300  1
  O  O39  1  0.20874500  0.61775200  0.67152700  1
