# generated using pymatgen
data_CsMoH2C2SO7
_symmetry_space_group_name_H-M   'P 1'
_cell_length_a   16.83697900
_cell_length_b   9.98627500
_cell_length_c   13.10554313
_cell_angle_alpha   66.36964647
_cell_angle_beta   90.00000000
_cell_angle_gamma   90.00000000
_symmetry_Int_Tables_number   1
_chemical_formula_structural   CsMoH2C2SO7
_chemical_formula_sum   'Cs8 Mo8 H16 C16 S8 O56'
_cell_volume   2018.78255193
_cell_formula_units_Z   8
loop_
 _symmetry_equiv_pos_site_id
 _symmetry_equiv_pos_as_xyz
  1  'x, y, z'
loop_
 _atom_site_type_symbol
 _atom_site_label
 _atom_site_symmetry_multiplicity
 _atom_site_fract_x
 _atom_site_fract_y
 _atom_site_fract_z
 _atom_site_occupancy
  Cs  Cs0  1  0.90270500  0.03167200  0.71188600  1
  Cs  Cs1  1  0.59729500  0.03167200  0.21188600  1
  Cs  Cs2  1  0.09729500  0.96832800  0.28811400  1
  Cs  Cs3  1  0.40270500  0.96832800  0.78811400  1
  Cs  Cs4  1  0.51820300  0.52299500  0.18760200  1
  Cs  Cs5  1  0.98179700  0.52299500  0.68760200  1
  Cs  Cs6  1  0.48179700  0.47700500  0.81239800  1
  Cs  Cs7  1  0.01820300  0.47700500  0.31239800  1
  Mo  Mo8  1  0.64074200  0.76675600  0.88361300  1
  Mo  Mo9  1  0.85925800  0.76675600  0.38361300  1
  Mo  Mo10  1  0.35925800  0.23324400  0.11638700  1
  Mo  Mo11  1  0.14074200  0.23324400  0.61638700  1
  Mo  Mo12  1  0.63525900  0.13032100  0.83921700  1
  Mo  Mo13  1  0.86474100  0.13032100  0.33921700  1
  Mo  Mo14  1  0.36474100  0.86967900  0.16078300  1
  Mo  Mo15  1  0.13525900  0.86967900  0.66078300  1
  H  H16  1  0.70678500  0.56992000  0.08921400  1
  H  H17  1  0.79321500  0.56992000  0.58921400  1
  H  H18  1  0.29321500  0.43008000  0.91078600  1
  H  H19  1  0.20678500  0.43008000  0.41078600  1
  H  H20  1  0.70637100  0.48721700  0.00720700  1
  H  H21  1  0.79362900  0.48721700  0.50720700  1
  H  H22  1  0.29362900  0.51278300  0.99279300  1
  H  H23  1  0.20637100  0.51278300  0.49279300  1
  H  H24  1  0.66514000  0.42549700  0.68592500  1
  H  H25  1  0.83486000  0.42549700  0.18592500  1
  H  H26  1  0.33486000  0.57450300  0.31407500  1
  H  H27  1  0.16514000  0.57450300  0.81407500  1
  H  H28  1  0.63271000  0.34069600  0.61441200  1
  H  H29  1  0.86729000  0.34069600  0.11441200  1
  H  H30  1  0.36729000  0.65930400  0.38558800  1
  H  H31  1  0.13271000  0.65930400  0.88558800  1
  C  C32  1  0.78837600  0.68994900  0.78334600  1
  C  C33  1  0.71162400  0.68994900  0.28334600  1
  C  C34  1  0.21162400  0.31005100  0.21665400  1
  C  C35  1  0.28837600  0.31005100  0.71665400  1
  C  C36  1  0.71772400  0.62037400  0.74577000  1
  C  C37  1  0.78227600  0.62037400  0.24577000  1
  C  C38  1  0.28227600  0.37962600  0.25423000  1
  C  C39  1  0.21772400  0.37962600  0.75423000  1
  C  C40  1  0.79974000  0.24735200  0.85780500  1
  C  C41  1  0.70026000  0.24735200  0.35780500  1
  C  C42  1  0.20026000  0.75264800  0.14219500  1
  C  C43  1  0.29974000  0.75264800  0.64219500  1
  C  C44  1  0.74456200  0.29626300  0.93266400  1
  C  C45  1  0.75543800  0.29626300  0.43266400  1
  C  C46  1  0.25543800  0.70373700  0.06733600  1
  C  C47  1  0.24456200  0.70373700  0.56733600  1
  S  S48  1  0.66903300  0.90556300  0.98992700  1
  S  S49  1  0.83096700  0.90556300  0.48992700  1
  S  S50  1  0.33096700  0.09443700  0.01007300  1
  S  S51  1  0.16903300  0.09443700  0.51007300  1
  S  S52  1  0.63084400  0.99559200  0.72400800  1
  S  S53  1  0.86915600  0.99559200  0.22400800  1
  S  S54  1  0.36915600  0.00440800  0.27599200  1
  S  S55  1  0.13084400  0.00440800  0.77599200  1
  O  O56  1  0.54073500  0.71718400  0.90646100  1
  O  O57  1  0.95926500  0.71718400  0.40646100  1
  O  O58  1  0.45926500  0.28281600  0.09353900  1
  O  O59  1  0.04073500  0.28281600  0.59353900  1
  O  O60  1  0.53619200  0.15159900  0.86604100  1
  O  O61  1  0.96380800  0.15159900  0.36604100  1
  O  O62  1  0.46380800  0.84840100  0.13395900  1
  O  O63  1  0.03619200  0.84840100  0.63395900  1
  O  O64  1  0.67605700  0.56179400  0.02616200  1
  O  O65  1  0.82394300  0.56179400  0.52616200  1
  O  O66  1  0.32394300  0.43820600  0.97383800  1
  O  O67  1  0.17605700  0.43820600  0.47383800  1
  O  O68  1  0.62675800  0.34684900  0.68675600  1
  O  O69  1  0.87324200  0.34684900  0.18675600  1
  O  O70  1  0.37324200  0.65315100  0.31324400  1
  O  O71  1  0.12675800  0.65315100  0.81324400  1
  O  O72  1  0.76561400  0.75773800  0.84450800  1
  O  O73  1  0.73438600  0.75773800  0.34450800  1
  O  O74  1  0.23438600  0.24226200  0.15549200  1
  O  O75  1  0.26561400  0.24226200  0.65549200  1
  O  O76  1  0.64915100  0.64035100  0.77955700  1
  O  O77  1  0.85084900  0.64035100  0.27955700  1
  O  O78  1  0.35084900  0.35964900  0.22044300  1
  O  O79  1  0.14915100  0.35964900  0.72044300  1
  O  O80  1  0.85733700  0.67964900  0.75531100  1
  O  O81  1  0.64266300  0.67964900  0.25531100  1
  O  O82  1  0.14266300  0.32035100  0.24468900  1
  O  O83  1  0.35733700  0.32035100  0.74468900  1
  O  O84  1  0.72922200  0.54584900  0.68908600  1
  O  O85  1  0.77077800  0.54584900  0.18908600  1
  O  O86  1  0.27077800  0.45415100  0.31091400  1
  O  O87  1  0.22922200  0.45415100  0.81091400  1
  O  O88  1  0.76030800  0.18320100  0.80448200  1
  O  O89  1  0.73969200  0.18320100  0.30448200  1
  O  O90  1  0.23969200  0.81679900  0.19551800  1
  O  O91  1  0.26030800  0.81679900  0.69551800  1
  O  O92  1  0.67183000  0.25201700  0.93804800  1
  O  O93  1  0.82817000  0.25201700  0.43804800  1
  O  O94  1  0.32817000  0.74798300  0.06195200  1
  O  O95  1  0.17183000  0.74798300  0.56195200  1
  O  O96  1  0.87205200  0.27069400  0.85061600  1
  O  O97  1  0.62794800  0.27069400  0.35061600  1
  O  O98  1  0.12794800  0.72930600  0.14938400  1
  O  O99  1  0.37205200  0.72930600  0.64938400  1
  O  O100  1  0.76969800  0.37627300  0.97852200  1
  O  O101  1  0.73030200  0.37627300  0.47852200  1
  O  O102  1  0.23030200  0.62372700  0.02147800  1
  O  O103  1  0.26969800  0.62372700  0.52147800  1
  O  O104  1  0.48401200  0.32362700  0.54966200  1
  O  O105  1  0.01598800  0.32362700  0.04966200  1
  O  O106  1  0.51598800  0.67637300  0.45033800  1
  O  O107  1  0.98401200  0.67637300  0.95033800  1
  O  O108  1  0.98172100  0.76422400  0.99486800  1
  O  O109  1  0.51827900  0.76422400  0.49486800  1
  O  O110  1  0.01827900  0.23577600  0.00513200  1
  O  O111  1  0.48172100  0.23577600  0.50513200  1
