# generated using pymatgen
data_KUH3SO8
_symmetry_space_group_name_H-M   'P 1'
_cell_length_a   8.58869600
_cell_length_b   8.38565500
_cell_length_c   11.63749789
_cell_angle_alpha   67.88061434
_cell_angle_beta   90.00000000
_cell_angle_gamma   90.00000000
_symmetry_Int_Tables_number   1
_chemical_formula_structural   KUH3SO8
_chemical_formula_sum   'K4 U4 H12 S4 O32'
_cell_volume   776.46696966
_cell_formula_units_Z   4
loop_
 _symmetry_equiv_pos_site_id
 _symmetry_equiv_pos_as_xyz
  1  'x, y, z'
loop_
 _atom_site_type_symbol
 _atom_site_label
 _atom_site_symmetry_multiplicity
 _atom_site_fract_x
 _atom_site_fract_y
 _atom_site_fract_z
 _atom_site_occupancy
  K  K0  1  0.48950200  0.05988400  0.21340200  1
  K  K1  1  0.98950200  0.94011600  0.28659800  1
  K  K2  1  0.51049800  0.94011600  0.78659800  1
  K  K3  1  0.01049800  0.05988400  0.71340200  1
  U  U4  1  0.60788000  0.57619200  0.19340200  1
  U  U5  1  0.10788000  0.42380800  0.30659800  1
  U  U6  1  0.39212000  0.42380800  0.80659800  1
  U  U7  1  0.89212000  0.57619200  0.69340200  1
  H  H8  1  0.77539900  0.87500000  0.96300000  1
  H  H9  1  0.27539900  0.12500000  0.53700000  1
  H  H10  1  0.22460100  0.12500000  0.03700000  1
  H  H11  1  0.72460100  0.87500000  0.46300000  1
  H  H12  1  0.78258500  0.70622000  0.93012200  1
  H  H13  1  0.28258500  0.29378000  0.56987800  1
  H  H14  1  0.21741500  0.29378000  0.06987800  1
  H  H15  1  0.71741500  0.70622000  0.43012200  1
  H  H16  1  0.91059300  0.59886800  0.12097200  1
  H  H17  1  0.41059300  0.40113200  0.37902800  1
  H  H18  1  0.08940700  0.40113200  0.87902800  1
  H  H19  1  0.58940700  0.59886800  0.62097200  1
  S  S20  1  0.24390400  0.80720400  0.04732000  1
  S  S21  1  0.74390400  0.19279600  0.45268000  1
  S  S22  1  0.75609600  0.19279600  0.95268000  1
  S  S23  1  0.25609600  0.80720400  0.54732000  1
  O  O24  1  0.41634100  0.77309600  0.07002400  1
  O  O25  1  0.91634100  0.22690400  0.42997600  1
  O  O26  1  0.58365900  0.22690400  0.92997600  1
  O  O27  1  0.08365900  0.77309600  0.57002400  1
  O  O28  1  0.87552600  0.51574900  0.20139800  1
  O  O29  1  0.37552600  0.48425100  0.29860200  1
  O  O30  1  0.12447400  0.48425100  0.79860200  1
  O  O31  1  0.62447400  0.51574900  0.70139800  1
  O  O32  1  0.21307000  0.88017200  0.91431900  1
  O  O33  1  0.71307000  0.11982800  0.58568100  1
  O  O34  1  0.78693000  0.11982800  0.08568100  1
  O  O35  1  0.28693000  0.88017200  0.41431900  1
  O  O36  1  0.64656700  0.73730500  0.26293800  1
  O  O37  1  0.14656700  0.26269500  0.23706200  1
  O  O38  1  0.35343300  0.26269500  0.73706200  1
  O  O39  1  0.85343300  0.73730500  0.76293800  1
  O  O40  1  0.57471400  0.41589800  0.12718100  1
  O  O41  1  0.07471400  0.58410200  0.37281900  1
  O  O42  1  0.42528600  0.58410200  0.87281900  1
  O  O43  1  0.92528600  0.41589800  0.62718100  1
  O  O44  1  0.15986600  0.63833400  0.10778600  1
  O  O45  1  0.65986600  0.36166600  0.39221400  1
  O  O46  1  0.84013400  0.36166600  0.89221400  1
  O  O47  1  0.34013400  0.63833400  0.60778600  1
  O  O48  1  0.19453100  0.92579900  0.10929500  1
  O  O49  1  0.69453100  0.07420100  0.39070500  1
  O  O50  1  0.80546900  0.07420100  0.89070500  1
  O  O51  1  0.30546900  0.92579900  0.60929500  1
  O  O52  1  0.74570500  0.74859400  0.99366700  1
  O  O53  1  0.24570500  0.25140600  0.50633300  1
  O  O54  1  0.25429500  0.25140600  0.00633300  1
  O  O55  1  0.75429500  0.74859400  0.49366700  1
