# generated using pymatgen
data_CdP2(HO2)4
_symmetry_space_group_name_H-M   'P 1'
_cell_length_a   10.35629650
_cell_length_b   10.35629650
_cell_length_c   10.35629678
_cell_angle_alpha   94.98998350
_cell_angle_beta   94.98998350
_cell_angle_gamma   94.98998192
_symmetry_Int_Tables_number   1
_chemical_formula_structural   CdP2(HO2)4
_chemical_formula_sum   'Cd6 P12 H24 O48'
_cell_volume   1097.32514838
_cell_formula_units_Z   6
loop_
 _symmetry_equiv_pos_site_id
 _symmetry_equiv_pos_as_xyz
  1  'x, y, z'
loop_
 _atom_site_type_symbol
 _atom_site_label
 _atom_site_symmetry_multiplicity
 _atom_site_fract_x
 _atom_site_fract_y
 _atom_site_fract_z
 _atom_site_occupancy
  Cd  Cd0  1  0.66098800  0.27984500  0.86703800  1
  Cd  Cd1  1  0.86703800  0.66098800  0.27984500  1
  Cd  Cd2  1  0.27984500  0.86703800  0.66098800  1
  Cd  Cd3  1  0.33901200  0.72015500  0.13296200  1
  Cd  Cd4  1  0.13296200  0.33901200  0.72015500  1
  Cd  Cd5  1  0.72015500  0.13296200  0.33901200  1
  P  P6  1  0.39240500  0.02132000  0.28405200  1
  P  P7  1  0.28405200  0.39240500  0.02132000  1
  P  P8  1  0.02132000  0.28405200  0.39240500  1
  P  P9  1  0.60759500  0.97868000  0.71594800  1
  P  P10  1  0.71594800  0.60759500  0.97868000  1
  P  P11  1  0.97868000  0.71594800  0.60759500  1
  P  P12  1  0.21781400  0.10937700  0.47977900  1
  P  P13  1  0.47977900  0.21781400  0.10937700  1
  P  P14  1  0.10937700  0.47977900  0.21781400  1
  P  P15  1  0.78218600  0.89062300  0.52022100  1
  P  P16  1  0.52022100  0.78218600  0.89062300  1
  P  P17  1  0.89062300  0.52022100  0.78218600  1
  H  H18  1  0.75743800  0.32605000  0.56748600  1
  H  H19  1  0.56748600  0.75743800  0.32605000  1
  H  H20  1  0.32605000  0.56748600  0.75743800  1
  H  H21  1  0.24256200  0.67395000  0.43251400  1
  H  H22  1  0.43251400  0.24256200  0.67395000  1
  H  H23  1  0.67395000  0.43251400  0.24256200  1
  H  H24  1  0.53511700  0.60908000  0.30013600  1
  H  H25  1  0.30013600  0.53511700  0.60908000  1
  H  H26  1  0.60908000  0.30013600  0.53511700  1
  H  H27  1  0.46488300  0.39092000  0.69986400  1
  H  H28  1  0.69986400  0.46488300  0.39092000  1
  H  H29  1  0.39092000  0.69986400  0.46488300  1
  H  H30  1  0.29372900  0.06870300  0.87580900  1
  H  H31  1  0.87580900  0.29372900  0.06870300  1
  H  H32  1  0.06870300  0.87580900  0.29372900  1
  H  H33  1  0.70627100  0.93129700  0.12419100  1
  H  H34  1  0.12419100  0.70627100  0.93129700  1
  H  H35  1  0.93129700  0.12419100  0.70627100  1
  H  H36  1  0.85367300  0.95395400  0.17575400  1
  H  H37  1  0.17575400  0.85367300  0.95395400  1
  H  H38  1  0.95395400  0.17575400  0.85367300  1
  H  H39  1  0.14632700  0.04604600  0.82424600  1
  H  H40  1  0.82424600  0.14632700  0.04604600  1
  H  H41  1  0.04604600  0.82424600  0.14632700  1
  O  O42  1  0.90347200  0.25102600  0.29618000  1
  O  O43  1  0.29618000  0.90347200  0.25102600  1
  O  O44  1  0.25102600  0.29618000  0.90347200  1
  O  O45  1  0.09652800  0.74897400  0.70382000  1
  O  O46  1  0.70382000  0.09652800  0.74897400  1
  O  O47  1  0.74897400  0.70382000  0.09652800  1
  O  O48  1  0.99749400  0.67070300  0.46929800  1
  O  O49  1  0.46929800  0.99749400  0.67070300  1
  O  O50  1  0.67070300  0.46929800  0.99749400  1
  O  O51  1  0.00250600  0.32929700  0.53070200  1
  O  O52  1  0.53070200  0.00250600  0.32929700  1
  O  O53  1  0.32929700  0.53070200  0.00250600  1
  O  O54  1  0.20503600  0.59799000  0.25547500  1
  O  O55  1  0.25547500  0.20503600  0.59799000  1
  O  O56  1  0.59799000  0.25547500  0.20503600  1
  O  O57  1  0.79496400  0.40201000  0.74452500  1
  O  O58  1  0.74452500  0.79496400  0.40201000  1
  O  O59  1  0.40201000  0.74452500  0.79496400  1
  O  O60  1  0.96962300  0.49846100  0.17796200  1
  O  O61  1  0.17796200  0.96962300  0.49846100  1
  O  O62  1  0.49846100  0.17796200  0.96962300  1
  O  O63  1  0.03037700  0.50153900  0.82203800  1
  O  O64  1  0.82203800  0.03037700  0.50153900  1
  O  O65  1  0.50153900  0.82203800  0.03037700  1
  O  O66  1  0.39084200  0.33825500  0.12141100  1
  O  O67  1  0.12141100  0.39084200  0.33825500  1
  O  O68  1  0.33825500  0.12141100  0.39084200  1
  O  O69  1  0.60915800  0.66174500  0.87858900  1
  O  O70  1  0.87858900  0.60915800  0.66174500  1
  O  O71  1  0.66174500  0.87858900  0.60915800  1
  O  O72  1  0.38565200  0.10282600  0.15758700  1
  O  O73  1  0.15758700  0.38565200  0.10282600  1
  O  O74  1  0.10282600  0.15758700  0.38565200  1
  O  O75  1  0.61434800  0.89717400  0.84241300  1
  O  O76  1  0.84241300  0.61434800  0.89717400  1
  O  O77  1  0.89717400  0.84241300  0.61434800  1
  O  O78  1  0.49229600  0.69042400  0.30940100  1
  O  O79  1  0.30940100  0.49229600  0.69042400  1
  O  O80  1  0.69042400  0.30940100  0.49229600  1
  O  O81  1  0.50770400  0.30957600  0.69059900  1
  O  O82  1  0.69059900  0.50770400  0.30957600  1
  O  O83  1  0.30957600  0.69059900  0.50770400  1
  O  O84  1  0.00053100  0.15186900  0.77716200  1
  O  O85  1  0.77716200  0.00053100  0.15186900  1
  O  O86  1  0.15186900  0.77716200  0.00053100  1
  O  O87  1  0.99946900  0.84813100  0.22283800  1
  O  O88  1  0.22283800  0.99946900  0.84813100  1
  O  O89  1  0.84813100  0.22283800  0.99946900  1
