# generated using pymatgen
data_NdP2(HO2)3
_symmetry_space_group_name_H-M   'P 1'
_cell_length_a   9.94204800
_cell_length_b   8.28122200
_cell_length_c   8.63099141
_cell_angle_alpha   68.36463140
_cell_angle_beta   90.00000000
_cell_angle_gamma   90.00000000
_symmetry_Int_Tables_number   1
_chemical_formula_structural   NdP2(HO2)3
_chemical_formula_sum   'Nd4 P8 H12 O24'
_cell_volume   660.54633277
_cell_formula_units_Z   4
loop_
 _symmetry_equiv_pos_site_id
 _symmetry_equiv_pos_as_xyz
  1  'x, y, z'
loop_
 _atom_site_type_symbol
 _atom_site_label
 _atom_site_symmetry_multiplicity
 _atom_site_fract_x
 _atom_site_fract_y
 _atom_site_fract_z
 _atom_site_occupancy
  Nd  Nd0  1  0.03605700  0.74437100  0.51913200  1
  Nd  Nd1  1  0.53605700  0.25562900  0.98086800  1
  Nd  Nd2  1  0.96394300  0.25562900  0.48086800  1
  Nd  Nd3  1  0.46394300  0.74437100  0.01913200  1
  P  P4  1  0.88193600  0.44477900  0.80956200  1
  P  P5  1  0.38193600  0.55522100  0.69043800  1
  P  P6  1  0.11806400  0.55522100  0.19043800  1
  P  P7  1  0.61806400  0.44477900  0.30956200  1
  P  P8  1  0.65339600  0.90490700  0.38735900  1
  P  P9  1  0.15339600  0.09509300  0.11264100  1
  P  P10  1  0.34660400  0.09509300  0.61264100  1
  P  P11  1  0.84660400  0.90490700  0.88735900  1
  H  H12  1  0.63498100  0.86901900  0.56122200  1
  H  H13  1  0.13498100  0.13098100  0.93877800  1
  H  H14  1  0.36501900  0.13098100  0.43877800  1
  H  H15  1  0.86501900  0.86901900  0.06122200  1
  H  H16  1  0.96489800  0.34853200  0.94453800  1
  H  H17  1  0.46489800  0.65146800  0.55546200  1
  H  H18  1  0.03510200  0.65146800  0.05546200  1
  H  H19  1  0.53510200  0.34853200  0.44453800  1
  H  H20  1  0.33382400  0.46685700  0.43542300  1
  H  H21  1  0.83382400  0.53314300  0.06457700  1
  H  H22  1  0.66617600  0.53314300  0.56457700  1
  H  H23  1  0.16617600  0.46685700  0.93542300  1
  O  O24  1  0.73943500  0.37377000  0.85714300  1
  O  O25  1  0.23943500  0.62623000  0.64285700  1
  O  O26  1  0.26056500  0.62623000  0.14285700  1
  O  O27  1  0.76056500  0.37377000  0.35714300  1
  O  O28  1  0.57426300  0.06465200  0.28457600  1
  O  O29  1  0.07426300  0.93534800  0.21542400  1
  O  O30  1  0.42573700  0.93534800  0.71542400  1
  O  O31  1  0.92573700  0.06465200  0.78457600  1
  O  O32  1  0.13533300  0.03103600  0.47298000  1
  O  O33  1  0.63533300  0.96896400  0.02702000  1
  O  O34  1  0.86466700  0.96896400  0.52702000  1
  O  O35  1  0.36466700  0.03103600  0.97298000  1
  O  O36  1  0.90377900  0.63954700  0.77613000  1
  O  O37  1  0.40377900  0.36045300  0.72387000  1
  O  O38  1  0.09622100  0.36045300  0.22387000  1
  O  O39  1  0.59622100  0.63954700  0.27613000  1
  O  O40  1  0.81711000  0.92457000  0.37850200  1
  O  O41  1  0.31711000  0.07543000  0.12149800  1
  O  O42  1  0.18289000  0.07543000  0.62149800  1
  O  O43  1  0.68289000  0.92457000  0.87850200  1
  O  O44  1  0.93945800  0.42633400  0.64908100  1
  O  O45  1  0.43945800  0.57366600  0.85091900  1
  O  O46  1  0.06054200  0.57366600  0.35091900  1
  O  O47  1  0.56054200  0.42633400  0.14908100  1
