# generated using pymatgen
data_Tl2PO4
_symmetry_space_group_name_H-M   'P 1'
_cell_length_a   6.39275900
_cell_length_b   5.50472300
_cell_length_c   17.38313415
_cell_angle_alpha   78.95829169
_cell_angle_beta   90.00000000
_cell_angle_gamma   90.00000000
_symmetry_Int_Tables_number   1
_chemical_formula_structural   Tl2PO4
_chemical_formula_sum   'Tl8 P4 O16'
_cell_volume   600.39475427
_cell_formula_units_Z   4
loop_
 _symmetry_equiv_pos_site_id
 _symmetry_equiv_pos_as_xyz
  1  'x, y, z'
loop_
 _atom_site_type_symbol
 _atom_site_label
 _atom_site_symmetry_multiplicity
 _atom_site_fract_x
 _atom_site_fract_y
 _atom_site_fract_z
 _atom_site_occupancy
  Tl  Tl0  1  0.07424100  0.16558900  0.10982000  1
  Tl  Tl1  1  0.92575900  0.16558900  0.60982000  1
  Tl  Tl2  1  0.58033700  0.61307000  0.02612300  1
  Tl  Tl3  1  0.41966300  0.61307000  0.52612300  1
  Tl  Tl4  1  0.59974400  0.37757300  0.75879500  1
  Tl  Tl5  1  0.40025600  0.37757300  0.25879500  1
  Tl  Tl6  1  0.84822100  0.74016200  0.33896900  1
  Tl  Tl7  1  0.15177900  0.74016200  0.83896900  1
  P  P8  1  0.58961600  0.93593300  0.16165900  1
  P  P9  1  0.41038400  0.93593300  0.66165900  1
  P  P10  1  0.91092100  0.17392100  0.39606600  1
  P  P11  1  0.08907900  0.17392100  0.89606600  1
  O  O12  1  0.38955800  0.81375000  0.13518800  1
  O  O13  1  0.61044200  0.81375000  0.63518800  1
  O  O14  1  0.57700300  0.22270600  0.14443600  1
  O  O15  1  0.42299700  0.22270600  0.64443600  1
  O  O16  1  0.59463800  0.85057900  0.25523400  1
  O  O17  1  0.40536200  0.85057900  0.75523400  1
  O  O18  1  0.78625000  0.84108100  0.12429000  1
  O  O19  1  0.21375000  0.84108100  0.62429000  1
  O  O20  1  0.82293900  0.37030400  0.32244400  1
  O  O21  1  0.17706100  0.37030400  0.82244400  1
  O  O22  1  0.99166700  0.31923500  0.45592200  1
  O  O23  1  0.00833300  0.31923500  0.95592200  1
  O  O24  1  0.73234300  0.98170700  0.42368600  1
  O  O25  1  0.26765700  0.98170700  0.92368600  1
  O  O26  1  0.08221500  0.01582900  0.36009800  1
  O  O27  1  0.91778500  0.01582900  0.86009800  1
