# generated using pymatgen
data_Sc2W5(SeO4)3
_symmetry_space_group_name_H-M   'P 1'
_cell_length_a   7.54546200
_cell_length_b   10.29356739
_cell_length_c   10.90749792
_cell_angle_alpha   85.26646380
_cell_angle_beta   73.54172393
_cell_angle_gamma   87.24951574
_symmetry_Int_Tables_number   1
_chemical_formula_structural   Sc2W5(SeO4)3
_chemical_formula_sum   'Sc4 W10 Se6 O24'
_cell_volume   809.43061109
_cell_formula_units_Z   2
loop_
 _symmetry_equiv_pos_site_id
 _symmetry_equiv_pos_as_xyz
  1  'x, y, z'
loop_
 _atom_site_type_symbol
 _atom_site_label
 _atom_site_symmetry_multiplicity
 _atom_site_fract_x
 _atom_site_fract_y
 _atom_site_fract_z
 _atom_site_occupancy
  Sc  Sc0  1  0.69096100  0.43608500  0.72422000  1
  Sc  Sc1  1  0.39704400  0.23682100  0.39639200  1
  Sc  Sc2  1  0.36794100  0.77336200  0.41019800  1
  Sc  Sc3  1  0.08523100  0.07390800  0.02582700  1
  W  W4  1  0.77290400  0.82222400  0.87300700  1
  W  W5  1  0.18826600  0.96013800  0.76294500  1
  W  W6  1  0.11816200  0.63136900  0.89785800  1
  W  W7  1  0.67724700  0.51664700  0.98286200  1
  W  W8  1  0.00108700  0.90979600  0.53372700  1
  W  W9  1  0.01518900  0.35989900  0.82763000  1
  W  W10  1  0.73975100  0.63888100  0.21819000  1
  W  W11  1  0.96831200  0.21332900  0.56483900  1
  W  W12  1  0.83830500  0.34561800  0.18269900  1
  W  W13  1  0.72641900  0.10609000  0.93353300  1
  Se  Se14  1  0.35512600  0.29896300  0.06974300  1
  Se  Se15  1  0.44784200  0.18561100  0.71645600  1
  Se  Se16  1  0.53055200  0.76270700  0.68061300  1
  Se  Se17  1  0.24087300  0.77222700  0.11833500  1
  Se  Se18  1  0.70338300  0.98000600  0.28111600  1
  Se  Se19  1  0.12918300  0.50455900  0.46837000  1
  O  O20  1  0.09825700  0.90899900  0.14373300  1
  O  O21  1  0.60440500  0.30365300  0.01851500  1
  O  O22  1  0.34704800  0.14208000  0.02050200  1
  O  O23  1  0.18229000  0.64364800  0.52791500  1
  O  O24  1  0.19664500  0.17971300  0.76453300  1
  O  O25  1  0.99999100  0.08025300  0.43918100  1
  O  O26  1  0.48842500  0.04871800  0.33913000  1
  O  O27  1  0.31175100  0.27553900  0.23188300  1
  O  O28  1  0.25238200  0.74891100  0.74742600  1
  O  O29  1  0.59549200  0.60289900  0.65629100  1
  O  O30  1  0.50553000  0.20609600  0.55242900  1
  O  O31  1  0.23740700  0.72366600  0.27351900  1
  O  O32  1  0.34088000  0.42889100  0.44022000  1
  O  O33  1  0.81463900  0.47539200  0.30748800  1
  O  O34  1  0.82724300  0.80913500  0.68297200  1
  O  O35  1  0.81633900  0.24417000  0.76584600  1
  O  O36  1  0.99473600  0.42008100  0.62234200  1
  O  O37  1  0.61222300  0.83036700  0.25876300  1
  O  O38  1  0.68278200  0.70892600  0.03728800  1
  O  O39  1  0.44388800  0.34657800  0.76018800  1
  O  O40  1  0.99288300  0.26481900  0.01419300  1
  O  O41  1  0.53527600  0.81357100  0.52554700  1
  O  O42  1  0.78040100  0.04727800  0.12117900  1
  O  O43  1  0.08111000  0.65857600  0.09365800  1
