# generated using pymatgen
data_CoP(H4O3)3
_symmetry_space_group_name_H-M   'P 1'
_cell_length_a   7.17389800
_cell_length_b   10.80000500
_cell_length_c   13.21919900
_cell_angle_alpha   90.00000000
_cell_angle_beta   90.00000000
_cell_angle_gamma   90.00000000
_symmetry_Int_Tables_number   1
_chemical_formula_structural   CoP(H4O3)3
_chemical_formula_sum   'Co4 P4 H48 O36'
_cell_volume   1024.19887506
_cell_formula_units_Z   4
loop_
 _symmetry_equiv_pos_site_id
 _symmetry_equiv_pos_as_xyz
  1  'x, y, z'
loop_
 _atom_site_type_symbol
 _atom_site_label
 _atom_site_symmetry_multiplicity
 _atom_site_fract_x
 _atom_site_fract_y
 _atom_site_fract_z
 _atom_site_occupancy
  Co  Co0  1  0.50000000  0.35887200  0.50000000  1
  Co  Co1  1  0.00000000  0.64112800  0.00000000  1
  Co  Co2  1  0.50000000  0.64112800  0.50000000  1
  Co  Co3  1  0.00000000  0.35887200  0.00000000  1
  P  P4  1  0.13499200  0.50000000  0.45379100  1
  P  P5  1  0.86500800  0.50000000  0.54620900  1
  P  P6  1  0.63499200  0.50000000  0.04620900  1
  P  P7  1  0.36500800  0.50000000  0.95379100  1
  H  H8  1  0.94780800  0.18148000  0.35692400  1
  H  H9  1  0.05219200  0.18148000  0.64307600  1
  H  H10  1  0.44780800  0.81852000  0.14307600  1
  H  H11  1  0.55219200  0.81852000  0.85692400  1
  H  H12  1  0.05219200  0.81852000  0.64307600  1
  H  H13  1  0.94780800  0.81852000  0.35692400  1
  H  H14  1  0.55219200  0.18148000  0.85692400  1
  H  H15  1  0.44780800  0.18148000  0.14307600  1
  H  H16  1  0.54776000  0.07512400  0.38737900  1
  H  H17  1  0.45224000  0.07512400  0.61262100  1
  H  H18  1  0.04776000  0.92487600  0.11262100  1
  H  H19  1  0.95224000  0.92487600  0.88737900  1
  H  H20  1  0.45224000  0.92487600  0.61262100  1
  H  H21  1  0.54776000  0.92487600  0.38737900  1
  H  H22  1  0.95224000  0.07512400  0.88737900  1
  H  H23  1  0.04776000  0.07512400  0.11262100  1
  H  H24  1  0.89915700  0.28079800  0.64912200  1
  H  H25  1  0.10084300  0.28079800  0.35087800  1
  H  H26  1  0.39915700  0.71920200  0.85087800  1
  H  H27  1  0.60084300  0.71920200  0.14912200  1
  H  H28  1  0.10084300  0.71920200  0.35087800  1
  H  H29  1  0.89915700  0.71920200  0.64912200  1
  H  H30  1  0.60084300  0.28079800  0.14912200  1
  H  H31  1  0.39915700  0.28079800  0.85087800  1
  H  H32  1  0.53640100  0.26013800  0.71391000  1
  H  H33  1  0.46359900  0.26013800  0.28609000  1
  H  H34  1  0.03640100  0.73986200  0.78609000  1
  H  H35  1  0.96359900  0.73986200  0.21391000  1
  H  H36  1  0.46359900  0.73986200  0.28609000  1
  H  H37  1  0.53640100  0.73986200  0.71391000  1
  H  H38  1  0.96359900  0.26013800  0.21391000  1
  H  H39  1  0.03640100  0.26013800  0.78609000  1
  H  H40  1  0.51760100  0.00000000  0.18893200  1
  H  H41  1  0.48239900  0.00000000  0.81106800  1
  H  H42  1  0.01760100  0.00000000  0.31106800  1
  H  H43  1  0.98239900  0.00000000  0.68893200  1
  H  H44  1  0.29222200  0.00000000  0.27218000  1
  H  H45  1  0.70777800  0.00000000  0.72782000  1
  H  H46  1  0.79222200  0.00000000  0.22782000  1
  H  H47  1  0.20777800  0.00000000  0.77218000  1
  H  H48  1  0.15435200  0.00000000  0.61192700  1
  H  H49  1  0.84564800  0.00000000  0.38807300  1
  H  H50  1  0.65435200  0.00000000  0.88807300  1
  H  H51  1  0.34564800  0.00000000  0.11192700  1
  H  H52  1  0.29399900  0.00000000  0.32875600  1
  H  H53  1  0.70600100  0.00000000  0.67124400  1
  H  H54  1  0.79399900  0.00000000  0.17124400  1
  H  H55  1  0.20600100  0.00000000  0.82875600  1
  O  O56  1  0.70132000  0.50000000  0.46830700  1
  O  O57  1  0.29868000  0.50000000  0.53169300  1
  O  O58  1  0.20132000  0.50000000  0.03169300  1
  O  O59  1  0.79868000  0.50000000  0.96830700  1
  O  O60  1  0.69342100  0.28000000  0.58473900  1
  O  O61  1  0.30657900  0.28000000  0.41526100  1
  O  O62  1  0.19342100  0.72000000  0.91526100  1
  O  O63  1  0.80657900  0.72000000  0.08473900  1
  O  O64  1  0.30657900  0.72000000  0.41526100  1
  O  O65  1  0.69342100  0.72000000  0.58473900  1
  O  O66  1  0.80657900  0.28000000  0.08473900  1
  O  O67  1  0.19342100  0.28000000  0.91526100  1
  O  O68  1  0.03063200  0.73521900  0.67134300  1
  O  O69  1  0.96936800  0.73521900  0.32865700  1
  O  O70  1  0.53063200  0.26478100  0.82865700  1
  O  O71  1  0.46936800  0.26478100  0.17134300  1
  O  O72  1  0.96936800  0.26478100  0.32865700  1
  O  O73  1  0.03063200  0.26478100  0.67134300  1
  O  O74  1  0.46936800  0.73521900  0.17134300  1
  O  O75  1  0.53063200  0.73521900  0.82865700  1
  O  O76  1  0.51974500  0.24168700  0.63673800  1
  O  O77  1  0.48025500  0.24168700  0.36326200  1
  O  O78  1  0.01974500  0.75831300  0.86326200  1
  O  O79  1  0.98025500  0.75831300  0.13673800  1
  O  O80  1  0.48025500  0.75831300  0.36326200  1
  O  O81  1  0.51974500  0.75831300  0.63673800  1
  O  O82  1  0.98025500  0.24168700  0.13673800  1
  O  O83  1  0.01974500  0.24168700  0.86326200  1
  O  O84  1  0.62480800  0.00000000  0.39142800  1
  O  O85  1  0.37519200  0.00000000  0.60857200  1
  O  O86  1  0.12480800  0.00000000  0.10857200  1
  O  O87  1  0.87519200  0.00000000  0.89142800  1
  O  O88  1  0.98574400  0.00000000  0.38249900  1
  O  O89  1  0.01425600  0.00000000  0.61750100  1
  O  O90  1  0.48574400  0.00000000  0.11750100  1
  O  O91  1  0.51425600  0.00000000  0.88249900  1
