# generated using pymatgen
data_Ca2Mg5(SiO3)8
_symmetry_space_group_name_H-M   'P 1'
_cell_length_a   11.09987725
_cell_length_b   11.09987725
_cell_length_c   5.47093828
_cell_angle_alpha   83.07952347
_cell_angle_beta   83.07952347
_cell_angle_gamma   122.51321489
_symmetry_Int_Tables_number   1
_chemical_formula_structural   Ca2Mg5(SiO3)8
_chemical_formula_sum   'Ca2 Mg5 Si8 O24'
_cell_volume   550.28051026
_cell_formula_units_Z   1
loop_
 _symmetry_equiv_pos_site_id
 _symmetry_equiv_pos_as_xyz
  1  'x, y, z'
loop_
 _atom_site_type_symbol
 _atom_site_label
 _atom_site_symmetry_multiplicity
 _atom_site_fract_x
 _atom_site_fract_y
 _atom_site_fract_z
 _atom_site_occupancy
  Ca  Ca0  1  0.31426700  0.68573300  0.50000000  1
  Ca  Ca1  1  0.68573300  0.31426700  0.50000000  1
  Mg  Mg2  1  0.13322400  0.86677600  0.50000000  1
  Mg  Mg3  1  0.86677600  0.13322400  0.50000000  1
  Mg  Mg4  1  0.18042500  0.81957500  0.00000000  1
  Mg  Mg5  1  0.81957500  0.18042500  0.00000000  1
  Mg  Mg6  1  0.00000000  0.00000000  0.00000000  1
  Si  Si7  1  0.79041300  0.64165000  0.84382200  1
  Si  Si8  1  0.64165000  0.79041300  0.84382200  1
  Si  Si9  1  0.20958700  0.35835000  0.15617800  1
  Si  Si10  1  0.35835000  0.20958700  0.15617800  1
  Si  Si11  1  0.83335800  0.66318300  0.32302900  1
  Si  Si12  1  0.66318300  0.83335800  0.32302900  1
  Si  Si13  1  0.16664200  0.33681700  0.67697100  1
  Si  Si14  1  0.33681700  0.16664200  0.67697100  1
  O  O15  1  0.94184300  0.80014700  0.77609000  1
  O  O16  1  0.80014700  0.94184300  0.77609000  1
  O  O17  1  0.05815700  0.19985300  0.22391000  1
  O  O18  1  0.19985300  0.05815700  0.22391000  1
  O  O19  1  0.76683200  0.76683200  0.31049700  1
  O  O20  1  0.23316800  0.23316800  0.68950300  1
  O  O21  1  0.00688400  0.77120600  0.25051200  1
  O  O22  1  0.77120600  0.00688400  0.25051200  1
  O  O23  1  0.99311600  0.22879400  0.74948800  1
  O  O24  1  0.22879400  0.99311600  0.74948800  1
  O  O25  1  0.16130100  0.71589200  0.72216300  1
  O  O26  1  0.71589200  0.16130100  0.72216300  1
  O  O27  1  0.83869900  0.28410800  0.27783700  1
  O  O28  1  0.28410800  0.83869900  0.27783700  1
  O  O29  1  0.22432300  0.44798800  0.39178200  1
  O  O30  1  0.44798800  0.22432300  0.39178200  1
  O  O31  1  0.77567700  0.55201200  0.60821800  1
  O  O32  1  0.55201200  0.77567700  0.60821800  1
  O  O33  1  0.23312100  0.45252400  0.86872300  1
  O  O34  1  0.45252400  0.23312100  0.86872300  1
  O  O35  1  0.76687900  0.54747600  0.13127700  1
  O  O36  1  0.54747600  0.76687900  0.13127700  1
  O  O37  1  0.35761300  0.35761300  0.13384300  1
  O  O38  1  0.64238700  0.64238700  0.86615700  1
