# generated using pymatgen
data_TbMgSe3
_symmetry_space_group_name_H-M   'P 1'
_cell_length_a   7.35132272
_cell_length_b   7.35132272
_cell_length_c   6.88420953
_cell_angle_alpha   76.43907756
_cell_angle_beta   76.43907756
_cell_angle_gamma   118.68289775
_symmetry_Int_Tables_number   1
_chemical_formula_structural   TbMgSe3
_chemical_formula_sum   'Tb2 Mg2 Se6'
_cell_volume   289.82991342
_cell_formula_units_Z   2
loop_
 _symmetry_equiv_pos_site_id
 _symmetry_equiv_pos_as_xyz
  1  'x, y, z'
loop_
 _atom_site_type_symbol
 _atom_site_label
 _atom_site_symmetry_multiplicity
 _atom_site_fract_x
 _atom_site_fract_y
 _atom_site_fract_z
 _atom_site_occupancy
  Tb  Tb0  1  0.80396100  0.80396100  0.31395500  1
  Tb  Tb1  1  0.19603900  0.19603900  0.68604500  1
  Mg  Mg2  1  0.33459200  0.66540800  0.00000000  1
  Mg  Mg3  1  0.66540800  0.33459200  0.00000000  1
  Se  Se4  1  0.22580200  0.88304300  0.21603000  1
  Se  Se5  1  0.77419800  0.11695700  0.78397000  1
  Se  Se6  1  0.11695700  0.77419800  0.78397000  1
  Se  Se7  1  0.88304300  0.22580200  0.21603000  1
  Se  Se8  1  0.53280200  0.53280200  0.74573100  1
  Se  Se9  1  0.46719800  0.46719800  0.25426900  1
