# generated using pymatgen
data_Be2CoH6(NF4)2
_symmetry_space_group_name_H-M   'P 1'
_cell_length_a   13.28458500
_cell_length_b   5.95900500
_cell_length_c   6.39976982
_cell_angle_alpha   80.06476045
_cell_angle_beta   90.00000000
_cell_angle_gamma   90.00000000
_symmetry_Int_Tables_number   1
_chemical_formula_structural   Be2CoH6(NF4)2
_chemical_formula_sum   'Be4 Co2 H12 N4 F16'
_cell_volume   499.02674640
_cell_formula_units_Z   2
loop_
 _symmetry_equiv_pos_site_id
 _symmetry_equiv_pos_as_xyz
  1  'x, y, z'
loop_
 _atom_site_type_symbol
 _atom_site_label
 _atom_site_symmetry_multiplicity
 _atom_site_fract_x
 _atom_site_fract_y
 _atom_site_fract_z
 _atom_site_occupancy
  Be  Be0  1  0.40376300  0.66612500  0.96380200  1
  Be  Be1  1  0.59623700  0.33387500  0.03619800  1
  Be  Be2  1  0.90376300  0.33387500  0.53619800  1
  Be  Be3  1  0.09623700  0.66612500  0.46380200  1
  Co  Co4  1  0.50000000  0.50000000  0.50000000  1
  Co  Co5  1  0.00000000  0.50000000  0.00000000  1
  H  H6  1  0.46909400  0.73167200  0.63479100  1
  H  H7  1  0.53090600  0.26832800  0.36520900  1
  H  H8  1  0.96909400  0.26832800  0.86520900  1
  H  H9  1  0.03090600  0.73167200  0.13479100  1
  H  H10  1  0.10802000  0.35792900  0.00380200  1
  H  H11  1  0.89198000  0.64207100  0.99619800  1
  H  H12  1  0.60802000  0.64207100  0.49619800  1
  H  H13  1  0.39198000  0.35792900  0.50380200  1
  H  H14  1  0.37833300  0.45686100  0.57043300  1
  H  H15  1  0.62166700  0.54313900  0.42956700  1
  H  H16  1  0.87833300  0.54313900  0.92956700  1
  H  H17  1  0.12166700  0.45686100  0.07043300  1
  N  N18  1  0.66146400  0.96175700  0.88091400  1
  N  N19  1  0.33853600  0.03824300  0.11908600  1
  N  N20  1  0.16146400  0.03824300  0.61908600  1
  N  N21  1  0.83853600  0.96175700  0.38091400  1
  F  F22  1  0.17415500  0.98928000  0.82882500  1
  F  F23  1  0.82584500  0.01072000  0.17117500  1
  F  F24  1  0.67415500  0.01072000  0.67117500  1
  F  F25  1  0.32584500  0.98928000  0.32882500  1
  F  F26  1  0.45148900  0.82986000  0.75364800  1
  F  F27  1  0.54851100  0.17014000  0.24635200  1
  F  F28  1  0.95148900  0.17014000  0.74635200  1
  F  F29  1  0.04851100  0.82986000  0.25364800  1
  F  F30  1  0.03009000  0.64549600  0.64926100  1
  F  F31  1  0.96991000  0.35450400  0.35073900  1
  F  F32  1  0.53009000  0.35450400  0.85073900  1
  F  F33  1  0.46991000  0.64549600  0.14926100  1
  F  F34  1  0.31129600  0.56171400  0.92197600  1
  F  F35  1  0.68870400  0.43828600  0.07802400  1
  F  F36  1  0.81129600  0.43828600  0.57802400  1
  F  F37  1  0.18870400  0.56171400  0.42197600  1
