# generated using pymatgen
data_P2H19S6N5O2
_symmetry_space_group_name_H-M   'P 1'
_cell_length_a   14.05483300
_cell_length_b   7.49093300
_cell_length_c   19.93827806
_cell_angle_alpha   80.97487247
_cell_angle_beta   90.00000000
_cell_angle_gamma   90.00000000
_symmetry_Int_Tables_number   1
_chemical_formula_structural   P2H19S6N5O2
_chemical_formula_sum   'P8 H76 S24 N20 O8'
_cell_volume   2073.18934703
_cell_formula_units_Z   4
loop_
 _symmetry_equiv_pos_site_id
 _symmetry_equiv_pos_as_xyz
  1  'x, y, z'
loop_
 _atom_site_type_symbol
 _atom_site_label
 _atom_site_symmetry_multiplicity
 _atom_site_fract_x
 _atom_site_fract_y
 _atom_site_fract_z
 _atom_site_occupancy
  P  P0  1  0.70674900  0.25893500  0.05191100  1
  P  P1  1  0.29325100  0.74106500  0.94808900  1
  P  P2  1  0.20674900  0.74106500  0.44808900  1
  P  P3  1  0.79325100  0.25893500  0.55191100  1
  P  P4  1  0.28147100  0.79239200  0.06046400  1
  P  P5  1  0.71852900  0.20760800  0.93953600  1
  P  P6  1  0.78147100  0.20760800  0.43953600  1
  P  P7  1  0.21852900  0.79239200  0.56046400  1
  H  H8  1  0.46155800  0.91197400  0.69301200  1
  H  H9  1  0.53844200  0.08802600  0.30698800  1
  H  H10  1  0.96155800  0.08802600  0.80698800  1
  H  H11  1  0.03844200  0.91197400  0.19301200  1
  H  H12  1  0.86940500  0.58817900  0.09568500  1
  H  H13  1  0.13059500  0.41182100  0.90431500  1
  H  H14  1  0.36940500  0.41182100  0.40431500  1
  H  H15  1  0.63059500  0.58817900  0.59568500  1
  H  H16  1  0.99821600  0.83598100  0.04779800  1
  H  H17  1  0.00178400  0.16401900  0.95220200  1
  H  H18  1  0.49821600  0.16401900  0.45220200  1
  H  H19  1  0.50178400  0.83598100  0.54779800  1
  H  H20  1  0.53179900  0.67681600  0.22253300  1
  H  H21  1  0.46820100  0.32318400  0.77746700  1
  H  H22  1  0.03179900  0.32318400  0.27746700  1
  H  H23  1  0.96820100  0.67681600  0.72253300  1
  H  H24  1  0.91218400  0.88491400  0.43247200  1
  H  H25  1  0.08781600  0.11508600  0.56752800  1
  H  H26  1  0.41218400  0.11508600  0.06752800  1
  H  H27  1  0.58781600  0.88491400  0.93247200  1
  H  H28  1  0.54027900  0.50806600  0.17315300  1
  H  H29  1  0.45972100  0.49193400  0.82684700  1
  H  H30  1  0.04027900  0.49193400  0.32684700  1
  H  H31  1  0.95972100  0.50806600  0.67315300  1
  H  H32  1  0.32524100  0.71746600  0.35415100  1
  H  H33  1  0.67475900  0.28253400  0.64584900  1
  H  H34  1  0.82524100  0.28253400  0.14584900  1
  H  H35  1  0.17475900  0.71746600  0.85415100  1
  H  H36  1  0.75890300  0.50686500  0.22917900  1
  H  H37  1  0.24109700  0.49313500  0.77082100  1
  H  H38  1  0.25890300  0.49313500  0.27082100  1
  H  H39  1  0.74109700  0.50686500  0.72917900  1
  H  H40  1  0.74430200  0.38304200  0.41626800  1
  H  H41  1  0.25569800  0.61695800  0.58373200  1
  H  H42  1  0.24430200  0.61695800  0.08373200  1
  H  H43  1  0.75569800  0.38304200  0.91626800  1
  H  H44  1  0.75210500  0.91543200  0.09646200  1
  H  H45  1  0.24789500  0.08456800  0.90353800  1
  H  H46  1  0.25210500  0.08456800  0.40353800  1
  H  H47  1  0.74789500  0.91543200  0.59646200  1
  H  H48  1  0.98172700  0.03963500  0.29448900  1
  H  H49  1  0.01827300  0.96036500  0.70551100  1
  H  H50  1  0.48172700  0.96036500  0.20551100  1
  H  H51  1  0.51827300  0.03963500  0.79448900  1
  H  H52  1  0.95974700  0.68831400  0.42518800  1
  H  H53  1  0.04025300  0.31168600  0.57481200  1
  H  H54  1  0.45974700  0.31168600  0.07481200  1
  H  H55  1  0.54025300  0.68831400  0.92518800  1
  H  H56  1  0.76960900  0.72153700  0.39880600  1
  H  H57  1  0.23039100  0.27846300  0.60119400  1
  H  H58  1  0.26960900  0.27846300  0.10119400  1
  H  H59  1  0.73039100  0.72153700  0.89880600  1
  H  H60  1  0.00803700  0.54275800  0.24606000  1
  H  H61  1  0.99196300  0.45724200  0.75394000  1
  H  H62  1  0.50803700  0.45724200  0.25394000  1
  H  H63  1  0.49196300  0.54275800  0.74606000  1
  H  H64  1  0.16762600  0.82110100  0.19258400  1
  H  H65  1  0.83237400  0.17889900  0.80741600  1
  H  H66  1  0.66762600  0.17889900  0.30741600  1
  H  H67  1  0.33237400  0.82110100  0.69258400  1
  H  H68  1  0.65147900  0.56720100  0.40416400  1
  H  H69  1  0.34852100  0.43279900  0.59583600  1
  H  H70  1  0.15147900  0.43279900  0.09583600  1
  H  H71  1  0.84852100  0.56720100  0.90416400  1
  H  H72  1  0.88430800  0.70296700  0.48626300  1
  H  H73  1  0.11569200  0.29703300  0.51373700  1
  H  H74  1  0.38430800  0.29703300  0.01373700  1
  H  H75  1  0.61569200  0.70296700  0.98626300  1
  H  H76  1  0.58205100  0.78685700  0.49258000  1
  H  H77  1  0.41794900  0.21314300  0.50742000  1
  H  H78  1  0.08205100  0.21314300  0.00742000  1
  H  H79  1  0.91794900  0.78685700  0.99258000  1
  H  H80  1  0.09149200  0.03445600  0.29157900  1
  H  H81  1  0.90850800  0.96554400  0.70842100  1
  H  H82  1  0.59149200  0.96554400  0.20842100  1
  H  H83  1  0.40850800  0.03445600  0.79157900  1
  S  S84  1  0.85257900  0.27301000  0.07921800  1
  S  S85  1  0.14742100  0.72699000  0.92078200  1
  S  S86  1  0.35257900  0.72699000  0.42078200  1
  S  S87  1  0.64742100  0.27301000  0.57921800  1
  S  S88  1  0.37795700  0.77677000  0.14676000  1
  S  S89  1  0.62204300  0.22323000  0.85324000  1
  S  S90  1  0.87795700  0.22323000  0.35324000  1
  S  S91  1  0.12204300  0.77677000  0.64676000  1
  S  S92  1  0.67573800  0.73703600  0.37627700  1
  S  S93  1  0.32426200  0.26296400  0.62372300  1
  S  S94  1  0.17573800  0.26296400  0.12372300  1
  S  S95  1  0.82426200  0.73703600  0.87627700  1
  S  S96  1  0.66461100  0.99295600  0.09946800  1
  S  S97  1  0.33538900  0.00704400  0.90053200  1
  S  S98  1  0.16461100  0.00704400  0.40053200  1
  S  S99  1  0.83538900  0.99295600  0.59946800  1
  S  S100  1  0.62843400  0.44780800  0.08427900  1
  S  S101  1  0.37156600  0.55219200  0.91572100  1
  S  S102  1  0.12843400  0.55219200  0.41572100  1
  S  S103  1  0.87156600  0.44780800  0.58427900  1
  S  S104  1  0.08262700  0.77445200  0.16843300  1
  S  S105  1  0.91737300  0.22554800  0.83156800  1
  S  S106  1  0.58262700  0.22554800  0.33156800  1
  S  S107  1  0.41737300  0.77445200  0.66843200  1
  N  N108  1  0.50150600  0.55676200  0.21117000  1
  N  N109  1  0.49849400  0.44323800  0.78883000  1
  N  N110  1  0.00150600  0.44323800  0.28883000  1
  N  N111  1  0.99849400  0.55676200  0.71117000  1
  N  N112  1  0.89886500  0.41897700  0.30516900  1
  N  N113  1  0.10113500  0.58102300  0.69483100  1
  N  N114  1  0.39886500  0.58102300  0.19483100  1
  N  N115  1  0.60113500  0.41897700  0.80516900  1
  N  N116  1  0.89761300  0.74991600  0.43603600  1
  N  N117  1  0.10238700  0.25008400  0.56396400  1
  N  N118  1  0.39761300  0.25008400  0.06396400  1
  N  N119  1  0.60238700  0.74991600  0.93603600  1
  N  N120  1  0.95463500  0.73525300  0.03609300  1
  N  N121  1  0.04536500  0.26474700  0.96390700  1
  N  N122  1  0.45463500  0.26474700  0.46390700  1
  N  N123  1  0.54536500  0.73525300  0.53609300  1
  N  N124  1  0.76792800  0.37896800  0.21546500  1
  N  N125  1  0.23207200  0.62103200  0.78453500  1
  N  N126  1  0.26792800  0.62103200  0.28453500  1
  N  N127  1  0.73207200  0.37896800  0.71546500  1
  O  O128  1  0.53546600  0.91763300  0.23500500  1
  O  O129  1  0.46453400  0.08236700  0.76499500  1
  O  O130  1  0.03546600  0.08236700  0.26499500  1
  O  O131  1  0.96453400  0.91763300  0.73500500  1
  O  O132  1  0.88352200  0.71819600  0.09027900  1
  O  O133  1  0.11647800  0.28180400  0.90972100  1
  O  O134  1  0.38352200  0.28180400  0.40972100  1
  O  O135  1  0.61647800  0.71819600  0.59027900  1
