# generated using pymatgen
data_Ge7(H2O11)2
_symmetry_space_group_name_H-M   'P 1'
_cell_length_a   7.87931256
_cell_length_b   7.87931256
_cell_length_c   7.87931284
_cell_angle_alpha   89.95997216
_cell_angle_beta   89.95997216
_cell_angle_gamma   89.95997585
_symmetry_Int_Tables_number   1
_chemical_formula_structural   Ge7(H2O11)2
_chemical_formula_sum   'Ge7 H4 O22'
_cell_volume   489.17548385
_cell_formula_units_Z   1
loop_
 _symmetry_equiv_pos_site_id
 _symmetry_equiv_pos_as_xyz
  1  'x, y, z'
loop_
 _atom_site_type_symbol
 _atom_site_label
 _atom_site_symmetry_multiplicity
 _atom_site_fract_x
 _atom_site_fract_y
 _atom_site_fract_z
 _atom_site_occupancy
  Ge  Ge0  1  0.15256300  0.15256300  0.84492800  1
  Ge  Ge1  1  0.84492800  0.15256300  0.15256300  1
  Ge  Ge2  1  0.15256300  0.84492800  0.15256300  1
  Ge  Ge3  1  0.84751000  0.84751000  0.84751000  1
  Ge  Ge4  1  0.49961600  0.99945300  0.99945300  1
  Ge  Ge5  1  0.99945400  0.49961600  0.99945300  1
  Ge  Ge6  1  0.99945400  0.99945400  0.49961600  1
  H  H7  1  0.18437100  0.18437100  0.18437100  1
  H  H8  1  0.81252500  0.18741400  0.81252500  1
  H  H9  1  0.18741400  0.81252500  0.81252500  1
  H  H10  1  0.81252500  0.81252500  0.18741400  1
  O  O11  1  0.11267700  0.11267700  0.11267700  1
  O  O12  1  0.88630800  0.11346600  0.88630800  1
  O  O13  1  0.11346600  0.88630800  0.88630800  1
  O  O14  1  0.88630800  0.88630800  0.11346600  1
  O  O15  1  0.37705100  0.13198000  0.86804800  1
  O  O16  1  0.13198000  0.37705100  0.86804800  1
  O  O17  1  0.13167700  0.13167700  0.62090800  1
  O  O18  1  0.62090800  0.13167700  0.13167700  1
  O  O19  1  0.86804800  0.37705100  0.13198000  1
  O  O20  1  0.86804800  0.13198000  0.37705100  1
  O  O21  1  0.37705100  0.86804800  0.13198000  1
  O  O22  1  0.13167700  0.62090800  0.13167700  1
  O  O23  1  0.13198000  0.86804800  0.37705100  1
  O  O24  1  0.62229600  0.86760300  0.86760300  1
  O  O25  1  0.86760300  0.62229600  0.86760300  1
  O  O26  1  0.86760300  0.86760300  0.62229600  1
  O  O27  1  0.50307400  0.50307400  0.99777900  1
  O  O28  1  0.99777900  0.50307400  0.50307400  1
  O  O29  1  0.50307400  0.99777900  0.50307400  1
  O  O30  1  0.67585800  0.32375200  0.67585800  1
  O  O31  1  0.32375200  0.67585800  0.67585800  1
  O  O32  1  0.67585800  0.67585800  0.32375300  1
