# generated using pymatgen
data_RbC2N3
_symmetry_space_group_name_H-M   'P 1'
_cell_length_a   8.66824226
_cell_length_b   8.66824226
_cell_length_c   14.62391335
_cell_angle_alpha   68.56943028
_cell_angle_beta   68.56943028
_cell_angle_gamma   71.98714114
_symmetry_Int_Tables_number   1
_chemical_formula_structural   RbC2N3
_chemical_formula_sum   'Rb8 C16 N24'
_cell_volume   932.34164136
_cell_formula_units_Z   8
loop_
 _symmetry_equiv_pos_site_id
 _symmetry_equiv_pos_as_xyz
  1  'x, y, z'
loop_
 _atom_site_type_symbol
 _atom_site_label
 _atom_site_symmetry_multiplicity
 _atom_site_fract_x
 _atom_site_fract_y
 _atom_site_fract_z
 _atom_site_occupancy
  Rb  Rb0  1  0.84003000  0.82850400  0.37081900  1
  Rb  Rb1  1  0.17149600  0.15997000  0.12918100  1
  Rb  Rb2  1  0.15997000  0.17149600  0.62918100  1
  Rb  Rb3  1  0.82850400  0.84003000  0.87081900  1
  Rb  Rb4  1  0.66148200  0.30081200  0.08611700  1
  Rb  Rb5  1  0.69918800  0.33851800  0.41388300  1
  Rb  Rb6  1  0.33851800  0.69918800  0.91388300  1
  Rb  Rb7  1  0.30081200  0.66148200  0.58611700  1
  C  C8  1  0.93176800  0.84208000  0.10924300  1
  C  C9  1  0.15792000  0.06823200  0.39075700  1
  C  C10  1  0.06823200  0.15792000  0.89075700  1
  C  C11  1  0.84208000  0.93176800  0.60924300  1
  C  C12  1  0.89275000  0.58368300  0.12330000  1
  C  C13  1  0.41631700  0.10725000  0.37670000  1
  C  C14  1  0.10725000  0.41631700  0.87670000  1
  C  C15  1  0.58368300  0.89275000  0.62330000  1
  C  C16  1  0.19265200  0.51284200  0.38224000  1
  C  C17  1  0.48715800  0.80734800  0.11776000  1
  C  C18  1  0.80734800  0.48715800  0.61776000  1
  C  C19  1  0.51284200  0.19265200  0.88224000  1
  C  C20  1  0.21906000  0.48297700  0.22642300  1
  C  C21  1  0.51702300  0.78094000  0.27357700  1
  C  C22  1  0.78094000  0.51702300  0.77357700  1
  C  C23  1  0.48297700  0.21906000  0.72642300  1
  N  N24  1  0.92882400  0.95359700  0.13866100  1
  N  N25  1  0.04640300  0.07117600  0.36133900  1
  N  N26  1  0.07117600  0.04640300  0.86133900  1
  N  N27  1  0.95359700  0.92882400  0.63866100  1
  N  N28  1  0.94038500  0.72715100  0.06882000  1
  N  N29  1  0.27284900  0.05961500  0.43118000  1
  N  N30  1  0.05961500  0.27284900  0.93118000  1
  N  N31  1  0.72715100  0.94038500  0.56882000  1
  N  N32  1  0.85277900  0.45064000  0.16493500  1
  N  N33  1  0.54936000  0.14722100  0.33506500  1
  N  N34  1  0.14722100  0.54936000  0.83506500  1
  N  N35  1  0.45064000  0.85277900  0.66493500  1
  N  N36  1  0.22878700  0.49939700  0.45587800  1
  N  N37  1  0.50060300  0.77121300  0.04412200  1
  N  N38  1  0.77121300  0.50060300  0.54412200  1
  N  N39  1  0.49939700  0.22878700  0.95587800  1
  N  N40  1  0.13518200  0.53867300  0.30597900  1
  N  N41  1  0.46132700  0.86481800  0.19402100  1
  N  N42  1  0.86481800  0.46132700  0.69402100  1
  N  N43  1  0.53867300  0.13518200  0.80597900  1
  N  N44  1  0.28290900  0.43812000  0.15113500  1
  N  N45  1  0.56188000  0.71709100  0.34886500  1
  N  N46  1  0.71709100  0.56188000  0.84886500  1
  N  N47  1  0.43812000  0.28290900  0.65113500  1
