# generated using pymatgen
data_Sr2VO4
_symmetry_space_group_name_H-M   'P 1'
_cell_length_a   6.65408700
_cell_length_b   11.34842400
_cell_length_c   12.98875700
_cell_angle_alpha   90.00000000
_cell_angle_beta   90.00000000
_cell_angle_gamma   90.00000000
_symmetry_Int_Tables_number   1
_chemical_formula_structural   Sr2VO4
_chemical_formula_sum   'Sr16 V8 O32'
_cell_volume   980.82521075
_cell_formula_units_Z   8
loop_
 _symmetry_equiv_pos_site_id
 _symmetry_equiv_pos_as_xyz
  1  'x, y, z'
loop_
 _atom_site_type_symbol
 _atom_site_label
 _atom_site_symmetry_multiplicity
 _atom_site_fract_x
 _atom_site_fract_y
 _atom_site_fract_z
 _atom_site_occupancy
  Sr  Sr0  1  0.38901100  0.08924600  0.61147200  1
  Sr  Sr1  1  0.61098900  0.58924600  0.38852800  1
  Sr  Sr2  1  0.88901100  0.58924600  0.88852800  1
  Sr  Sr3  1  0.11098900  0.08924600  0.11147200  1
  Sr  Sr4  1  0.34993300  0.55212400  0.74092300  1
  Sr  Sr5  1  0.65006700  0.05212400  0.25907700  1
  Sr  Sr6  1  0.84993300  0.05212400  0.75907700  1
  Sr  Sr7  1  0.15006700  0.55212400  0.24092300  1
  Sr  Sr8  1  0.38535500  0.87380900  0.86533700  1
  Sr  Sr9  1  0.61464500  0.37380900  0.13466300  1
  Sr  Sr10  1  0.88535500  0.37380900  0.63466300  1
  Sr  Sr11  1  0.11464500  0.87380900  0.36533700  1
  Sr  Sr12  1  0.27761100  0.29257200  0.89376600  1
  Sr  Sr13  1  0.72238900  0.79257200  0.10623400  1
  Sr  Sr14  1  0.77761100  0.79257200  0.60623400  1
  Sr  Sr15  1  0.22238900  0.29257200  0.39376600  1
  V  V16  1  0.81169500  0.11829200  0.49372600  1
  V  V17  1  0.18830500  0.61829200  0.50627400  1
  V  V18  1  0.31169500  0.61829200  0.00627400  1
  V  V19  1  0.68830500  0.11829200  0.99372600  1
  V  V20  1  0.77864900  0.30646700  0.85253700  1
  V  V21  1  0.22135100  0.80646700  0.14746300  1
  V  V22  1  0.27864900  0.80646700  0.64746300  1
  V  V23  1  0.72135100  0.30646700  0.35253700  1
  O  O24  1  0.07446700  0.18410600  0.55151300  1
  O  O25  1  0.92553300  0.68410600  0.44848700  1
  O  O26  1  0.57446700  0.68410600  0.94848700  1
  O  O27  1  0.42553300  0.18410600  0.05151300  1
  O  O28  1  0.59482600  0.40802000  0.78270000  1
  O  O29  1  0.40517400  0.90802000  0.21730000  1
  O  O30  1  0.09482600  0.90802000  0.71730000  1
  O  O31  1  0.90517400  0.40802000  0.28270000  1
  O  O32  1  0.70911600  0.17662900  0.61809400  1
  O  O33  1  0.29088400  0.67662900  0.38190600  1
  O  O34  1  0.20911600  0.67662900  0.88190600  1
  O  O35  1  0.79088400  0.17662900  0.11809400  1
  O  O36  1  0.60407300  0.70449100  0.83392400  1
  O  O37  1  0.39592700  0.20449100  0.16607600  1
  O  O38  1  0.10407300  0.20449100  0.66607600  1
  O  O39  1  0.89592700  0.70449100  0.33392400  1
  O  O40  1  0.57665100  0.16945100  0.86299100  1
  O  O41  1  0.42334900  0.66945100  0.13700900  1
  O  O42  1  0.07665100  0.66945100  0.63700900  1
  O  O43  1  0.92334900  0.16945100  0.36299100  1
  O  O44  1  0.01971200  0.40827900  0.80987000  1
  O  O45  1  0.98028800  0.90827900  0.19013000  1
  O  O46  1  0.51971200  0.90827900  0.69013000  1
  O  O47  1  0.48028800  0.40827900  0.30987000  1
  O  O48  1  0.54996300  0.16540700  0.42520700  1
  O  O49  1  0.45003700  0.66540700  0.57479300  1
  O  O50  1  0.04996300  0.66540700  0.07479300  1
  O  O51  1  0.95003700  0.16540700  0.92520700  1
  O  O52  1  0.83288200  0.96410700  0.48326800  1
  O  O53  1  0.16711800  0.46410700  0.51673200  1
  O  O54  1  0.33288200  0.46410700  0.01673200  1
  O  O55  1  0.66711800  0.96410700  0.98326800  1
