# generated using pymatgen
data_Be2Tl2Zn(O3F4)2
_symmetry_space_group_name_H-M   'P 1'
_cell_length_a   13.82284900
_cell_length_b   5.30883700
_cell_length_c   7.50289303
_cell_angle_alpha   78.21429952
_cell_angle_beta   90.00000000
_cell_angle_gamma   90.00000000
_symmetry_Int_Tables_number   1
_chemical_formula_structural   Be2Tl2Zn(O3F4)2
_chemical_formula_sum   'Be4 Tl4 Zn2 O12 F16'
_cell_volume   538.97944022
_cell_formula_units_Z   2
loop_
 _symmetry_equiv_pos_site_id
 _symmetry_equiv_pos_as_xyz
  1  'x, y, z'
loop_
 _atom_site_type_symbol
 _atom_site_label
 _atom_site_symmetry_multiplicity
 _atom_site_fract_x
 _atom_site_fract_y
 _atom_site_fract_z
 _atom_site_occupancy
  Be  Be0  1  0.11420600  0.30003400  0.40148400  1
  Be  Be1  1  0.88579400  0.69996600  0.59851600  1
  Be  Be2  1  0.61420600  0.69996600  0.09851600  1
  Be  Be3  1  0.38579400  0.30003400  0.90148400  1
  Tl  Tl4  1  0.81419300  0.19367900  0.35235300  1
  Tl  Tl5  1  0.18580700  0.80632100  0.64764700  1
  Tl  Tl6  1  0.31419300  0.80632100  0.14764700  1
  Tl  Tl7  1  0.68580700  0.19367900  0.85235300  1
  Zn  Zn8  1  0.00000000  0.50000000  0.00000000  1
  Zn  Zn9  1  0.50000000  0.50000000  0.50000000  1
  O  O10  1  0.16056700  0.76458000  0.06869200  1
  O  O11  1  0.83943300  0.23542000  0.93130800  1
  O  O12  1  0.66056700  0.23542000  0.43130800  1
  O  O13  1  0.33943300  0.76458000  0.56869200  1
  O  O14  1  0.35691800  0.61349700  0.44512500  1
  O  O15  1  0.64308200  0.38650300  0.55487500  1
  O  O16  1  0.85691800  0.38650300  0.05487500  1
  O  O17  1  0.14308200  0.61349700  0.94512500  1
  O  O18  1  0.03372100  0.08082000  0.98845800  1
  O  O19  1  0.96627900  0.91918000  0.01154200  1
  O  O20  1  0.53372100  0.91918000  0.51154200  1
  O  O21  1  0.46627900  0.08082000  0.48845800  1
  F  F22  1  0.15138200  0.56226900  0.43733000  1
  F  F23  1  0.84861800  0.43773100  0.56267000  1
  F  F24  1  0.65138200  0.43773100  0.06267000  1
  F  F25  1  0.34861800  0.56226900  0.93733000  1
  F  F26  1  0.42011300  0.13406600  0.09277700  1
  F  F27  1  0.57988700  0.86593400  0.90722300  1
  F  F28  1  0.92011300  0.86593400  0.40722300  1
  F  F29  1  0.07988700  0.13406600  0.59277700  1
  F  F30  1  0.02588000  0.35843000  0.26454700  1
  F  F31  1  0.97412000  0.64157000  0.73545300  1
  F  F32  1  0.52588000  0.64157000  0.23545300  1
  F  F33  1  0.47412000  0.35843000  0.76454700  1
  F  F34  1  0.19667300  0.13359200  0.34055900  1
  F  F35  1  0.80332700  0.86640800  0.65944100  1
  F  F36  1  0.69667300  0.86640800  0.15944100  1
  F  F37  1  0.30332700  0.13359200  0.84055900  1
