# generated using pymatgen
data_TiCrAgS4
_symmetry_space_group_name_H-M   'P 1'
_cell_length_a   6.92226700
_cell_length_b   5.98105000
_cell_length_c   6.56885545
_cell_angle_alpha   86.36360630
_cell_angle_beta   90.00000000
_cell_angle_gamma   90.00000000
_symmetry_Int_Tables_number   1
_chemical_formula_structural   TiCrAgS4
_chemical_formula_sum   'Ti2 Cr2 Ag2 S8'
_cell_volume   271.41897967
_cell_formula_units_Z   2
loop_
 _symmetry_equiv_pos_site_id
 _symmetry_equiv_pos_as_xyz
  1  'x, y, z'
loop_
 _atom_site_type_symbol
 _atom_site_label
 _atom_site_symmetry_multiplicity
 _atom_site_fract_x
 _atom_site_fract_y
 _atom_site_fract_z
 _atom_site_occupancy
  Ti  Ti0  1  0.76709100  0.50000000  0.50000000  1
  Ti  Ti1  1  0.48344100  0.00000000  0.50000000  1
  Cr  Cr2  1  0.25558700  0.50000000  0.50000000  1
  Cr  Cr3  1  0.99767100  0.00000000  0.50000000  1
  Ag  Ag4  1  0.99063500  0.00000000  0.00000000  1
  Ag  Ag5  1  0.48928600  0.00000000  0.00000000  1
  S  S6  1  0.00817800  0.31682000  0.70930500  1
  S  S7  1  0.50188100  0.32372900  0.70958400  1
  S  S8  1  0.24534900  0.81237200  0.71335800  1
  S  S9  1  0.75275000  0.82069300  0.71325300  1
  S  S10  1  0.24534900  0.18762800  0.28664200  1
  S  S11  1  0.75275000  0.17930700  0.28674700  1
  S  S12  1  0.50188100  0.67627100  0.29041600  1
  S  S13  1  0.00817800  0.68318000  0.29069500  1
