# generated using pymatgen
data_VBC
_symmetry_space_group_name_H-M   'P 1'
_cell_length_a   2.77659045
_cell_length_b   2.77659045
_cell_length_c   6.91522900
_cell_angle_alpha   90.00000000
_cell_angle_beta   90.00000000
_cell_angle_gamma   120.00001082
_symmetry_Int_Tables_number   1
_chemical_formula_structural   VBC
_chemical_formula_sum   'V2 B2 C2'
_cell_volume   46.17009873
_cell_formula_units_Z   2
loop_
 _symmetry_equiv_pos_site_id
 _symmetry_equiv_pos_as_xyz
  1  'x, y, z'
loop_
 _atom_site_type_symbol
 _atom_site_label
 _atom_site_symmetry_multiplicity
 _atom_site_fract_x
 _atom_site_fract_y
 _atom_site_fract_z
 _atom_site_occupancy
  V  V0  1  0.00000000  0.00000000  0.50000000  1
  V  V1  1  0.00000000  0.00000000  0.00000000  1
  B  B2  1  0.33333300  0.66666700  0.75000000  1
  B  B3  1  0.66666700  0.33333300  0.25000000  1
  C  C4  1  0.33333300  0.66666700  0.25000000  1
  C  C5  1  0.66666700  0.33333300  0.75000000  1
