# generated using pymatgen
data_K3YbN6
_symmetry_space_group_name_H-M   'P 1'
_cell_length_a   7.85118634
_cell_length_b   7.85118634
_cell_length_c   7.85118620
_cell_angle_alpha   85.78560874
_cell_angle_beta   85.78560874
_cell_angle_gamma   85.78560773
_symmetry_Int_Tables_number   1
_chemical_formula_structural   K3YbN6
_chemical_formula_sum   'K6 Yb2 N12'
_cell_volume   480.21309429
_cell_formula_units_Z   2
loop_
 _symmetry_equiv_pos_site_id
 _symmetry_equiv_pos_as_xyz
  1  'x, y, z'
loop_
 _atom_site_type_symbol
 _atom_site_label
 _atom_site_symmetry_multiplicity
 _atom_site_fract_x
 _atom_site_fract_y
 _atom_site_fract_z
 _atom_site_occupancy
  K  K0  1  0.75000000  0.40803900  0.09196100  1
  K  K1  1  0.40803900  0.09196100  0.75000000  1
  K  K2  1  0.09196100  0.75000000  0.40803900  1
  K  K3  1  0.25000000  0.59196100  0.90803900  1
  K  K4  1  0.59196100  0.90803900  0.25000000  1
  K  K5  1  0.90803900  0.25000000  0.59196100  1
  Yb  Yb6  1  0.50000000  0.50000000  0.50000000  1
  Yb  Yb7  1  0.00000000  0.00000000  0.00000000  1
  N  N8  1  0.22104300  0.41510200  0.60519700  1
  N  N9  1  0.41510200  0.60519700  0.22104300  1
  N  N10  1  0.60519700  0.22104300  0.41510200  1
  N  N11  1  0.27895700  0.89480300  0.08489800  1
  N  N12  1  0.08489800  0.27895700  0.89480300  1
  N  N13  1  0.89480300  0.08489800  0.27895700  1
  N  N14  1  0.58489800  0.39480300  0.77895700  1
  N  N15  1  0.39480300  0.77895700  0.58489800  1
  N  N16  1  0.77895700  0.58489800  0.39480300  1
  N  N17  1  0.91510200  0.72104300  0.10519700  1
  N  N18  1  0.10519700  0.91510200  0.72104300  1
  N  N19  1  0.72104300  0.10519700  0.91510200  1
