# generated using pymatgen
data_CsPb2Br5
_symmetry_space_group_name_H-M   'P 1'
_cell_length_a   10.05125606
_cell_length_b   10.05125606
_cell_length_c   10.05125606
_cell_angle_alpha   129.12969070
_cell_angle_beta   129.12969070
_cell_angle_gamma   74.80198530
_symmetry_Int_Tables_number   1
_chemical_formula_structural   CsPb2Br5
_chemical_formula_sum   'Cs2 Pb4 Br10'
_cell_volume   595.20584753
_cell_formula_units_Z   2
loop_
 _symmetry_equiv_pos_site_id
 _symmetry_equiv_pos_as_xyz
  1  'x, y, z'
loop_
 _atom_site_type_symbol
 _atom_site_label
 _atom_site_symmetry_multiplicity
 _atom_site_fract_x
 _atom_site_fract_y
 _atom_site_fract_z
 _atom_site_occupancy
  Cs  Cs0  1  0.75000000  0.75000000  0.00000000  1
  Cs  Cs1  1  0.25000000  0.25000000  0.00000000  1
  Pb  Pb2  1  0.67106200  0.82893800  0.50000000  1
  Pb  Pb3  1  0.32893800  0.17106200  0.50000000  1
  Pb  Pb4  1  0.82893800  0.32893800  0.15787700  1
  Pb  Pb5  1  0.17106200  0.67106200  0.84212300  1
  Br  Br6  1  0.50000000  0.50000000  0.00000000  1
  Br  Br7  1  0.00000000  0.00000000  0.00000000  1
  Br  Br8  1  0.72200200  0.52923300  0.50000000  1
  Br  Br9  1  0.27799800  0.47076700  0.50000000  1
  Br  Br10  1  0.02923300  0.22200200  0.50000000  1
  Br  Br11  1  0.97076700  0.77799800  0.50000000  1
  Br  Br12  1  0.52923300  0.02923300  0.80723100  1
  Br  Br13  1  0.47076700  0.97076700  0.19276900  1
  Br  Br14  1  0.22200200  0.72200200  0.19276900  1
  Br  Br15  1  0.77799800  0.27799800  0.80723100  1
