# generated using pymatgen
data_TiCrAgS4
_symmetry_space_group_name_H-M   'P 1'
_cell_length_a   6.13775500
_cell_length_b   7.15011200
_cell_length_c   11.91313900
_cell_angle_alpha   90.00000000
_cell_angle_beta   90.00000000
_cell_angle_gamma   90.00000000
_symmetry_Int_Tables_number   1
_chemical_formula_structural   TiCrAgS4
_chemical_formula_sum   'Ti4 Cr4 Ag4 S16'
_cell_volume   522.81567794
_cell_formula_units_Z   4
loop_
 _symmetry_equiv_pos_site_id
 _symmetry_equiv_pos_as_xyz
  1  'x, y, z'
loop_
 _atom_site_type_symbol
 _atom_site_label
 _atom_site_symmetry_multiplicity
 _atom_site_fract_x
 _atom_site_fract_y
 _atom_site_fract_z
 _atom_site_occupancy
  Ti  Ti0  1  0.03790000  0.75000000  0.24718600  1
  Ti  Ti1  1  0.96210000  0.25000000  0.75281400  1
  Ti  Ti2  1  0.53790000  0.25000000  0.25281400  1
  Ti  Ti3  1  0.46210000  0.75000000  0.74718600  1
  Cr  Cr4  1  0.50000000  0.00000000  0.00000000  1
  Cr  Cr5  1  0.00000000  0.00000000  0.50000000  1
  Cr  Cr6  1  0.00000000  0.50000000  0.50000000  1
  Cr  Cr7  1  0.50000000  0.50000000  0.00000000  1
  Ag  Ag8  1  0.92539500  0.25000000  0.10096900  1
  Ag  Ag9  1  0.07460500  0.75000000  0.89903100  1
  Ag  Ag10  1  0.42539500  0.75000000  0.39903100  1
  Ag  Ag11  1  0.57460500  0.25000000  0.60096900  1
  S  S12  1  0.71443800  0.98079000  0.17376300  1
  S  S13  1  0.28556200  0.01921000  0.82623700  1
  S  S14  1  0.21443800  0.01921000  0.32623700  1
  S  S15  1  0.78556200  0.98079000  0.67376300  1
  S  S16  1  0.78556200  0.51921000  0.67376300  1
  S  S17  1  0.21443800  0.48079000  0.32623700  1
  S  S18  1  0.28556200  0.48079000  0.82623700  1
  S  S19  1  0.71443800  0.51921000  0.17376300  1
  S  S20  1  0.27540600  0.75000000  0.08847400  1
  S  S21  1  0.72459400  0.25000000  0.91152600  1
  S  S22  1  0.77540600  0.25000000  0.41152600  1
  S  S23  1  0.22459400  0.75000000  0.58847400  1
  S  S24  1  0.31434000  0.25000000  0.08355600  1
  S  S25  1  0.68566000  0.75000000  0.91644400  1
  S  S26  1  0.81434000  0.75000000  0.41644400  1
  S  S27  1  0.18566000  0.25000000  0.58355600  1
