# generated using pymatgen
data_Na(CrS2)2
_symmetry_space_group_name_H-M   'P 1'
_cell_length_a   6.41650694
_cell_length_b   8.03975089
_cell_length_c   12.26722472
_cell_angle_alpha   81.43861074
_cell_angle_beta   86.25312924
_cell_angle_gamma   89.41282475
_symmetry_Int_Tables_number   1
_chemical_formula_structural   Na(CrS2)2
_chemical_formula_sum   'Na4 Cr8 S16'
_cell_volume   624.44138868
_cell_formula_units_Z   4
loop_
 _symmetry_equiv_pos_site_id
 _symmetry_equiv_pos_as_xyz
  1  'x, y, z'
loop_
 _atom_site_type_symbol
 _atom_site_label
 _atom_site_symmetry_multiplicity
 _atom_site_fract_x
 _atom_site_fract_y
 _atom_site_fract_z
 _atom_site_occupancy
  Na  Na0  1  0.13871100  0.20790800  0.68142900  1
  Na  Na1  1  0.86128900  0.79209200  0.31857100  1
  Na  Na2  1  0.25601900  0.36921400  0.00574700  1
  Na  Na3  1  0.74398100  0.63078600  0.99425300  1
  Cr  Cr4  1  0.15297000  0.70902700  0.71041700  1
  Cr  Cr5  1  0.84703000  0.29097300  0.28958300  1
  Cr  Cr6  1  0.23699900  0.89525800  0.99948900  1
  Cr  Cr7  1  0.76300100  0.10474200  0.00051100  1
  Cr  Cr8  1  0.35801700  0.55282900  0.29426900  1
  Cr  Cr9  1  0.64198300  0.44717100  0.70573100  1
  Cr  Cr10  1  0.36694600  0.05669000  0.29298200  1
  Cr  Cr11  1  0.63305400  0.94331000  0.70701800  1
  S  S12  1  0.15038000  0.69203600  0.88579900  1
  S  S13  1  0.84962000  0.30796400  0.11420100  1
  S  S14  1  0.07993300  0.12135600  0.90084700  1
  S  S15  1  0.92006700  0.87864400  0.09915300  1
  S  S16  1  0.27363200  0.79025600  0.36144600  1
  S  S17  1  0.72636800  0.20974400  0.63855400  1
  S  S18  1  0.18341800  0.29085700  0.34387500  1
  S  S19  1  0.81658200  0.70914300  0.65612500  1
  S  S20  1  0.33066400  0.92883600  0.63010400  1
  S  S21  1  0.66933600  0.07116400  0.36989600  1
  S  S22  1  0.32846300  0.50770000  0.64308700  1
  S  S23  1  0.67153700  0.49230000  0.35691300  1
  S  S24  1  0.42263200  0.06023900  0.11094400  1
  S  S25  1  0.57736800  0.93976100  0.88905600  1
  S  S26  1  0.35891600  0.63674800  0.11933500  1
  S  S27  1  0.64108400  0.36325200  0.88066500  1
