# generated using pymatgen
data_Cr2HgS4
_symmetry_space_group_name_H-M   'P 1'
_cell_length_a   11.73409500
_cell_length_b   7.45875500
_cell_length_c   12.00438700
_cell_angle_alpha   90.00000000
_cell_angle_beta   90.00000000
_cell_angle_gamma   90.00000000
_symmetry_Int_Tables_number   1
_chemical_formula_structural   Cr2HgS4
_chemical_formula_sum   'Cr16 Hg8 S32'
_cell_volume   1050.64483489
_cell_formula_units_Z   8
loop_
 _symmetry_equiv_pos_site_id
 _symmetry_equiv_pos_as_xyz
  1  'x, y, z'
loop_
 _atom_site_type_symbol
 _atom_site_label
 _atom_site_symmetry_multiplicity
 _atom_site_fract_x
 _atom_site_fract_y
 _atom_site_fract_z
 _atom_site_occupancy
  Cr  Cr0  1  0.11720000  0.86669800  0.69858300  1
  Cr  Cr1  1  0.88280000  0.13330200  0.19858300  1
  Cr  Cr2  1  0.38280000  0.86669800  0.19858300  1
  Cr  Cr3  1  0.61720000  0.13330200  0.69858300  1
  Cr  Cr4  1  0.12887700  0.35586100  0.32455200  1
  Cr  Cr5  1  0.87112300  0.64413900  0.82455200  1
  Cr  Cr6  1  0.37112300  0.35586100  0.82455200  1
  Cr  Cr7  1  0.62887700  0.64413900  0.32455200  1
  Cr  Cr8  1  0.15614600  0.62591300  0.94406300  1
  Cr  Cr9  1  0.84385400  0.37408700  0.44406300  1
  Cr  Cr10  1  0.34385400  0.62591300  0.44406300  1
  Cr  Cr11  1  0.65614600  0.37408700  0.94406300  1
  Cr  Cr12  1  0.14057300  0.12796100  0.99976100  1
  Cr  Cr13  1  0.85942700  0.87203900  0.49976100  1
  Cr  Cr14  1  0.35942700  0.12796100  0.49976100  1
  Cr  Cr15  1  0.64057300  0.87203900  0.99976100  1
  Hg  Hg16  1  0.08413400  0.37497000  0.66322400  1
  Hg  Hg17  1  0.91586600  0.62503000  0.16322400  1
  Hg  Hg18  1  0.41586600  0.37497000  0.16322400  1
  Hg  Hg19  1  0.58413400  0.62503000  0.66322400  1
  Hg  Hg20  1  0.11954400  0.88240000  0.33133700  1
  Hg  Hg21  1  0.88045600  0.11760000  0.83133700  1
  Hg  Hg22  1  0.38045600  0.88240000  0.83133700  1
  Hg  Hg23  1  0.61954400  0.11760000  0.33133700  1
  S  S24  1  0.02482300  0.84268800  0.87697900  1
  S  S25  1  0.97517700  0.15731200  0.37697900  1
  S  S26  1  0.47517700  0.84268800  0.37697900  1
  S  S27  1  0.52482300  0.15731200  0.87697900  1
  S  S28  1  0.04086600  0.32136900  0.14324100  1
  S  S29  1  0.95913400  0.67863100  0.64324100  1
  S  S30  1  0.45913400  0.32136900  0.64324100  1
  S  S31  1  0.54086600  0.67863100  0.14324100  1
  S  S32  1  0.01216100  0.42722400  0.87865000  1
  S  S33  1  0.98783900  0.57277600  0.37865000  1
  S  S34  1  0.48783900  0.42722400  0.37865000  1
  S  S35  1  0.51216100  0.57277600  0.87865000  1
  S  S36  1  0.02028500  0.93252200  0.13219800  1
  S  S37  1  0.97971500  0.06747800  0.63219800  1
  S  S38  1  0.47971500  0.93252200  0.63219800  1
  S  S39  1  0.52028500  0.06747800  0.13219800  1
  S  S40  1  0.23234800  0.87162000  0.52991900  1
  S  S41  1  0.76765200  0.12838000  0.02991900  1
  S  S42  1  0.26765200  0.87162000  0.02991900  1
  S  S43  1  0.73234800  0.12838000  0.52991900  1
  S  S44  1  0.22799500  0.37660800  0.49850600  1
  S  S45  1  0.77200500  0.62339200  0.99850600  1
  S  S46  1  0.27200500  0.37660800  0.99850600  1
  S  S47  1  0.72799500  0.62339200  0.49850600  1
  S  S48  1  0.21333000  0.12601400  0.80346200  1
  S  S49  1  0.78667000  0.87398600  0.30346200  1
  S  S50  1  0.28667000  0.12601400  0.30346200  1
  S  S51  1  0.71333000  0.87398600  0.80346200  1
  S  S52  1  0.24234100  0.61685400  0.77252600  1
  S  S53  1  0.75765900  0.38314600  0.27252600  1
  S  S54  1  0.25765900  0.61685400  0.27252600  1
  S  S55  1  0.74234100  0.38314600  0.77252600  1
