# generated using pymatgen
data_TaCr3(AgS4)2
_symmetry_space_group_name_H-M   'P 1'
_cell_length_a   6.50590595
_cell_length_b   7.68294416
_cell_length_c   12.32765197
_cell_angle_alpha   82.30508289
_cell_angle_beta   85.54634490
_cell_angle_gamma   90.60596801
_symmetry_Int_Tables_number   1
_chemical_formula_structural   TaCr3(AgS4)2
_chemical_formula_sum   'Ta2 Cr6 Ag4 S16'
_cell_volume   608.66187185
_cell_formula_units_Z   2
loop_
 _symmetry_equiv_pos_site_id
 _symmetry_equiv_pos_as_xyz
  1  'x, y, z'
loop_
 _atom_site_type_symbol
 _atom_site_label
 _atom_site_symmetry_multiplicity
 _atom_site_fract_x
 _atom_site_fract_y
 _atom_site_fract_z
 _atom_site_occupancy
  Ta  Ta0  1  0.14603100  0.70501200  0.69566500  1
  Ta  Ta1  1  0.85396900  0.29498800  0.30433500  1
  Cr  Cr2  1  0.24601600  0.88868700  0.00231400  1
  Cr  Cr3  1  0.75398400  0.11131300  0.99768600  1
  Cr  Cr4  1  0.36013300  0.55651600  0.29282900  1
  Cr  Cr5  1  0.63986700  0.44348400  0.70717100  1
  Cr  Cr6  1  0.36313600  0.04627000  0.29423700  1
  Cr  Cr7  1  0.63686400  0.95373000  0.70576300  1
  Ag  Ag8  1  0.12217000  0.20002300  0.70419900  1
  Ag  Ag9  1  0.87783000  0.79997700  0.29580100  1
  Ag  Ag10  1  0.25840000  0.37240400  0.00040000  1
  Ag  Ag11  1  0.74160000  0.62759600  0.99960000  1
  S  S12  1  0.12459400  0.67521700  0.88164300  1
  S  S13  1  0.87540600  0.32478300  0.11835700  1
  S  S14  1  0.08887200  0.13373400  0.90769300  1
  S  S15  1  0.91112800  0.86626600  0.09230800  1
  S  S16  1  0.22658400  0.78262500  0.36605400  1
  S  S17  1  0.77341600  0.21737500  0.63394600  1
  S  S18  1  0.19231600  0.28622300  0.36046300  1
  S  S19  1  0.80768400  0.71377700  0.63953700  1
  S  S20  1  0.32428000  0.95827900  0.62469900  1
  S  S21  1  0.67572000  0.04172100  0.37530200  1
  S  S22  1  0.32608800  0.47659600  0.63066500  1
  S  S23  1  0.67391200  0.52340400  0.36933500  1
  S  S24  1  0.42016100  0.07544600  0.10911000  1
  S  S25  1  0.57983900  0.92455400  0.89089000  1
  S  S26  1  0.37193400  0.61948900  0.11188800  1
  S  S27  1  0.62806600  0.38051100  0.88811200  1
