# generated using pymatgen
data_MoH8N2O5F2
_symmetry_space_group_name_H-M   'P 1'
_cell_length_a   6.63123100
_cell_length_b   7.46738194
_cell_length_c   8.78271938
_cell_angle_alpha   82.03528799
_cell_angle_beta   71.60179382
_cell_angle_gamma   87.11476447
_symmetry_Int_Tables_number   1
_chemical_formula_structural   MoH8N2O5F2
_chemical_formula_sum   'Mo2 H16 N4 O10 F4'
_cell_volume   408.68159833
_cell_formula_units_Z   2
loop_
 _symmetry_equiv_pos_site_id
 _symmetry_equiv_pos_as_xyz
  1  'x, y, z'
loop_
 _atom_site_type_symbol
 _atom_site_label
 _atom_site_symmetry_multiplicity
 _atom_site_fract_x
 _atom_site_fract_y
 _atom_site_fract_z
 _atom_site_occupancy
  Mo  Mo0  1  0.19039700  0.26443900  0.73401500  1
  Mo  Mo1  1  0.80960300  0.73556100  0.26598500  1
  H  H2  1  0.30547800  0.72683700  0.46011100  1
  H  H3  1  0.69452200  0.27316300  0.53988900  1
  H  H4  1  0.16842700  0.83513000  0.62152800  1
  H  H5  1  0.83157300  0.16487000  0.37847200  1
  H  H6  1  0.35017000  0.65275500  0.07644700  1
  H  H7  1  0.64983000  0.34724500  0.92355300  1
  H  H8  1  0.07668100  0.62992400  0.59912200  1
  H  H9  1  0.92331900  0.37007600  0.40087800  1
  H  H10  1  0.53412600  0.35147800  0.97188000  1
  H  H11  1  0.46587400  0.64852200  0.02812000  1
  H  H12  1  0.42859500  0.11819500  0.21666200  1
  H  H13  1  0.57140500  0.88180500  0.78333800  1
  H  H14  1  0.51628900  0.37725700  0.38736400  1
  H  H15  1  0.48371100  0.62274300  0.61263600  1
  H  H16  1  0.17002700  0.26929400  0.03384100  1
  H  H17  1  0.82997300  0.73070600  0.96615900  1
  N  N18  1  0.21076700  0.70813500  0.58161500  1
  N  N19  1  0.78923300  0.29186500  0.41838500  1
  N  N20  1  0.29925300  0.18364000  0.18887700  1
  N  N21  1  0.70074700  0.81636000  0.81112300  1
  O  O22  1  0.09784100  0.05750700  0.65094000  1
  O  O23  1  0.90215900  0.94249300  0.34906000  1
  O  O24  1  0.04168000  0.04156600  0.82870800  1
  O  O25  1  0.95832000  0.95843400  0.17129200  1
  O  O26  1  0.11643800  0.32761200  0.94493700  1
  O  O27  1  0.88356200  0.67238800  0.05506300  1
  O  O28  1  0.32410100  0.60547000  0.67817100  1
  O  O29  1  0.67589900  0.39453000  0.32182900  1
  O  O30  1  0.45741300  0.21222100  0.70820900  1
  O  O31  1  0.54258700  0.78777900  0.29179100  1
  F  F32  1  0.29449800  0.35312300  0.48281400  1
  F  F33  1  0.70550200  0.64687700  0.51718600  1
  F  F34  1  0.96011400  0.43016900  0.70115400  1
  F  F35  1  0.03988600  0.56983100  0.29884600  1
