# generated using pymatgen
data_Na4W8XeO6
_symmetry_space_group_name_H-M   'P 1'
_cell_length_a   10.40443900
_cell_length_b   12.52059000
_cell_length_c   12.53986800
_cell_angle_alpha   90.00000000
_cell_angle_beta   90.00000000
_cell_angle_gamma   90.00000000
_symmetry_Int_Tables_number   1
_chemical_formula_structural   Na4W8XeO6
_chemical_formula_sum   'Na16 W32 Xe4 O24'
_cell_volume   1633.56502923
_cell_formula_units_Z   4
loop_
 _symmetry_equiv_pos_site_id
 _symmetry_equiv_pos_as_xyz
  1  'x, y, z'
loop_
 _atom_site_type_symbol
 _atom_site_label
 _atom_site_symmetry_multiplicity
 _atom_site_fract_x
 _atom_site_fract_y
 _atom_site_fract_z
 _atom_site_occupancy
  Na  Na0  1  0.35112100  0.71129700  0.72867400  1
  Na  Na1  1  0.64887900  0.28870300  0.27132600  1
  Na  Na2  1  0.85112100  0.78870300  0.77132600  1
  Na  Na3  1  0.14887900  0.71129700  0.27132600  1
  Na  Na4  1  0.14887900  0.21129700  0.22867400  1
  Na  Na5  1  0.85112100  0.28870300  0.72867400  1
  Na  Na6  1  0.64887900  0.78870300  0.22867400  1
  Na  Na7  1  0.35112100  0.21129700  0.77132600  1
  Na  Na8  1  0.06820300  0.87368900  0.62449300  1
  Na  Na9  1  0.93179700  0.12631100  0.37550700  1
  Na  Na10  1  0.56820300  0.62631100  0.87550700  1
  Na  Na11  1  0.43179700  0.87368900  0.37550700  1
  Na  Na12  1  0.43179700  0.37368900  0.12449300  1
  Na  Na13  1  0.56820300  0.12631100  0.62449300  1
  Na  Na14  1  0.93179700  0.62631100  0.12449300  1
  Na  Na15  1  0.06820300  0.37368900  0.87550700  1
  W  W16  1  0.13180400  0.64758400  0.91037700  1
  W  W17  1  0.86819600  0.35241600  0.08962300  1
  W  W18  1  0.63180400  0.85241600  0.58962300  1
  W  W19  1  0.36819600  0.64758400  0.08962300  1
  W  W20  1  0.36819600  0.14758400  0.41037700  1
  W  W21  1  0.63180400  0.35241600  0.91037700  1
  W  W22  1  0.86819600  0.85241600  0.41037700  1
  W  W23  1  0.13180400  0.14758400  0.58962300  1
  W  W24  1  0.34010900  0.47851300  0.84030800  1
  W  W25  1  0.65989100  0.52148700  0.15969200  1
  W  W26  1  0.84010900  0.02148700  0.65969200  1
  W  W27  1  0.15989100  0.47851300  0.15969200  1
  W  W28  1  0.15989100  0.97851300  0.34030800  1
  W  W29  1  0.84010900  0.52148700  0.84030800  1
  W  W30  1  0.65989100  0.02148700  0.34030800  1
  W  W31  1  0.34010900  0.97851300  0.65969200  1
  W  W32  1  0.39526600  0.91791300  0.87932400  1
  W  W33  1  0.60473400  0.08208700  0.12067600  1
  W  W34  1  0.89526600  0.58208700  0.62067600  1
  W  W35  1  0.10473400  0.91791300  0.12067600  1
  W  W36  1  0.10473400  0.41791300  0.37932400  1
  W  W37  1  0.89526600  0.08208700  0.87932400  1
  W  W38  1  0.60473400  0.58208700  0.37932400  1
  W  W39  1  0.39526600  0.41791300  0.62067600  1
  W  W40  1  0.10714300  0.92415400  0.89309600  1
  W  W41  1  0.89285700  0.07584600  0.10690400  1
  W  W42  1  0.60714300  0.57584600  0.60690400  1
  W  W43  1  0.39285700  0.92415400  0.10690400  1
  W  W44  1  0.39285700  0.42415400  0.39309600  1
  W  W45  1  0.60714300  0.07584600  0.89309600  1
  W  W46  1  0.89285700  0.57584600  0.39309600  1
  W  W47  1  0.10714300  0.42415400  0.60690400  1
  Xe  Xe48  1  0.25000000  0.72843400  0.50000000  1
  Xe  Xe49  1  0.75000000  0.27156600  0.50000000  1
  Xe  Xe50  1  0.75000000  0.77156600  0.00000000  1
  Xe  Xe51  1  0.25000000  0.22843400  0.00000000  1
  O  O52  1  0.97603800  0.70690600  0.64384300  1
  O  O53  1  0.02396200  0.29309400  0.35615700  1
  O  O54  1  0.47603800  0.79309400  0.85615700  1
  O  O55  1  0.52396200  0.70690600  0.35615700  1
  O  O56  1  0.52396200  0.20690600  0.14384300  1
  O  O57  1  0.47603800  0.29309400  0.64384300  1
  O  O58  1  0.02396200  0.79309400  0.14384300  1
  O  O59  1  0.97603800  0.20690600  0.85615700  1
  O  O60  1  0.25000000  0.03689000  0.50000000  1
  O  O61  1  0.75000000  0.96311000  0.50000000  1
  O  O62  1  0.75000000  0.46311000  0.00000000  1
  O  O63  1  0.25000000  0.53689000  0.00000000  1
  O  O64  1  0.53506200  0.72147500  0.63204900  1
  O  O65  1  0.46493800  0.27852500  0.36795100  1
  O  O66  1  0.03506200  0.77852500  0.86795100  1
  O  O67  1  0.96493800  0.72147500  0.36795100  1
  O  O68  1  0.96493800  0.22147500  0.13204900  1
  O  O69  1  0.03506200  0.27852500  0.63204900  1
  O  O70  1  0.46493800  0.77852500  0.13204900  1
  O  O71  1  0.53506200  0.22147500  0.86795100  1
  O  O72  1  0.25000000  0.48194300  0.50000000  1
  O  O73  1  0.75000000  0.51805700  0.50000000  1
  O  O74  1  0.75000000  0.01805700  0.00000000  1
  O  O75  1  0.25000000  0.98194300  0.00000000  1
