# generated using pymatgen
data_MnO
_symmetry_space_group_name_H-M   'P 1'
_cell_length_a   3.43170866
_cell_length_b   3.43396276
_cell_length_c   3.44043447
_cell_angle_alpha   89.99988972
_cell_angle_beta   60.03562403
_cell_angle_gamma   59.97819011
_symmetry_Int_Tables_number   1
_chemical_formula_structural   MnO
_chemical_formula_sum   'Mn1 O1'
_cell_volume   28.67446005
_cell_formula_units_Z   1
loop_
 _symmetry_equiv_pos_site_id
 _symmetry_equiv_pos_as_xyz
  1  'x, y, z'
loop_
 _atom_site_type_symbol
 _atom_site_label
 _atom_site_symmetry_multiplicity
 _atom_site_fract_x
 _atom_site_fract_y
 _atom_site_fract_z
 _atom_site_occupancy
  Mn  Mn0  1  0.00039700  0.49980100  0.49933500  1
  O  O1  1  0.49960400  0.25019800  0.75066400  1
