# generated using pymatgen
data_Pr4C2Br5
_symmetry_space_group_name_H-M   'P 1'
_cell_length_a   13.01340858
_cell_length_b   13.01340858
_cell_length_c   7.82425245
_cell_angle_alpha   73.86149866
_cell_angle_beta   73.86149866
_cell_angle_gamma   15.30535423
_symmetry_Int_Tables_number   1
_chemical_formula_structural   Pr4C2Br5
_chemical_formula_sum   'Pr4 C2 Br5'
_cell_volume   335.72143942
_cell_formula_units_Z   1
loop_
 _symmetry_equiv_pos_site_id
 _symmetry_equiv_pos_as_xyz
  1  'x, y, z'
loop_
 _atom_site_type_symbol
 _atom_site_label
 _atom_site_symmetry_multiplicity
 _atom_site_fract_x
 _atom_site_fract_y
 _atom_site_fract_z
 _atom_site_occupancy
  Pr  Pr0  1  0.95685000  0.95685000  0.23259900  1
  Pr  Pr1  1  0.03750200  0.03750200  0.77022900  1
  Pr  Pr2  1  0.31065700  0.31065700  0.12829800  1
  Pr  Pr3  1  0.68254800  0.68254800  0.88209600  1
  C  C4  1  0.23815200  0.23815200  0.98666300  1
  C  C5  1  0.75500000  0.75500000  0.02412300  1
  Br  Br6  1  0.90929700  0.90929700  0.92778300  1
  Br  Br7  1  0.08386500  0.08386500  0.08184400  1
  Br  Br8  1  0.49308700  0.49308700  0.50986000  1
  Br  Br9  1  0.83548900  0.83548900  0.42531700  1
  Br  Br10  1  0.15995100  0.15995100  0.58168800  1
