# generated using pymatgen
data_Yb6NpO12
_symmetry_space_group_name_H-M   'P 1'
_cell_length_a   10.01600635
_cell_length_b   8.44231640
_cell_length_c   8.81476843
_cell_angle_alpha   136.05691334
_cell_angle_beta   114.00188180
_cell_angle_gamma   50.52225893
_symmetry_Int_Tables_number   1
_chemical_formula_structural   Yb6NpO12
_chemical_formula_sum   'Yb6 Np1 O12'
_cell_volume   397.42736054
_cell_formula_units_Z   1
loop_
 _symmetry_equiv_pos_site_id
 _symmetry_equiv_pos_as_xyz
  1  'x, y, z'
loop_
 _atom_site_type_symbol
 _atom_site_label
 _atom_site_symmetry_multiplicity
 _atom_site_fract_x
 _atom_site_fract_y
 _atom_site_fract_z
 _atom_site_occupancy
  Yb  Yb0  1  0.09990300  0.84140800  0.28194700  1
  Yb  Yb1  1  0.90009700  0.15859200  0.71805300  1
  Yb  Yb2  1  0.68840800  0.95017000  0.15616300  1
  Yb  Yb3  1  0.31159200  0.04983000  0.84383700  1
  Yb  Yb4  1  0.97605200  0.49500200  0.68960000  1
  Yb  Yb5  1  0.02394800  0.50499800  0.31040000  1
  Np  Np6  1  0.00000000  0.00000000  0.00000000  1
  O  O7  1  0.95494600  0.79717500  0.67564400  1
  O  O8  1  0.04505400  0.20282500  0.32435600  1
  O  O9  1  0.17398100  0.64803100  0.92668600  1
  O  O10  1  0.82601900  0.35196900  0.07331400  1
  O  O11  1  0.84964300  0.94640700  0.04721600  1
  O  O12  1  0.15035700  0.05359300  0.95278400  1
  O  O13  1  0.56831600  0.71891100  0.83972600  1
  O  O14  1  0.43168400  0.28108900  0.16027400  1
  O  O15  1  0.74961800  0.55864100  0.78718500  1
  O  O16  1  0.25038200  0.44135900  0.21281500  1
  O  O17  1  0.89463300  0.86785900  0.35526700  1
  O  O18  1  0.10536700  0.13214100  0.64473300  1
