# generated using pymatgen
data_ZrZn3N4
_symmetry_space_group_name_H-M   'P 1'
_cell_length_a   5.35826500
_cell_length_b   5.84417100
_cell_length_c   6.70740500
_cell_angle_alpha   90.00000000
_cell_angle_beta   90.00000000
_cell_angle_gamma   90.00000000
_symmetry_Int_Tables_number   1
_chemical_formula_structural   ZrZn3N4
_chemical_formula_sum   'Zr2 Zn6 N8'
_cell_volume   210.03981812
_cell_formula_units_Z   2
loop_
 _symmetry_equiv_pos_site_id
 _symmetry_equiv_pos_as_xyz
  1  'x, y, z'
loop_
 _atom_site_type_symbol
 _atom_site_label
 _atom_site_symmetry_multiplicity
 _atom_site_fract_x
 _atom_site_fract_y
 _atom_site_fract_z
 _atom_site_occupancy
  Zr  Zr0  1  0.77404500  0.33295200  0.00000000  1
  Zr  Zr1  1  0.27404500  0.66704800  0.50000000  1
  Zn  Zn2  1  0.27338100  0.16427400  0.25001800  1
  Zn  Zn3  1  0.77338100  0.83572600  0.24998200  1
  Zn  Zn4  1  0.77338100  0.83572600  0.75001800  1
  Zn  Zn5  1  0.27338100  0.16427400  0.74998200  1
  Zn  Zn6  1  0.27354300  0.67591000  0.00000000  1
  Zn  Zn7  1  0.77354300  0.32409000  0.50000000  1
  N  N8  1  0.89517300  0.16157300  0.74577700  1
  N  N9  1  0.39517300  0.83842700  0.75422300  1
  N  N10  1  0.39517300  0.83842700  0.24577700  1
  N  N11  1  0.89517300  0.16157300  0.25422300  1
  N  N12  1  0.89535100  0.67404600  0.00000000  1
  N  N13  1  0.39535100  0.32595400  0.50000000  1
  N  N14  1  0.38069300  0.33797100  0.00000000  1
  N  N15  1  0.88069300  0.66202900  0.50000000  1
