# generated using pymatgen
data_TiCrAgS4
_symmetry_space_group_name_H-M   'P 1'
_cell_length_a   3.47493700
_cell_length_b   11.26612500
_cell_length_c   12.87459200
_cell_angle_alpha   90.00000000
_cell_angle_beta   90.00000000
_cell_angle_gamma   90.00000000
_symmetry_Int_Tables_number   1
_chemical_formula_structural   TiCrAgS4
_chemical_formula_sum   'Ti4 Cr4 Ag4 S16'
_cell_volume   504.02836277
_cell_formula_units_Z   4
loop_
 _symmetry_equiv_pos_site_id
 _symmetry_equiv_pos_as_xyz
  1  'x, y, z'
loop_
 _atom_site_type_symbol
 _atom_site_label
 _atom_site_symmetry_multiplicity
 _atom_site_fract_x
 _atom_site_fract_y
 _atom_site_fract_z
 _atom_site_occupancy
  Ti  Ti0  1  0.00000000  0.80034900  0.11687600  1
  Ti  Ti1  1  0.50000000  0.19965100  0.61687600  1
  Ti  Ti2  1  0.00000000  0.82153100  0.58768300  1
  Ti  Ti3  1  0.50000000  0.17846900  0.08768300  1
  Cr  Cr4  1  0.50000000  0.69098800  0.88779400  1
  Cr  Cr5  1  0.00000000  0.30901200  0.38779400  1
  Cr  Cr6  1  0.50000000  0.66324300  0.40929300  1
  Cr  Cr7  1  0.00000000  0.33675700  0.90929300  1
  Ag  Ag8  1  0.50000000  0.49637800  0.68847700  1
  Ag  Ag9  1  0.00000000  0.00114100  0.31914200  1
  Ag  Ag10  1  0.00000000  0.50362200  0.18847700  1
  Ag  Ag11  1  0.50000000  0.99885900  0.81914200  1
  S  S12  1  0.00000000  0.71542500  0.29088500  1
  S  S13  1  0.50000000  0.78633200  0.71363200  1
  S  S14  1  0.50000000  0.28457500  0.79088500  1
  S  S15  1  0.00000000  0.21366800  0.21363200  1
  S  S16  1  0.50000000  0.65754300  0.06852900  1
  S  S17  1  0.00000000  0.83298800  0.92909300  1
  S  S18  1  0.00000000  0.34245700  0.56852900  1
  S  S19  1  0.50000000  0.16701200  0.42909300  1
  S  S20  1  0.00000000  0.62264600  0.53251600  1
  S  S21  1  0.50000000  0.86929900  0.46189500  1
  S  S22  1  0.50000000  0.37735400  0.03251600  1
  S  S23  1  0.00000000  0.13070100  0.96189500  1
  S  S24  1  0.00000000  0.54801800  0.84788700  1
  S  S25  1  0.50000000  0.95021600  0.14629800  1
  S  S26  1  0.50000000  0.45198200  0.34788700  1
  S  S27  1  0.00000000  0.04978400  0.64629800  1
