# generated using pymatgen
data_TiCrAgS4
_symmetry_space_group_name_H-M   'P 1'
_cell_length_a   7.17163500
_cell_length_b   11.77196500
_cell_length_c   12.47933189
_cell_angle_alpha   90.84945140
_cell_angle_beta   92.23756070
_cell_angle_gamma   90.83229529
_symmetry_Int_Tables_number   1
_chemical_formula_structural   TiCrAgS4
_chemical_formula_sum   'Ti8 Cr8 Ag8 S32'
_cell_volume   1052.51877046
_cell_formula_units_Z   8
loop_
 _symmetry_equiv_pos_site_id
 _symmetry_equiv_pos_as_xyz
  1  'x, y, z'
loop_
 _atom_site_type_symbol
 _atom_site_label
 _atom_site_symmetry_multiplicity
 _atom_site_fract_x
 _atom_site_fract_y
 _atom_site_fract_z
 _atom_site_occupancy
  Ti  Ti0  1  0.87277800  0.85731000  0.69512700  1
  Ti  Ti1  1  0.15209700  0.12036700  0.19658500  1
  Ti  Ti2  1  0.73340100  0.58787500  0.14398100  1
  Ti  Ti3  1  0.16600700  0.38136900  0.70163800  1
  Ti  Ti4  1  0.58618700  0.10661900  0.83654400  1
  Ti  Ti5  1  0.43258600  0.60236600  0.84588200  1
  Ti  Ti6  1  0.56493500  0.39642900  0.34683800  1
  Ti  Ti7  1  0.45212200  0.14096900  0.48195200  1
  Cr  Cr8  1  0.37106000  0.87094500  0.33840000  1
  Cr  Cr9  1  0.60714500  0.85302600  0.93579500  1
  Cr  Cr10  1  0.59419900  0.65304900  0.43626100  1
  Cr  Cr11  1  0.43035900  0.35517100  0.97476800  1
  Cr  Cr12  1  0.11902400  0.83357300  0.10042600  1
  Cr  Cr13  1  0.92677200  0.13482800  0.46203600  1
  Cr  Cr14  1  0.08313700  0.64263600  0.45434700  1
  Cr  Cr15  1  0.93523800  0.35810400  0.96963900  1
  Ag  Ag16  1  0.27092500  0.91616200  0.64315500  1
  Ag  Ag17  1  0.64177800  0.10987100  0.16698000  1
  Ag  Ag18  1  0.27701900  0.60924900  0.14366300  1
  Ag  Ag19  1  0.74538500  0.41246100  0.66332900  1
  Ag  Ag20  1  0.85754100  0.89321600  0.27820000  1
  Ag  Ag21  1  0.14968000  0.11243100  0.79386500  1
  Ag  Ag22  1  0.86103400  0.61736700  0.80182600  1
  Ag  Ag23  1  0.14534700  0.37964200  0.30086700  1
  S  S24  1  0.83283700  0.97501000  0.86169100  1
  S  S25  1  0.18475000  0.03362900  0.38532000  1
  S  S26  1  0.81569800  0.53556500  0.34834300  1
  S  S27  1  0.18127300  0.47740100  0.89170700  1
  S  S28  1  0.36416600  0.95954400  0.16918500  1
  S  S29  1  0.52587000  0.06416500  0.65100600  1
  S  S30  1  0.44690600  0.51216700  0.68400100  1
  S  S31  1  0.49944700  0.44615600  0.15513100  1
  S  S32  1  0.37975800  0.99219500  0.91168700  1
  S  S33  1  0.65293200  0.00775700  0.40494600  1
  S  S34  1  0.35281400  0.51108000  0.42251000  1
  S  S35  1  0.66910400  0.50411600  0.94521700  1
  S  S36  1  0.93772300  0.99539600  0.10860300  1
  S  S37  1  0.96836000  0.02524100  0.62043300  1
  S  S38  1  0.02546000  0.52335500  0.60754600  1
  S  S39  1  0.98638500  0.47225500  0.12937500  1
  S  S40  1  0.83713400  0.75545100  0.51980200  1
  S  S41  1  0.18007800  0.24003000  0.03737300  1
  S  S42  1  0.83632600  0.74129800  0.03154400  1
  S  S43  1  0.18570100  0.25293200  0.54415900  1
  S  S44  1  0.34900900  0.76468700  0.49905100  1
  S  S45  1  0.68126800  0.22967600  0.00089000  1
  S  S46  1  0.34655400  0.74026200  0.99202200  1
  S  S47  1  0.69297200  0.28411000  0.49717400  1
  S  S48  1  0.11427900  0.76009000  0.75636700  1
  S  S49  1  0.91626700  0.21632700  0.28918600  1
  S  S50  1  0.12458000  0.74822400  0.28160900  1
  S  S51  1  0.91843600  0.28132500  0.79164900  1
  S  S52  1  0.58733600  0.76597400  0.77062100  1
  S  S53  1  0.42109700  0.22755600  0.29171400  1
  S  S54  1  0.59228100  0.73648900  0.27357200  1
  S  S55  1  0.41744400  0.27550000  0.80246500  1
