# generated using pymatgen
data_CoBP(HO3)2
_symmetry_space_group_name_H-M   'P 1'
_cell_length_a   7.56508406
_cell_length_b   7.56508406
_cell_length_c   12.72471900
_cell_angle_alpha   90.00000000
_cell_angle_beta   90.00000000
_cell_angle_gamma   120.00000056
_symmetry_Int_Tables_number   1
_chemical_formula_structural   CoBP(HO3)2
_chemical_formula_sum   'Co6 B6 P6 H12 O36'
_cell_volume   630.67606098
_cell_formula_units_Z   6
loop_
 _symmetry_equiv_pos_site_id
 _symmetry_equiv_pos_as_xyz
  1  'x, y, z'
loop_
 _atom_site_type_symbol
 _atom_site_label
 _atom_site_symmetry_multiplicity
 _atom_site_fract_x
 _atom_site_fract_y
 _atom_site_fract_z
 _atom_site_occupancy
  Co  Co0  1  0.00000000  0.13153000  0.16666700  1
  Co  Co1  1  0.13153000  0.00000000  0.83333300  1
  Co  Co2  1  0.86847000  0.86847000  0.50000000  1
  Co  Co3  1  0.24282000  0.00000000  0.33333300  1
  Co  Co4  1  0.75718000  0.75718000  0.00000000  1
  Co  Co5  1  0.00000000  0.24282000  0.66666700  1
  B  B6  1  0.56355400  0.25400700  0.95755500  1
  B  B7  1  0.69045300  0.43644600  0.62422200  1
  B  B8  1  0.74599300  0.30954700  0.29088800  1
  B  B9  1  0.43644600  0.69045300  0.37577800  1
  B  B10  1  0.25400700  0.56355400  0.04244500  1
  B  B11  1  0.30954700  0.74599300  0.70911200  1
  P  P12  1  0.24860400  0.92761200  0.07126200  1
  P  P13  1  0.67900800  0.75139600  0.73792800  1
  P  P14  1  0.07238800  0.32099200  0.40459500  1
  P  P15  1  0.75139600  0.67900800  0.26207200  1
  P  P16  1  0.92761200  0.24860400  0.92873800  1
  P  P17  1  0.32099200  0.07238800  0.59540500  1
  H  H18  1  0.30083600  0.73073700  0.24392700  1
  H  H19  1  0.42990200  0.69916400  0.91059400  1
  H  H20  1  0.26926300  0.57009800  0.57726000  1
  H  H21  1  0.69916400  0.42990200  0.08940600  1
  H  H22  1  0.73073700  0.30083600  0.75607300  1
  H  H23  1  0.57009800  0.26926300  0.42274000  1
  H  H24  1  0.64336300  0.09626900  0.17070000  1
  H  H25  1  0.45290600  0.35663700  0.83736700  1
  H  H26  1  0.90373100  0.54709400  0.50403300  1
  H  H27  1  0.35663700  0.45290600  0.16263300  1
  H  H28  1  0.09626900  0.64336300  0.82930000  1
  H  H29  1  0.54709400  0.90373100  0.49596700  1
  O  O30  1  0.34239400  0.78621000  0.31548800  1
  O  O31  1  0.44381600  0.65760600  0.98215500  1
  O  O32  1  0.21379000  0.55618400  0.64882100  1
  O  O33  1  0.65760600  0.44381600  0.01784500  1
  O  O34  1  0.78621000  0.34239400  0.68451200  1
  O  O35  1  0.55618400  0.21379000  0.35117900  1
  O  O36  1  0.76159100  0.17072800  0.21663200  1
  O  O37  1  0.40913700  0.23840900  0.88329900  1
  O  O38  1  0.82927200  0.59086300  0.54996500  1
  O  O39  1  0.23840900  0.40913700  0.11670100  1
  O  O40  1  0.17072800  0.76159100  0.78336800  1
  O  O41  1  0.59086300  0.82927200  0.45003500  1
  O  O42  1  0.21571400  0.02279600  0.17078800  1
  O  O43  1  0.80708200  0.78428600  0.83745500  1
  O  O44  1  0.97720400  0.19291800  0.50412100  1
  O  O45  1  0.78428600  0.80708200  0.16254500  1
  O  O46  1  0.02279600  0.21571400  0.82921200  1
  O  O47  1  0.19291800  0.97720400  0.49587900  1
  O  O48  1  0.47009600  0.07221100  0.02793700  1
  O  O49  1  0.60211500  0.52990400  0.69460300  1
  O  O50  1  0.92778900  0.39788500  0.36127000  1
  O  O51  1  0.52990400  0.60211500  0.30539700  1
  O  O52  1  0.07221100  0.47009600  0.97206300  1
  O  O53  1  0.39788500  0.92778900  0.63873000  1
  O  O54  1  0.24352100  0.72676400  0.10774000  1
  O  O55  1  0.48324300  0.75647900  0.77440700  1
  O  O56  1  0.27323600  0.51675700  0.44107300  1
  O  O57  1  0.75647900  0.48324300  0.22559300  1
  O  O58  1  0.72676400  0.24352100  0.89226000  1
  O  O59  1  0.51675700  0.27323600  0.55892700  1
  O  O60  1  0.08666400  0.87975800  0.98691500  1
  O  O61  1  0.79309500  0.91333600  0.65358200  1
  O  O62  1  0.12024200  0.20690500  0.32024900  1
  O  O63  1  0.91333600  0.79309500  0.34641800  1
  O  O64  1  0.87975800  0.08666400  0.01308500  1
  O  O65  1  0.20690500  0.12024200  0.67975100  1
