# generated using pymatgen
data_TiCrCuS4
_symmetry_space_group_name_H-M   'P 1'
_cell_length_a   11.35567762
_cell_length_b   3.44337000
_cell_length_c   12.12204339
_cell_angle_alpha   90.00000000
_cell_angle_beta   91.19662707
_cell_angle_gamma   90.00000000
_symmetry_Int_Tables_number   1
_chemical_formula_structural   TiCrCuS4
_chemical_formula_sum   'Ti4 Cr4 Cu4 S16'
_cell_volume   473.89034096
_cell_formula_units_Z   4
loop_
 _symmetry_equiv_pos_site_id
 _symmetry_equiv_pos_as_xyz
  1  'x, y, z'
loop_
 _atom_site_type_symbol
 _atom_site_label
 _atom_site_symmetry_multiplicity
 _atom_site_fract_x
 _atom_site_fract_y
 _atom_site_fract_z
 _atom_site_occupancy
  Ti  Ti0  1  0.88736200  0.75000000  0.92536500  1
  Ti  Ti1  1  0.15560500  0.25000000  0.69428200  1
  Ti  Ti2  1  0.85029500  0.75000000  0.29519800  1
  Ti  Ti3  1  0.35123800  0.75000000  0.20532700  1
  Cr  Cr4  1  0.11135600  0.25000000  0.06774300  1
  Cr  Cr5  1  0.39060300  0.75000000  0.57204800  1
  Cr  Cr6  1  0.61613300  0.25000000  0.43392100  1
  Cr  Cr7  1  0.64717600  0.25000000  0.80147500  1
  Cu  Cu8  1  0.11498700  0.75000000  0.43266500  1
  Cu  Cu9  1  0.88211900  0.25000000  0.57029700  1
  Cu  Cu10  1  0.38772600  0.25000000  0.92786300  1
  Cu  Cu11  1  0.60901600  0.75000000  0.07116500  1
  S  S12  1  0.02625900  0.75000000  0.61803400  1
  S  S13  1  0.97146900  0.25000000  0.38442500  1
  S  S14  1  0.46638600  0.25000000  0.11582400  1
  S  S15  1  0.53150400  0.75000000  0.88678300  1
  S  S16  1  0.03253900  0.25000000  0.87646300  1
  S  S17  1  0.97203800  0.75000000  0.12217800  1
  S  S18  1  0.47320300  0.75000000  0.38535000  1
  S  S19  1  0.53095700  0.25000000  0.61897800  1
  S  S20  1  0.20866700  0.25000000  0.24766000  1
  S  S21  1  0.78286600  0.75000000  0.75149300  1
  S  S22  1  0.29316700  0.75000000  0.74933800  1
  S  S23  1  0.70788200  0.25000000  0.25005500  1
  S  S24  1  0.24555800  0.75000000  0.02163100  1
  S  S25  1  0.74946200  0.25000000  0.97878300  1
  S  S26  1  0.25140400  0.25000000  0.51696500  1
  S  S27  1  0.75302200  0.75000000  0.47869100  1
