# generated using pymatgen
data_Rb(CrS2)2
_symmetry_space_group_name_H-M   'P 1'
_cell_length_a   11.40793300
_cell_length_b   8.38441600
_cell_length_c   12.65725900
_cell_angle_alpha   90.00000000
_cell_angle_beta   90.00000000
_cell_angle_gamma   90.00000000
_symmetry_Int_Tables_number   1
_chemical_formula_structural   Rb(CrS2)2
_chemical_formula_sum   'Rb8 Cr16 S32'
_cell_volume   1210.65234309
_cell_formula_units_Z   8
loop_
 _symmetry_equiv_pos_site_id
 _symmetry_equiv_pos_as_xyz
  1  'x, y, z'
loop_
 _atom_site_type_symbol
 _atom_site_label
 _atom_site_symmetry_multiplicity
 _atom_site_fract_x
 _atom_site_fract_y
 _atom_site_fract_z
 _atom_site_occupancy
  Rb  Rb0  1  0.04640800  0.34299200  0.66025600  1
  Rb  Rb1  1  0.95359200  0.65700800  0.16025600  1
  Rb  Rb2  1  0.45359200  0.34299200  0.16025600  1
  Rb  Rb3  1  0.54640800  0.65700800  0.66025600  1
  Rb  Rb4  1  0.10242900  0.87530700  0.33594500  1
  Rb  Rb5  1  0.89757100  0.12469300  0.83594500  1
  Rb  Rb6  1  0.39757100  0.87530700  0.83594500  1
  Rb  Rb7  1  0.60242900  0.12469300  0.33594500  1
  Cr  Cr8  1  0.10855500  0.78597100  0.67421900  1
  Cr  Cr9  1  0.89144500  0.21402900  0.17421900  1
  Cr  Cr10  1  0.39144500  0.78597100  0.17421900  1
  Cr  Cr11  1  0.60855500  0.21402900  0.67421900  1
  Cr  Cr12  1  0.14184500  0.34262800  0.33230100  1
  Cr  Cr13  1  0.85815500  0.65737200  0.83230100  1
  Cr  Cr14  1  0.35815500  0.34262800  0.83230100  1
  Cr  Cr15  1  0.64184500  0.65737200  0.33230100  1
  Cr  Cr16  1  0.15139800  0.61777400  0.92762100  1
  Cr  Cr17  1  0.84860200  0.38222600  0.42762100  1
  Cr  Cr18  1  0.34860200  0.61777400  0.42762100  1
  Cr  Cr19  1  0.65139800  0.38222600  0.92762100  1
  Cr  Cr20  1  0.15646600  0.12941900  0.02013600  1
  Cr  Cr21  1  0.84353400  0.87058100  0.52013600  1
  Cr  Cr22  1  0.34353400  0.12941900  0.52013600  1
  Cr  Cr23  1  0.65646600  0.87058100  0.02013600  1
  S  S24  1  0.03509100  0.81035600  0.84671800  1
  S  S25  1  0.96490900  0.18964400  0.34671800  1
  S  S26  1  0.46490900  0.81035600  0.34671800  1
  S  S27  1  0.53509100  0.18964400  0.84671800  1
  S  S28  1  0.07980700  0.31374100  0.15616100  1
  S  S29  1  0.92019300  0.68625900  0.65616100  1
  S  S30  1  0.42019300  0.31374100  0.65616100  1
  S  S31  1  0.57980700  0.68625900  0.15616100  1
  S  S32  1  0.98540500  0.47795700  0.91820600  1
  S  S33  1  0.01459500  0.52204300  0.41820600  1
  S  S34  1  0.51459500  0.47795700  0.41820600  1
  S  S35  1  0.48540500  0.52204300  0.91820600  1
  S  S36  1  0.97800700  0.02171500  0.07280500  1
  S  S37  1  0.02199300  0.97828500  0.57280500  1
  S  S38  1  0.52199300  0.02171500  0.57280500  1
  S  S39  1  0.47800700  0.97828500  0.07280500  1
  S  S40  1  0.27913600  0.81599100  0.54623800  1
  S  S41  1  0.72086400  0.18400900  0.04623800  1
  S  S42  1  0.22086400  0.81599100  0.04623800  1
  S  S43  1  0.77913600  0.18400900  0.54623800  1
  S  S44  1  0.24829500  0.38805600  0.49404700  1
  S  S45  1  0.75170500  0.61194400  0.99404700  1
  S  S46  1  0.25170500  0.38805600  0.99404700  1
  S  S47  1  0.74829500  0.61194400  0.49404700  1
  S  S48  1  0.20789200  0.14339900  0.84205800  1
  S  S49  1  0.79210800  0.85660100  0.34205800  1
  S  S50  1  0.29210800  0.14339900  0.34205800  1
  S  S51  1  0.70789200  0.85660100  0.84205800  1
  S  S52  1  0.23557700  0.58193000  0.77029000  1
  S  S53  1  0.76442300  0.41807000  0.27029000  1
  S  S54  1  0.26442300  0.58193000  0.27029000  1
  S  S55  1  0.73557700  0.41807000  0.77029000  1
