# generated using pymatgen
data_BaMn2O8
_symmetry_space_group_name_H-M   'P 1'
_cell_length_a   10.88379697
_cell_length_b   8.45581672
_cell_length_c   7.91485619
_cell_angle_alpha   83.26896617
_cell_angle_beta   50.49443950
_cell_angle_gamma   46.23659434
_symmetry_Int_Tables_number   1
_chemical_formula_structural   BaMn2O8
_chemical_formula_sum   'Ba2 Mn4 O16'
_cell_volume   330.84376283
_cell_formula_units_Z   2
loop_
 _symmetry_equiv_pos_site_id
 _symmetry_equiv_pos_as_xyz
  1  'x, y, z'
loop_
 _atom_site_type_symbol
 _atom_site_label
 _atom_site_symmetry_multiplicity
 _atom_site_fract_x
 _atom_site_fract_y
 _atom_site_fract_z
 _atom_site_occupancy
  Ba  Ba0  1  0.50000000  0.50000000  0.50000000  1
  Ba  Ba1  1  0.75000000  0.75000000  0.75000000  1
  Mn  Mn2  1  0.24706500  0.75293500  0.24706500  1
  Mn  Mn3  1  0.00293500  0.49706500  0.00293500  1
  Mn  Mn4  1  0.75293500  0.24706500  0.75293500  1
  Mn  Mn5  1  0.49706500  0.00293500  0.49706500  1
  O  O6  1  0.04533600  0.68388700  0.95293300  1
  O  O7  1  0.95293300  0.31784500  0.04533600  1
  O  O8  1  0.20466400  0.56611300  0.29706700  1
  O  O9  1  0.29706700  0.93215500  0.20466400  1
  O  O10  1  0.68388700  0.04533600  0.31784500  1
  O  O11  1  0.31784500  0.95293300  0.68388700  1
  O  O12  1  0.56611300  0.20466400  0.93215500  1
  O  O13  1  0.93215500  0.29706700  0.56611300  1
  O  O14  1  0.07734100  0.89606900  0.59322400  1
  O  O15  1  0.59322400  0.43336500  0.07734100  1
  O  O16  1  0.17265900  0.35393100  0.65677600  1
  O  O17  1  0.65677600  0.81663500  0.17265900  1
  O  O18  1  0.89606900  0.07734100  0.43336500  1
  O  O19  1  0.43336500  0.59322400  0.89606900  1
  O  O20  1  0.35393100  0.17265900  0.81663500  1
  O  O21  1  0.81663500  0.65677600  0.35393100  1
