# generated using pymatgen
data_TiCrAgS4
_symmetry_space_group_name_H-M   'P 1'
_cell_length_a   7.19016900
_cell_length_b   7.30795500
_cell_length_c   10.64541200
_cell_angle_alpha   90.00000000
_cell_angle_beta   90.00000000
_cell_angle_gamma   90.00000000
_symmetry_Int_Tables_number   1
_chemical_formula_structural   TiCrAgS4
_chemical_formula_sum   'Ti4 Cr4 Ag4 S16'
_cell_volume   559.36776698
_cell_formula_units_Z   4
loop_
 _symmetry_equiv_pos_site_id
 _symmetry_equiv_pos_as_xyz
  1  'x, y, z'
loop_
 _atom_site_type_symbol
 _atom_site_label
 _atom_site_symmetry_multiplicity
 _atom_site_fract_x
 _atom_site_fract_y
 _atom_site_fract_z
 _atom_site_occupancy
  Ti  Ti0  1  0.75000000  0.00404200  0.24620000  1
  Ti  Ti1  1  0.25000000  0.99595800  0.75380000  1
  Ti  Ti2  1  0.25000000  0.49595800  0.74620000  1
  Ti  Ti3  1  0.75000000  0.50404200  0.25380000  1
  Cr  Cr4  1  0.25000000  0.25057300  0.10996100  1
  Cr  Cr5  1  0.75000000  0.74942700  0.89003900  1
  Cr  Cr6  1  0.75000000  0.24942700  0.60996100  1
  Cr  Cr7  1  0.25000000  0.75057300  0.39003900  1
  Ag  Ag8  1  0.25000000  0.24095900  0.38724000  1
  Ag  Ag9  1  0.75000000  0.75904100  0.61276000  1
  Ag  Ag10  1  0.75000000  0.25904100  0.88724000  1
  Ag  Ag11  1  0.25000000  0.74095900  0.11276000  1
  S  S12  1  0.01635900  0.24742200  0.72847800  1
  S  S13  1  0.98364100  0.75257800  0.27152200  1
  S  S14  1  0.98364100  0.25257800  0.22847800  1
  S  S15  1  0.01635900  0.74742200  0.77152200  1
  S  S16  1  0.48364100  0.74742200  0.77152200  1
  S  S17  1  0.51635900  0.25257800  0.22847800  1
  S  S18  1  0.51635900  0.75257800  0.27152200  1
  S  S19  1  0.48364100  0.24742200  0.72847800  1
  S  S20  1  0.25000000  0.52213100  0.52164800  1
  S  S21  1  0.75000000  0.47786900  0.47835200  1
  S  S22  1  0.75000000  0.97786900  0.02164800  1
  S  S23  1  0.25000000  0.02213100  0.97835200  1
  S  S24  1  0.75000000  0.02984300  0.47303300  1
  S  S25  1  0.25000000  0.97015700  0.52696700  1
  S  S26  1  0.25000000  0.47015700  0.97303300  1
  S  S27  1  0.75000000  0.52984300  0.02696700  1
