# generated using pymatgen
data_Ti13Pt42
_symmetry_space_group_name_H-M   'P 1'
_cell_length_a   10.86818700
_cell_length_b   11.79014494
_cell_length_c   11.98574792
_cell_angle_alpha   90.74861675
_cell_angle_beta   90.14351031
_cell_angle_gamma   94.77182328
_symmetry_Int_Tables_number   1
_chemical_formula_structural   Ti13Pt42
_chemical_formula_sum   'Ti13 Pt42'
_cell_volume   1530.35985927
_cell_formula_units_Z   1
loop_
 _symmetry_equiv_pos_site_id
 _symmetry_equiv_pos_as_xyz
  1  'x, y, z'
loop_
 _atom_site_type_symbol
 _atom_site_label
 _atom_site_symmetry_multiplicity
 _atom_site_fract_x
 _atom_site_fract_y
 _atom_site_fract_z
 _atom_site_occupancy
  Ti  Ti0  1  0.60291700  0.65163700  0.33302400  1
  Ti  Ti1  1  0.71677000  0.42896800  0.38755900  1
  Ti  Ti2  1  0.46631100  0.43137500  0.27334000  1
  Ti  Ti3  1  0.50432400  0.25518600  0.45624800  1
  Ti  Ti4  1  0.66723300  0.37547900  0.62795300  1
  Ti  Ti5  1  0.39708300  0.34836300  0.66697600  1
  Ti  Ti6  1  0.53368900  0.56862500  0.72666000  1
  Ti  Ti7  1  0.28323000  0.57103200  0.61244100  1
  Ti  Ti8  1  0.33276700  0.62452100  0.37204700  1
  Ti  Ti9  1  0.26870400  0.38580000  0.44468000  1
  Ti  Ti10  1  0.50000000  0.50000000  0.50000000  1
  Ti  Ti11  1  0.73129600  0.61420000  0.55532000  1
  Ti  Ti12  1  0.49567600  0.74481400  0.54375200  1
  Pt  Pt13  1  0.60927800  0.86611700  0.39178800  1
  Pt  Pt14  1  0.51951200  0.95605500  0.60488500  1
  Pt  Pt15  1  0.33860500  0.84342600  0.42767200  1
  Pt  Pt16  1  0.71683500  0.82773800  0.59649600  1
  Pt  Pt17  1  0.68508300  0.77784400  0.18584100  1
  Pt  Pt18  1  0.30157400  0.78587200  0.64881400  1
  Pt  Pt19  1  0.52706000  0.78700400  0.75558000  1
  Pt  Pt20  1  0.43879100  0.76170500  0.22841800  1
  Pt  Pt21  1  0.81163100  0.75205700  0.39684500  1
  Pt  Pt22  1  0.18543200  0.72492100  0.26432600  1
  Pt  Pt23  1  0.93147600  0.71940000  0.60491600  1
  Pt  Pt24  1  0.14271300  0.69339100  0.48550600  1
  Pt  Pt25  1  0.74430900  0.67545300  0.76508400  1
  Pt  Pt26  1  0.10131200  0.62336500  0.72022300  1
  Pt  Pt27  1  0.33360400  0.63066900  0.81751100  1
  Pt  Pt28  1  0.56535300  0.64010800  0.92472800  1
  Pt  Pt29  1  0.57192500  0.56948100  0.12863900  1
  Pt  Pt30  1  0.79525700  0.57777700  0.23559600  1
  Pt  Pt31  1  0.31846300  0.55176100  0.16709600  1
  Pt  Pt32  1  0.91977800  0.55596100  0.43385000  1
  Pt  Pt33  1  0.12711500  0.50226600  0.31315300  1
  Pt  Pt34  1  0.87288500  0.49773400  0.68684700  1
  Pt  Pt35  1  0.08022200  0.44403900  0.56615000  1
  Pt  Pt36  1  0.68153700  0.44823900  0.83290400  1
  Pt  Pt37  1  0.20474300  0.42222300  0.76440400  1
  Pt  Pt38  1  0.42807500  0.43051900  0.87136100  1
  Pt  Pt39  1  0.43464700  0.35989200  0.07527200  1
  Pt  Pt40  1  0.66639600  0.36933100  0.18248900  1
  Pt  Pt41  1  0.89868800  0.37663500  0.27977700  1
  Pt  Pt42  1  0.25569100  0.32454700  0.23491600  1
  Pt  Pt43  1  0.85728700  0.30660900  0.51449400  1
  Pt  Pt44  1  0.06852400  0.28060000  0.39508400  1
  Pt  Pt45  1  0.81456800  0.27507900  0.73567400  1
  Pt  Pt46  1  0.18836900  0.24794300  0.60315500  1
  Pt  Pt47  1  0.31491700  0.22215600  0.81415900  1
  Pt  Pt48  1  0.69842600  0.21412800  0.35118600  1
  Pt  Pt49  1  0.56120900  0.23829500  0.77158200  1
  Pt  Pt50  1  0.47294000  0.21299600  0.24442000  1
  Pt  Pt51  1  0.28316500  0.17226200  0.40350400  1
  Pt  Pt52  1  0.66139500  0.15657400  0.57232800  1
  Pt  Pt53  1  0.48048800  0.04394500  0.39511500  1
  Pt  Pt54  1  0.39072200  0.13388300  0.60821200  1
