# generated using pymatgen
data_MnH12C2NCl3O2
_symmetry_space_group_name_H-M   'P 1'
_cell_length_a   11.99600174
_cell_length_b   11.99600174
_cell_length_c   11.38038200
_cell_angle_alpha   90.00000000
_cell_angle_beta   90.00000000
_cell_angle_gamma   114.72602424
_symmetry_Int_Tables_number   1
_chemical_formula_structural   MnH12C2NCl3O2
_chemical_formula_sum   'Mn4 H48 C8 N4 Cl12 O8'
_cell_volume   1487.53754953
_cell_formula_units_Z   4
loop_
 _symmetry_equiv_pos_site_id
 _symmetry_equiv_pos_as_xyz
  1  'x, y, z'
loop_
 _atom_site_type_symbol
 _atom_site_label
 _atom_site_symmetry_multiplicity
 _atom_site_fract_x
 _atom_site_fract_y
 _atom_site_fract_z
 _atom_site_occupancy
  Mn  Mn0  1  0.39859300  0.39859300  0.58454300  1
  Mn  Mn1  1  0.60140700  0.60140700  0.41545700  1
  Mn  Mn2  1  0.10140700  0.10140700  0.08454300  1
  Mn  Mn3  1  0.89859300  0.89859300  0.91545700  1
  H  H4  1  0.83046300  0.79348600  0.64198700  1
  H  H5  1  0.20651400  0.16953700  0.35801300  1
  H  H6  1  0.70651400  0.66953700  0.14198700  1
  H  H7  1  0.33046300  0.29348600  0.85801300  1
  H  H8  1  0.16953700  0.20651400  0.35801300  1
  H  H9  1  0.79348600  0.83046300  0.64198700  1
  H  H10  1  0.29348600  0.33046300  0.85801300  1
  H  H11  1  0.66953700  0.70651400  0.14198700  1
  H  H12  1  0.51150700  0.25192500  0.01001100  1
  H  H13  1  0.74807500  0.48849300  0.98998900  1
  H  H14  1  0.24807500  0.98849300  0.51001100  1
  H  H15  1  0.01150700  0.75192500  0.48998900  1
  H  H16  1  0.48849300  0.74807500  0.98998900  1
  H  H17  1  0.25192500  0.51150700  0.01001100  1
  H  H18  1  0.75192500  0.01150700  0.48998900  1
  H  H19  1  0.98849300  0.24807500  0.51001100  1
  H  H20  1  0.59687700  0.33173600  0.56277700  1
  H  H21  1  0.66826400  0.40312300  0.43722300  1
  H  H22  1  0.16826400  0.90312300  0.06277700  1
  H  H23  1  0.09687700  0.83173600  0.93722300  1
  H  H24  1  0.40312300  0.66826400  0.43722300  1
  H  H25  1  0.33173600  0.59687700  0.56277700  1
  H  H26  1  0.83173600  0.09687700  0.93722300  1
  H  H27  1  0.90312300  0.16826400  0.06277700  1
  H  H28  1  0.31310000  0.97035400  0.90783900  1
  H  H29  1  0.02964600  0.68690000  0.09216100  1
  H  H30  1  0.52964600  0.18690000  0.40783900  1
  H  H31  1  0.81310000  0.47035400  0.59216100  1
  H  H32  1  0.68690000  0.02964600  0.09216100  1
  H  H33  1  0.97035400  0.31310000  0.90783900  1
  H  H34  1  0.47035400  0.81310000  0.59216100  1
  H  H35  1  0.18690000  0.52964600  0.40783900  1
  H  H36  1  0.28988600  0.81456500  0.87910900  1
  H  H37  1  0.18543500  0.71011400  0.12089100  1
  H  H38  1  0.68543500  0.21011400  0.37910900  1
  H  H39  1  0.78988600  0.31456500  0.62089100  1
  H  H40  1  0.71011400  0.18543500  0.12089100  1
  H  H41  1  0.81456500  0.28988600  0.87911000  1
  H  H42  1  0.31456500  0.78988600  0.62089100  1
  H  H43  1  0.21011400  0.68543500  0.37911000  1
  H  H44  1  0.61404200  0.14501200  0.51561300  1
  H  H45  1  0.85498800  0.38595800  0.48438700  1
  H  H46  1  0.35498800  0.88595800  0.01561300  1
  H  H47  1  0.11404200  0.64501200  0.98438700  1
  H  H48  1  0.38595800  0.85498800  0.48438700  1
  H  H49  1  0.14501200  0.61404200  0.51561300  1
  H  H50  1  0.64501200  0.11404200  0.98438700  1
  H  H51  1  0.88595800  0.35498800  0.01561300  1
  C  C52  1  0.28861800  0.87955100  0.94628900  1
  C  C53  1  0.12044900  0.71138200  0.05371100  1
  C  C54  1  0.62044900  0.21138200  0.44628900  1
  C  C55  1  0.78861800  0.37955100  0.55371100  1
  C  C56  1  0.71138200  0.12044900  0.05371100  1
  C  C57  1  0.87955100  0.28861800  0.94628900  1
  C  C58  1  0.37955100  0.78861800  0.55371100  1
  C  C59  1  0.21138200  0.62044900  0.44628900  1
  N  N60  1  0.66438200  0.33561800  0.50000000  1
  N  N61  1  0.16438200  0.83561800  0.00000000  1
  N  N62  1  0.33561800  0.66438200  0.50000000  1
  N  N63  1  0.83561800  0.16438200  0.00000000  1
  Cl  Cl64  1  0.08621100  0.08621100  0.88072500  1
  Cl  Cl65  1  0.91378900  0.91378900  0.11927500  1
  Cl  Cl66  1  0.41378900  0.41378900  0.38072500  1
  Cl  Cl67  1  0.58621100  0.58621100  0.61927500  1
  Cl  Cl68  1  0.52091000  0.24933100  0.89731300  1
  Cl  Cl69  1  0.75066900  0.47909000  0.10268700  1
  Cl  Cl70  1  0.25066900  0.97909000  0.39731300  1
  Cl  Cl71  1  0.02091000  0.74933100  0.60268700  1
  Cl  Cl72  1  0.47909000  0.75066900  0.10268700  1
  Cl  Cl73  1  0.24933100  0.52091000  0.89731300  1
  Cl  Cl74  1  0.74933100  0.02091000  0.60268700  1
  Cl  Cl75  1  0.97909000  0.25066900  0.39731300  1
  O  O76  1  0.20419600  0.04769400  0.13195000  1
  O  O77  1  0.95230600  0.79580400  0.86805000  1
  O  O78  1  0.45230600  0.29580400  0.63195000  1
  O  O79  1  0.70419600  0.54769400  0.36805000  1
  O  O80  1  0.79580400  0.95230600  0.86805000  1
  O  O81  1  0.04769400  0.20419600  0.13195000  1
  O  O82  1  0.54769400  0.70419600  0.36805000  1
  O  O83  1  0.29580400  0.45230600  0.63195000  1
