# generated using pymatgen
data_NbCr3(AgS4)2
_symmetry_space_group_name_H-M   'P 1'
_cell_length_a   7.30506000
_cell_length_b   7.33130500
_cell_length_c   10.21118500
_cell_angle_alpha   90.00000000
_cell_angle_beta   90.00000000
_cell_angle_gamma   90.00000000
_symmetry_Int_Tables_number   1
_chemical_formula_structural   NbCr3(AgS4)2
_chemical_formula_sum   'Nb2 Cr6 Ag4 S16'
_cell_volume   546.86637326
_cell_formula_units_Z   2
loop_
 _symmetry_equiv_pos_site_id
 _symmetry_equiv_pos_as_xyz
  1  'x, y, z'
loop_
 _atom_site_type_symbol
 _atom_site_label
 _atom_site_symmetry_multiplicity
 _atom_site_fract_x
 _atom_site_fract_y
 _atom_site_fract_z
 _atom_site_occupancy
  Nb  Nb0  1  0.50000000  0.70373400  0.25000000  1
  Nb  Nb1  1  0.50000000  0.29626600  0.75000000  1
  Cr  Cr2  1  0.00000000  0.74353100  0.25000000  1
  Cr  Cr3  1  0.73668500  0.50000000  0.50000000  1
  Cr  Cr4  1  0.26331500  0.50000000  0.00000000  1
  Cr  Cr5  1  0.74557800  0.00000000  0.50000000  1
  Cr  Cr6  1  0.00000000  0.25646900  0.75000000  1
  Cr  Cr7  1  0.25442200  0.00000000  0.00000000  1
  Ag  Ag8  1  0.76891100  0.77812000  0.88377500  1
  Ag  Ag9  1  0.23108900  0.22188000  0.38377500  1
  Ag  Ag10  1  0.76891100  0.22188000  0.11622500  1
  Ag  Ag11  1  0.23108900  0.77812000  0.61622500  1
  S  S12  1  0.95478200  0.74494500  0.48350700  1
  S  S13  1  0.76034900  0.50298100  0.26144500  1
  S  S14  1  0.52084600  0.75282600  0.48854800  1
  S  S15  1  0.23965100  0.49701900  0.76144500  1
  S  S16  1  0.52084600  0.24717400  0.51145200  1
  S  S17  1  0.75029200  0.04237200  0.73674900  1
  S  S18  1  0.95478200  0.25505500  0.51649300  1
  S  S19  1  0.76034900  0.49701900  0.73855500  1
  S  S20  1  0.47915400  0.24717400  0.98854800  1
  S  S21  1  0.24970800  0.04237200  0.76325100  1
  S  S22  1  0.04521800  0.25505500  0.98350700  1
  S  S23  1  0.75029200  0.95762800  0.26325100  1
  S  S24  1  0.04521800  0.74494500  0.01649300  1
  S  S25  1  0.23965100  0.50298100  0.23855500  1
  S  S26  1  0.47915400  0.75282600  0.01145200  1
  S  S27  1  0.24970800  0.95762800  0.23674900  1
