# generated using pymatgen
data_MgNiO2
_symmetry_space_group_name_H-M   'P 1'
_cell_length_a   2.98253623
_cell_length_b   8.01252492
_cell_length_c   8.32541079
_cell_angle_alpha   89.12751863
_cell_angle_beta   78.58839283
_cell_angle_gamma   90.22291771
_symmetry_Int_Tables_number   1
_chemical_formula_structural   MgNiO2
_chemical_formula_sum   'Mg4 Ni4 O8'
_cell_volume   194.99709775
_cell_formula_units_Z   4
loop_
 _symmetry_equiv_pos_site_id
 _symmetry_equiv_pos_as_xyz
  1  'x, y, z'
loop_
 _atom_site_type_symbol
 _atom_site_label
 _atom_site_symmetry_multiplicity
 _atom_site_fract_x
 _atom_site_fract_y
 _atom_site_fract_z
 _atom_site_occupancy
  Mg  Mg0  1  0.38068200  0.07232000  0.27866600  1
  Mg  Mg1  1  0.61731500  0.90762800  0.74968300  1
  Mg  Mg2  1  0.14588500  0.72234200  0.13412400  1
  Mg  Mg3  1  0.85006400  0.25746200  0.89408400  1
  Ni  Ni4  1  0.46168200  0.24326500  0.59152900  1
  Ni  Ni5  1  0.08220300  0.39105100  0.23144100  1
  Ni  Ni6  1  0.91282500  0.58879000  0.79677000  1
  Ni  Ni7  1  0.53373000  0.73703200  0.43661900  1
  O  O8  1  0.96199800  0.73799000  0.59358000  1
  O  O9  1  0.40987000  0.39577300  0.78697900  1
  O  O10  1  0.58585200  0.58417900  0.24130200  1
  O  O11  1  0.03321900  0.24156400  0.43451100  1
  O  O12  1  0.11532600  0.07034200  0.75774500  1
  O  O13  1  0.63777200  0.25524000  0.12662900  1
  O  O14  1  0.88276800  0.90958000  0.27051100  1
  O  O15  1  0.35708200  0.72478100  0.90144400  1
