# generated using pymatgen
data_TaCr3(CuS4)2
_symmetry_space_group_name_H-M   'P 1'
_cell_length_a   6.98787911
_cell_length_b   5.94765247
_cell_length_c   5.86669065
_cell_angle_alpha   93.30053904
_cell_angle_beta   89.99851063
_cell_angle_gamma   90.00039861
_symmetry_Int_Tables_number   1
_chemical_formula_structural   TaCr3(CuS4)2
_chemical_formula_sum   'Ta1 Cr3 Cu2 S8'
_cell_volume   243.42388091
_cell_formula_units_Z   1
loop_
 _symmetry_equiv_pos_site_id
 _symmetry_equiv_pos_as_xyz
  1  'x, y, z'
loop_
 _atom_site_type_symbol
 _atom_site_label
 _atom_site_symmetry_multiplicity
 _atom_site_fract_x
 _atom_site_fract_y
 _atom_site_fract_z
 _atom_site_occupancy
  Ta  Ta0  1  0.50000000  0.00000000  0.50000000  1
  Cr  Cr1  1  0.24850200  0.49998900  0.50000200  1
  Cr  Cr2  1  0.75149800  0.50001100  0.49999800  1
  Cr  Cr3  1  0.00000000  0.00000000  0.50000000  1
  Cu  Cu4  1  0.00000000  0.00000000  0.00000000  1
  Cu  Cu5  1  0.50000000  0.00000000  0.00000000  1
  S  S6  1  0.00000200  0.32183400  0.28022300  1
  S  S7  1  0.50001100  0.32756300  0.26315800  1
  S  S8  1  0.24570900  0.82009200  0.25669700  1
  S  S9  1  0.75429900  0.82008100  0.25671500  1
  S  S10  1  0.24570100  0.17991900  0.74328500  1
  S  S11  1  0.75429100  0.17990800  0.74330300  1
  S  S12  1  0.49998900  0.67243700  0.73684200  1
  S  S13  1  0.99999800  0.67816600  0.71977700  1
