# generated using pymatgen
data_ZrCrCuS4
_symmetry_space_group_name_H-M   'P 1'
_cell_length_a   11.53653300
_cell_length_b   3.55798100
_cell_length_c   12.65377700
_cell_angle_alpha   90.00000000
_cell_angle_beta   90.00000000
_cell_angle_gamma   90.00000000
_symmetry_Int_Tables_number   1
_chemical_formula_structural   ZrCrCuS4
_chemical_formula_sum   'Zr4 Cr4 Cu4 S16'
_cell_volume   519.39661366
_cell_formula_units_Z   4
loop_
 _symmetry_equiv_pos_site_id
 _symmetry_equiv_pos_as_xyz
  1  'x, y, z'
loop_
 _atom_site_type_symbol
 _atom_site_label
 _atom_site_symmetry_multiplicity
 _atom_site_fract_x
 _atom_site_fract_y
 _atom_site_fract_z
 _atom_site_occupancy
  Zr  Zr0  1  0.14947800  0.25000000  0.67465200  1
  Zr  Zr1  1  0.85052200  0.75000000  0.32534800  1
  Zr  Zr2  1  0.35052200  0.75000000  0.17465200  1
  Zr  Zr3  1  0.64947800  0.25000000  0.82534800  1
  Cr  Cr4  1  0.11016500  0.25000000  0.06486600  1
  Cr  Cr5  1  0.88983500  0.75000000  0.93513400  1
  Cr  Cr6  1  0.38983500  0.75000000  0.56486600  1
  Cr  Cr7  1  0.61016500  0.25000000  0.43513400  1
  Cu  Cu8  1  0.10937700  0.75000000  0.48598200  1
  Cu  Cu9  1  0.89062300  0.25000000  0.51401800  1
  Cu  Cu10  1  0.39062300  0.25000000  0.98598200  1
  Cu  Cu11  1  0.60937700  0.75000000  0.01401800  1
  S  S12  1  0.99405000  0.75000000  0.63090600  1
  S  S13  1  0.00595000  0.25000000  0.36909400  1
  S  S14  1  0.50595000  0.25000000  0.13090600  1
  S  S15  1  0.49405000  0.75000000  0.86909400  1
  S  S16  1  0.02059300  0.25000000  0.88914700  1
  S  S17  1  0.97940700  0.75000000  0.11085300  1
  S  S18  1  0.47940700  0.75000000  0.38914700  1
  S  S19  1  0.52059300  0.25000000  0.61085300  1
  S  S20  1  0.21513500  0.25000000  0.23573500  1
  S  S21  1  0.78486500  0.75000000  0.76426500  1
  S  S22  1  0.28486500  0.75000000  0.73573500  1
  S  S23  1  0.71513500  0.25000000  0.26426500  1
  S  S24  1  0.24297200  0.75000000  0.00185800  1
  S  S25  1  0.75702800  0.25000000  0.99814200  1
  S  S26  1  0.25702800  0.25000000  0.50185800  1
  S  S27  1  0.74297200  0.75000000  0.49814200  1
