# generated using pymatgen
data_CaV2O5
_symmetry_space_group_name_H-M   'P 1'
_cell_length_a   3.81784000
_cell_length_b   5.89916050
_cell_length_c   11.32365800
_cell_angle_alpha   90.00000000
_cell_angle_beta   90.00000000
_cell_angle_gamma   108.88027153
_symmetry_Int_Tables_number   1
_chemical_formula_structural   CaV2O5
_chemical_formula_sum   'Ca2 V4 O10'
_cell_volume   241.31047347
_cell_formula_units_Z   2
loop_
 _symmetry_equiv_pos_site_id
 _symmetry_equiv_pos_as_xyz
  1  'x, y, z'
loop_
 _atom_site_type_symbol
 _atom_site_label
 _atom_site_symmetry_multiplicity
 _atom_site_fract_x
 _atom_site_fract_y
 _atom_site_fract_z
 _atom_site_occupancy
  Ca  Ca0  1  0.89660600  0.79321100  0.75000000  1
  Ca  Ca1  1  0.10339500  0.20679000  0.25000000  1
  V  V2  1  0.20249200  0.40498600  0.59610500  1
  V  V3  1  0.79750900  0.59501500  0.40389400  1
  V  V4  1  0.79750900  0.59501500  0.09610600  1
  V  V5  1  0.20249200  0.40498600  0.90389500  1
  O  O6  1  0.71162700  0.42325400  0.25000000  1
  O  O7  1  0.28837400  0.57674700  0.75000000  1
  O  O8  1  0.24072000  0.48143800  0.07516700  1
  O  O9  1  0.75928200  0.51856300  0.92483300  1
  O  O10  1  0.75928200  0.51856300  0.57516700  1
  O  O11  1  0.24072000  0.48143800  0.42483200  1
  O  O12  1  0.05557100  0.11114100  0.61964300  1
  O  O13  1  0.94442900  0.88885800  0.38035700  1
  O  O14  1  0.05557100  0.11114100  0.88035700  1
  O  O15  1  0.94442900  0.88885800  0.11964400  1
