# generated using pymatgen
data_TaCr3(AgS4)2
_symmetry_space_group_name_H-M   'P 1'
_cell_length_a   11.57910077
_cell_length_b   7.28299434
_cell_length_c   12.27603400
_cell_angle_alpha   90.00000000
_cell_angle_beta   90.00000000
_cell_angle_gamma   87.82798587
_symmetry_Int_Tables_number   1
_chemical_formula_structural   TaCr3(AgS4)2
_chemical_formula_sum   'Ta4 Cr12 Ag8 S32'
_cell_volume   1034.50062361
_cell_formula_units_Z   4
loop_
 _symmetry_equiv_pos_site_id
 _symmetry_equiv_pos_as_xyz
  1  'x, y, z'
loop_
 _atom_site_type_symbol
 _atom_site_label
 _atom_site_symmetry_multiplicity
 _atom_site_fract_x
 _atom_site_fract_y
 _atom_site_fract_z
 _atom_site_occupancy
  Ta  Ta0  1  0.09850800  0.91096400  0.68751100  1
  Ta  Ta1  1  0.90149200  0.08903600  0.18751100  1
  Ta  Ta2  1  0.38554500  0.39368300  0.83150200  1
  Ta  Ta3  1  0.61445500  0.60631700  0.33150200  1
  Cr  Cr4  1  0.38039800  0.86595300  0.19584400  1
  Cr  Cr5  1  0.61960200  0.13404700  0.69584400  1
  Cr  Cr6  1  0.12756600  0.36559200  0.32716300  1
  Cr  Cr7  1  0.87243400  0.63440800  0.82716300  1
  Cr  Cr8  1  0.16361500  0.62503000  0.93974200  1
  Cr  Cr9  1  0.83638500  0.37497000  0.43974200  1
  Cr  Cr10  1  0.34043800  0.62213900  0.44571100  1
  Cr  Cr11  1  0.65956200  0.37786100  0.94571100  1
  Cr  Cr12  1  0.13571100  0.14395800  0.99120200  1
  Cr  Cr13  1  0.86428900  0.85604200  0.49120200  1
  Cr  Cr14  1  0.35870100  0.11381500  0.49546500  1
  Cr  Cr15  1  0.64129900  0.88618500  0.99546500  1
  Ag  Ag16  1  0.10253400  0.37435100  0.66934000  1
  Ag  Ag17  1  0.89746600  0.62564900  0.16934000  1
  Ag  Ag18  1  0.40721400  0.36137900  0.17356800  1
  Ag  Ag19  1  0.59278600  0.63862100  0.67356800  1
  Ag  Ag20  1  0.11795500  0.87662300  0.32498600  1
  Ag  Ag21  1  0.88204500  0.12337700  0.82498600  1
  Ag  Ag22  1  0.38229900  0.88029100  0.82115400  1
  Ag  Ag23  1  0.61770100  0.11970900  0.32115400  1
  S  S24  1  0.02071000  0.84206600  0.87676600  1
  S  S25  1  0.97929000  0.15793400  0.37676600  1
  S  S26  1  0.46868100  0.85259700  0.37891700  1
  S  S27  1  0.53131900  0.14740300  0.87891700  1
  S  S28  1  0.04067400  0.32547900  0.14611700  1
  S  S29  1  0.95932600  0.67452100  0.64611700  1
  S  S30  1  0.45986200  0.34194100  0.64857900  1
  S  S31  1  0.54013800  0.65805900  0.14857900  1
  S  S32  1  0.02409200  0.41022500  0.88282200  1
  S  S33  1  0.97590800  0.58977500  0.38282200  1
  S  S34  1  0.48382500  0.40184000  0.39841800  1
  S  S35  1  0.51617500  0.59816000  0.89841800  1
  S  S36  1  0.03430900  0.88067600  0.12286000  1
  S  S37  1  0.96569100  0.11932400  0.62286000  1
  S  S38  1  0.47804100  0.93788900  0.63228500  1
  S  S39  1  0.52195900  0.06211100  0.13228500  1
  S  S40  1  0.22323600  0.87058300  0.53299800  1
  S  S41  1  0.77676400  0.12941700  0.03299800  1
  S  S42  1  0.27535800  0.87597300  0.02194000  1
  S  S43  1  0.72464200  0.12402700  0.52194000  1
  S  S44  1  0.22616300  0.37576800  0.49902100  1
  S  S45  1  0.77383700  0.62423200  0.99902100  1
  S  S46  1  0.27797800  0.36847000  0.00319100  1
  S  S47  1  0.72202200  0.63153000  0.50319100  1
  S  S48  1  0.21343700  0.11416300  0.80247600  1
  S  S49  1  0.78656300  0.88583700  0.30247600  1
  S  S50  1  0.28107900  0.12776600  0.30399000  1
  S  S51  1  0.71892100  0.87223400  0.80399000  1
  S  S52  1  0.24224200  0.61277000  0.76621600  1
  S  S53  1  0.75775800  0.38723000  0.26621600  1
  S  S54  1  0.26225900  0.61384000  0.27422000  1
  S  S55  1  0.73774200  0.38616000  0.77422000  1
