# generated using pymatgen
data_NbCr3(AgS4)2
_symmetry_space_group_name_H-M   'P 1'
_cell_length_a   11.91181734
_cell_length_b   3.46317000
_cell_length_c   12.26382606
_cell_angle_alpha   90.00000000
_cell_angle_beta   91.44076378
_cell_angle_gamma   90.00000000
_symmetry_Int_Tables_number   1
_chemical_formula_structural   NbCr3(AgS4)2
_chemical_formula_sum   'Nb2 Cr6 Ag4 S16'
_cell_volume   505.75536250
_cell_formula_units_Z   2
loop_
 _symmetry_equiv_pos_site_id
 _symmetry_equiv_pos_as_xyz
  1  'x, y, z'
loop_
 _atom_site_type_symbol
 _atom_site_label
 _atom_site_symmetry_multiplicity
 _atom_site_fract_x
 _atom_site_fract_y
 _atom_site_fract_z
 _atom_site_occupancy
  Nb  Nb0  1  0.14886700  0.25000000  0.71983100  1
  Nb  Nb1  1  0.85113300  0.75000000  0.28016900  1
  Cr  Cr2  1  0.11195500  0.25000000  0.08057300  1
  Cr  Cr3  1  0.88804500  0.75000000  0.91942700  1
  Cr  Cr4  1  0.39928300  0.75000000  0.57206700  1
  Cr  Cr5  1  0.60071700  0.25000000  0.42793300  1
  Cr  Cr6  1  0.34953900  0.75000000  0.20988900  1
  Cr  Cr7  1  0.65046100  0.25000000  0.79011100  1
  Ag  Ag8  1  0.14617600  0.75000000  0.40376800  1
  Ag  Ag9  1  0.85382400  0.25000000  0.59623200  1
  Ag  Ag10  1  0.37457900  0.25000000  0.92205400  1
  Ag  Ag11  1  0.62542100  0.75000000  0.07794600  1
  S  S12  1  0.04787300  0.75000000  0.61508700  1
  S  S13  1  0.95212700  0.25000000  0.38491300  1
  S  S14  1  0.45164700  0.25000000  0.12725000  1
  S  S15  1  0.54835300  0.75000000  0.87275000  1
  S  S16  1  0.03005000  0.25000000  0.88324100  1
  S  S17  1  0.96995000  0.75000000  0.11675900  1
  S  S18  1  0.46597200  0.75000000  0.38517600  1
  S  S19  1  0.53402800  0.25000000  0.61482400  1
  S  S20  1  0.21188400  0.25000000  0.24997700  1
  S  S21  1  0.78811600  0.75000000  0.75002300  1
  S  S22  1  0.29780700  0.75000000  0.74997400  1
  S  S23  1  0.70219300  0.25000000  0.25002600  1
  S  S24  1  0.23759000  0.75000000  0.04161800  1
  S  S25  1  0.76241000  0.25000000  0.95838200  1
  S  S26  1  0.26480900  0.25000000  0.53655200  1
  S  S27  1  0.73519100  0.75000000  0.46344800  1
