# generated using pymatgen
data_CaBiMoO5
_symmetry_space_group_name_H-M   'P 1'
_cell_length_a   5.82307032
_cell_length_b   8.69017506
_cell_length_c   12.05799800
_cell_angle_alpha   90.00000000
_cell_angle_beta   90.00000000
_cell_angle_gamma   108.55928912
_symmetry_Int_Tables_number   1
_chemical_formula_structural   CaBiMoO5
_chemical_formula_sum   'Ca4 Bi4 Mo4 O20'
_cell_volume   578.44453744
_cell_formula_units_Z   4
loop_
 _symmetry_equiv_pos_site_id
 _symmetry_equiv_pos_as_xyz
  1  'x, y, z'
loop_
 _atom_site_type_symbol
 _atom_site_label
 _atom_site_symmetry_multiplicity
 _atom_site_fract_x
 _atom_site_fract_y
 _atom_site_fract_z
 _atom_site_occupancy
  Ca  Ca0  1  0.62316600  0.18345000  0.91519900  1
  Ca  Ca1  1  0.37683400  0.81655000  0.08480100  1
  Ca  Ca2  1  0.87683400  0.31655000  0.41519900  1
  Ca  Ca3  1  0.12316600  0.68345000  0.58480100  1
  Bi  Bi4  1  0.11280000  0.14436200  0.10208000  1
  Bi  Bi5  1  0.88720000  0.85563800  0.89792000  1
  Bi  Bi6  1  0.61280000  0.64436200  0.39792000  1
  Bi  Bi7  1  0.38720000  0.35563800  0.60208000  1
  Mo  Mo8  1  0.79162200  0.97568600  0.63920800  1
  Mo  Mo9  1  0.20837800  0.02431400  0.36079200  1
  Mo  Mo10  1  0.70837800  0.52431400  0.13920800  1
  Mo  Mo11  1  0.29162200  0.47568600  0.86079200  1
  O  O12  1  0.54222600  0.32788500  0.07367500  1
  O  O13  1  0.04057400  0.33070000  0.93281900  1
  O  O14  1  0.49513500  0.63207900  0.19136200  1
  O  O15  1  0.74043600  0.51210600  0.52814000  1
  O  O16  1  0.78468700  0.49304500  0.29067900  1
  O  O17  1  0.28468700  0.99304500  0.20932100  1
  O  O18  1  0.54057400  0.83070000  0.56718100  1
  O  O19  1  0.45942600  0.16930000  0.43281900  1
  O  O20  1  0.25956400  0.48789400  0.47186000  1
  O  O21  1  0.95777400  0.17211400  0.57367500  1
  O  O22  1  0.21531300  0.50695500  0.70932100  1
  O  O23  1  0.45777400  0.67211400  0.92632500  1
  O  O24  1  0.04222600  0.82788600  0.42632500  1
  O  O25  1  0.71531300  0.00695500  0.79067900  1
  O  O26  1  0.75956400  0.98789400  0.02814000  1
  O  O27  1  0.24043600  0.01210600  0.97186000  1
  O  O28  1  0.50486500  0.36792100  0.80863800  1
  O  O29  1  0.95942600  0.66930000  0.06718100  1
  O  O30  1  0.00486500  0.86792100  0.69136200  1
  O  O31  1  0.99513500  0.13207900  0.30863800  1
