# generated using pymatgen
data_ZrCrCuS4
_symmetry_space_group_name_H-M   'P 1'
_cell_length_a   11.58657428
_cell_length_b   3.55652000
_cell_length_c   13.07031079
_cell_angle_alpha   90.00000000
_cell_angle_beta   90.36893386
_cell_angle_gamma   90.00000000
_symmetry_Int_Tables_number   1
_chemical_formula_structural   ZrCrCuS4
_chemical_formula_sum   'Zr4 Cr4 Cu4 S16'
_cell_volume   538.58867415
_cell_formula_units_Z   4
loop_
 _symmetry_equiv_pos_site_id
 _symmetry_equiv_pos_as_xyz
  1  'x, y, z'
loop_
 _atom_site_type_symbol
 _atom_site_label
 _atom_site_symmetry_multiplicity
 _atom_site_fract_x
 _atom_site_fract_y
 _atom_site_fract_z
 _atom_site_occupancy
  Zr  Zr0  1  0.38700000  0.75000000  0.56928100  1
  Zr  Zr1  1  0.84105700  0.75000000  0.34185600  1
  Zr  Zr2  1  0.34761400  0.75000000  0.15954900  1
  Zr  Zr3  1  0.66284200  0.25000000  0.84136200  1
  Cr  Cr4  1  0.11326100  0.25000000  0.05831600  1
  Cr  Cr5  1  0.89392400  0.75000000  0.93996400  1
  Cr  Cr6  1  0.60857400  0.25000000  0.43903700  1
  Cr  Cr7  1  0.14895400  0.25000000  0.66431900  1
  Cu  Cu8  1  0.06983300  0.75000000  0.46754700  1
  Cu  Cu9  1  0.90842800  0.25000000  0.51981300  1
  Cu  Cu10  1  0.39646300  0.25000000  0.97864300  1
  Cu  Cu11  1  0.60173400  0.75000000  0.01982100  1
  S  S12  1  0.00970400  0.75000000  0.63127500  1
  S  S13  1  0.00053500  0.25000000  0.35909600  1
  S  S14  1  0.50490200  0.25000000  0.12651100  1
  S  S15  1  0.50266000  0.75000000  0.86747200  1
  S  S16  1  0.01969300  0.25000000  0.89398400  1
  S  S17  1  0.98677700  0.75000000  0.10438800  1
  S  S18  1  0.48189700  0.75000000  0.38440500  1
  S  S19  1  0.53596300  0.25000000  0.61663900  1
  S  S20  1  0.21795300  0.25000000  0.22680500  1
  S  S21  1  0.79206800  0.75000000  0.77322100  1
  S  S22  1  0.26553100  0.75000000  0.72815600  1
  S  S23  1  0.70768000  0.25000000  0.27613600  1
  S  S24  1  0.24802500  0.75000000  0.99183100  1
  S  S25  1  0.75943100  0.25000000  0.00888100  1
  S  S26  1  0.24196100  0.25000000  0.50358300  1
  S  S27  1  0.74553500  0.75000000  0.50810700  1
