# generated using pymatgen
data_NbCr3(CuS4)2
_symmetry_space_group_name_H-M   'P 1'
_cell_length_a   11.44220600
_cell_length_b   3.41879800
_cell_length_c   12.09121400
_cell_angle_alpha   90.00000000
_cell_angle_beta   90.00000000
_cell_angle_gamma   90.00000000
_symmetry_Int_Tables_number   1
_chemical_formula_structural   NbCr3(CuS4)2
_chemical_formula_sum   'Nb2 Cr6 Cu4 S16'
_cell_volume   472.99125502
_cell_formula_units_Z   2
loop_
 _symmetry_equiv_pos_site_id
 _symmetry_equiv_pos_as_xyz
  1  'x, y, z'
loop_
 _atom_site_type_symbol
 _atom_site_label
 _atom_site_symmetry_multiplicity
 _atom_site_fract_x
 _atom_site_fract_y
 _atom_site_fract_z
 _atom_site_occupancy
  Nb  Nb0  1  0.85229000  0.75000000  0.28720600  1
  Nb  Nb1  1  0.64771000  0.25000000  0.78720600  1
  Cr  Cr2  1  0.11687700  0.25000000  0.07072300  1
  Cr  Cr3  1  0.89126700  0.75000000  0.92887600  1
  Cr  Cr4  1  0.38312300  0.75000000  0.57072300  1
  Cr  Cr5  1  0.60873300  0.25000000  0.42887600  1
  Cr  Cr6  1  0.14756900  0.25000000  0.70442400  1
  Cr  Cr7  1  0.35243100  0.75000000  0.20442400  1
  Cu  Cu8  1  0.12768900  0.75000000  0.43675300  1
  Cu  Cu9  1  0.88642100  0.25000000  0.57078400  1
  Cu  Cu10  1  0.37231100  0.25000000  0.93675300  1
  Cu  Cu11  1  0.61357900  0.75000000  0.07078400  1
  S  S12  1  0.03014400  0.75000000  0.61319900  1
  S  S13  1  0.97184900  0.25000000  0.38205900  1
  S  S14  1  0.46985600  0.25000000  0.11319900  1
  S  S15  1  0.52815100  0.75000000  0.88205900  1
  S  S16  1  0.03180200  0.25000000  0.88406800  1
  S  S17  1  0.97358000  0.75000000  0.11766100  1
  S  S18  1  0.46819800  0.75000000  0.38406800  1
  S  S19  1  0.52642000  0.25000000  0.61766100  1
  S  S20  1  0.21507500  0.25000000  0.24755900  1
  S  S21  1  0.79949300  0.75000000  0.74934000  1
  S  S22  1  0.28492500  0.75000000  0.74755900  1
  S  S23  1  0.70050700  0.25000000  0.24934000  1
  S  S24  1  0.25175000  0.75000000  0.02929300  1
  S  S25  1  0.75084300  0.25000000  0.97805500  1
  S  S26  1  0.24825000  0.25000000  0.52929300  1
  S  S27  1  0.74915700  0.75000000  0.47805500  1
