# generated using pymatgen
data_HfCrCuS4
_symmetry_space_group_name_H-M   'P 1'
_cell_length_a   6.81076200
_cell_length_b   6.83868800
_cell_length_c   11.25231000
_cell_angle_alpha   90.00000000
_cell_angle_beta   90.00000000
_cell_angle_gamma   90.00000000
_symmetry_Int_Tables_number   1
_chemical_formula_structural   HfCrCuS4
_chemical_formula_sum   'Hf4 Cr4 Cu4 S16'
_cell_volume   524.09520118
_cell_formula_units_Z   4
loop_
 _symmetry_equiv_pos_site_id
 _symmetry_equiv_pos_as_xyz
  1  'x, y, z'
loop_
 _atom_site_type_symbol
 _atom_site_label
 _atom_site_symmetry_multiplicity
 _atom_site_fract_x
 _atom_site_fract_y
 _atom_site_fract_z
 _atom_site_occupancy
  Hf  Hf0  1  0.88272200  0.00000000  0.42652500  1
  Hf  Hf1  1  0.38272200  0.00000000  0.57347500  1
  Hf  Hf2  1  0.01664900  0.00000000  0.76601900  1
  Hf  Hf3  1  0.51664900  0.00000000  0.23398100  1
  Cr  Cr4  1  0.11928800  0.50000000  0.08906200  1
  Cr  Cr5  1  0.61928800  0.50000000  0.91093800  1
  Cr  Cr6  1  0.98722400  0.50000000  0.75668900  1
  Cr  Cr7  1  0.48722400  0.50000000  0.24331100  1
  Cu  Cu8  1  0.15336300  0.00000000  0.10526400  1
  Cu  Cu9  1  0.84507500  0.50000000  0.36063900  1
  Cu  Cu10  1  0.34507500  0.50000000  0.63936100  1
  Cu  Cu11  1  0.65336300  0.00000000  0.89473600  1
  S  S12  1  0.11059500  0.25919900  0.59697500  1
  S  S13  1  0.88280300  0.25080300  0.90480900  1
  S  S14  1  0.38280300  0.25080300  0.09519100  1
  S  S15  1  0.61059500  0.25919900  0.40302500  1
  S  S16  1  0.61059500  0.74080100  0.40302500  1
  S  S17  1  0.38280300  0.74919700  0.09519100  1
  S  S18  1  0.88280300  0.74919700  0.90480900  1
  S  S19  1  0.11059500  0.74080100  0.59697500  1
  S  S20  1  0.86312300  0.00000000  0.19785400  1
  S  S21  1  0.15005600  0.50000000  0.29181700  1
  S  S22  1  0.65005600  0.50000000  0.70818300  1
  S  S23  1  0.36312300  0.00000000  0.80214600  1
  S  S24  1  0.26918400  0.50000000  0.87710400  1
  S  S25  1  0.72652000  0.00000000  0.62995400  1
  S  S26  1  0.22652000  0.00000000  0.37004600  1
  S  S27  1  0.76918400  0.50000000  0.12289600  1
