# generated using pymatgen
data_TaCr3(CuS4)2
_symmetry_space_group_name_H-M   'P 1'
_cell_length_a   11.52036253
_cell_length_b   7.08720827
_cell_length_c   11.83143900
_cell_angle_alpha   90.00000000
_cell_angle_beta   90.00000000
_cell_angle_gamma   94.96652678
_symmetry_Int_Tables_number   1
_chemical_formula_structural   TaCr3(CuS4)2
_chemical_formula_sum   'Ta4 Cr12 Cu8 S32'
_cell_volume   962.37705435
_cell_formula_units_Z   4
loop_
 _symmetry_equiv_pos_site_id
 _symmetry_equiv_pos_as_xyz
  1  'x, y, z'
loop_
 _atom_site_type_symbol
 _atom_site_label
 _atom_site_symmetry_multiplicity
 _atom_site_fract_x
 _atom_site_fract_y
 _atom_site_fract_z
 _atom_site_occupancy
  Ta  Ta0  1  0.08931300  0.81913200  0.68004600  1
  Ta  Ta1  1  0.91068700  0.18086800  0.18004600  1
  Ta  Ta2  1  0.38174800  0.34030700  0.82868300  1
  Ta  Ta3  1  0.61825200  0.65969300  0.32868300  1
  Cr  Cr4  1  0.37645700  0.91861800  0.19584100  1
  Cr  Cr5  1  0.62354300  0.08138200  0.69584100  1
  Cr  Cr6  1  0.12136200  0.40951800  0.32540800  1
  Cr  Cr7  1  0.87863800  0.59048200  0.82540800  1
  Cr  Cr8  1  0.16298000  0.55576700  0.95782300  1
  Cr  Cr9  1  0.83702000  0.44423300  0.45782300  1
  Cr  Cr10  1  0.34990900  0.65265600  0.45966900  1
  Cr  Cr11  1  0.65009100  0.34734500  0.95966900  1
  Cr  Cr12  1  0.14462500  0.07217000  0.96576100  1
  Cr  Cr13  1  0.85537500  0.92783000  0.46576100  1
  Cr  Cr14  1  0.34705200  0.16023200  0.46694300  1
  Cr  Cr15  1  0.65294800  0.83976800  0.96694300  1
  Cu  Cu16  1  0.11875200  0.38438100  0.68255300  1
  Cu  Cu17  1  0.88124800  0.61561900  0.18255300  1
  Cu  Cu18  1  0.43594100  0.44207900  0.18631800  1
  Cu  Cu19  1  0.56405900  0.55792100  0.68631800  1
  Cu  Cu20  1  0.14492300  0.83950100  0.33463900  1
  Cu  Cu21  1  0.85507700  0.16049900  0.83463900  1
  Cu  Cu22  1  0.36992000  0.88896700  0.82895100  1
  Cu  Cu23  1  0.63008000  0.11103300  0.32895100  1
  S  S24  1  0.04015000  0.79003100  0.88359200  1
  S  S25  1  0.95985000  0.20996900  0.38359200  1
  S  S26  1  0.46685700  0.90907200  0.38267100  1
  S  S27  1  0.53314300  0.09092800  0.88267100  1
  S  S28  1  0.04061500  0.44427500  0.13228700  1
  S  S29  1  0.95938500  0.55572500  0.63228700  1
  S  S30  1  0.46543300  0.27365800  0.64060400  1
  S  S31  1  0.53456700  0.72634200  0.14060400  1
  S  S32  1  0.02965700  0.32600300  0.86438800  1
  S  S33  1  0.97034300  0.67399700  0.36438800  1
  S  S34  1  0.47286900  0.42307200  0.39074900  1
  S  S35  1  0.52713100  0.57692800  0.89074900  1
  S  S36  1  0.03127300  0.95923100  0.13299000  1
  S  S37  1  0.96872700  0.04076900  0.63299000  1
  S  S38  1  0.48272900  0.83246500  0.66070400  1
  S  S39  1  0.51727100  0.16753500  0.16070400  1
  S  S40  1  0.22538400  0.88016600  0.52757000  1
  S  S41  1  0.77461600  0.11983400  0.02757000  1
  S  S42  1  0.28224400  0.84458900  0.01532100  1
  S  S43  1  0.71775600  0.15541100  0.51532100  1
  S  S44  1  0.21389200  0.38892800  0.50879100  1
  S  S45  1  0.78610800  0.61107200  0.00879100  1
  S  S46  1  0.28881100  0.32194900  0.01709900  1
  S  S47  1  0.71118900  0.67805100  0.51709900  1
  S  S48  1  0.22643600  0.08855300  0.77998300  1
  S  S49  1  0.77356400  0.91144700  0.27998300  1
  S  S50  1  0.24126800  0.12445900  0.29496300  1
  S  S51  1  0.75873200  0.87554100  0.79496300  1
  S  S52  1  0.26104700  0.59044100  0.77713000  1
  S  S53  1  0.73895300  0.40955900  0.27713000  1
  S  S54  1  0.27536900  0.62241900  0.27252500  1
  S  S55  1  0.72463100  0.37758100  0.77252500  1
