# generated using pymatgen
data_ZrCrCuS4
_symmetry_space_group_name_H-M   'P 1'
_cell_length_a   11.76043300
_cell_length_b   7.05951700
_cell_length_c   12.45260100
_cell_angle_alpha   90.00000000
_cell_angle_beta   90.00000000
_cell_angle_gamma   90.00000000
_symmetry_Int_Tables_number   1
_chemical_formula_structural   ZrCrCuS4
_chemical_formula_sum   'Zr8 Cr8 Cu8 S32'
_cell_volume   1033.85200256
_cell_formula_units_Z   8
loop_
 _symmetry_equiv_pos_site_id
 _symmetry_equiv_pos_as_xyz
  1  'x, y, z'
loop_
 _atom_site_type_symbol
 _atom_site_label
 _atom_site_symmetry_multiplicity
 _atom_site_fract_x
 _atom_site_fract_y
 _atom_site_fract_z
 _atom_site_occupancy
  Zr  Zr0  1  0.09438300  0.90500600  0.68440800  1
  Zr  Zr1  1  0.90561700  0.09499400  0.18440800  1
  Zr  Zr2  1  0.40561700  0.90500600  0.18440800  1
  Zr  Zr3  1  0.59438300  0.09499400  0.68440800  1
  Zr  Zr4  1  0.11338100  0.39057000  0.33702100  1
  Zr  Zr5  1  0.88661900  0.60943000  0.83702100  1
  Zr  Zr6  1  0.38661900  0.39057000  0.83702100  1
  Zr  Zr7  1  0.61338100  0.60943000  0.33702100  1
  Cr  Cr8  1  0.16182600  0.63001000  0.95058300  1
  Cr  Cr9  1  0.83817400  0.36999000  0.45058300  1
  Cr  Cr10  1  0.33817400  0.63001000  0.45058300  1
  Cr  Cr11  1  0.66182600  0.36999000  0.95058300  1
  Cr  Cr12  1  0.15544100  0.13016500  0.96090100  1
  Cr  Cr13  1  0.84455900  0.86983500  0.46090200  1
  Cr  Cr14  1  0.34455900  0.13016500  0.46090200  1
  Cr  Cr15  1  0.65544100  0.86983500  0.96090100  1
  Cu  Cu16  1  0.10816900  0.37041200  0.68461300  1
  Cu  Cu17  1  0.89183100  0.62958800  0.18461300  1
  Cu  Cu18  1  0.39183100  0.37041200  0.18461300  1
  Cu  Cu19  1  0.60816900  0.62958800  0.68461300  1
  Cu  Cu20  1  0.12727800  0.88960900  0.30773700  1
  Cu  Cu21  1  0.87272200  0.11039100  0.80773700  1
  Cu  Cu22  1  0.37272200  0.88960900  0.80773700  1
  Cu  Cu23  1  0.62727800  0.11039100  0.30773700  1
  S  S24  1  0.03126000  0.87616400  0.88869400  1
  S  S25  1  0.96874000  0.12383600  0.38869400  1
  S  S26  1  0.46874000  0.87616400  0.38869400  1
  S  S27  1  0.53126000  0.12383600  0.88869400  1
  S  S28  1  0.02727400  0.36990500  0.14916500  1
  S  S29  1  0.97272600  0.63009500  0.64916500  1
  S  S30  1  0.47272600  0.36990500  0.64916500  1
  S  S31  1  0.52727400  0.63009500  0.14916500  1
  S  S32  1  0.03549500  0.38452600  0.89439200  1
  S  S33  1  0.96450500  0.61547400  0.39439200  1
  S  S34  1  0.46450500  0.38452600  0.39439200  1
  S  S35  1  0.53549500  0.61547400  0.89439200  1
  S  S36  1  0.03730000  0.84815600  0.14381800  1
  S  S37  1  0.96270000  0.15184400  0.64381800  1
  S  S38  1  0.46270000  0.84815600  0.64381800  1
  S  S39  1  0.53730000  0.15184400  0.14381800  1
  S  S40  1  0.21492600  0.88268100  0.51054000  1
  S  S41  1  0.78507400  0.11731900  0.01054000  1
  S  S42  1  0.28507400  0.88268100  0.01054000  1
  S  S43  1  0.71492600  0.11731900  0.51054000  1
  S  S44  1  0.22161500  0.37608000  0.51951200  1
  S  S45  1  0.77838500  0.62392000  0.01951200  1
  S  S46  1  0.27838400  0.37608000  0.01951200  1
  S  S47  1  0.72161500  0.62392000  0.51951200  1
  S  S48  1  0.23760400  0.13111900  0.78660600  1
  S  S49  1  0.76239600  0.86888100  0.28660600  1
  S  S50  1  0.26239600  0.13111900  0.28660600  1
  S  S51  1  0.73760400  0.86888100  0.78660600  1
  S  S52  1  0.24196800  0.63267000  0.77900900  1
  S  S53  1  0.75803200  0.36733000  0.27900900  1
  S  S54  1  0.25803200  0.63267000  0.27900900  1
  S  S55  1  0.74196800  0.36733000  0.77900900  1
