# generated using pymatgen
data_V2ZnO5
_symmetry_space_group_name_H-M   'P 1'
_cell_length_a   3.69591100
_cell_length_b   5.42604969
_cell_length_c   11.40673600
_cell_angle_alpha   90.00000000
_cell_angle_beta   90.00000000
_cell_angle_gamma   109.91166437
_symmetry_Int_Tables_number   1
_chemical_formula_structural   V2ZnO5
_chemical_formula_sum   'V4 Zn2 O10'
_cell_volume   215.07780635
_cell_formula_units_Z   2
loop_
 _symmetry_equiv_pos_site_id
 _symmetry_equiv_pos_as_xyz
  1  'x, y, z'
loop_
 _atom_site_type_symbol
 _atom_site_label
 _atom_site_symmetry_multiplicity
 _atom_site_fract_x
 _atom_site_fract_y
 _atom_site_fract_z
 _atom_site_occupancy
  V  V0  1  0.20299500  0.40598900  0.59817200  1
  V  V1  1  0.79700600  0.59401200  0.40182800  1
  V  V2  1  0.79700600  0.59401200  0.09817200  1
  V  V3  1  0.20299500  0.40598900  0.90182800  1
  Zn  Zn4  1  0.89851200  0.79702100  0.75000000  1
  Zn  Zn5  1  0.10148900  0.20298000  0.25000000  1
  O  O6  1  0.69658100  0.39316100  0.25000000  1
  O  O7  1  0.30342000  0.60684000  0.75000000  1
  O  O8  1  0.23775000  0.47549800  0.07411600  1
  O  O9  1  0.76225200  0.52450300  0.92588400  1
  O  O10  1  0.76225200  0.52450300  0.57411600  1
  O  O11  1  0.23775000  0.47549800  0.42588300  1
  O  O12  1  0.04324300  0.08648500  0.62970400  1
  O  O13  1  0.95675700  0.91351400  0.37029600  1
  O  O14  1  0.04324300  0.08648500  0.87029600  1
  O  O15  1  0.95675700  0.91351400  0.12970500  1
