# generated using pymatgen
data_LaCrCoO6
_symmetry_space_group_name_H-M   'P 1'
_cell_length_a   5.27178872
_cell_length_b   6.15413205
_cell_length_c   7.51081993
_cell_angle_alpha   89.99451421
_cell_angle_beta   89.29896870
_cell_angle_gamma   90.01476729
_symmetry_Int_Tables_number   1
_chemical_formula_structural   LaCrCoO6
_chemical_formula_sum   'La2 Cr2 Co2 O12'
_cell_volume   243.65741521
_cell_formula_units_Z   2
loop_
 _symmetry_equiv_pos_site_id
 _symmetry_equiv_pos_as_xyz
  1  'x, y, z'
loop_
 _atom_site_type_symbol
 _atom_site_label
 _atom_site_symmetry_multiplicity
 _atom_site_fract_x
 _atom_site_fract_y
 _atom_site_fract_z
 _atom_site_occupancy
  La  La0  1  0.01363800  0.87292100  0.74523100  1
  La  La1  1  0.51404800  0.62717300  0.24549300  1
  Cr  Cr2  1  0.53413400  0.07873800  0.48244400  1
  Cr  Cr3  1  0.03425900  0.42098100  0.98234200  1
  Co  Co4  1  0.55965900  0.07639800  0.98476700  1
  Co  Co5  1  0.06017300  0.42384200  0.48483200  1
  O  O6  1  0.07829800  0.46777800  0.23932900  1
  O  O7  1  0.20256200  0.19027700  0.95896600  1
  O  O8  1  0.21813500  0.16174900  0.56029400  1
  O  O9  1  0.23424600  0.64609500  0.97470800  1
  O  O10  1  0.24489400  0.65734900  0.53086200  1
  O  O11  1  0.42380700  0.03000800  0.27384600  1
  O  O12  1  0.57834800  0.03212500  0.73911600  1
  O  O13  1  0.70256400  0.30973400  0.45894700  1
  O  O14  1  0.71838100  0.33827200  0.06025000  1
  O  O15  1  0.73465100  0.85371800  0.47449600  1
  O  O16  1  0.74430100  0.84306500  0.03071800  1
  O  O17  1  0.92396600  0.46977700  0.77377400  1
