# generated using pymatgen
data_Cr2O3
_symmetry_space_group_name_H-M   'P 1'
_cell_length_a   9.93737922
_cell_length_b   9.06728658
_cell_length_c   10.48481459
_cell_angle_alpha   90.98175448
_cell_angle_beta   92.64275441
_cell_angle_gamma   92.01838324
_symmetry_Int_Tables_number   1
_chemical_formula_structural   Cr2O3
_chemical_formula_sum   'Cr32 O48'
_cell_volume   942.97810875
_cell_formula_units_Z   16
loop_
 _symmetry_equiv_pos_site_id
 _symmetry_equiv_pos_as_xyz
  1  'x, y, z'
loop_
 _atom_site_type_symbol
 _atom_site_label
 _atom_site_symmetry_multiplicity
 _atom_site_fract_x
 _atom_site_fract_y
 _atom_site_fract_z
 _atom_site_occupancy
  Cr  Cr0  1  0.54848300  0.46895600  0.51824700  1
  Cr  Cr1  1  0.52382700  0.11695200  0.64539200  1
  Cr  Cr2  1  0.72314900  0.09420400  0.91630700  1
  Cr  Cr3  1  0.27097100  0.97347600  0.44317300  1
  Cr  Cr4  1  0.50575000  0.32867400  0.09484600  1
  Cr  Cr5  1  0.86892300  0.87165000  0.16622600  1
  Cr  Cr6  1  0.40975100  0.95896900  0.87160700  1
  Cr  Cr7  1  0.94368000  0.72922400  0.40400200  1
  Cr  Cr8  1  0.35744900  0.73854500  0.64362800  1
  Cr  Cr9  1  0.67752400  0.66058300  0.05654100  1
  Cr  Cr10  1  0.89183900  0.59761700  0.62447500  1
  Cr  Cr11  1  0.18813400  0.41240900  0.06572500  1
  Cr  Cr12  1  0.62600900  0.82468100  0.37594100  1
  Cr  Cr13  1  0.82664300  0.34618000  0.06484700  1
  Cr  Cr14  1  0.93986000  0.89074400  0.89828100  1
  Cr  Cr15  1  0.88996700  0.19677900  0.73879700  1
  Cr  Cr16  1  0.66661600  0.75310900  0.72092300  1
  Cr  Cr17  1  0.06725100  0.50805500  0.84747300  1
  Cr  Cr18  1  0.84192400  0.99539000  0.52126900  1
  Cr  Cr19  1  0.40100200  0.61761800  0.92190800  1
  Cr  Cr20  1  0.30348700  0.91227700  0.13903000  1
  Cr  Cr21  1  0.09042500  0.86578500  0.67906400  1
  Cr  Cr22  1  0.14362400  0.11375600  0.96471100  1
  Cr  Cr23  1  0.76685700  0.42152100  0.32371600  1
  Cr  Cr24  1  0.61667900  0.42268000  0.79718800  1
  Cr  Cr25  1  0.32898900  0.33573000  0.76393300  1
  Cr  Cr26  1  0.07723100  0.69071200  0.08834200  1
  Cr  Cr27  1  0.04543600  0.34629000  0.53794100  1
  Cr  Cr28  1  0.30807600  0.29618200  0.32677100  1
  Cr  Cr29  1  0.36149000  0.62533300  0.32313400  1
  Cr  Cr30  1  0.03197500  0.14744800  0.26796600  1
  Cr  Cr31  1  0.55420500  0.12165500  0.36384400  1
  O  O32  1  0.20516000  0.33445200  0.62386900  1
  O  O33  1  0.38414500  0.12989500  0.76359800  1
  O  O34  1  0.98509900  0.70850600  0.78614200  1
  O  O35  1  0.86000500  0.02160600  0.03402200  1
  O  O36  1  0.95965000  0.41528300  0.70410400  1
  O  O37  1  0.90797100  0.96665400  0.34598100  1
  O  O38  1  0.05803700  0.03653600  0.80286100  1
  O  O39  1  0.00318600  0.48287000  0.03320400  1
  O  O40  1  0.64913500  0.00770000  0.49810000  1
  O  O41  1  0.81291200  0.97551600  0.76236800  1
  O  O42  1  0.10715100  0.90508300  0.04485000  1
  O  O43  1  0.12657100  0.99062800  0.53608000  1
  O  O44  1  0.45754700  0.21963000  0.23883300  1
  O  O45  1  0.13391700  0.22355500  0.12812300  1
  O  O46  1  0.32791900  0.78501800  0.46437700  1
  O  O47  1  0.20892800  0.59765400  0.96677200  1
  O  O48  1  0.40494700  0.80123800  0.00840300  1
  O  O49  1  0.96746000  0.70081200  0.23411300  1
  O  O50  1  0.55338100  0.63112300  0.39523600  1
  O  O51  1  0.68159700  0.21227100  0.76222400  1
  O  O52  1  0.87266700  0.28431400  0.23708800  1
  O  O53  1  0.65999800  0.22280800  0.04134200  1
  O  O54  1  0.34992900  0.56669700  0.74594800  1
  O  O55  1  0.88005100  0.25781900  0.91380800  1
  O  O56  1  0.79567800  0.77717300  0.52956800  1
  O  O57  1  0.36561000  0.46015300  0.44044800  1
  O  O58  1  0.05701100  0.70038300  0.55574900  1
  O  O59  1  0.25786100  0.84120300  0.76428700  1
  O  O60  1  0.17542100  0.32183300  0.89137600  1
  O  O61  1  0.49726500  0.34166700  0.65744800  1
  O  O62  1  0.48588700  0.93143400  0.28618900  1
  O  O63  1  0.59743000  0.95752400  0.92231600  1
  O  O64  1  0.86752600  0.74313400  0.01133300  1
  O  O65  1  0.33004800  0.07391100  0.01035300  1
  O  O66  1  0.70964900  0.77091900  0.22011400  1
  O  O67  1  0.23594400  0.72209000  0.21179200  1
  O  O68  1  0.46019100  0.40021100  0.92022600  1
  O  O69  1  0.34067700  0.44814400  0.18992100  1
  O  O70  1  0.20725200  0.02730500  0.28410800  1
  O  O71  1  0.11988000  0.29675900  0.37486800  1
  O  O72  1  0.66756600  0.46122100  0.15187700  1
  O  O73  1  0.89772000  0.50732900  0.44977000  1
  O  O74  1  0.60407200  0.62752500  0.87244100  1
  O  O75  1  0.64421200  0.31790800  0.42862900  1
  O  O76  1  0.50170100  0.88420100  0.69396500  1
  O  O77  1  0.70172000  0.53711900  0.65710600  1
  O  O78  1  0.90583600  0.18824500  0.55455100  1
  O  O79  1  0.40163300  0.12591000  0.47840900  1
