# generated using pymatgen
data_MgV4O9
_symmetry_space_group_name_H-M   'P 1'
_cell_length_a   4.99781900
_cell_length_b   8.29526000
_cell_length_c   8.29526000
_cell_angle_alpha   90.00000000
_cell_angle_beta   90.00000000
_cell_angle_gamma   90.00000000
_symmetry_Int_Tables_number   1
_chemical_formula_structural   MgV4O9
_chemical_formula_sum   'Mg2 V8 O18'
_cell_volume   343.90661481
_cell_formula_units_Z   2
loop_
 _symmetry_equiv_pos_site_id
 _symmetry_equiv_pos_as_xyz
  1  'x, y, z'
loop_
 _atom_site_type_symbol
 _atom_site_label
 _atom_site_symmetry_multiplicity
 _atom_site_fract_x
 _atom_site_fract_y
 _atom_site_fract_z
 _atom_site_occupancy
  Mg  Mg0  1  0.16018600  0.25000000  0.25000000  1
  Mg  Mg1  1  0.83981500  0.75000000  0.74999900  1
  V  V2  1  0.63146000  0.53203500  0.34028100  1
  V  V3  1  0.36854100  0.84028000  0.46796600  1
  V  V4  1  0.63146000  0.34028000  0.96796600  1
  V  V5  1  0.36854100  0.03203400  0.84028000  1
  V  V6  1  0.63146000  0.96796600  0.15971900  1
  V  V7  1  0.63146000  0.15972000  0.53203500  1
  V  V8  1  0.36854100  0.46796600  0.65971900  1
  V  V9  1  0.36854100  0.65971900  0.03203400  1
  O  O10  1  0.49999900  0.75000000  0.25000000  1
  O  O11  1  0.49999900  0.25000100  0.75000000  1
  O  O12  1  0.05215600  0.68542800  0.98031000  1
  O  O13  1  0.05215600  0.51969100  0.68542700  1
  O  O14  1  0.05215600  0.98031000  0.81457300  1
  O  O15  1  0.05215600  0.81457300  0.51969000  1
  O  O16  1  0.94784500  0.31457300  0.01969000  1
  O  O17  1  0.94784500  0.48030900  0.31457300  1
  O  O18  1  0.94784500  0.01969000  0.18542700  1
  O  O19  1  0.94784500  0.18542700  0.48030900  1
  O  O20  1  0.44680900  0.04740100  0.35570400  1
  O  O21  1  0.44680900  0.14429500  0.04740200  1
  O  O22  1  0.44680900  0.35570400  0.45259900  1
  O  O23  1  0.44680900  0.45259900  0.14429600  1
  O  O24  1  0.55319000  0.54740100  0.85570400  1
  O  O25  1  0.55319000  0.85570400  0.95259900  1
  O  O26  1  0.55319000  0.64429600  0.54740100  1
  O  O27  1  0.55319000  0.95259800  0.64429600  1
