# generated using pymatgen
data_C
_symmetry_space_group_name_H-M   'P 1'
_cell_length_a   10.68130827
_cell_length_b   10.74770351
_cell_length_c   10.42721568
_cell_angle_alpha   95.11598649
_cell_angle_beta   86.77443288
_cell_angle_gamma   89.89164528
_symmetry_Int_Tables_number   1
_chemical_formula_structural   C
_chemical_formula_sum   C100
_cell_volume   1190.35319192
_cell_formula_units_Z   100
loop_
 _symmetry_equiv_pos_site_id
 _symmetry_equiv_pos_as_xyz
  1  'x, y, z'
loop_
 _atom_site_type_symbol
 _atom_site_label
 _atom_site_symmetry_multiplicity
 _atom_site_fract_x
 _atom_site_fract_y
 _atom_site_fract_z
 _atom_site_occupancy
  C  C0  1  0.70219600  0.58917100  0.07179900  1
  C  C1  1  0.76746000  0.91667100  0.89816200  1
  C  C2  1  0.52083500  0.60769100  0.76929500  1
  C  C3  1  0.01967200  0.66002200  0.22191700  1
  C  C4  1  0.02039900  0.51671400  0.54386400  1
  C  C5  1  0.11352500  0.53317100  0.44813300  1
  C  C6  1  0.78204300  0.42732500  0.36117000  1
  C  C7  1  0.11502800  0.08490900  0.85191100  1
  C  C8  1  0.35437900  0.27376500  0.68786100  1
  C  C9  1  0.13261400  0.97138500  0.82918500  1
  C  C10  1  0.40637900  0.56572500  0.85004700  1
  C  C11  1  0.01912400  0.41586800  0.75292100  1
  C  C12  1  0.36386300  0.60833200  0.08072700  1
  C  C13  1  0.45939500  0.04688700  0.50580700  1
  C  C14  1  0.76180000  0.03983300  0.86842000  1
  C  C15  1  0.72052700  0.33570800  0.28897600  1
  C  C16  1  0.14428300  0.74655700  0.04806600  1
  C  C17  1  0.23110200  0.80394800  0.95827000  1
  C  C18  1  0.09012300  0.50404000  0.67020500  1
  C  C19  1  0.10908200  0.97617900  0.10951700  1
  C  C20  1  0.22834800  0.68213400  0.65582600  1
  C  C21  1  0.77648800  0.36329700  0.78577200  1
  C  C22  1  0.70498800  0.25570300  0.79318800  1
  C  C23  1  0.40701000  0.19196200  0.21821300  1
  C  C24  1  0.02334700  0.19801900  0.64622300  1
  C  C25  1  0.94161100  0.70403700  0.87422000  1
  C  C26  1  0.89631600  0.49883700  0.34968800  1
  C  C27  1  0.19278100  0.28414100  0.93865100  1
  C  C28  1  0.75667400  0.87543100  0.01957000  1
  C  C29  1  0.55053800  0.51912400  0.44342900  1
  C  C30  1  0.45075500  0.46153400  0.37866400  1
  C  C31  1  0.52506700  0.60520500  0.92227100  1
  C  C32  1  0.28476100  0.29236700  0.03773800  1
  C  C33  1  0.06308800  0.73033600  0.81373200  1
  C  C34  1  0.57444200  0.55988300  0.04529300  1
  C  C35  1  0.96867400  0.77814800  0.26715100  1
  C  C36  1  0.73716200  0.80572700  0.10916200  1
  C  C37  1  0.75165700  0.14184400  0.82655600  1
  C  C38  1  0.47265600  0.98372400  0.11434600  1
  C  C39  1  0.96225900  0.56040200  0.26607800  1
  C  C40  1  0.78956400  0.03457400  0.37285400  1
  C  C41  1  0.65407700  0.68236800  0.29399300  1
  C  C42  1  0.46698500  0.55249500  0.13501600  1
  C  C43  1  0.75502800  0.81305500  0.79491300  1
  C  C44  1  0.57940400  0.01721800  0.47196500  1
  C  C45  1  0.40180600  0.66651600  0.96309400  1
  C  C46  1  0.27534600  0.34931300  0.51864100  1
  C  C47  1  0.91384600  0.65191000  0.98579300  1
  C  C48  1  0.63598500  0.49251600  0.55366400  1
  C  C49  1  0.19976000  0.52789600  0.36555900  1
  C  C50  1  0.10818200  0.86939500  0.02198200  1
  C  C51  1  0.93950200  0.88408700  0.30984200  1
  C  C52  1  0.36816300  0.35391700  0.41622300  1
  C  C53  1  0.01899300  0.08049900  0.41660800  1
  C  C54  1  0.10981700  0.21651700  0.86219500  1
  C  C55  1  0.39625500  0.22758000  0.35851100  1
  C  C56  1  0.27351700  0.38786200  0.94604800  1
  C  C57  1  0.82005300  0.70369400  0.81460400  1
  C  C58  1  0.90116500  0.50500100  0.49653700  1
  C  C59  1  0.25191900  0.04894600  0.41512200  1
  C  C60  1  0.28363900  0.53631300  0.26205000  1
  C  C61  1  0.13767500  0.66371300  0.13871100  1
  C  C62  1  0.70361600  0.70129400  0.17002400  1
  C  C63  1  0.26594900  0.92958800  0.44066000  1
  C  C64  1  0.32380600  0.45777400  0.84977800  1
  C  C65  1  0.27415900  0.74912300  0.57509700  1
  C  C66  1  0.01179800  0.13904900  0.54203300  1
  C  C67  1  0.57643300  0.25351100  0.77027400  1
  C  C68  1  0.54632000  0.85473900  0.65340300  1
  C  C69  1  0.77064200  0.57846300  0.84355500  1
  C  C70  1  0.60756500  0.12060500  0.27062900  1
  C  C71  1  0.50049200  0.08757800  0.19135800  1
  C  C72  1  0.65972500  0.23855600  0.26948900  1
  C  C73  1  0.02965300  0.27579700  0.76584400  1
  C  C74  1  0.54037200  0.73521000  0.71387300  1
  C  C75  1  0.64469700  0.80833900  0.72419100  1
  C  C76  1  0.12341600  0.64207800  0.72726700  1
  C  C77  1  0.28892800  0.82864300  0.48656400  1
  C  C78  1  0.13428300  0.06976400  0.34615700  1
  C  C79  1  0.13173100  0.02812400  0.21535500  1
  C  C80  1  0.25153700  0.59918100  0.15323900  1
  C  C81  1  0.80171900  0.58310400  0.97827800  1
  C  C82  1  0.41393900  0.50933300  0.25797400  1
  C  C83  1  0.31428900  0.23149000  0.56770000  1
  C  C84  1  0.76389400  0.46451800  0.49606600  1
  C  C85  1  0.42542000  0.89689500  0.04294800  1
  C  C86  1  0.61712800  0.51754300  0.68709800  1
  C  C87  1  0.60454500  0.61434700  0.37135600  1
  C  C88  1  0.13025900  0.84764900  0.87297400  1
  C  C89  1  0.52167300  0.95010000  0.57316700  1
  C  C90  1  0.66653500  0.04695100  0.36862500  1
  C  C91  1  0.22373600  0.43582300  0.63017000  1
  C  C92  1  0.91225600  0.36297800  0.79000000  1
  C  C93  1  0.35842100  0.13466500  0.46249400  1
  C  C94  1  0.71781500  0.48419100  0.76874700  1
  C  C95  1  0.36541000  0.80424900  0.97533500  1
  C  C96  1  0.34307500  0.24553700  0.13013000  1
  C  C97  1  0.29524300  0.39771600  0.72495300  1
  C  C98  1  0.46701200  0.24354900  0.74003500  1
  C  C99  1  0.91062700  0.00710100  0.36421700  1
