# generated using pymatgen
data_BN
_symmetry_space_group_name_H-M   'P 1'
_cell_length_a   11.32700286
_cell_length_b   10.98177371
_cell_length_c   10.55421807
_cell_angle_alpha   90.07016363
_cell_angle_beta   86.11556633
_cell_angle_gamma   87.34909362
_symmetry_Int_Tables_number   1
_chemical_formula_structural   BN
_chemical_formula_sum   'B50 N50'
_cell_volume   1308.41516464
_cell_formula_units_Z   50
loop_
 _symmetry_equiv_pos_site_id
 _symmetry_equiv_pos_as_xyz
  1  'x, y, z'
loop_
 _atom_site_type_symbol
 _atom_site_label
 _atom_site_symmetry_multiplicity
 _atom_site_fract_x
 _atom_site_fract_y
 _atom_site_fract_z
 _atom_site_occupancy
  B  B0  1  0.79799100  0.99035000  0.64737400  1
  B  B1  1  0.96027400  0.83901300  0.00268900  1
  B  B2  1  0.26043700  0.56220400  0.53748600  1
  B  B3  1  0.37209000  0.44018700  0.09665900  1
  B  B4  1  0.80490800  0.97579100  0.42105200  1
  B  B5  1  0.58423700  0.27691700  0.51388000  1
  B  B6  1  0.93953700  0.16652800  0.65840200  1
  B  B7  1  0.60247700  0.52801900  0.61727400  1
  B  B8  1  0.05527500  0.35658700  0.73045200  1
  B  B9  1  0.69497800  0.93354300  0.75480000  1
  B  B10  1  0.33257700  0.21009900  0.75739700  1
  B  B11  1  0.42796600  0.88928000  0.49626400  1
  B  B12  1  0.03325000  0.85578900  0.77243700  1
  B  B13  1  0.35793200  0.23240100  0.99901600  1
  B  B14  1  0.35712400  0.25527600  0.24727700  1
  B  B15  1  0.99735800  0.45584300  0.84589200  1
  B  B16  1  0.22955800  0.98787900  0.47873100  1
  B  B17  1  0.33662000  0.81870700  0.81585100  1
  B  B18  1  0.39518600  0.65428200  0.17533400  1
  B  B19  1  0.32710300  0.41869000  0.86740600  1
  B  B20  1  0.26885700  0.61035500  0.75061900  1
  B  B21  1  0.01291300  0.96649400  0.08164400  1
  B  B22  1  0.35116100  0.48223700  0.32847000  1
  B  B23  1  0.31414000  0.06010300  0.36407900  1
  B  B24  1  0.27564800  0.78120500  0.60041600  1
  B  B25  1  0.35616300  0.62845400  0.95465100  1
  B  B26  1  0.92278800  0.36809600  0.34667200  1
  B  B27  1  0.99401000  0.00745900  0.24010000  1
  B  B28  1  0.36785400  0.02482900  0.89704900  1
  B  B29  1  0.07894600  0.03088100  0.87174400  1
  B  B30  1  0.95242600  0.72710800  0.60591700  1
  B  B31  1  0.85393200  0.72384100  0.16292700  1
  B  B32  1  0.40516800  0.86350400  0.26565300  1
  B  B33  1  0.92346100  0.60151800  0.38115600  1
  B  B34  1  0.91956000  0.78193100  0.37497300  1
  B  B35  1  0.02860700  0.96583100  0.61716200  1
  B  B36  1  0.80693100  0.59105800  0.68843400  1
  B  B37  1  0.19746000  0.40444600  0.69996900  1
  B  B38  1  0.77580100  0.21156200  0.40640000  1
  B  B39  1  0.37390500  0.20452000  0.50945000  1
  B  B40  1  0.36865900  0.04891700  0.13401900  1
  B  B41  1  0.03847700  0.98317900  0.38062500  1
  B  B42  1  0.95322200  0.66183800  0.84029500  1
  B  B43  1  0.42655100  0.42641800  0.52246000  1
  B  B44  1  0.62019600  0.93965700  0.61565000  1
  B  B45  1  0.36634500  0.70021700  0.39869400  1
  B  B46  1  0.38393200  0.84036700  0.03701800  1
  B  B47  1  0.37539500  0.99653300  0.65676800  1
  B  B48  1  0.90058300  0.12524800  0.29178800  1
  B  B49  1  0.75515200  0.82931800  0.96868300  1
  N  N50  1  0.43456500  0.81037400  0.38565900  1
  N  N51  1  0.08315200  0.33294800  0.15328300  1
  N  N52  1  0.90778700  0.65041100  0.71081300  1
  N  N53  1  0.65879000  0.02014000  0.13226700  1
  N  N54  1  0.36767300  0.99074200  0.25669500  1
  N  N55  1  0.78953400  0.08713000  0.35821900  1
  N  N56  1  0.36519600  0.38896800  0.22787300  1
  N  N57  1  0.21255500  0.53418900  0.66312500  1
  N  N58  1  0.36188900  0.76024000  0.93457400  1
  N  N59  1  0.73674900  0.94499000  0.53994000  1
  N  N60  1  0.28315600  0.74035500  0.72682700  1
  N  N61  1  0.27839800  0.68857200  0.50229200  1
  N  N62  1  0.36082400  0.94594600  0.78962100  1
  N  N63  1  0.62347500  0.11411200  0.15642000  1
  N  N64  1  0.98975400  0.26430300  0.68832800  1
  N  N65  1  0.69820500  0.26629900  0.49737000  1
  N  N66  1  0.06742600  0.04987500  0.99454900  1
  N  N67  1  0.10185800  0.98996600  0.49214500  1
  N  N68  1  0.46462900  0.29740600  0.51885600  1
  N  N69  1  0.70661900  0.55227000  0.66216800  1
  N  N70  1  0.33917100  0.18850200  0.37550000  1
  N  N71  1  0.29446300  0.34135600  0.76198800  1
  N  N72  1  0.09403700  0.33374800  0.04777300  1
  N  N73  1  0.37871100  0.97220300  0.02229900  1
  N  N74  1  0.83570000  0.78504800  0.05550600  1
  N  N75  1  0.34768600  0.13822900  0.63631000  1
  N  N76  1  0.89498100  0.69206400  0.27329500  1
  N  N77  1  0.08133300  0.97655400  0.75589000  1
  N  N78  1  0.35835600  0.18130800  0.12855000  1
  N  N79  1  0.96195700  0.55276700  0.91116200  1
  N  N80  1  0.38430000  0.57093500  0.07309400  1
  N  N81  1  0.36005000  0.36370700  0.98617000  1
  N  N82  1  0.93997000  0.47875600  0.37714500  1
  N  N83  1  0.31484500  0.55121400  0.85904500  1
  N  N84  1  0.35688400  0.15703800  0.88331900  1
  N  N85  1  0.40373300  0.78464800  0.15723400  1
  N  N86  1  0.71181200  0.88011000  0.87207900  1
  N  N87  1  0.99460500  0.78241700  0.88141800  1
  N  N88  1  0.91841300  0.91154700  0.36972700  1
  N  N89  1  0.93543100  0.69743800  0.47513000  1
  N  N90  1  0.70662900  0.40841200  0.07296800  1
  N  N91  1  0.49976000  0.95001600  0.57678400  1
  N  N92  1  0.50076000  0.51096500  0.57311100  1
  N  N93  1  0.30184000  0.91013200  0.56419000  1
  N  N94  1  0.00633900  0.83164000  0.64472200  1
  N  N95  1  0.91015000  0.05164500  0.62583600  1
  N  N96  1  0.88353600  0.25492800  0.32963800  1
  N  N97  1  0.72504800  0.49217200  0.12630000  1
  N  N98  1  0.37807800  0.60750300  0.30109600  1
  N  N99  1  0.31517400  0.45972300  0.46240800  1
