# generated using pymatgen
data_CrFeO3
_symmetry_space_group_name_H-M   'P 1'
_cell_length_a   10.12006643
_cell_length_b   10.47822636
_cell_length_c   10.91000671
_cell_angle_alpha   93.22044296
_cell_angle_beta   88.31479474
_cell_angle_gamma   82.27422987
_symmetry_Int_Tables_number   1
_chemical_formula_structural   CrFeO3
_chemical_formula_sum   'Cr16 Fe16 O48'
_cell_volume   1143.79012870
_cell_formula_units_Z   16
loop_
 _symmetry_equiv_pos_site_id
 _symmetry_equiv_pos_as_xyz
  1  'x, y, z'
loop_
 _atom_site_type_symbol
 _atom_site_label
 _atom_site_symmetry_multiplicity
 _atom_site_fract_x
 _atom_site_fract_y
 _atom_site_fract_z
 _atom_site_occupancy
  Cr  Cr0  1  0.07023200  0.36317900  0.84319100  1
  Cr  Cr1  1  0.39334800  0.44280600  0.95437300  1
  Cr  Cr2  1  0.61849600  0.20883500  0.25302100  1
  Cr  Cr3  1  0.22656700  0.97117300  0.39899900  1
  Cr  Cr4  1  0.77829100  0.06845800  0.79930700  1
  Cr  Cr5  1  0.56987500  0.72546200  0.36925700  1
  Cr  Cr6  1  0.25336100  0.87108400  0.72829400  1
  Cr  Cr7  1  0.55557700  0.25287500  0.80547100  1
  Cr  Cr8  1  0.29609200  0.66409100  0.21728100  1
  Cr  Cr9  1  0.48733000  0.58546100  0.74636400  1
  Cr  Cr10  1  0.33661800  0.10054000  0.90770700  1
  Cr  Cr11  1  0.08239000  0.55860400  0.60110600  1
  Cr  Cr12  1  0.99404200  0.89975400  0.64350100  1
  Cr  Cr13  1  0.03644900  0.11771900  0.93125900  1
  Cr  Cr14  1  0.01457300  0.80678000  0.20376400  1
  Cr  Cr15  1  0.31551600  0.71655400  0.49121400  1
  Fe  Fe16  1  0.19483500  0.16903000  0.17439600  1
  Fe  Fe17  1  0.86529100  0.58117600  0.20752500  1
  Fe  Fe18  1  0.02490300  0.25480300  0.36560600  1
  Fe  Fe19  1  0.49733500  0.97819700  0.30220600  1
  Fe  Fe20  1  0.75974900  0.40366100  0.39076300  1
  Fe  Fe21  1  0.55604100  0.89139300  0.86232500  1
  Fe  Fe22  1  0.27994000  0.85936000  0.02519200  1
  Fe  Fe23  1  0.60119600  0.49261800  0.16423800  1
  Fe  Fe24  1  0.87891200  0.76086200  0.45054900  1
  Fe  Fe25  1  0.86216500  0.32784100  0.08370100  1
  Fe  Fe26  1  0.15843200  0.63251400  0.92521900  1
  Fe  Fe27  1  0.55483700  0.25461100  0.52414800  1
  Fe  Fe28  1  0.32008300  0.41895100  0.37142400  1
  Fe  Fe29  1  0.72253400  0.89499700  0.12933000  1
  Fe  Fe30  1  0.74361600  0.66525900  0.95898400  1
  Fe  Fe31  1  0.80133800  0.03400100  0.39728600  1
  O  O32  1  0.98134700  0.67131300  0.31238400  1
  O  O33  1  0.18564800  0.86132900  0.57034500  1
  O  O34  1  0.78143100  0.51081600  0.05694500  1
  O  O35  1  0.65817700  0.41880200  0.56380800  1
  O  O36  1  0.60507800  0.09296800  0.40497200  1
  O  O37  1  0.55796300  0.42925900  0.86133900  1
  O  O38  1  0.68149300  0.30269700  0.12623600  1
  O  O39  1  0.22874700  0.55571400  0.49920200  1
  O  O40  1  0.86975200  0.06230700  0.93718800  1
  O  O41  1  0.50716000  0.33208900  0.35605600  1
  O  O42  1  0.11555200  0.46610600  0.96514800  1
  O  O43  1  0.71175500  0.85582800  0.95568600  1
  O  O44  1  0.83629000  0.21358900  0.39742800  1
  O  O45  1  0.58109600  0.69528700  0.83618700  1
  O  O46  1  0.45294100  0.25819900  0.68139500  1
  O  O47  1  0.19028700  0.31261200  0.30362000  1
  O  O48  1  0.56099200  0.52882200  0.59005600  1
  O  O49  1  0.93651800  0.92871400  0.47714700  1
  O  O50  1  0.01240600  0.19916300  0.09858700  1
  O  O51  1  0.20791600  0.78717900  0.85898800  1
  O  O52  1  0.87316300  0.73423600  0.10441900  1
  O  O53  1  0.40489800  0.26930300  0.94889700  1
  O  O54  1  0.41125400  0.86781900  0.42768100  1
  O  O55  1  0.96453000  0.70888000  0.59928200  1
  O  O56  1  0.92851500  0.29010000  0.89862800  1
  O  O57  1  0.86324600  0.95007700  0.23874000  1
  O  O58  1  0.59539800  0.07813300  0.84658200  1
  O  O59  1  0.07596100  0.99176000  0.76724500  1
  O  O60  1  0.16736400  0.72910100  0.08969100  1
  O  O61  1  0.31547000  0.04183600  0.26901700  1
  O  O62  1  0.91029000  0.40286200  0.25539800  1
  O  O63  1  0.17134000  0.20635500  0.84498100  1
  O  O64  1  0.72480400  0.21485400  0.72372200  1
  O  O65  1  0.32950700  0.53824400  0.82765100  1
  O  O66  1  0.59613300  0.05249100  0.16865500  1
  O  O67  1  0.18336000  0.82228000  0.30891900  1
  O  O68  1  0.19577000  0.04561800  0.00916000  1
  O  O69  1  0.80940800  0.93066400  0.70181900  1
  O  O70  1  0.38440500  0.72143900  0.65754300  1
  O  O71  1  0.70448100  0.82396200  0.43411500  1
  O  O72  1  0.37885300  0.96856200  0.77150900  1
  O  O73  1  0.57818800  0.81245800  0.21696100  1
  O  O74  1  0.42016600  0.61506200  0.35419700  1
  O  O75  1  0.04406700  0.43103700  0.69629400  1
  O  O76  1  0.41589500  0.52929300  0.09997600  1
  O  O77  1  0.12082700  0.10626100  0.45415100  1
  O  O78  1  0.43463600  0.94999500  0.99424300  1
  O  O79  1  0.69913800  0.57439400  0.30994200  1
