# generated using pymatgen
data_BeO
_symmetry_space_group_name_H-M   'P 1'
_cell_length_a   8.89395177
_cell_length_b   9.89509126
_cell_length_c   9.13312234
_cell_angle_alpha   89.10999290
_cell_angle_beta   92.04449111
_cell_angle_gamma   89.15324441
_symmetry_Int_Tables_number   1
_chemical_formula_structural   BeO
_chemical_formula_sum   'Be50 O50'
_cell_volume   803.07068356
_cell_formula_units_Z   50
loop_
 _symmetry_equiv_pos_site_id
 _symmetry_equiv_pos_as_xyz
  1  'x, y, z'
loop_
 _atom_site_type_symbol
 _atom_site_label
 _atom_site_symmetry_multiplicity
 _atom_site_fract_x
 _atom_site_fract_y
 _atom_site_fract_z
 _atom_site_occupancy
  Be  Be0  1  0.66313400  0.10862300  0.51273600  1
  Be  Be1  1  0.30279000  0.98740100  0.84041700  1
  Be  Be2  1  0.50323500  0.63533500  0.16985700  1
  Be  Be3  1  0.75928900  0.44899400  0.93570700  1
  Be  Be4  1  0.12051200  0.88133200  0.67556000  1
  Be  Be5  1  0.44329700  0.79330100  0.79149400  1
  Be  Be6  1  0.61669800  0.42408300  0.39851700  1
  Be  Be7  1  0.45688600  0.29345800  0.59132000  1
  Be  Be8  1  0.96477100  0.86079800  0.93502000  1
  Be  Be9  1  0.12959900  0.89712900  0.40074700  1
  Be  Be10  1  0.89685400  0.00046800  0.38243700  1
  Be  Be11  1  0.77420900  0.19089800  0.93992300  1
  Be  Be12  1  0.10891700  0.61036000  0.28484200  1
  Be  Be13  1  0.91948200  0.01976200  0.64996600  1
  Be  Be14  1  0.49907100  0.56349100  0.88761700  1
  Be  Be15  1  0.01994800  0.88762000  0.16616700  1
  Be  Be16  1  0.42256800  0.88602900  0.28735600  1
  Be  Be17  1  0.85870500  0.45511000  0.19790800  1
  Be  Be18  1  0.66332100  0.96607400  0.77920700  1
  Be  Be19  1  0.02366400  0.32766500  0.01361700  1
  Be  Be20  1  0.72757900  0.36480300  0.68667300  1
  Be  Be21  1  0.34036700  0.50719100  0.37415800  1
  Be  Be22  1  0.90895700  0.71809300  0.32432000  1
  Be  Be23  1  0.05284000  0.11100600  0.83821400  1
  Be  Be24  1  0.55113400  0.37358100  0.11542600  1
  Be  Be25  1  0.99240000  0.45617600  0.76336900  1
  Be  Be26  1  0.71328800  0.72271700  0.92387900  1
  Be  Be27  1  0.39312600  0.98016100  0.51910800  1
  Be  Be28  1  0.26383600  0.49545600  0.05839400  1
  Be  Be29  1  0.40833400  0.24276300  0.35456800  1
  Be  Be30  1  0.95313500  0.23111600  0.51582800  1
  Be  Be31  1  0.98793000  0.61271300  0.00135400  1
  Be  Be32  1  0.29789700  0.21528800  0.03078000  1
  Be  Be33  1  0.09526300  0.65547200  0.54411800  1
  Be  Be34  1  0.71498500  0.87201200  0.17168800  1
  Be  Be35  1  0.21907400  0.62924700  0.79471800  1
  Be  Be36  1  0.90383200  0.47172300  0.47412500  1
  Be  Be37  1  0.19234500  0.42518400  0.53903400  1
  Be  Be38  1  0.24765200  0.77288600  0.03371100  1
  Be  Be39  1  0.26063400  0.34490100  0.81228600  1
  Be  Be40  1  0.54044000  0.68800000  0.46427300  1
  Be  Be41  1  0.58858700  0.10101600  0.07530100  1
  Be  Be42  1  0.48712900  0.84313000  0.06481700  1
  Be  Be43  1  0.73851000  0.25711500  0.27904700  1
  Be  Be44  1  0.74246600  0.60491800  0.69050200  1
  Be  Be45  1  0.53722400  0.23516600  0.86382100  1
  Be  Be46  1  0.12899600  0.34570300  0.27471500  1
  Be  Be47  1  0.90114600  0.08526100  0.11055800  1
  Be  Be48  1  0.69125700  0.84583500  0.50193400  1
  Be  Be49  1  0.18784600  0.08348600  0.27486100  1
  O  O50  1  0.96784000  0.17531400  0.67147400  1
  O  O51  1  0.94524800  0.60341800  0.18301000  1
  O  O52  1  0.31077700  0.93741000  0.67298500  1
  O  O53  1  0.80875100  0.15063300  0.41920100  1
  O  O54  1  0.88897800  0.72049800  0.90873100  1
  O  O55  1  0.50999500  0.56996200  0.35208800  1
  O  O56  1  0.98752900  0.33749800  0.17684400  1
  O  O57  1  0.95261000  0.17341200  0.96255400  1
  O  O58  1  0.79199500  0.86006600  0.34584800  1
  O  O59  1  0.73099000  0.98552300  0.61622000  1
  O  O60  1  0.94860400  0.62236800  0.45746900  1
  O  O61  1  0.34200900  0.35757000  0.46911500  1
  O  O62  1  0.15905700  0.44686800  0.71471600  1
  O  O63  1  0.78831600  0.41764200  0.35707400  1
  O  O64  1  0.50623000  0.84837700  0.44460400  1
  O  O65  1  0.22363200  0.48940400  0.23148100  1
  O  O66  1  0.61576600  0.82558400  0.81415300  1
  O  O67  1  0.02109700  0.94869000  0.51955500  1
  O  O68  1  0.48539200  0.12573200  0.49598700  1
  O  O69  1  0.00505300  0.95471500  0.79150300  1
  O  O70  1  0.27917700  0.97087500  0.36497900  1
  O  O71  1  0.37476500  0.76107300  0.17810000  1
  O  O72  1  0.85414800  0.47116200  0.65285300  1
  O  O73  1  0.85479800  0.92642300  0.07857800  1
  O  O74  1  0.47876400  0.23342200  0.03051800  1
  O  O75  1  0.26215500  0.21465200  0.23692100  1
  O  O76  1  0.44837600  0.51415800  0.04933100  1
  O  O77  1  0.22325700  0.58296900  0.46954800  1
  O  O78  1  0.17852800  0.62364800  0.97173600  1
  O  O79  1  0.11373000  0.86824800  0.03673200  1
  O  O80  1  0.01935200  0.04126300  0.25304100  1
  O  O81  1  0.63735600  0.08391100  0.88544900  1
  O  O82  1  0.55299800  0.30948100  0.28483400  1
  O  O83  1  0.70375800  0.31421800  0.84459600  1
  O  O84  1  0.36976500  0.86265100  0.93087400  1
  O  O85  1  0.12046100  0.72511400  0.68801800  1
  O  O86  1  0.39375300  0.64089700  0.78011500  1
  O  O87  1  0.61438900  0.35636000  0.56342700  1
  O  O88  1  0.41038600  0.29108800  0.75419000  1
  O  O89  1  0.63351100  0.73688800  0.09037000  1
  O  O90  1  0.54410100  0.96639400  0.16523100  1
  O  O91  1  0.74562800  0.16446600  0.13153800  1
  O  O92  1  0.68082200  0.69339200  0.56534800  1
  O  O93  1  0.21107600  0.35204200  0.97890100  1
  O  O94  1  0.22949400  0.11378400  0.90132600  1
  O  O95  1  0.66841500  0.57042600  0.84500100  1
  O  O96  1  0.94414400  0.45756000  0.92341500  1
  O  O97  1  0.05146700  0.35114300  0.45663900  1
  O  O98  1  0.71390000  0.43265600  0.09432300  1
  O  O99  1  0.07763200  0.78302900  0.30058700  1
