# generated using pymatgen
data_MgV4O10
_symmetry_space_group_name_H-M   'P 1'
_cell_length_a   3.66510400
_cell_length_b   5.48092454
_cell_length_c   11.33432200
_cell_angle_alpha   90.00000000
_cell_angle_beta   90.00000000
_cell_angle_gamma   109.53307078
_symmetry_Int_Tables_number   1
_chemical_formula_structural   MgV4O10
_chemical_formula_sum   'Mg1 V4 O10'
_cell_volume   214.58204219
_cell_formula_units_Z   1
loop_
 _symmetry_equiv_pos_site_id
 _symmetry_equiv_pos_as_xyz
  1  'x, y, z'
loop_
 _atom_site_type_symbol
 _atom_site_label
 _atom_site_symmetry_multiplicity
 _atom_site_fract_x
 _atom_site_fract_y
 _atom_site_fract_z
 _atom_site_occupancy
  Mg  Mg0  1  0.89544300  0.79088400  0.75000000  1
  V  V1  1  0.20024000  0.40048200  0.60076300  1
  V  V2  1  0.79040300  0.58080700  0.39905600  1
  V  V3  1  0.79040300  0.58080700  0.10094400  1
  V  V4  1  0.20024000  0.40048200  0.89923700  1
  O  O5  1  0.72546100  0.45092200  0.25000000  1
  O  O6  1  0.30344000  0.60688000  0.75000000  1
  O  O7  1  0.24305000  0.48609800  0.06922000  1
  O  O8  1  0.76333100  0.52666100  0.92289800  1
  O  O9  1  0.76333100  0.52666100  0.57710200  1
  O  O10  1  0.24305000  0.48609800  0.43077900  1
  O  O11  1  0.04222400  0.08444700  0.63002400  1
  O  O12  1  0.94427300  0.88854700  0.38222900  1
  O  O13  1  0.04222400  0.08444700  0.86997600  1
  O  O14  1  0.94427300  0.88854700  0.11777200  1
