# generated using pymatgen
data_NbO2
_symmetry_space_group_name_H-M   'P 1'
_cell_length_a   11.45089247
_cell_length_b   11.91772163
_cell_length_c   11.50339765
_cell_angle_alpha   88.77298437
_cell_angle_beta   89.31788125
_cell_angle_gamma   99.89621770
_symmetry_Int_Tables_number   1
_chemical_formula_structural   NbO2
_chemical_formula_sum   'Nb34 O68'
_cell_volume   1545.94543680
_cell_formula_units_Z   34
loop_
 _symmetry_equiv_pos_site_id
 _symmetry_equiv_pos_as_xyz
  1  'x, y, z'
loop_
 _atom_site_type_symbol
 _atom_site_label
 _atom_site_symmetry_multiplicity
 _atom_site_fract_x
 _atom_site_fract_y
 _atom_site_fract_z
 _atom_site_occupancy
  Nb  Nb0  1  0.36191446  0.51620000  0.62723845  1
  Nb  Nb1  1  0.80818423  0.04577680  0.51547992  1
  Nb  Nb2  1  0.03606923  0.72475162  0.23063977  1
  Nb  Nb3  1  0.38246611  0.74801664  0.89435751  1
  Nb  Nb4  1  0.67020767  0.60951580  0.29564627  1
  Nb  Nb5  1  0.46478990  0.31817262  0.04221884  1
  Nb  Nb6  1  0.84994847  0.68666248  0.00962517  1
  Nb  Nb7  1  0.28889656  0.51694658  0.92437298  1
  Nb  Nb8  1  0.18990205  0.98338937  0.36407711  1
  Nb  Nb9  1  0.96269731  0.16795890  0.26996177  1
  Nb  Nb10  1  0.19543600  0.25218149  0.87069874  1
  Nb  Nb11  1  0.47061934  0.16360674  0.31787803  1
  Nb  Nb12  1  0.46631811  0.42856277  0.39560409  1
  Nb  Nb13  1  0.74719775  0.37690296  0.01325579  1
  Nb  Nb14  1  0.61818645  0.12253245  0.84614851  1
  Nb  Nb15  1  0.75739661  0.32195614  0.66757843  1
  Nb  Nb16  1  0.63675581  0.84118675  0.06389104  1
  Nb  Nb17  1  0.25207040  0.82493521  0.61538230  1
  Nb  Nb18  1  0.75340420  0.21926061  0.18262571  1
  Nb  Nb19  1  0.25027609  0.25898327  0.53284165  1
  Nb  Nb20  1  0.96409308  0.16342534  0.76420523  1
  Nb  Nb21  1  0.07609626  0.61968927  0.46447752  1
  Nb  Nb22  1  0.10472467  0.02281170  0.80435516  1
  Nb  Nb23  1  0.84496499  0.05968937  0.04804464  1
  Nb  Nb24  1  0.92606627  0.29669081  0.49518375  1
  Nb  Nb25  1  0.58286195  0.79526357  0.64114535  1
  Nb  Nb26  1  0.95394963  0.45139245  0.81610749  1
  Nb  Nb27  1  0.90450379  0.78829239  0.66363167  1
  Nb  Nb28  1  0.00908287  0.30415937  0.06487233  1
  Nb  Nb29  1  0.60694578  0.54932103  0.55061236  1
  Nb  Nb30  1  0.39448450  0.03237456  0.60760497  1
  Nb  Nb31  1  0.43374319  0.32675194  0.73301328  1
  Nb  Nb32  1  0.09937849  0.70478998  0.88278424  1
  Nb  Nb33  1  0.92366316  0.43486523  0.23850122  1
  O  O34  1  0.14985501  0.19150945  0.70788486  1
  O  O35  1  0.48003336  0.08049486  0.46470763  1
  O  O36  1  0.03058582  0.75691194  0.02280300  1
  O  O37  1  0.11413883  0.54745515  0.82870680  1
  O  O38  1  0.59410477  0.12406981  0.22524532  1
  O  O39  1  0.02170872  0.84372529  0.78716252  1
  O  O40  1  0.48097958  0.66289600  0.57288479  1
  O  O41  1  0.76936320  0.93591686  0.14222947  1
  O  O42  1  0.15778306  0.65170127  0.32090725  1
  O  O43  1  0.01177877  0.56493486  0.16442140  1
  O  O44  1  0.75213016  0.19993295  0.54070363  1
  O  O45  1  0.93557763  0.43303002  0.99155531  1
  O  O46  1  0.22680436  0.65751235  0.98543758  1
  O  O47  1  0.02265600  0.30129589  0.86263236  1
  O  O48  1  0.36470264  0.61319186  0.78999699  1
  O  O49  1  0.96381309  0.70946716  0.37881753  1
  O  O50  1  0.69985506  0.67345863  0.44574645  1
  O  O51  1  0.18297027  0.36602901  0.00807212  1
  O  O52  1  0.77283007  0.15992160  0.77438319  1
  O  O53  1  0.66741034  0.93724891  0.57331346  1
  O  O54  1  0.16549468  0.84411815  0.47739009  1
  O  O55  1  0.35074468  0.26542400  0.39541744  1
  O  O56  1  0.13156826  0.86711051  0.23492007  1
  O  O57  1  0.75562969  0.54592232  0.02525147  1
  O  O58  1  0.07420907  0.06473034  0.31564924  1
  O  O59  1  0.20524514  0.09187599  0.92245553  1
  O  O60  1  0.52179084  0.48513916  0.70545693  1
  O  O61  1  0.98547050  0.46894381  0.42811142  1
  O  O62  1  0.41571756  0.46635797  0.00309721  1
  O  O63  1  0.42537978  0.86366427  0.60056839  1
  O  O64  1  0.01060755  0.12996404  0.09422960  1
  O  O65  1  0.97697388  0.67263146  0.60127067  1
  O  O66  1  0.82710065  0.22579143  0.01116548  1
  O  O67  1  0.23605817  0.08230430  0.49642491  1
  O  O68  1  0.67108791  0.01504426  0.96133374  1
  O  O69  1  0.77653546  0.50859856  0.28233681  1
  O  O70  1  0.37590063  0.19693423  0.63817701  1
  O  O71  1  0.33137503  0.03597543  0.28407414  1
  O  O72  1  0.56328688  0.31074266  0.35581072  1
  O  O73  1  0.94233734  0.13503997  0.59572150  1
  O  O74  1  0.83085980  0.04636668  0.35822167  1
  O  O75  1  0.74014417  0.74158171  0.69002549  1
  O  O76  1  0.24026290  0.78588678  0.79525749  1
  O  O77  1  0.62121816  0.73626803  0.18607759  1
  O  O78  1  0.72474830  0.44483819  0.58016368  1
  O  O79  1  0.95082384  0.37040757  0.66574041  1
  O  O80  1  0.23351129  0.97473624  0.69152373  1
  O  O81  1  0.49624997  0.04037225  0.75824899  1
  O  O82  1  0.59734716  0.23681950  0.96705826  1
  O  O83  1  0.30603306  0.44479071  0.47901964  1
  O  O84  1  0.73424640  0.77490455  0.95645085  1
  O  O85  1  0.84470070  0.27655361  0.33017571  1
  O  O86  1  0.39378319  0.23418069  0.16539499  1
  O  O87  1  0.21212949  0.63798079  0.56869704  1
  O  O88  1  0.77903484  0.39586813  0.83107848  1
  O  O89  1  0.47008533  0.82509067  0.02169190  1
  O  O90  1  0.58916944  0.26184781  0.73037625  1
  O  O91  1  0.93228656  0.03308758  0.87878245  1
  O  O92  1  0.27729874  0.40938160  0.78073516  1
  O  O93  1  0.92639849  0.62722515  0.85674820  1
  O  O94  1  0.05721351  0.33075921  0.23662010  1
  O  O95  1  0.60755102  0.38463829  0.11379838  1
  O  O96  1  0.86191422  0.72103249  0.17178205  1
  O  O97  1  0.52898770  0.80251597  0.79295996  1
  O  O98  1  0.90301732  0.91231740  0.56575867  1
  O  O99  1  0.38375053  0.26095301  0.89267916  1
  O  O100  1  0.09834242  0.28550346  0.49344739  1
  O  O101  1  0.51003365  0.52715699  0.26273701  1
