# generated using pymatgen
data_CrBiO5
_symmetry_space_group_name_H-M   'P 1'
_cell_length_a   6.20755700
_cell_length_b   11.70522100
_cell_length_c   15.89966400
_cell_angle_alpha   90.00000000
_cell_angle_beta   90.00000000
_cell_angle_gamma   90.00000000
_symmetry_Int_Tables_number   1
_chemical_formula_structural   CrBiO5
_chemical_formula_sum   'Cr8 Bi8 O40'
_cell_volume   1155.28272819
_cell_formula_units_Z   8
loop_
 _symmetry_equiv_pos_site_id
 _symmetry_equiv_pos_as_xyz
  1  'x, y, z'
loop_
 _atom_site_type_symbol
 _atom_site_label
 _atom_site_symmetry_multiplicity
 _atom_site_fract_x
 _atom_site_fract_y
 _atom_site_fract_z
 _atom_site_occupancy
  Cr  Cr0  1  0.97885000  0.40046100  0.61742600  1
  Cr  Cr1  1  0.52115000  0.90046100  0.38257400  1
  Cr  Cr2  1  0.02115000  0.59953900  0.38257400  1
  Cr  Cr3  1  0.47885000  0.09953900  0.61742600  1
  Cr  Cr4  1  0.02115000  0.09953900  0.11742700  1
  Cr  Cr5  1  0.97885000  0.90046100  0.88257400  1
  Cr  Cr6  1  0.52115000  0.40046100  0.11742700  1
  Cr  Cr7  1  0.47885000  0.59953900  0.88257400  1
  Bi  Bi8  1  0.92778000  0.82197700  0.21439000  1
  Bi  Bi9  1  0.07222000  0.17802300  0.78561000  1
  Bi  Bi10  1  0.57222000  0.32197700  0.78561000  1
  Bi  Bi11  1  0.07222000  0.67802300  0.71439000  1
  Bi  Bi12  1  0.42778000  0.17802300  0.28561000  1
  Bi  Bi13  1  0.42778000  0.67802300  0.21439000  1
  Bi  Bi14  1  0.57222000  0.82197700  0.71439000  1
  Bi  Bi15  1  0.92778000  0.32197700  0.28561000  1
  O  O16  1  0.89012100  0.30406200  0.69898500  1
  O  O17  1  0.23624900  0.04584700  0.07881400  1
  O  O18  1  0.26375100  0.54584700  0.92118600  1
  O  O19  1  0.22668500  0.79323900  0.15253000  1
  O  O20  1  0.27331500  0.29323900  0.84747000  1
  O  O21  1  0.89012100  0.80406200  0.80101500  1
  O  O22  1  0.27331500  0.79323900  0.65253000  1
  O  O23  1  0.60987900  0.80406200  0.30101500  1
  O  O24  1  0.23624900  0.54584700  0.42118600  1
  O  O25  1  0.10987900  0.69593800  0.30101500  1
  O  O26  1  0.60987900  0.30406200  0.19898500  1
  O  O27  1  0.61045100  0.16829500  0.54741600  1
  O  O28  1  0.73624900  0.95415300  0.42118600  1
  O  O29  1  0.77331500  0.70676100  0.65253000  1
  O  O30  1  0.14280100  0.00384400  0.83843100  1
  O  O31  1  0.73624900  0.45415300  0.07881400  1
  O  O32  1  0.10987900  0.19593800  0.19898500  1
  O  O33  1  0.72668500  0.20676100  0.34747000  1
  O  O34  1  0.11045100  0.83170500  0.95258400  1
  O  O35  1  0.26375100  0.04584700  0.57881400  1
  O  O36  1  0.38954900  0.83170500  0.45258400  1
  O  O37  1  0.85719900  0.99615600  0.16156900  1
  O  O38  1  0.77331500  0.20676100  0.84747000  1
  O  O39  1  0.64280100  0.99615600  0.66156900  1
  O  O40  1  0.38954900  0.33170500  0.04741600  1
  O  O41  1  0.11045100  0.33170500  0.54741600  1
  O  O42  1  0.76375100  0.45415300  0.57881400  1
  O  O43  1  0.76375100  0.95415300  0.92118600  1
  O  O44  1  0.64280100  0.49615600  0.83843100  1
  O  O45  1  0.88954900  0.66829500  0.45258400  1
  O  O46  1  0.88954900  0.16829500  0.04741600  1
  O  O47  1  0.61045100  0.66829500  0.95258400  1
  O  O48  1  0.85719900  0.49615600  0.33843100  1
  O  O49  1  0.72668500  0.70676100  0.15253000  1
  O  O50  1  0.22668500  0.29323900  0.34747000  1
  O  O51  1  0.14280100  0.50384400  0.66156900  1
  O  O52  1  0.35719900  0.50384400  0.16156900  1
  O  O53  1  0.39012100  0.19593800  0.69898500  1
  O  O54  1  0.35719900  0.00384400  0.33843100  1
  O  O55  1  0.39012100  0.69593800  0.80101500  1
