# generated using pymatgen
data_CaVBiO5
_symmetry_space_group_name_H-M   'P 1'
_cell_length_a   5.86148843
_cell_length_b   8.32997509
_cell_length_c   11.88559600
_cell_angle_alpha   90.00000000
_cell_angle_beta   90.00000000
_cell_angle_gamma   111.00310457
_symmetry_Int_Tables_number   1
_chemical_formula_structural   CaVBiO5
_chemical_formula_sum   'Ca4 V4 Bi4 O20'
_cell_volume   541.77041195
_cell_formula_units_Z   4
loop_
 _symmetry_equiv_pos_site_id
 _symmetry_equiv_pos_as_xyz
  1  'x, y, z'
loop_
 _atom_site_type_symbol
 _atom_site_label
 _atom_site_symmetry_multiplicity
 _atom_site_fract_x
 _atom_site_fract_y
 _atom_site_fract_z
 _atom_site_occupancy
  Ca  Ca0  1  0.64121600  0.18781300  0.91438100  1
  Ca  Ca1  1  0.35878400  0.81218700  0.08561900  1
  Ca  Ca2  1  0.85878400  0.31218700  0.41438100  1
  Ca  Ca3  1  0.14121600  0.68781300  0.58561900  1
  V  V4  1  0.80141600  0.97053000  0.64611800  1
  V  V5  1  0.19858400  0.02947100  0.35388200  1
  V  V6  1  0.69858400  0.52947000  0.14611800  1
  V  V7  1  0.30141600  0.47052900  0.85388200  1
  Bi  Bi8  1  0.13238200  0.16741600  0.09204800  1
  Bi  Bi9  1  0.86761800  0.83258400  0.90795200  1
  Bi  Bi10  1  0.63238200  0.66741600  0.40795200  1
  Bi  Bi11  1  0.36761800  0.33258400  0.59204800  1
  O  O12  1  0.55797400  0.33280500  0.07599500  1
  O  O13  1  0.07094500  0.32783900  0.94100700  1
  O  O14  1  0.48600900  0.61871800  0.18166700  1
  O  O15  1  0.74148900  0.51267800  0.52610700  1
  O  O16  1  0.81176000  0.49980900  0.27722300  1
  O  O17  1  0.31176000  0.99980900  0.22277700  1
  O  O18  1  0.57094500  0.82783900  0.55899300  1
  O  O19  1  0.42905500  0.17216100  0.44100700  1
  O  O20  1  0.25851100  0.48732200  0.47389300  1
  O  O21  1  0.94202600  0.16719500  0.57599500  1
  O  O22  1  0.18824000  0.50019100  0.72277700  1
  O  O23  1  0.44202600  0.66719500  0.92400500  1
  O  O24  1  0.05797400  0.83280500  0.42400500  1
  O  O25  1  0.68824000  0.00019100  0.77722300  1
  O  O26  1  0.75851100  0.98732200  0.02610700  1
  O  O27  1  0.24148900  0.01267800  0.97389300  1
  O  O28  1  0.51399100  0.38128200  0.81833300  1
  O  O29  1  0.92905500  0.67216100  0.05899300  1
  O  O30  1  0.01399100  0.88128200  0.68166700  1
  O  O31  1  0.98600900  0.11871800  0.31833300  1
