# generated using pymatgen
data_TaN
_symmetry_space_group_name_H-M   'P 1'
_cell_length_a   10.86666605
_cell_length_b   10.79950297
_cell_length_c   10.71306347
_cell_angle_alpha   91.35067303
_cell_angle_beta   92.80160402
_cell_angle_gamma   85.58013624
_symmetry_Int_Tables_number   1
_chemical_formula_structural   TaN
_chemical_formula_sum   'Ta50 N50'
_cell_volume   1251.74249832
_cell_formula_units_Z   50
loop_
 _symmetry_equiv_pos_site_id
 _symmetry_equiv_pos_as_xyz
  1  'x, y, z'
loop_
 _atom_site_type_symbol
 _atom_site_label
 _atom_site_symmetry_multiplicity
 _atom_site_fract_x
 _atom_site_fract_y
 _atom_site_fract_z
 _atom_site_occupancy
  Ta  Ta0  1  0.82817100  0.54503500  0.99825000  1
  Ta  Ta1  1  0.07608400  0.72604900  0.03020000  1
  Ta  Ta2  1  0.49440400  0.61821700  0.15155300  1
  Ta  Ta3  1  0.21655400  0.88593300  0.28159600  1
  Ta  Ta4  1  0.00519900  0.77234100  0.76297100  1
  Ta  Ta5  1  0.91125500  0.44473700  0.23968900  1
  Ta  Ta6  1  0.31104100  0.06136600  0.45252600  1
  Ta  Ta7  1  0.19126200  0.25008000  0.28515500  1
  Ta  Ta8  1  0.77420500  0.20185500  0.94937000  1
  Ta  Ta9  1  0.95231900  0.99826700  0.29446400  1
  Ta  Ta10  1  0.01017500  0.17745100  0.79446000  1
  Ta  Ta11  1  0.05395500  0.96295900  0.56458800  1
  Ta  Ta12  1  0.80707100  0.83588900  0.45774300  1
  Ta  Ta13  1  0.56013100  0.18616400  0.72419600  1
  Ta  Ta14  1  0.79213800  0.33023700  0.69499400  1
  Ta  Ta15  1  0.42181800  0.38659900  0.27758800  1
  Ta  Ta16  1  0.74181300  0.59747500  0.39906600  1
  Ta  Ta17  1  0.72157900  0.76025900  0.14714700  1
  Ta  Ta18  1  0.55926300  0.15284800  0.41696300  1
  Ta  Ta19  1  0.99880400  0.27561900  0.03959100  1
  Ta  Ta20  1  0.50905300  0.87005300  0.36835900  1
  Ta  Ta21  1  0.21418500  0.45566200  0.09145000  1
  Ta  Ta22  1  0.31365100  0.82110000  0.54510100  1
  Ta  Ta23  1  0.58883700  0.75823200  0.87583000  1
  Ta  Ta24  1  0.29063200  0.14245500  0.71806800  1
  Ta  Ta25  1  0.67350800  0.31979600  0.20573300  1
  Ta  Ta26  1  0.82171500  0.26534000  0.42480800  1
  Ta  Ta27  1  0.27907800  0.61633400  0.33827500  1
  Ta  Ta28  1  0.34965700  0.32591100  0.52356900  1
  Ta  Ta29  1  0.53907300  0.04817200  0.93207000  1
  Ta  Ta30  1  0.96761400  0.48952900  0.50935100  1
  Ta  Ta31  1  0.77716200  0.62840900  0.67906800  1
  Ta  Ta32  1  0.55189700  0.91702900  0.64892200  1
  Ta  Ta33  1  0.40042200  0.89071300  0.10641100  1
  Ta  Ta34  1  0.72089800  0.02921500  0.14187500  1
  Ta  Ta35  1  0.60064700  0.41235200  0.49783500  1
  Ta  Ta36  1  0.46380700  0.31566100  0.03136100  1
  Ta  Ta37  1  0.01505900  0.69681000  0.30519600  1
  Ta  Ta38  1  0.78762400  0.94300600  0.83654000  1
  Ta  Ta39  1  0.46965900  0.60791200  0.62118200  1
  Ta  Ta40  1  0.26767200  0.14153100  0.99887000  1
  Ta  Ta41  1  0.02292800  0.46089800  0.83415800  1
  Ta  Ta42  1  0.05154900  0.00502400  0.03182400  1
  Ta  Ta43  1  0.61233200  0.49743500  0.84494300  1
  Ta  Ta44  1  0.29275700  0.38803600  0.82158500  1
  Ta  Ta45  1  0.34446100  0.63755200  0.87140800  1
  Ta  Ta46  1  0.78919300  0.05855900  0.59190800  1
  Ta  Ta47  1  0.17477500  0.60915100  0.60160700  1
  Ta  Ta48  1  0.08328700  0.23547200  0.53701100  1
  Ta  Ta49  1  0.25770600  0.89860500  0.79234200  1
  N  N50  1  0.31818400  0.53516800  0.69790000  1
  N  N51  1  0.81434000  0.48667300  0.80767800  1
  N  N52  1  0.49766200  0.75671800  0.51606900  1
  N  N53  1  0.70431400  0.15780200  0.29874600  1
  N  N54  1  0.37372800  0.97455800  0.93176000  1
  N  N55  1  0.13955700  0.30325700  0.90897700  1
  N  N56  1  0.15220800  0.62114700  0.17570400  1
  N  N57  1  0.11096800  0.57501600  0.42506700  1
  N  N58  1  0.40559900  0.21165100  0.86219400  1
  N  N59  1  0.99262800  0.33209400  0.38889000  1
  N  N60  1  0.64611200  0.61456600  0.01127000  1
  N  N61  1  0.43262700  0.14287200  0.58626800  1
  N  N62  1  0.98774400  0.33818700  0.67964200  1
  N  N63  1  0.23149500  0.99395600  0.11398700  1
  N  N64  1  0.14702400  0.07606400  0.33449100  1
  N  N65  1  0.15072400  0.78975400  0.64259200  1
  N  N66  1  0.65897100  0.31069500  0.83028500  1
  N  N67  1  0.36822800  0.75126500  0.24095800  1
  N  N68  1  0.99235600  0.59838500  0.67455100  1
  N  N69  1  0.61734000  0.68504800  0.27269700  1
  N  N70  1  0.67296800  0.23103900  0.56292200  1
  N  N71  1  0.87428900  0.63272000  0.17623700  1
  N  N72  1  0.04194300  0.85942400  0.17562800  1
  N  N73  1  0.81547700  0.36373900  0.08200400  1
  N  N74  1  0.83328700  0.12367700  0.77759700  1
  N  N75  1  0.41536200  0.49071000  0.45479300  1
  N  N76  1  0.08203600  0.37661100  0.18199900  1
  N  N77  1  0.42082500  0.77994400  0.74822500  1
  N  N78  1  0.99440000  0.84475500  0.42237600  1
  N  N79  1  0.89575100  0.89507000  0.65259300  1
  N  N80  1  0.64892000  0.96545400  0.48341000  1
  N  N81  1  0.55461200  0.94744200  0.19441500  1
  N  N82  1  0.95943700  0.63978000  0.91906800  1
  N  N83  1  0.18219600  0.77627500  0.89818300  1
  N  N84  1  0.37743900  0.21525500  0.35841900  1
  N  N85  1  0.95489700  0.88320700  0.91917600  1
  N  N86  1  0.69082900  0.80020600  0.71937100  1
  N  N87  1  0.15351000  0.05844400  0.85486900  1
  N  N88  1  0.31316700  0.28082800  0.13780600  1
  N  N89  1  0.44509000  0.47038500  0.92437400  1
  N  N90  1  0.79875900  0.89716200  0.26873100  1
  N  N91  1  0.91197400  0.10801700  0.12305900  1
  N  N92  1  0.19424200  0.53243200  0.91626000  1
  N  N93  1  0.61332600  0.18270000  0.05882500  1
  N  N94  1  0.21952200  0.31239200  0.65417400  1
  N  N95  1  0.78643500  0.44982400  0.53753000  1
  N  N96  1  0.93520600  0.10393900  0.46770000  1
  N  N97  1  0.43342100  0.73397600  0.00468800  1
  N  N98  1  0.68469200  0.88966100  0.99275900  1
  N  N99  1  0.24133400  0.98785000  0.61928700  1
