# generated using pymatgen
data_MgTi2(CuO4)2
_symmetry_space_group_name_H-M   'P 1'
_cell_length_a   6.42097092
_cell_length_b   8.35683600
_cell_length_c   12.07266032
_cell_angle_alpha   90.00000000
_cell_angle_beta   91.58964049
_cell_angle_gamma   90.00000000
_symmetry_Int_Tables_number   1
_chemical_formula_structural   MgTi2(CuO4)2
_chemical_formula_sum   'Mg4 Ti8 Cu8 O32'
_cell_volume   647.55758086
_cell_formula_units_Z   4
loop_
 _symmetry_equiv_pos_site_id
 _symmetry_equiv_pos_as_xyz
  1  'x, y, z'
loop_
 _atom_site_type_symbol
 _atom_site_label
 _atom_site_symmetry_multiplicity
 _atom_site_fract_x
 _atom_site_fract_y
 _atom_site_fract_z
 _atom_site_occupancy
  Mg  Mg0  1  0.11333900  0.15774600  0.04778500  1
  Mg  Mg1  1  0.88666100  0.84225400  0.95221500  1
  Mg  Mg2  1  0.88666100  0.65774600  0.45221500  1
  Mg  Mg3  1  0.11333900  0.34225400  0.54778500  1
  Ti  Ti4  1  0.09823900  0.45823300  0.83981600  1
  Ti  Ti5  1  0.09823900  0.04176700  0.33981600  1
  Ti  Ti6  1  0.61282100  0.08905400  0.13720600  1
  Ti  Ti7  1  0.90176100  0.95823300  0.66018400  1
  Ti  Ti8  1  0.38717900  0.91094600  0.86279400  1
  Ti  Ti9  1  0.38717900  0.58905400  0.36279400  1
  Ti  Ti10  1  0.61282100  0.41094600  0.63720600  1
  Ti  Ti11  1  0.90176100  0.54176700  0.16018400  1
  Cu  Cu12  1  0.76509900  0.18230100  0.87543200  1
  Cu  Cu13  1  0.37387100  0.06173800  0.62811700  1
  Cu  Cu14  1  0.62612900  0.93826200  0.37188300  1
  Cu  Cu15  1  0.23490100  0.81769900  0.12456800  1
  Cu  Cu16  1  0.76509900  0.31769900  0.37543200  1
  Cu  Cu17  1  0.37387100  0.43826200  0.12811700  1
  Cu  Cu18  1  0.23490100  0.68230100  0.62456800  1
  Cu  Cu19  1  0.62612900  0.56173800  0.87188300  1
  O  O20  1  0.03136600  0.24327400  0.39728000  1
  O  O21  1  0.65008400  0.01460300  0.60433100  1
  O  O22  1  0.19294400  0.57557900  0.47554200  1
  O  O23  1  0.80705600  0.07557900  0.02445800  1
  O  O24  1  0.03136600  0.25672600  0.89728000  1
  O  O25  1  0.96863400  0.75672600  0.60272000  1
  O  O26  1  0.09265400  0.11263800  0.61383200  1
  O  O27  1  0.50024000  0.89576200  0.14186500  1
  O  O28  1  0.50024000  0.60423800  0.64186500  1
  O  O29  1  0.30505000  0.87489500  0.70873700  1
  O  O30  1  0.69495000  0.37489500  0.79126300  1
  O  O31  1  0.49976000  0.10423800  0.85813500  1
  O  O32  1  0.90734600  0.88736300  0.38616800  1
  O  O33  1  0.88300800  0.53317000  0.30805900  1
  O  O34  1  0.41761800  0.27119700  0.58531300  1
  O  O35  1  0.41761800  0.22880300  0.08531300  1
  O  O36  1  0.11699200  0.03317000  0.19194100  1
  O  O37  1  0.49976000  0.39576200  0.35813500  1
  O  O38  1  0.11699200  0.46683000  0.69194100  1
  O  O39  1  0.80705600  0.42442100  0.52445800  1
  O  O40  1  0.65008400  0.48539700  0.10433100  1
  O  O41  1  0.69495000  0.12510500  0.29126300  1
  O  O42  1  0.96863400  0.74327400  0.10272000  1
  O  O43  1  0.09265400  0.38736200  0.11383200  1
  O  O44  1  0.19294400  0.92442100  0.97554200  1
  O  O45  1  0.58238200  0.77119700  0.91468700  1
  O  O46  1  0.34991600  0.98539700  0.39566900  1
  O  O47  1  0.34991600  0.51460300  0.89566900  1
  O  O48  1  0.90734600  0.61263700  0.88616800  1
  O  O49  1  0.58238200  0.72880300  0.41468700  1
  O  O50  1  0.30505000  0.62510500  0.20873700  1
  O  O51  1  0.88300800  0.96683000  0.80805900  1
