# generated using pymatgen
data_La4MnS6O
_symmetry_space_group_name_H-M   'P 1'
_cell_length_a   9.49823196
_cell_length_b   9.50265651
_cell_length_c   6.79736211
_cell_angle_alpha   89.93722787
_cell_angle_beta   90.04778096
_cell_angle_gamma   120.07758571
_symmetry_Int_Tables_number   1
_chemical_formula_structural   La4MnS6O
_chemical_formula_sum   'La8 Mn2 S12 O2'
_cell_volume   530.90704912
_cell_formula_units_Z   2
loop_
 _symmetry_equiv_pos_site_id
 _symmetry_equiv_pos_as_xyz
  1  'x, y, z'
loop_
 _atom_site_type_symbol
 _atom_site_label
 _atom_site_symmetry_multiplicity
 _atom_site_fract_x
 _atom_site_fract_y
 _atom_site_fract_z
 _atom_site_occupancy
  La  La0  1  0.39251200  0.19660400  0.17919700  1
  La  La1  1  0.33364900  0.66679600  0.21196300  1
  La  La2  1  0.19710200  0.80353000  0.68029200  1
  La  La3  1  0.66639700  0.33321100  0.71190100  1
  La  La4  1  0.80319100  0.60709300  0.18016700  1
  La  La5  1  0.19688700  0.39297600  0.68074400  1
  La  La6  1  0.60768900  0.80369900  0.67933000  1
  La  La7  1  0.80270100  0.19694300  0.18083700  1
  Mn  Mn8  1  0.00120000  0.00304900  0.51125800  1
  Mn  Mn9  1  0.99713200  0.99530400  0.01521400  1
  S  S10  1  0.88141200  0.11872800  0.78217500  1
  S  S11  1  0.47019000  0.93962200  0.95979200  1
  S  S12  1  0.06056900  0.53031500  0.95977500  1
  S  S13  1  0.53021100  0.46960700  0.45980800  1
  S  S14  1  0.53025900  0.06063600  0.45975900  1
  S  S15  1  0.76215500  0.88120200  0.28125600  1
  S  S16  1  0.11809800  0.23663300  0.28119300  1
  S  S17  1  0.88192700  0.76327300  0.78093700  1
  S  S18  1  0.47007300  0.53065600  0.95995000  1
  S  S19  1  0.93957800  0.46975500  0.45969100  1
  S  S20  1  0.23817000  0.11874300  0.78101800  1
  S  S21  1  0.11867200  0.88145700  0.28237700  1
  O  O22  1  0.33344200  0.66649500  0.55812500  1
  O  O23  1  0.66678300  0.33367100  0.05818300  1
