# generated using pymatgen
data_TiZnMo(PO4)3
_symmetry_space_group_name_H-M   'P 1'
_cell_length_a   8.68758449
_cell_length_b   8.68758501
_cell_length_c   8.68758538
_cell_angle_alpha   60.45085104
_cell_angle_beta   60.45085444
_cell_angle_gamma   60.45086517
_symmetry_Int_Tables_number   1
_chemical_formula_structural   TiZnMo(PO4)3
_chemical_formula_sum   'Ti2 Zn2 Mo2 P6 O24'
_cell_volume   468.36709019
_cell_formula_units_Z   2
loop_
 _symmetry_equiv_pos_site_id
 _symmetry_equiv_pos_as_xyz
  1  'x, y, z'
loop_
 _atom_site_type_symbol
 _atom_site_label
 _atom_site_symmetry_multiplicity
 _atom_site_fract_x
 _atom_site_fract_y
 _atom_site_fract_z
 _atom_site_occupancy
  Ti  Ti0  1  0.14622200  0.14622200  0.14622200  1
  Ti  Ti1  1  0.64622200  0.64622200  0.64622200  1
  Zn  Zn2  1  0.00113500  0.00113500  0.00113500  1
  Zn  Zn3  1  0.50113500  0.50113500  0.50113500  1
  Mo  Mo4  1  0.35773700  0.35773700  0.35773700  1
  Mo  Mo5  1  0.85773700  0.85773700  0.85773700  1
  P  P6  1  0.04301700  0.44988200  0.75686200  1
  P  P7  1  0.44988200  0.75686200  0.04301700  1
  P  P8  1  0.75686200  0.04301700  0.44988200  1
  P  P9  1  0.25686200  0.94988200  0.54301700  1
  P  P10  1  0.54301700  0.25686200  0.94988200  1
  P  P11  1  0.94988200  0.54301700  0.25686200  1
  O  O12  1  0.09658600  0.50423800  0.32666500  1
  O  O13  1  0.32666500  0.09658600  0.50423800  1
  O  O14  1  0.05279600  0.25470900  0.91656400  1
  O  O15  1  0.50423800  0.32666500  0.09658600  1
  O  O16  1  0.00423800  0.59658600  0.82666500  1
  O  O17  1  0.23746000  0.43417200  0.60052900  1
  O  O18  1  0.25470900  0.91656400  0.05279600  1
  O  O19  1  0.43417200  0.60052900  0.23746000  1
  O  O20  1  0.19070400  0.00190900  0.37881400  1
  O  O21  1  0.60052900  0.23746000  0.43417200  1
  O  O22  1  0.10052900  0.93417200  0.73746000  1
  O  O23  1  0.37881400  0.19070400  0.00190900  1
  O  O24  1  0.59658600  0.82666500  0.00423800  1
  O  O25  1  0.91656400  0.05279600  0.25470900  1
  O  O26  1  0.41656400  0.75470900  0.55279600  1
  O  O27  1  0.82666500  0.00423800  0.59658600  1
  O  O28  1  0.55279600  0.41656400  0.75470900  1
  O  O29  1  0.73746000  0.10052900  0.93417200  1
  O  O30  1  0.75470900  0.55279600  0.41656400  1
  O  O31  1  0.00190900  0.37881400  0.19070400  1
  O  O32  1  0.50190900  0.69070400  0.87881400  1
  O  O33  1  0.93417200  0.73746000  0.10052900  1
  O  O34  1  0.69070400  0.87881400  0.50190900  1
  O  O35  1  0.87881400  0.50190900  0.69070400  1
