# generated using pymatgen
data_CsMg6Zn
_symmetry_space_group_name_H-M   'P 1'
_cell_length_a   9.66582604
_cell_length_b   9.66582604
_cell_length_c   5.22620500
_cell_angle_alpha   90.00000000
_cell_angle_beta   90.00000000
_cell_angle_gamma   144.13048286
_symmetry_Int_Tables_number   1
_chemical_formula_structural   CsMg6Zn
_chemical_formula_sum   'Cs1 Mg6 Zn1'
_cell_volume   286.10042849
_cell_formula_units_Z   1
loop_
 _symmetry_equiv_pos_site_id
 _symmetry_equiv_pos_as_xyz
  1  'x, y, z'
loop_
 _atom_site_type_symbol
 _atom_site_label
 _atom_site_symmetry_multiplicity
 _atom_site_fract_x
 _atom_site_fract_y
 _atom_site_fract_z
 _atom_site_occupancy
  Cs  Cs0  1  0.29091400  0.70908600  0.50000000  1
  Mg  Mg1  1  0.31456200  0.18238900  0.50000000  1
  Mg  Mg2  1  0.81761100  0.68543800  0.50000000  1
  Mg  Mg3  1  0.20098100  0.28633000  0.00000000  1
  Mg  Mg4  1  0.71367000  0.79901900  0.00000000  1
  Mg  Mg5  1  0.61697000  0.38303000  0.00000000  1
  Mg  Mg6  1  0.10897200  0.89102800  0.00000000  1
  Zn  Zn7  1  0.93632300  0.06367700  0.50000000  1
