# generated using pymatgen
data_Y4Mn13Si2(SbO14)2
_symmetry_space_group_name_H-M   'P 1'
_cell_length_a   5.82308768
_cell_length_b   9.50378928
_cell_length_c   12.57507902
_cell_angle_alpha   87.55430435
_cell_angle_beta   76.61266984
_cell_angle_gamma   79.37944287
_symmetry_Int_Tables_number   1
_chemical_formula_structural   Y4Mn13Si2(SbO14)2
_chemical_formula_sum   'Y4 Mn13 Si2 Sb2 O28'
_cell_volume   665.41452321
_cell_formula_units_Z   1
loop_
 _symmetry_equiv_pos_site_id
 _symmetry_equiv_pos_as_xyz
  1  'x, y, z'
loop_
 _atom_site_type_symbol
 _atom_site_label
 _atom_site_symmetry_multiplicity
 _atom_site_fract_x
 _atom_site_fract_y
 _atom_site_fract_z
 _atom_site_occupancy
  Y  Y0  1  0.07047600  0.65442500  0.41548500  1
  Y  Y1  1  0.51403900  0.34557500  0.41548500  1
  Y  Y2  1  0.92952400  0.34557500  0.58451500  1
  Y  Y3  1  0.48596100  0.65442500  0.58451500  1
  Mn  Mn4  1  0.92308400  0.64755600  0.73682000  1
  Mn  Mn5  1  0.66428000  0.32811400  0.12628600  1
  Mn  Mn6  1  0.34009500  0.35244400  0.73682000  1
  Mn  Mn7  1  0.07691600  0.35244400  0.26318000  1
  Mn  Mn8  1  0.33572000  0.67188600  0.87371400  1
  Mn  Mn9  1  0.29070500  0.00000000  0.41859000  1
  Mn  Mn10  1  0.20943500  0.67188600  0.12628600  1
  Mn  Mn11  1  0.00000000  0.00000000  0.00000000  1
  Mn  Mn12  1  0.42789900  0.00000000  0.14420400  1
  Mn  Mn13  1  0.79056500  0.32811400  0.87371400  1
  Mn  Mn14  1  0.65990500  0.64755600  0.26318000  1
  Mn  Mn15  1  0.57210100  0.00000000  0.85579600  1
  Mn  Mn16  1  0.70929500  0.00000000  0.58141000  1
  Si  Si17  1  0.24569800  0.29465200  0.00000000  1
  Si  Si18  1  0.75430200  0.70534800  0.00000000  1
  Sb  Sb19  1  0.85938800  0.00000000  0.28122400  1
  Sb  Sb20  1  0.14061200  0.00000000  0.71877600  1
  O  O21  1  0.71497500  0.40433000  0.26352500  1
  O  O22  1  0.13627700  0.38875800  0.42120600  1
  O  O23  1  0.95979100  0.34091500  0.00000000  1
  O  O24  1  0.30905500  0.11668700  0.00000000  1
  O  O25  1  0.86372300  0.61124200  0.57879400  1
  O  O26  1  0.28502500  0.59567000  0.73647500  1
  O  O27  1  0.01130700  0.10832100  0.59081700  1
  O  O28  1  0.98869300  0.89167900  0.40918300  1
  O  O29  1  0.69094500  0.88331300  0.00000000  1
  O  O30  1  0.11493100  0.89391200  0.15627700  1
  O  O31  1  0.31051900  0.35735400  0.10829600  1
  O  O32  1  0.02150000  0.59567000  0.26352500  1
  O  O33  1  0.39787500  0.89167900  0.59081700  1
  O  O34  1  0.72879100  0.10608800  0.15627700  1
  O  O35  1  0.58118400  0.64264600  0.10829600  1
  O  O36  1  0.04020900  0.65908500  0.00000000  1
  O  O37  1  0.27120900  0.89391200  0.84372300  1
  O  O38  1  0.88506900  0.10608800  0.84372300  1
  O  O39  1  0.60212500  0.10832100  0.40918300  1
  O  O40  1  0.11310200  0.12017800  0.28672400  1
  O  O41  1  0.88689800  0.87982200  0.71327600  1
  O  O42  1  0.41881600  0.35735400  0.89170400  1
  O  O43  1  0.39982400  0.12017800  0.71327600  1
  O  O44  1  0.55748300  0.38875800  0.57879400  1
  O  O45  1  0.68948100  0.64264600  0.89170400  1
  O  O46  1  0.60017600  0.87982200  0.28672400  1
  O  O47  1  0.97850000  0.40433000  0.73647500  1
  O  O48  1  0.44251700  0.61124200  0.42120600  1
