# generated using pymatgen
data_Cr3O7
_symmetry_space_group_name_H-M   'P 1'
_cell_length_a   5.28754900
_cell_length_b   10.53880000
_cell_length_c   11.26393300
_cell_angle_alpha   90.00000000
_cell_angle_beta   90.00000000
_cell_angle_gamma   90.00000000
_symmetry_Int_Tables_number   1
_chemical_formula_structural   Cr3O7
_chemical_formula_sum   'Cr12 O28'
_cell_volume   627.67614913
_cell_formula_units_Z   4
loop_
 _symmetry_equiv_pos_site_id
 _symmetry_equiv_pos_as_xyz
  1  'x, y, z'
loop_
 _atom_site_type_symbol
 _atom_site_label
 _atom_site_symmetry_multiplicity
 _atom_site_fract_x
 _atom_site_fract_y
 _atom_site_fract_z
 _atom_site_occupancy
  Cr  Cr0  1  0.29473800  0.02007200  0.30304700  1
  Cr  Cr1  1  0.79473800  0.97992800  0.19695300  1
  Cr  Cr2  1  0.70526200  0.52007200  0.69695300  1
  Cr  Cr3  1  0.20526200  0.47992800  0.80304700  1
  Cr  Cr4  1  0.29622200  0.75000000  0.22636800  1
  Cr  Cr5  1  0.79622200  0.25000000  0.27363200  1
  Cr  Cr6  1  0.70377800  0.25000000  0.77363200  1
  Cr  Cr7  1  0.20377800  0.75000000  0.72636800  1
  Cr  Cr8  1  0.79473800  0.52007200  0.19695300  1
  Cr  Cr9  1  0.29473800  0.47992800  0.30304700  1
  Cr  Cr10  1  0.20526200  0.02007200  0.80304700  1
  Cr  Cr11  1  0.70526200  0.97992800  0.69695300  1
  O  O12  1  0.93702800  0.11360500  0.73112600  1
  O  O13  1  0.43702800  0.88639500  0.76887400  1
  O  O14  1  0.06297200  0.61360500  0.26887400  1
  O  O15  1  0.56297200  0.38639500  0.23112600  1
  O  O16  1  0.06297200  0.88639500  0.26887400  1
  O  O17  1  0.56297200  0.11360500  0.23112600  1
  O  O18  1  0.93702800  0.38639500  0.73112600  1
  O  O19  1  0.43702800  0.61360500  0.76887400  1
  O  O20  1  0.46834800  0.11311700  0.72719700  1
  O  O21  1  0.96834800  0.88688300  0.77280300  1
  O  O22  1  0.53165200  0.61311700  0.27280300  1
  O  O23  1  0.03165200  0.38688400  0.22719700  1
  O  O24  1  0.53165200  0.88688300  0.27280300  1
  O  O25  1  0.03165200  0.11311700  0.22719700  1
  O  O26  1  0.46834800  0.38688400  0.72719700  1
  O  O27  1  0.96834800  0.61311700  0.77280300  1
  O  O28  1  0.19045300  0.75000000  0.58198200  1
  O  O29  1  0.69045300  0.25000000  0.91801800  1
  O  O30  1  0.80954700  0.25000000  0.41801800  1
  O  O31  1  0.30954700  0.75000000  0.08198200  1
  O  O32  1  0.21485900  0.44259300  0.93893200  1
  O  O33  1  0.71485900  0.55740600  0.56106800  1
  O  O34  1  0.78514100  0.94259400  0.06106800  1
  O  O35  1  0.28514100  0.05740700  0.43893200  1
  O  O36  1  0.78514100  0.55740600  0.06106800  1
  O  O37  1  0.28514100  0.44259300  0.43893200  1
  O  O38  1  0.21485900  0.05740700  0.93893200  1
  O  O39  1  0.71485900  0.94259400  0.56106800  1
