# generated using pymatgen
data_ZnBiMoO5
_symmetry_space_group_name_H-M   'P 1'
_cell_length_a   5.39060545
_cell_length_b   8.05024882
_cell_length_c   11.92917900
_cell_angle_alpha   90.00000000
_cell_angle_beta   90.00000000
_cell_angle_gamma   104.64984856
_symmetry_Int_Tables_number   1
_chemical_formula_structural   ZnBiMoO5
_chemical_formula_sum   'Zn4 Bi4 Mo4 O20'
_cell_volume   500.84537178
_cell_formula_units_Z   4
loop_
 _symmetry_equiv_pos_site_id
 _symmetry_equiv_pos_as_xyz
  1  'x, y, z'
loop_
 _atom_site_type_symbol
 _atom_site_label
 _atom_site_symmetry_multiplicity
 _atom_site_fract_x
 _atom_site_fract_y
 _atom_site_fract_z
 _atom_site_occupancy
  Zn  Zn0  1  0.60670500  0.16331700  0.91612100  1
  Zn  Zn1  1  0.39329500  0.83668300  0.08387900  1
  Zn  Zn2  1  0.89329500  0.33668300  0.41612100  1
  Zn  Zn3  1  0.10670500  0.66331700  0.58387900  1
  Bi  Bi4  1  0.09843500  0.16015500  0.10274500  1
  Bi  Bi5  1  0.90156500  0.83984500  0.89725500  1
  Bi  Bi6  1  0.59843500  0.66015500  0.39725500  1
  Bi  Bi7  1  0.40156500  0.33984500  0.60274500  1
  Mo  Mo8  1  0.77795400  0.96942500  0.63648200  1
  Mo  Mo9  1  0.22204600  0.03057500  0.36351800  1
  Mo  Mo10  1  0.72204600  0.53057500  0.13648200  1
  Mo  Mo11  1  0.27795400  0.46942500  0.86351800  1
  O  O12  1  0.53448300  0.33089800  0.06944700  1
  O  O13  1  0.99986500  0.32689700  0.93136100  1
  O  O14  1  0.50313900  0.66620800  0.18494000  1
  O  O15  1  0.75611800  0.51406500  0.52467600  1
  O  O16  1  0.78118400  0.48640000  0.29144900  1
  O  O17  1  0.28118400  0.98640000  0.20855100  1
  O  O18  1  0.49986500  0.82689700  0.56863900  1
  O  O19  1  0.50013500  0.17310300  0.43136100  1
  O  O20  1  0.24388200  0.48593500  0.47532400  1
  O  O21  1  0.96551700  0.16910200  0.56944700  1
  O  O22  1  0.21881600  0.51360000  0.70855100  1
  O  O23  1  0.46551700  0.66910200  0.93055300  1
  O  O24  1  0.03448300  0.83089800  0.43055300  1
  O  O25  1  0.71881600  0.01360000  0.79144900  1
  O  O26  1  0.74388200  0.98593500  0.02467600  1
  O  O27  1  0.25611800  0.01406500  0.97532400  1
  O  O28  1  0.49686100  0.33379200  0.81506000  1
  O  O29  1  0.00013500  0.67310300  0.06863900  1
  O  O30  1  0.99686100  0.83379200  0.68494000  1
  O  O31  1  0.00313900  0.16620800  0.31506000  1
