# generated using pymatgen
data_ZnBiWO5
_symmetry_space_group_name_H-M   'P 1'
_cell_length_a   5.38062888
_cell_length_b   8.07748336
_cell_length_c   12.01560400
_cell_angle_alpha   90.00000000
_cell_angle_beta   90.00000000
_cell_angle_gamma   104.70133226
_symmetry_Int_Tables_number   1
_chemical_formula_structural   ZnBiWO5
_chemical_formula_sum   'Zn4 Bi4 W4 O20'
_cell_volume   505.12489969
_cell_formula_units_Z   4
loop_
 _symmetry_equiv_pos_site_id
 _symmetry_equiv_pos_as_xyz
  1  'x, y, z'
loop_
 _atom_site_type_symbol
 _atom_site_label
 _atom_site_symmetry_multiplicity
 _atom_site_fract_x
 _atom_site_fract_y
 _atom_site_fract_z
 _atom_site_occupancy
  Zn  Zn0  1  0.60283100  0.16554500  0.91490300  1
  Zn  Zn1  1  0.39716900  0.83445500  0.08509700  1
  Zn  Zn2  1  0.89716900  0.33445500  0.41490300  1
  Zn  Zn3  1  0.10283100  0.66554500  0.58509700  1
  Bi  Bi4  1  0.09736800  0.15852800  0.10202500  1
  Bi  Bi5  1  0.90263200  0.84147200  0.89797500  1
  Bi  Bi6  1  0.59736800  0.65852800  0.39797500  1
  Bi  Bi7  1  0.40263200  0.34147200  0.60202500  1
  W  W8  1  0.76846300  0.97042300  0.63793100  1
  W  W9  1  0.23153700  0.02957700  0.36206900  1
  W  W10  1  0.73153700  0.52957700  0.13793100  1
  W  W11  1  0.26846300  0.47042300  0.86206900  1
  O  O12  1  0.53673700  0.33140900  0.06987200  1
  O  O13  1  0.98468700  0.33044300  0.93103600  1
  O  O14  1  0.51909400  0.67042200  0.18787500  1
  O  O15  1  0.75641600  0.51674300  0.52602900  1
  O  O16  1  0.77939300  0.48547800  0.29415800  1
  O  O17  1  0.27939300  0.98547800  0.20584200  1
  O  O18  1  0.48468700  0.83044300  0.56896400  1
  O  O19  1  0.51531300  0.16955700  0.43103600  1
  O  O20  1  0.24358400  0.48325700  0.47397100  1
  O  O21  1  0.96326300  0.16859100  0.56987200  1
  O  O22  1  0.22060700  0.51452200  0.70584200  1
  O  O23  1  0.46326300  0.66859100  0.93012800  1
  O  O24  1  0.03673700  0.83140900  0.43012800  1
  O  O25  1  0.72060700  0.01452200  0.79415800  1
  O  O26  1  0.74358400  0.98325700  0.02602900  1
  O  O27  1  0.25641600  0.01674300  0.97397100  1
  O  O28  1  0.48090600  0.32957800  0.81212500  1
  O  O29  1  0.01531300  0.66955700  0.06896400  1
  O  O30  1  0.98090600  0.82957800  0.68787500  1
  O  O31  1  0.01909400  0.17042200  0.31212500  1
