# generated using pymatgen
data_CaTiMn(PO4)3
_symmetry_space_group_name_H-M   'P 1'
_cell_length_a   8.94138208
_cell_length_b   8.81341931
_cell_length_c   8.83169177
_cell_angle_alpha   58.40716328
_cell_angle_beta   58.57825976
_cell_angle_gamma   58.35532947
_symmetry_Int_Tables_number   1
_chemical_formula_structural   CaTiMn(PO4)3
_chemical_formula_sum   'Ca2 Ti2 Mn2 P6 O24'
_cell_volume   474.63420779
_cell_formula_units_Z   2
loop_
 _symmetry_equiv_pos_site_id
 _symmetry_equiv_pos_as_xyz
  1  'x, y, z'
loop_
 _atom_site_type_symbol
 _atom_site_label
 _atom_site_symmetry_multiplicity
 _atom_site_fract_x
 _atom_site_fract_y
 _atom_site_fract_z
 _atom_site_occupancy
  Ca  Ca0  1  0.99735300  0.99867100  0.99801300  1
  Ca  Ca1  1  0.49711000  0.49924300  0.49748700  1
  Ti  Ti2  1  0.14793000  0.14534300  0.14786500  1
  Ti  Ti3  1  0.64922500  0.64685300  0.64513300  1
  Mn  Mn4  1  0.35379700  0.35617900  0.34842100  1
  Mn  Mn5  1  0.84943500  0.85138000  0.85776500  1
  P  P6  1  0.03944300  0.46219200  0.75137400  1
  P  P7  1  0.45466200  0.74795900  0.04333300  1
  P  P8  1  0.75480300  0.03933500  0.46230600  1
  P  P9  1  0.25568000  0.96444700  0.53850400  1
  P  P10  1  0.54115800  0.24816500  0.95788200  1
  P  P11  1  0.95683900  0.54262900  0.25019600  1
  O  O12  1  0.11265400  0.51962200  0.29205500  1
  O  O13  1  0.29999900  0.12947700  0.50090400  1
  O  O14  1  0.05388500  0.27359200  0.92433600  1
  O  O15  1  0.51807900  0.28903200  0.11735600  1
  O  O16  1  0.00725900  0.62516700  0.79558500  1
  O  O17  1  0.22541200  0.43831800  0.58620500  1
  O  O18  1  0.26703000  0.91922500  0.05805700  1
  O  O19  1  0.42705400  0.57639600  0.23026600  1
  O  O20  1  0.20816300  0.00064200  0.37194000  1
  O  O21  1  0.59066300  0.22726800  0.43818000  1
  O  O22  1  0.09432700  0.94182500  0.72558600  1
  O  O23  1  0.37273100  0.20393300  0.99889600  1
  O  O24  1  0.60923000  0.78680800  0.02640800  1
  O  O25  1  0.92642900  0.05166600  0.27575500  1
  O  O26  1  0.42831800  0.77685400  0.55027000  1
  O  O27  1  0.79932800  0.00453500  0.62525700  1
  O  O28  1  0.55732200  0.42009600  0.76901900  1
  O  O29  1  0.72733800  0.07890500  0.93178600  1
  O  O30  1  0.77016500  0.55653200  0.42121200  1
  O  O31  1  0.99899400  0.37214900  0.20445600  1
  O  O32  1  0.49843400  0.70310400  0.87219400  1
  O  O33  1  0.92961400  0.73033600  0.07998000  1
  O  O34  1  0.70752000  0.87190200  0.50002700  1
  O  O35  1  0.87260700  0.50020700  0.70598100  1
