# generated using pymatgen
data_TaTiZn(PO4)3
_symmetry_space_group_name_H-M   'P 1'
_cell_length_a   9.34432241
_cell_length_b   9.34432220
_cell_length_c   9.34432201
_cell_angle_alpha   54.24760739
_cell_angle_beta   54.24760932
_cell_angle_gamma   54.24761319
_symmetry_Int_Tables_number   1
_chemical_formula_structural   TaTiZn(PO4)3
_chemical_formula_sum   'Ta2 Ti2 Zn2 P6 O24'
_cell_volume   499.49032914
_cell_formula_units_Z   2
loop_
 _symmetry_equiv_pos_site_id
 _symmetry_equiv_pos_as_xyz
  1  'x, y, z'
loop_
 _atom_site_type_symbol
 _atom_site_label
 _atom_site_symmetry_multiplicity
 _atom_site_fract_x
 _atom_site_fract_y
 _atom_site_fract_z
 _atom_site_occupancy
  Ta  Ta0  1  0.35087100  0.35087100  0.35087100  1
  Ta  Ta1  1  0.85087100  0.85087100  0.85087100  1
  Ti  Ti2  1  0.15088500  0.15088500  0.15088500  1
  Ti  Ti3  1  0.65088500  0.65088500  0.65088500  1
  Zn  Zn4  1  0.00301000  0.00301000  0.00301000  1
  Zn  Zn5  1  0.50301000  0.50301000  0.50301000  1
  P  P6  1  0.02800100  0.46196100  0.75781900  1
  P  P7  1  0.46196100  0.75781900  0.02800100  1
  P  P8  1  0.75781900  0.02800100  0.46196100  1
  P  P9  1  0.25781900  0.96196100  0.52800100  1
  P  P10  1  0.52800100  0.25781900  0.96196100  1
  P  P11  1  0.96196100  0.52800100  0.25781900  1
  O  O12  1  0.14279900  0.50744800  0.25242200  1
  O  O13  1  0.25242200  0.14279900  0.50744800  1
  O  O14  1  0.07230300  0.29656300  0.93311900  1
  O  O15  1  0.50744800  0.25242200  0.14279900  1
  O  O16  1  0.00744800  0.64279900  0.75242200  1
  O  O17  1  0.19479500  0.42778000  0.57231900  1
  O  O18  1  0.29656300  0.93311900  0.07230300  1
  O  O19  1  0.42778000  0.57231900  0.19479500  1
  O  O20  1  0.25966000  0.98905100  0.34919500  1
  O  O21  1  0.57231900  0.19479500  0.42778000  1
  O  O22  1  0.07231900  0.92778000  0.69479500  1
  O  O23  1  0.34919500  0.25966000  0.98905100  1
  O  O24  1  0.64279900  0.75242200  0.00744800  1
  O  O25  1  0.93311900  0.07230300  0.29656300  1
  O  O26  1  0.43311900  0.79656300  0.57230300  1
  O  O27  1  0.75242200  0.00744800  0.64279900  1
  O  O28  1  0.57230300  0.43311900  0.79656300  1
  O  O29  1  0.69479500  0.07231900  0.92778000  1
  O  O30  1  0.79656300  0.57230300  0.43311900  1
  O  O31  1  0.98905100  0.34919500  0.25966000  1
  O  O32  1  0.48905100  0.75966000  0.84919500  1
  O  O33  1  0.92778000  0.69479500  0.07231900  1
  O  O34  1  0.75966000  0.84919500  0.48905100  1
  O  O35  1  0.84919500  0.48905100  0.75966000  1
