# generated using pymatgen
data_MgCr4O9
_symmetry_space_group_name_H-M   'P 1'
_cell_length_a   4.89026200
_cell_length_b   8.32740200
_cell_length_c   8.32740200
_cell_angle_alpha   90.00000000
_cell_angle_beta   90.00000000
_cell_angle_gamma   90.00000000
_symmetry_Int_Tables_number   1
_chemical_formula_structural   MgCr4O9
_chemical_formula_sum   'Mg2 Cr8 O18'
_cell_volume   339.11827025
_cell_formula_units_Z   2
loop_
 _symmetry_equiv_pos_site_id
 _symmetry_equiv_pos_as_xyz
  1  'x, y, z'
loop_
 _atom_site_type_symbol
 _atom_site_label
 _atom_site_symmetry_multiplicity
 _atom_site_fract_x
 _atom_site_fract_y
 _atom_site_fract_z
 _atom_site_occupancy
  Mg  Mg0  1  0.12014900  0.25000000  0.25000000  1
  Mg  Mg1  1  0.87985200  0.75000000  0.74999900  1
  Cr  Cr2  1  0.61583900  0.53459100  0.34091300  1
  Cr  Cr3  1  0.38416100  0.84091200  0.46541000  1
  Cr  Cr4  1  0.61583900  0.34091200  0.96541000  1
  Cr  Cr5  1  0.38416100  0.03459000  0.84091200  1
  Cr  Cr6  1  0.61583900  0.96541000  0.15908700  1
  Cr  Cr7  1  0.61583900  0.15908800  0.53459100  1
  Cr  Cr8  1  0.38416100  0.46541000  0.65908700  1
  Cr  Cr9  1  0.38416100  0.65908700  0.03459000  1
  O  O10  1  0.49999900  0.75000000  0.25000000  1
  O  O11  1  0.49999900  0.25000100  0.75000000  1
  O  O12  1  0.05858600  0.68467800  0.97122000  1
  O  O13  1  0.05858600  0.52878100  0.68467700  1
  O  O14  1  0.05858600  0.97122000  0.81532300  1
  O  O15  1  0.05858600  0.81532300  0.52878000  1
  O  O16  1  0.94141500  0.31532300  0.02878000  1
  O  O17  1  0.94141500  0.47121900  0.31532300  1
  O  O18  1  0.94141500  0.02878000  0.18467700  1
  O  O19  1  0.94141500  0.18467700  0.47121900  1
  O  O20  1  0.45249000  0.04293700  0.35484100  1
  O  O21  1  0.45249000  0.14515800  0.04293800  1
  O  O22  1  0.45249000  0.35484100  0.45706300  1
  O  O23  1  0.45249000  0.45706300  0.14515900  1
  O  O24  1  0.54750900  0.54293700  0.85484100  1
  O  O25  1  0.54750900  0.85484100  0.95706300  1
  O  O26  1  0.54750900  0.64515900  0.54293700  1
  O  O27  1  0.54750900  0.95706200  0.64515900  1
