# generated using pymatgen
data_Si2Bi13(SbO14)2
_symmetry_space_group_name_H-M   'P 1'
_cell_length_a   6.12640065
_cell_length_b   10.21247430
_cell_length_c   12.69413919
_cell_angle_alpha   86.87340512
_cell_angle_beta   77.30360781
_cell_angle_gamma   80.31023871
_symmetry_Int_Tables_number   1
_chemical_formula_structural   Si2Bi13(SbO14)2
_chemical_formula_sum   'Si2 Bi13 Sb2 O28'
_cell_volume   763.61711119
_cell_formula_units_Z   1
loop_
 _symmetry_equiv_pos_site_id
 _symmetry_equiv_pos_as_xyz
  1  'x, y, z'
loop_
 _atom_site_type_symbol
 _atom_site_label
 _atom_site_symmetry_multiplicity
 _atom_site_fract_x
 _atom_site_fract_y
 _atom_site_fract_z
 _atom_site_occupancy
  Si  Si0  1  0.28473900  0.32881700  0.99179200  1
  Si  Si1  1  0.71973900  0.67156500  0.00809900  1
  Bi  Bi2  1  0.03754700  0.64156100  0.56909700  1
  Bi  Bi3  1  0.68578800  0.35280200  0.15688700  1
  Bi  Bi4  1  0.34050800  0.37129100  0.65963300  1
  Bi  Bi5  1  0.96058200  0.35447100  0.43244700  1
  Bi  Bi6  1  0.31726200  0.64733900  0.84281200  1
  Bi  Bi7  1  0.29114900  0.93432600  0.44514400  1
  Bi  Bi8  1  0.21103500  0.64155200  0.13129400  1
  Bi  Bi9  1  0.00072000  0.99996200  0.99990700  1
  Bi  Bi10  1  0.41009200  0.00441900  0.15332500  1
  Bi  Bi11  1  0.79033900  0.35834500  0.86998500  1
  Bi  Bi12  1  0.65967300  0.62604400  0.34167500  1
  Bi  Bi13  1  0.59099800  0.99574800  0.84727400  1
  Bi  Bi14  1  0.70719700  0.06131600  0.55509000  1
  Sb  Sb15  1  0.84968800  0.99844400  0.28747700  1
  Sb  Sb16  1  0.15033600  0.99975400  0.71259200  1
  O  O17  1  0.69582600  0.40895700  0.31568000  1
  O  O18  1  0.20975900  0.44440100  0.51732900  1
  O  O19  1  0.00914200  0.32631600  0.01025800  1
  O  O20  1  0.43500100  0.17815800  0.98785700  1
  O  O21  1  0.78855100  0.55160300  0.48399500  1
  O  O22  1  0.30006900  0.58929500  0.68571300  1
  O  O23  1  0.06797000  0.09220100  0.57826100  1
  O  O24  1  0.93165500  0.90347300  0.42082500  1
  O  O25  1  0.57129400  0.82274900  0.01129600  1
  O  O26  1  0.08792200  0.88491000  0.16686100  1
  O  O27  1  0.33355500  0.41069700  0.09155800  1
  O  O28  1  0.03964500  0.58018700  0.27639800  1
  O  O29  1  0.39271200  0.89250300  0.60789600  1
  O  O30  1  0.74504400  0.11035400  0.15938600  1
  O  O31  1  0.63718000  0.59133700  0.12479200  1
  O  O32  1  0.99606000  0.67366500  0.99005200  1
  O  O33  1  0.25544800  0.88975000  0.84159600  1
  O  O34  1  0.91324000  0.11461300  0.83259400  1
  O  O35  1  0.60630700  0.10409600  0.39282500  1
  O  O36  1  0.10974800  0.10015100  0.27931000  1
  O  O37  1  0.89084000  0.89734600  0.72276600  1
  O  O38  1  0.36676600  0.40935200  0.87512400  1
  O  O39  1  0.38763800  0.11262500  0.73002200  1
  O  O40  1  0.69405800  0.28102600  0.54842300  1
  O  O41  1  0.67213800  0.58973900  0.90801600  1
  O  O42  1  0.61294200  0.88596700  0.26838300  1
  O  O43  1  0.95937500  0.41604800  0.72320300  1
  O  O44  1  0.30375300  0.71465500  0.45256200  1
