# generated using pymatgen
data_CaTiP3WO12
_symmetry_space_group_name_H-M   'P 1'
_cell_length_a   8.98749652
_cell_length_b   8.98749676
_cell_length_c   8.98749698
_cell_angle_alpha   58.63240932
_cell_angle_beta   58.63241532
_cell_angle_gamma   58.63241655
_symmetry_Int_Tables_number   1
_chemical_formula_structural   CaTiP3WO12
_chemical_formula_sum   'Ca2 Ti2 P6 W2 O24'
_cell_volume   497.28787467
_cell_formula_units_Z   2
loop_
 _symmetry_equiv_pos_site_id
 _symmetry_equiv_pos_as_xyz
  1  'x, y, z'
loop_
 _atom_site_type_symbol
 _atom_site_label
 _atom_site_symmetry_multiplicity
 _atom_site_fract_x
 _atom_site_fract_y
 _atom_site_fract_z
 _atom_site_occupancy
  Ca  Ca0  1  0.99941600  0.99941600  0.99941600  1
  Ca  Ca1  1  0.49941600  0.49941600  0.49941600  1
  Ti  Ti2  1  0.14843300  0.14843300  0.14843300  1
  Ti  Ti3  1  0.64843300  0.64843300  0.64843300  1
  P  P4  1  0.03793100  0.45303900  0.75901200  1
  P  P5  1  0.45303900  0.75901200  0.03793100  1
  P  P6  1  0.75901200  0.03793100  0.45303900  1
  P  P7  1  0.25901200  0.95303900  0.53793100  1
  P  P8  1  0.53793100  0.25901200  0.95303900  1
  P  P9  1  0.95303900  0.53793100  0.25901200  1
  W  W10  1  0.35535600  0.35535600  0.35535600  1
  W  W11  1  0.85535600  0.85535600  0.85535600  1
  O  O12  1  0.10610900  0.51051900  0.30572000  1
  O  O13  1  0.30572000  0.10610900  0.51051900  1
  O  O14  1  0.05058800  0.26771300  0.92697800  1
  O  O15  1  0.51051900  0.30572000  0.10610900  1
  O  O16  1  0.01051900  0.60610900  0.80572000  1
  O  O17  1  0.22482800  0.42885700  0.59706700  1
  O  O18  1  0.26771300  0.92697800  0.05058800  1
  O  O19  1  0.42885700  0.59706700  0.22482800  1
  O  O20  1  0.20718800  0.99953600  0.37170700  1
  O  O21  1  0.59706700  0.22482800  0.42885700  1
  O  O22  1  0.09706700  0.92885700  0.72482800  1
  O  O23  1  0.37170700  0.20718800  0.99953600  1
  O  O24  1  0.60610900  0.80572000  0.01051900  1
  O  O25  1  0.92697800  0.05058800  0.26771300  1
  O  O26  1  0.42697800  0.76771300  0.55058800  1
  O  O27  1  0.80572000  0.01051900  0.60610900  1
  O  O28  1  0.55058800  0.42697800  0.76771300  1
  O  O29  1  0.72482800  0.09706700  0.92885700  1
  O  O30  1  0.76771300  0.55058800  0.42697800  1
  O  O31  1  0.99953600  0.37170700  0.20718800  1
  O  O32  1  0.49953600  0.70718800  0.87170700  1
  O  O33  1  0.92885700  0.72482800  0.09706700  1
  O  O34  1  0.70718800  0.87170700  0.49953600  1
  O  O35  1  0.87170700  0.49953600  0.70718800  1
