# generated using pymatgen
data_Sr2YSb2O7
_symmetry_space_group_name_H-M   'P 1'
_cell_length_a   13.42107838
_cell_length_b   13.42107838
_cell_length_c   13.42107838
_cell_angle_alpha   37.11982724
_cell_angle_beta   154.90187532
_cell_angle_gamma   153.09935772
_symmetry_Int_Tables_number   1
_chemical_formula_structural   Sr2YSb2O7
_chemical_formula_sum   'Sr4 Y2 Sb4 O14'
_cell_volume   463.28815349
_cell_formula_units_Z   2
loop_
 _symmetry_equiv_pos_site_id
 _symmetry_equiv_pos_as_xyz
  1  'x, y, z'
loop_
 _atom_site_type_symbol
 _atom_site_label
 _atom_site_symmetry_multiplicity
 _atom_site_fract_x
 _atom_site_fract_y
 _atom_site_fract_z
 _atom_site_occupancy
  Sr  Sr0  1  0.76527100  0.71682000  0.68087400  1
  Sr  Sr1  1  0.03594600  0.08439500  0.31912600  1
  Sr  Sr2  1  0.76527100  0.58439500  0.54845100  1
  Sr  Sr3  1  0.03594600  0.21682000  0.45154900  1
  Y  Y4  1  0.02220200  0.52220200  0.50000000  1
  Y  Y5  1  0.02220200  0.02220200  0.00000000  1
  Sb  Sb6  1  0.53938300  0.47009800  0.92615300  1
  Sb  Sb7  1  0.54394500  0.61323000  0.07384700  1
  Sb  Sb8  1  0.53938300  0.11323000  0.56928600  1
  Sb  Sb9  1  0.54394500  0.97009800  0.43071400  1
  O  O10  1  0.97089600  0.92036900  0.55052500  1
  O  O11  1  0.36984400  0.42036900  0.44947500  1
  O  O12  1  0.47255200  0.22181600  0.15357300  1
  O  O13  1  0.06824300  0.31898100  0.84642700  1
  O  O14  1  0.47255200  0.81898000  0.75073700  1
  O  O15  1  0.06824300  0.72181600  0.24926300  1
  O  O16  1  0.66668000  0.79480000  0.74021900  1
  O  O17  1  0.05458200  0.92646000  0.25978100  1
  O  O18  1  0.66668000  0.42646000  0.37188000  1
  O  O19  1  0.05458200  0.29480000  0.62812000  1
  O  O20  1  0.54070500  0.89584300  0.35095400  1
  O  O21  1  0.54488900  0.18975000  0.64904600  1
  O  O22  1  0.54070500  0.68975000  0.14486200  1
  O  O23  1  0.54488900  0.39584300  0.85513800  1
