# generated using pymatgen
data_Li3Mn3(PO4)4
_symmetry_space_group_name_H-M   'P 1'
_cell_length_a   7.66242878
_cell_length_b   8.12933601
_cell_length_c   10.06702767
_cell_angle_alpha   89.95547758
_cell_angle_beta   93.09042299
_cell_angle_gamma   91.07628231
_symmetry_Int_Tables_number   1
_chemical_formula_structural   Li3Mn3(PO4)4
_chemical_formula_sum   'Li6 Mn6 P8 O32'
_cell_volume   626.05731113
_cell_formula_units_Z   2
loop_
 _symmetry_equiv_pos_site_id
 _symmetry_equiv_pos_as_xyz
  1  'x, y, z'
loop_
 _atom_site_type_symbol
 _atom_site_label
 _atom_site_symmetry_multiplicity
 _atom_site_fract_x
 _atom_site_fract_y
 _atom_site_fract_z
 _atom_site_occupancy
  Li  Li0  1  0.08392186  0.36942145  0.29962522  1
  Li  Li1  1  0.41336294  0.86952982  0.95061431  1
  Li  Li2  1  0.59920732  0.14313723  0.54772752  1
  Li  Li3  1  0.59033688  0.13741413  0.04813026  1
  Li  Li4  1  0.90284701  0.64057399  0.70168544  1
  Li  Li5  1  0.91193000  0.63561788  0.20226046  1
  Mn  Mn6  1  0.09426496  0.35792011  0.80980584  1
  Mn  Mn7  1  0.40195933  0.85611775  0.44186353  1
  Mn  Mn8  1  0.50592585  0.49313776  0.50154066  1
  Mn  Mn9  1  0.52542306  0.51056588  0.00127535  1
  Mn  Mn10  1  0.99444664  0.99159672  0.74743391  1
  Mn  Mn11  1  0.97209434  0.00972143  0.24854861  1
  P  P12  1  0.80192317  0.80342993  0.48364249  1
  P  P13  1  0.80715441  0.81884343  0.98477567  1
  P  P14  1  0.68800791  0.31993340  0.26478299  1
  P  P15  1  0.69216414  0.30584261  0.76648808  1
  P  P16  1  0.31150028  0.68334217  0.22587573  1
  P  P17  1  0.31635598  0.68511517  0.73949393  1
  P  P18  1  0.19043021  0.18667470  0.51088069  1
  P  P19  1  0.19160385  0.18486242  0.02324446  1
  O  O20  1  0.25834437  0.85765221  0.77334633  1
  O  O21  1  0.95039513  0.85542609  0.58843013  1
  O  O22  1  0.87909728  0.81274014  0.34367063  1
  O  O23  1  0.84595074  0.43363323  0.27382532  1
  O  O24  1  0.89926262  0.81077858  0.84808810  1
  O  O25  1  0.85787034  0.42275552  0.76541301  1
  O  O26  1  0.04596367  0.14973355  0.90287843  1
  O  O27  1  0.03932986  0.13378865  0.41124028  1
  O  O28  1  0.11479940  0.18347607  0.65452287  1
  O  O29  1  0.15696035  0.56220427  0.73448712  1
  O  O30  1  0.09738392  0.19307906  0.15415686  1
  O  O31  1  0.15829844  0.56703877  0.22297362  1
  O  O32  1  0.95533960  0.87372481  0.09148959  1
  O  O33  1  0.24457004  0.36440342  0.97157096  1
  O  O34  1  0.26035671  0.86075541  0.27624223  1
  O  O35  1  0.25467819  0.36039899  0.47716678  1
  O  O36  1  0.34279097  0.06278367  0.51475289  1
  O  O37  1  0.38923588  0.68031432  0.59564445  1
  O  O38  1  0.34018775  0.06952429  0.02551559  1
  O  O39  1  0.46399025  0.63008432  0.83866838  1
  O  O40  1  0.75911873  0.63849859  0.02266686  1
  O  O41  1  0.45344583  0.64984146  0.34767819  1
  O  O42  1  0.55068788  0.36272706  0.66075446  1
  O  O43  1  0.54411640  0.37953775  0.15868170  1
  O  O44  1  0.61764732  0.31804260  0.90674907  1
  O  O45  1  0.65597867  0.93323542  0.97666469  1
  O  O46  1  0.59787791  0.31525572  0.40242904  1
  O  O47  1  0.64706030  0.92241451  0.48763950  1
  O  O48  1  0.74382943  0.62760615  0.52255652  1
  O  O49  1  0.74421845  0.13225863  0.72765928  1
  O  O50  1  0.72993452  0.14114520  0.22704373  1
  O  O51  1  0.40642092  0.69233760  0.09570125  1
