# generated using pymatgen
data_Al
_symmetry_space_group_name_H-M   'P 1'
_cell_length_a   12.12531129
_cell_length_b   12.27628938
_cell_length_c   12.13442360
_cell_angle_alpha   99.88685195
_cell_angle_beta   94.49274887
_cell_angle_gamma   84.94340365
_symmetry_Int_Tables_number   1
_chemical_formula_structural   Al
_chemical_formula_sum   Al100
_cell_volume   1768.82525054
_cell_formula_units_Z   100
loop_
 _symmetry_equiv_pos_site_id
 _symmetry_equiv_pos_as_xyz
  1  'x, y, z'
loop_
 _atom_site_type_symbol
 _atom_site_label
 _atom_site_symmetry_multiplicity
 _atom_site_fract_x
 _atom_site_fract_y
 _atom_site_fract_z
 _atom_site_occupancy
  Al  Al0  1  0.98655635  0.86143319  0.44309900  1
  Al  Al1  1  0.41582200  0.06027310  0.38174811  1
  Al  Al2  1  0.52175723  0.56726801  0.58961929  1
  Al  Al3  1  0.48230284  0.85046373  0.86355175  1
  Al  Al4  1  0.85273918  0.26235767  0.89303162  1
  Al  Al5  1  0.64768281  0.88831870  0.03483785  1
  Al  Al6  1  0.04358234  0.40645438  0.41651947  1
  Al  Al7  1  0.41026373  0.01092100  0.59031489  1
  Al  Al8  1  0.82734650  0.47905096  0.35050435  1
  Al  Al9  1  0.09658304  0.05498201  0.05905828  1
  Al  Al10  1  0.27291348  0.15688245  0.91570684  1
  Al  Al11  1  0.62922644  0.76120982  0.21037488  1
  Al  Al12  1  0.63555869  0.66546699  0.93990208  1
  Al  Al13  1  0.26756457  0.41079272  0.46919891  1
  Al  Al14  1  0.01932935  0.81047693  0.84410934  1
  Al  Al15  1  0.51063901  0.55840096  0.11896804  1
  Al  Al16  1  0.16779540  0.53349539  0.30520150  1
  Al  Al17  1  0.33319425  0.43059700  0.70540102  1
  Al  Al18  1  0.89009558  0.16308452  0.09840544  1
  Al  Al19  1  0.97158266  0.36151886  0.17846940  1
  Al  Al20  1  0.42212189  0.79076563  0.62448114  1
  Al  Al21  1  0.55663414  0.35829311  0.66651831  1
  Al  Al22  1  0.29893261  0.93753296  0.99657616  1
  Al  Al23  1  0.37178729  0.41543895  0.21693333  1
  Al  Al24  1  0.22571136  0.14516344  0.67395193  1
  Al  Al25  1  0.81650984  0.49002862  0.96185771  1
  Al  Al26  1  0.88575302  0.93097656  0.05296206  1
  Al  Al27  1  0.20450460  0.19423311  0.44327850  1
  Al  Al28  1  0.92366590  0.27698513  0.51657312  1
  Al  Al29  1  0.43542851  0.62284050  0.80948171  1
  Al  Al30  1  0.28863897  0.61256786  0.60811744  1
  Al  Al31  1  0.45213325  0.76524967  0.05986434  1
  Al  Al32  1  0.83430661  0.07694470  0.41339955  1
  Al  Al33  1  0.08800396  0.72871588  0.63208051  1
  Al  Al34  1  0.25129742  0.69556235  0.96288401  1
  Al  Al35  1  0.84095921  0.85702844  0.25611504  1
  Al  Al36  1  0.36000564  0.18905391  0.12378285  1
  Al  Al37  1  0.62558727  0.22955488  0.83441065  1
  Al  Al38  1  0.73074302  0.55117994  0.16467970  1
  Al  Al39  1  0.79309178  0.25787673  0.29245368  1
  Al  Al40  1  0.22657053  0.95252441  0.40639562  1
  Al  Al41  1  0.47780836  0.32314017  0.01828078  1
  Al  Al42  1  0.61131096  0.12573611  0.58231828  1
  Al  Al43  1  0.15255314  0.44752636  0.07647719  1
  Al  Al44  1  0.59470547  0.95763210  0.71946065  1
  Al  Al45  1  0.09161378  0.83124348  0.06183335  1
  Al  Al46  1  0.29542877  0.62084169  0.16671007  1
  Al  Al47  1  0.37950765  0.59392501  0.39771935  1
  Al  Al48  1  0.79135192  0.71435221  0.38478715  1
  Al  Al49  1  0.12122380  0.35483152  0.62768116  1
  Al  Al50  1  0.97597707  0.95053583  0.66584678  1
  Al  Al51  1  0.59914206  0.18413545  0.36762148  1
  Al  Al52  1  0.95764232  0.53140689  0.62041830  1
  Al  Al53  1  0.71424064  0.32844668  0.05658580  1
  Al  Al54  1  0.86212988  0.75505063  0.63013901  1
  Al  Al55  1  0.64181841  0.72629650  0.72926998  1
  Al  Al56  1  0.06592928  0.25026374  0.97763706  1
  Al  Al57  1  0.48392129  0.38552833  0.42686056  1
  Al  Al58  1  0.28135721  0.84396897  0.19848835  1
  Al  Al59  1  0.20918123  0.91625819  0.61588247  1
  Al  Al60  1  0.03184290  0.96871015  0.25959464  1
  Al  Al61  1  0.58274611  0.17844811  0.13740351  1
  Al  Al62  1  0.03616422  0.61285735  0.97870866  1
  Al  Al63  1  0.94150248  0.04563678  0.88664562  1
  Al  Al64  1  0.34139015  0.48631950  0.94741817  1
  Al  Al65  1  0.78177194  0.07632482  0.73302420  1
  Al  Al66  1  0.43647042  0.80999084  0.37006439  1
  Al  Al67  1  0.47186107  0.98651702  0.16624601  1
  Al  Al68  1  0.20847242  0.74147605  0.44534125  1
  Al  Al69  1  0.26601331  0.79417116  0.78606776  1
  Al  Al70  1  0.78162587  0.28260299  0.67765291  1
  Al  Al71  1  0.96629002  0.42183517  0.80529805  1
  Al  Al72  1  0.71449982  0.50293575  0.74120855  1
  Al  Al73  1  0.78653922  0.87750978  0.83815020  1
  Al  Al74  1  0.95325016  0.57867193  0.18479507  1
  Al  Al75  1  0.49021829  0.07596177  0.92375460  1
  Al  Al76  1  0.62400603  0.95397714  0.36388872  1
  Al  Al77  1  0.82819077  0.71687085  0.05685694  1
  Al  Al78  1  0.99741741  0.63007737  0.43204756  1
  Al  Al79  1  0.18910699  0.34787539  0.84543867  1
  Al  Al80  1  0.23967462  0.06998887  0.23197801  1
  Al  Al81  1  0.08772699  0.74246476  0.24949985  1
  Al  Al82  1  0.40819794  0.24026638  0.78591162  1
  Al  Al83  1  0.14491835  0.57096095  0.77588567  1
  Al  Al84  1  0.73955964  0.58718295  0.54594166  1
  Al  Al85  1  0.77418547  0.93350515  0.53871692  1
  Al  Al86  1  0.86277058  0.65171602  0.82579337  1
  Al  Al87  1  0.14965941  0.99732411  0.82457885  1
  Al  Al88  1  0.61432602  0.79239470  0.52193406  1
  Al  Al89  1  0.60525115  0.39407993  0.24723073  1
  Al  Al90  1  0.04898117  0.07561880  0.51179971  1
  Al  Al91  1  0.00540626  0.19046319  0.72560322  1
  Al  Al92  1  0.70579231  0.36846461  0.49126694  1
  Al  Al93  1  0.73940706  0.04362262  0.20293428  1
  Al  Al94  1  0.71693158  0.08150263  0.96272705  1
  Al  Al95  1  0.59481428  0.60613931  0.35772948  1
  Al  Al96  1  0.57473375  0.45516666  0.89808271  1
  Al  Al97  1  0.01583024  0.18759483  0.30571523  1
  Al  Al98  1  0.40082491  0.23691461  0.54955443  1
  Al  Al99  1  0.19055216  0.29900201  0.24657350  1
