# generated using pymatgen
data_SnO2
_symmetry_space_group_name_H-M   'P 1'
_cell_length_a   11.27496081
_cell_length_b   10.68147955
_cell_length_c   10.55168100
_cell_angle_alpha   89.74487354
_cell_angle_beta   93.15496399
_cell_angle_gamma   91.66408430
_symmetry_Int_Tables_number   1
_chemical_formula_structural   SnO2
_chemical_formula_sum   'Sn30 O60'
_cell_volume   1268.30699531
_cell_formula_units_Z   30
loop_
 _symmetry_equiv_pos_site_id
 _symmetry_equiv_pos_as_xyz
  1  'x, y, z'
loop_
 _atom_site_type_symbol
 _atom_site_label
 _atom_site_symmetry_multiplicity
 _atom_site_fract_x
 _atom_site_fract_y
 _atom_site_fract_z
 _atom_site_occupancy
  Sn  Sn0  1  0.84671100  0.09564600  0.16102300  1
  Sn  Sn1  1  0.49519000  0.57510000  0.95020100  1
  Sn  Sn2  1  0.95575900  0.82466900  0.65557800  1
  Sn  Sn3  1  0.48666400  0.87446400  0.72056500  1
  Sn  Sn4  1  0.03613100  0.65141400  0.89982000  1
  Sn  Sn5  1  0.75671500  0.54513100  0.73384900  1
  Sn  Sn6  1  0.41301700  0.35298900  0.70157300  1
  Sn  Sn7  1  0.48910100  0.24520600  0.09616800  1
  Sn  Sn8  1  0.11006700  0.59124800  0.45495500  1
  Sn  Sn9  1  0.45747900  0.97287800  0.33412100  1
  Sn  Sn10  1  0.89011000  0.40195400  0.02707300  1
  Sn  Sn11  1  0.20100700  0.59987400  0.15879300  1
  Sn  Sn12  1  0.28387200  0.77199900  0.91780700  1
  Sn  Sn13  1  0.59545500  0.89780500  0.05854900  1
  Sn  Sn14  1  0.49489600  0.55478900  0.49858300  1
  Sn  Sn15  1  0.22246100  0.36283400  0.95659400  1
  Sn  Sn16  1  0.01049100  0.92184300  0.00643700  1
  Sn  Sn17  1  0.13749100  0.29797000  0.58249500  1
  Sn  Sn18  1  0.91380700  0.65482000  0.21700200  1
  Sn  Sn19  1  0.69284600  0.77219200  0.47653700  1
  Sn  Sn20  1  0.09570500  0.14959800  0.30416600  1
  Sn  Sn21  1  0.28689000  0.35513600  0.33817700  1
  Sn  Sn22  1  0.95256500  0.17437700  0.83759100  1
  Sn  Sn23  1  0.63700900  0.56349800  0.22123400  1
  Sn  Sn24  1  0.28885000  0.09247700  0.83882500  1
  Sn  Sn25  1  0.19500400  0.93297800  0.53069100  1
  Sn  Sn26  1  0.87511100  0.09104800  0.54240700  1
  Sn  Sn27  1  0.57945000  0.25785600  0.43876800  1
  Sn  Sn28  1  0.65136300  0.14145800  0.81813700  1
  Sn  Sn29  1  0.80996600  0.42978200  0.46774800  1
  O  O30  1  0.80989100  0.28695800  0.88448900  1
  O  O31  1  0.15549200  0.73516600  0.77988000  1
  O  O32  1  0.38903300  0.53163500  0.63575200  1
  O  O33  1  0.53361100  0.44159200  0.09779700  1
  O  O34  1  0.88514300  0.27667300  0.17142800  1
  O  O35  1  0.52744000  0.64915300  0.34034800  1
  O  O36  1  0.26009000  0.54806700  0.35997600  1
  O  O37  1  0.04413600  0.30824700  0.95300700  1
  O  O38  1  0.54744600  0.75088700  0.59372100  1
  O  O39  1  0.46136300  0.39644800  0.37241300  1
  O  O40  1  0.32374500  0.20636100  0.00496600  1
  O  O41  1  0.87876400  0.05146700  0.97195100  1
  O  O42  1  0.61556900  0.15517500  0.01340700  1
  O  O43  1  0.08792700  0.76588500  0.53195300  1
  O  O44  1  0.31677400  0.95499400  0.67738700  1
  O  O45  1  0.88783600  0.54425600  0.88220900  1
  O  O46  1  0.36544300  0.94143400  0.91544000  1
  O  O47  1  0.10323600  0.33018200  0.38174500  1
  O  O48  1  0.09322700  0.69536400  0.28402400  1
  O  O49  1  0.11656500  0.48371900  0.60777400  1
  O  O50  1  0.26491800  0.18337300  0.25845500  1
  O  O51  1  0.30218400  0.89692700  0.38940900  1
  O  O52  1  0.04033000  0.98516200  0.62716700  1
  O  O53  1  0.86064400  0.43002700  0.64836900  1
  O  O54  1  0.78916900  0.52794900  0.12725300  1
  O  O55  1  0.61571400  0.51379800  0.83009000  1
  O  O56  1  0.92410800  0.10505100  0.35823600  1
  O  O57  1  0.13794800  0.77900800  0.03353500  1
  O  O58  1  0.93943100  0.53587500  0.38794300  1
  O  O59  1  0.67780100  0.56125700  0.53561300  1
  O  O60  1  0.38400700  0.43131100  0.88100500  1
  O  O61  1  0.75817100  0.23112200  0.48494800  1
  O  O62  1  0.01727500  0.53796800  0.10710800  1
  O  O63  1  0.51826800  0.16256800  0.27700400  1
  O  O64  1  0.45197900  0.18232300  0.78530300  1
  O  O65  1  0.68230600  0.40179900  0.33041600  1
  O  O66  1  0.59996400  0.69859500  0.06709600  1
  O  O67  1  0.60984800  0.93845200  0.86388900  1
  O  O68  1  0.44987700  0.93884900  0.14675500  1
  O  O69  1  0.43522200  0.72143700  0.83306600  1
  O  O70  1  0.10672200  0.05198200  0.88680400  1
  O  O71  1  0.72798600  0.96162800  0.17412300  1
  O  O72  1  0.81791000  0.07785000  0.72567200  1
  O  O73  1  0.02973900  0.03361900  0.16666400  1
  O  O74  1  0.98692100  0.22407400  0.64593800  1
  O  O75  1  0.83322800  0.90160300  0.51787300  1
  O  O76  1  0.17705800  0.54443200  0.94327600  1
  O  O77  1  0.81538600  0.70665000  0.64953100  1
  O  O78  1  0.16034000  0.11041800  0.48133100  1
  O  O79  1  0.56872700  0.34588100  0.60894300  1
  O  O80  1  0.94558100  0.81400700  0.84815400  1
  O  O81  1  0.22306200  0.26835600  0.76887200  1
  O  O82  1  0.25697700  0.41796700  0.14701200  1
  O  O83  1  0.35221300  0.66611800  0.06849100  1
  O  O84  1  0.30917900  0.30138100  0.53713700  1
  O  O85  1  0.76338500  0.68935600  0.31754100  1
  O  O86  1  0.49827100  0.08675500  0.51649400  1
  O  O87  1  0.90531600  0.79307900  0.09194200  1
  O  O88  1  0.57324600  0.02696900  0.61684700  1
  O  O89  1  0.61330600  0.90367000  0.37421100  1
