# generated using pymatgen
data_V2O5
_symmetry_space_group_name_H-M   'P 1'
_cell_length_a   12.78500104
_cell_length_b   12.96913766
_cell_length_c   12.65387209
_cell_angle_alpha   96.12020371
_cell_angle_beta   92.24486970
_cell_angle_gamma   93.72129269
_symmetry_Int_Tables_number   1
_chemical_formula_structural   V2O5
_chemical_formula_sum   'V30 O75'
_cell_volume   2079.53968720
_cell_formula_units_Z   15
loop_
 _symmetry_equiv_pos_site_id
 _symmetry_equiv_pos_as_xyz
  1  'x, y, z'
loop_
 _atom_site_type_symbol
 _atom_site_label
 _atom_site_symmetry_multiplicity
 _atom_site_fract_x
 _atom_site_fract_y
 _atom_site_fract_z
 _atom_site_occupancy
  V  V0  1  0.89088075  0.50692968  0.89232562  1
  V  V1  1  0.95351737  0.95080764  0.12042402  1
  V  V2  1  0.47959204  0.99181952  0.54888886  1
  V  V3  1  0.50353381  0.46218861  0.84310133  1
  V  V4  1  0.71436951  0.29523570  0.51108918  1
  V  V5  1  0.53828831  0.08215108  0.79043381  1
  V  V6  1  0.35506224  0.01308665  0.98298543  1
  V  V7  1  0.91429228  0.30856646  0.37282858  1
  V  V8  1  0.86170836  0.12169954  0.94492657  1
  V  V9  1  0.45921426  0.57579736  0.01943446  1
  V  V10  1  0.40814065  0.08263122  0.26198522  1
  V  V11  1  0.41281397  0.74069759  0.59435361  1
  V  V12  1  0.77417462  0.70563577  0.63566504  1
  V  V13  1  0.76400311  0.93256535  0.75603016  1
  V  V14  1  0.14887833  0.34023671  0.31908563  1
  V  V15  1  0.15267464  0.97844100  0.31309301  1
  V  V16  1  0.98445448  0.85656416  0.65027388  1
  V  V17  1  0.76403951  0.84374574  0.26646708  1
  V  V18  1  0.91084769  0.68512161  0.09575664  1
  V  V19  1  0.51269776  0.44300961  0.42920962  1
  V  V20  1  0.22589271  0.81560599  0.78258473  1
  V  V21  1  0.61419352  0.05206944  0.38294875  1
  V  V22  1  0.68716794  0.65581449  0.39090401  1
  V  V23  1  0.97714172  0.29656071  0.13917326  1
  V  V24  1  0.88264946  0.27613259  0.72991012  1
  V  V25  1  0.31717140  0.77901357  0.10927813  1
  V  V26  1  0.31932961  0.74853601  0.36700814  1
  V  V27  1  0.07317418  0.71019455  0.32428256  1
  V  V28  1  0.36101642  0.42134741  0.20348777  1
  V  V29  1  0.69060009  0.47761785  0.03114610  1
  O  O30  1  0.79688669  0.59070959  0.09367742  1
  O  O31  1  0.47031717  0.39978230  0.29656929  1
  O  O32  1  0.87693447  0.27364571  0.23393156  1
  O  O33  1  0.48579225  0.86175589  0.58064757  1
  O  O34  1  0.03137050  0.88187417  0.53995508  1
  O  O35  1  0.19839364  0.72671225  0.11027390  1
  O  O36  1  0.96359010  0.61201712  0.98464860  1
  O  O37  1  0.48932916  0.67339756  0.65868047  1
  O  O38  1  0.62813275  0.43023508  0.90315246  1
  O  O39  1  0.20342869  0.66425140  0.33214305  1
  O  O40  1  0.46659152  0.01678012  0.40121103  1
  O  O41  1  0.29091269  0.85384318  0.44100394  1
  O  O42  1  0.87133989  0.94169857  0.67096816  1
  O  O43  1  0.80791267  0.36783879  0.44632162  1
  O  O44  1  0.45369237  0.07298261  0.66882277  1
  O  O45  1  0.82179088  0.43618657  0.97999270  1
  O  O46  1  0.91417883  0.72782000  0.63504176  1
  O  O47  1  0.09084034  0.85424525  0.74401140  1
  O  O48  1  0.31484961  0.89619546  0.05356181  1
  O  O49  1  0.74117144  0.58382212  0.63718140  1
  O  O50  1  0.59689742  0.35457174  0.49872748  1
  O  O51  1  0.34314448  0.32341849  0.11364200  1
  O  O52  1  0.47043748  0.04348863  0.90131631  1
  O  O53  1  0.28321852  0.99844046  0.27421118  1
  O  O54  1  0.78621578  0.59046285  0.35825971  1
  O  O55  1  0.65001795  0.00443091  0.75065441  1
  O  O56  1  0.01671450  0.68060695  0.42947740  1
  O  O57  1  0.55976342  0.10740334  0.27573158  1
  O  O58  1  0.71872719  0.74050314  0.51418347  1
  O  O59  1  0.81994382  0.97250680  0.87631760  1
  O  O60  1  0.94632244  0.23179764  0.00938680  1
  O  O61  1  0.68301493  0.95233784  0.32369546  1
  O  O62  1  0.98661082  0.66213900  0.20641957  1
  O  O63  1  0.96608437  0.81977217  0.07008658  1
  O  O64  1  0.85838796  0.17422720  0.81415442  1
  O  O65  1  0.85470136  0.83281728  0.35530491  1
  O  O66  1  0.40226060  0.69804044  0.03246279  1
  O  O67  1  0.58660768  0.57511420  0.07164937  1
  O  O68  1  0.97330362  0.24136023  0.65250684  1
  O  O69  1  0.13363775  0.05444115  0.41833427  1
  O  O70  1  0.50400368  0.59749230  0.87959195  1
  O  O71  1  0.39152485  0.53399859  0.14183983  1
  O  O72  1  0.69913039  0.17466987  0.43890154  1
  O  O73  1  0.58126610  0.56648839  0.41853508  1
  O  O74  1  0.58170237  0.20171987  0.81696161  1
  O  O75  1  0.30015542  0.91724744  0.85323740  1
  O  O76  1  0.40908780  0.06909880  0.12013449  1
  O  O77  1  0.76387716  0.28969986  0.64295834  1
  O  O78  1  0.37357510  0.78523627  0.24698665  1
  O  O79  1  0.39817484  0.68259857  0.45458121  1
  O  O80  1  0.93808829  0.20279966  0.42246153  1
  O  O81  1  0.06131229  0.00409884  0.20550443  1
  O  O82  1  0.61466576  0.02562817  0.52578980  1
  O  O83  1  0.93081597  0.40055796  0.79794558  1
  O  O84  1  0.20328580  0.27086870  0.40011504  1
  O  O85  1  0.24265744  0.43469774  0.27809961  1
  O  O86  1  0.94422038  0.03401344  0.02368461  1
  O  O87  1  0.79578473  0.75892089  0.14231910  1
  O  O88  1  0.41352994  0.44787846  0.94965766  1
  O  O89  1  0.29817488  0.76841941  0.66515202  1
  O  O90  1  0.66151650  0.74234567  0.29272223  1
  O  O91  1  0.75064802  0.13638352  0.99689445  1
  O  O92  1  0.03228997  0.39171199  0.38080088  1
  O  O93  1  0.09535880  0.25646847  0.20214785  1
  O  O94  1  0.99495800  0.42051482  0.13273276  1
  O  O95  1  0.09915372  0.84497260  0.32454306  1
  O  O96  1  0.41136738  0.46270838  0.49742070  1
  O  O97  1  0.83873691  0.94765762  0.18699582  1
  O  O98  1  0.80648805  0.57143028  0.83348019  1
  O  O99  1  0.66798052  0.39337069  0.11312584  1
  O  O100  1  0.37453710  0.19688901  0.30190964  1
  O  O101  1  0.72789906  0.79713899  0.74517719  1
  O  O102  1  0.46652067  0.41905597  0.72124147  1
  O  O103  1  0.21103997  0.72232593  0.85704481  1
  O  O104  1  0.26432069  0.09110799  0.96723917  1
