# generated using pymatgen
data_CrFeO3
_symmetry_space_group_name_H-M   'P 1'
_cell_length_a   10.35272736
_cell_length_b   10.12698983
_cell_length_c   9.95655345
_cell_angle_alpha   85.03185830
_cell_angle_beta   86.49238464
_cell_angle_gamma   88.16394058
_symmetry_Int_Tables_number   1
_chemical_formula_structural   CrFeO3
_chemical_formula_sum   'Cr16 Fe16 O48'
_cell_volume   1037.61926808
_cell_formula_units_Z   16
loop_
 _symmetry_equiv_pos_site_id
 _symmetry_equiv_pos_as_xyz
  1  'x, y, z'
loop_
 _atom_site_type_symbol
 _atom_site_label
 _atom_site_symmetry_multiplicity
 _atom_site_fract_x
 _atom_site_fract_y
 _atom_site_fract_z
 _atom_site_occupancy
  Cr  Cr0  1  0.98724000  0.00284000  0.38478400  1
  Cr  Cr1  1  0.46237000  0.08293500  0.97954100  1
  Cr  Cr2  1  0.67074100  0.05373200  0.38488700  1
  Cr  Cr3  1  0.56942400  0.44575700  0.52152500  1
  Cr  Cr4  1  0.72274700  0.21264700  0.81251800  1
  Cr  Cr5  1  0.25222800  0.63557200  0.53659800  1
  Cr  Cr6  1  0.87383600  0.70074700  0.78096100  1
  Cr  Cr7  1  0.28415900  0.31336700  0.47606000  1
  Cr  Cr8  1  0.20255800  0.18230700  0.85800800  1
  Cr  Cr9  1  0.77881300  0.80052600  0.42488500  1
  Cr  Cr10  1  0.13936000  0.46026500  0.75066600  1
  Cr  Cr11  1  0.79560000  0.43817800  0.31180900  1
  Cr  Cr12  1  0.48712700  0.72248400  0.59737100  1
  Cr  Cr13  1  0.11594800  0.69566800  0.98038600  1
  Cr  Cr14  1  0.51064600  0.70839000  0.28818300  1
  Cr  Cr15  1  0.45596700  0.14390100  0.63535900  1
  Fe  Fe16  1  0.64981700  0.52719500  0.04686000  1
  Fe  Fe17  1  0.23132600  0.35482900  0.04451400  1
  Fe  Fe18  1  0.25260500  0.99597100  0.47906500  1
  Fe  Fe19  1  0.71066000  0.00133800  0.06961300  1
  Fe  Fe20  1  0.73583000  0.49181100  0.74740500  1
  Fe  Fe21  1  0.98822400  0.06315900  0.04549900  1
  Fe  Fe22  1  0.52239500  0.28545000  0.23220100  1
  Fe  Fe23  1  0.55691100  0.76790500  0.93454700  1
  Fe  Fe24  1  0.69885500  0.93363300  0.70118700  1
  Fe  Fe25  1  0.24875200  0.56365400  0.25930100  1
  Fe  Fe26  1  0.99935000  0.10714000  0.70946400  1
  Fe  Fe27  1  0.30366200  0.86139500  0.77021300  1
  Fe  Fe28  1  0.90570700  0.68213200  0.18926600  1
  Fe  Fe29  1  0.14562000  0.81310900  0.24571600  1
  Fe  Fe30  1  0.94304500  0.39939500  0.98074200  1
  Fe  Fe31  1  0.47507300  0.43164200  0.83993800  1
  O  O32  1  0.33775400  0.72525000  0.22350400  1
  O  O33  1  0.21483400  0.63859600  0.71205400  1
  O  O34  1  0.08115900  0.26982700  0.73220200  1
  O  O35  1  0.71008200  0.35280400  0.63048400  1
  O  O36  1  0.77791900  0.77043500  0.62863900  1
  O  O37  1  0.51077900  0.82346700  0.74590700  1
  O  O38  1  0.71341300  0.92975100  0.26088200  1
  O  O39  1  0.47089200  0.55225500  0.96799000  1
  O  O40  1  0.15141400  0.66509400  0.39746200  1
  O  O41  1  0.59094300  0.04638800  0.57028800  1
  O  O42  1  0.09973000  0.62416800  0.16366600  1
  O  O43  1  0.96411200  0.82888800  0.36383400  1
  O  O44  1  0.53663800  0.16911700  0.81335700  1
  O  O45  1  0.31334800  0.06903300  0.72589700  1
  O  O46  1  0.07387100  0.04784500  0.54049300  1
  O  O47  1  0.91565900  0.35296800  0.37597900  1
  O  O48  1  0.55457500  0.54746700  0.68258100  1
  O  O49  1  0.65829100  0.37564400  0.89869200  1
  O  O50  1  0.00207400  0.76456600  0.86449800  1
  O  O51  1  0.37355300  0.13387900  0.45627400  1
  O  O52  1  0.31994000  0.82984600  0.55385500  1
  O  O53  1  0.43851900  0.91593600  0.99543500  1
  O  O54  1  0.26591200  0.75963900  0.93924300  1
  O  O55  1  0.58271300  0.78846600  0.43909000  1
  O  O56  1  0.82739400  0.14425000  0.97246100  1
  O  O57  1  0.81957000  0.08100700  0.71372700  1
  O  O58  1  0.30385700  0.38831200  0.21839400  1
  O  O59  1  0.12129700  0.50457900  0.94912000  1
  O  O60  1  0.68955200  0.91003900  0.89716200  1
  O  O61  1  0.69116400  0.21187700  0.31833800  1
  O  O62  1  0.79151700  0.62135300  0.35004200  1
  O  O63  1  0.29813700  0.36465600  0.83776500  1
  O  O64  1  0.92323400  0.50953800  0.77642100  1
  O  O65  1  0.19025400  0.45944900  0.55305200  1
  O  O66  1  0.31166500  0.17099600  0.01949500  1
  O  O67  1  0.07911900  0.25146200  0.01223400  1
  O  O68  1  0.82979200  0.49702600  0.11945600  1
  O  O69  1  0.43901500  0.32286900  0.58735200  1
  O  O70  1  0.71241600  0.64255800  0.86851100  1
  O  O71  1  0.95175900  0.09372600  0.23220200  1
  O  O72  1  0.03127400  0.85776500  0.09715300  1
  O  O73  1  0.55576200  0.13993100  0.11182500  1
  O  O74  1  0.08307700  0.03453700  0.86886900  1
  O  O75  1  0.60198100  0.71248700  0.12253100  1
  O  O76  1  0.81198000  0.98585200  0.47454600  1
  O  O77  1  0.17487800  0.97774500  0.31465100  1
  O  O78  1  0.42225600  0.59441700  0.46448900  1
  O  O79  1  0.59815200  0.43759500  0.32160900  1
