# generated using pymatgen
data_SnO2
_symmetry_space_group_name_H-M   'P 1'
_cell_length_a   11.23513349
_cell_length_b   10.95192772
_cell_length_c   10.73337457
_cell_angle_alpha   93.32083200
_cell_angle_beta   88.49796586
_cell_angle_gamma   94.46273054
_symmetry_Int_Tables_number   1
_chemical_formula_structural   SnO2
_chemical_formula_sum   'Sn30 O60'
_cell_volume   1314.17503596
_cell_formula_units_Z   30
loop_
 _symmetry_equiv_pos_site_id
 _symmetry_equiv_pos_as_xyz
  1  'x, y, z'
loop_
 _atom_site_type_symbol
 _atom_site_label
 _atom_site_symmetry_multiplicity
 _atom_site_fract_x
 _atom_site_fract_y
 _atom_site_fract_z
 _atom_site_occupancy
  Sn  Sn0  1  0.76195800  0.16655500  0.19048900  1
  Sn  Sn1  1  0.56779200  0.58343900  0.95661200  1
  Sn  Sn2  1  0.90537400  0.83196100  0.67321400  1
  Sn  Sn3  1  0.55574000  0.83728600  0.71400300  1
  Sn  Sn4  1  0.01306500  0.65539000  0.94455700  1
  Sn  Sn5  1  0.79671600  0.52333600  0.76327400  1
  Sn  Sn6  1  0.47704500  0.33437900  0.79040200  1
  Sn  Sn7  1  0.44874700  0.17729900  0.09276200  1
  Sn  Sn8  1  0.07481100  0.60021600  0.49981800  1
  Sn  Sn9  1  0.40739200  0.90784600  0.23317400  1
  Sn  Sn10  1  0.90499500  0.40795300  0.08124400  1
  Sn  Sn11  1  0.21049300  0.69049800  0.24936100  1
  Sn  Sn12  1  0.30437700  0.75223500  0.92940700  1
  Sn  Sn13  1  0.61641700  0.86297900  0.04574100  1
  Sn  Sn14  1  0.55144200  0.57349700  0.58330400  1
  Sn  Sn15  1  0.25351000  0.42581300  0.97665400  1
  Sn  Sn16  1  0.04548400  0.94278900  0.99832200  1
  Sn  Sn17  1  0.12586400  0.30158000  0.54395200  1
  Sn  Sn18  1  0.90726000  0.67221600  0.24259200  1
  Sn  Sn19  1  0.65452100  0.79423500  0.41967500  1
  Sn  Sn20  1  0.01834700  0.15797300  0.29100300  1
  Sn  Sn21  1  0.29103100  0.41379600  0.27824500  1
  Sn  Sn22  1  0.98692200  0.13871300  0.82062800  1
  Sn  Sn23  1  0.61777500  0.47062200  0.25901100  1
  Sn  Sn24  1  0.26522800  0.12703700  0.73108800  1
  Sn  Sn25  1  0.24792400  0.01569700  0.45418700  1
  Sn  Sn26  1  0.81388800  0.09533300  0.52966900  1
  Sn  Sn27  1  0.52213800  0.23468600  0.45723100  1
  Sn  Sn28  1  0.69657300  0.11860100  0.89655600  1
  Sn  Sn29  1  0.82402100  0.39184400  0.49522700  1
  O  O30  1  0.02583300  0.32086200  0.87510100  1
  O  O31  1  0.13126600  0.80790800  0.89954600  1
  O  O32  1  0.47010700  0.41051000  0.61614400  1
  O  O33  1  0.54177300  0.46852400  0.09873500  1
  O  O34  1  0.91285300  0.29254900  0.22733200  1
  O  O35  1  0.60105200  0.60803100  0.38994600  1
  O  O36  1  0.22773900  0.56689100  0.38581000  1
  O  O37  1  0.06979300  0.34647100  0.00275800  1
  O  O38  1  0.50441900  0.74683100  0.54534800  1
  O  O39  1  0.45300200  0.39539700  0.34329000  1
  O  O40  1  0.29126200  0.29373400  0.83749400  1
  O  O41  1  0.79823200  0.25125000  0.01830900  1
  O  O42  1  0.55132200  0.21579600  0.92942900  1
  O  O43  1  0.04898200  0.74766400  0.60737900  1
  O  O44  1  0.25253800  0.96596900  0.62727400  1
  O  O45  1  0.88704500  0.50940400  0.92897500  1
  O  O46  1  0.38433800  0.82820600  0.78573500  1
  O  O47  1  0.15117400  0.30388700  0.34573500  1
  O  O48  1  0.05869600  0.72481600  0.34057800  1
  O  O49  1  0.14505600  0.47478500  0.60255300  1
  O  O50  1  0.29792200  0.30921100  0.11289700  1
  O  O51  1  0.30042100  0.82803100  0.36416100  1
  O  O52  1  0.93266300  0.98554400  0.57861900  1
  O  O53  1  0.90613600  0.42204200  0.66192400  1
  O  O54  1  0.78950900  0.52436500  0.18228700  1
  O  O55  1  0.64616400  0.44250700  0.84479300  1
  O  O56  1  0.83692300  0.07959000  0.32986700  1
  O  O57  1  0.26160400  0.81634200  0.11704100  1
  O  O58  1  0.92887800  0.52583800  0.40779400  1
  O  O59  1  0.72050000  0.52531200  0.58957000  1
  O  O60  1  0.41434600  0.48828300  0.89110700  1
  O  O61  1  0.64798600  0.98280600  0.48928700  1
  O  O62  1  0.02192900  0.56920100  0.12666200  1
  O  O63  1  0.59026500  0.19760200  0.21439400  1
  O  O64  1  0.44625200  0.16462600  0.70863300  1
  O  O65  1  0.69739200  0.35640600  0.36175200  1
  O  O66  1  0.70070500  0.70991600  0.01601100  1
  O  O67  1  0.63075100  0.93543600  0.86298300  1
  O  O68  1  0.47083700  0.97641200  0.07181600  1
  O  O69  1  0.58135800  0.65749200  0.76502800  1
  O  O70  1  0.14651000  0.07578300  0.89091800  1
  O  O71  1  0.73160900  0.02259500  0.05901300  1
  O  O72  1  0.81589000  0.14570100  0.75657500  1
  O  O73  1  0.00069000  0.08087100  0.11272900  1
  O  O74  1  0.95631100  0.24193500  0.47693300  1
  O  O75  1  0.73363800  0.79785000  0.61011900  1
  O  O76  1  0.18850400  0.58790600  0.91410400  1
  O  O77  1  0.88931000  0.69313400  0.79947700  1
  O  O78  1  0.10649700  0.02420900  0.35150300  1
  O  O79  1  0.71621400  0.23817200  0.55328400  1
  O  O80  1  0.93194500  0.95278900  0.84626400  1
  O  O81  1  0.09416400  0.17721700  0.67678600  1
  O  O82  1  0.27926000  0.54576200  0.14761700  1
  O  O83  1  0.46358200  0.72619700  0.01437800  1
  O  O84  1  0.27317400  0.20179300  0.53528900  1
  O  O85  1  0.81215200  0.79183700  0.33370700  1
  O  O86  1  0.38260600  0.06533400  0.33162000  1
  O  O87  1  0.95980300  0.78730700  0.07894000  1
  O  O88  1  0.57861600  0.99701900  0.60894600  1
  O  O89  1  0.57289700  0.84610000  0.25169800  1
