# generated using pymatgen
data_BeO
_symmetry_space_group_name_H-M   'P 1'
_cell_length_a   10.09972370
_cell_length_b   8.96623788
_cell_length_c   9.26153822
_cell_angle_alpha   91.16284506
_cell_angle_beta   97.22118706
_cell_angle_gamma   86.12424310
_symmetry_Int_Tables_number   1
_chemical_formula_structural   BeO
_chemical_formula_sum   'Be50 O50'
_cell_volume   830.07857656
_cell_formula_units_Z   50
loop_
 _symmetry_equiv_pos_site_id
 _symmetry_equiv_pos_as_xyz
  1  'x, y, z'
loop_
 _atom_site_type_symbol
 _atom_site_label
 _atom_site_symmetry_multiplicity
 _atom_site_fract_x
 _atom_site_fract_y
 _atom_site_fract_z
 _atom_site_occupancy
  Be  Be0  1  0.43071000  0.50806000  0.69333100  1
  Be  Be1  1  0.15212800  0.38555800  0.02493300  1
  Be  Be2  1  0.61236000  0.84930000  0.01568200  1
  Be  Be3  1  0.11172300  0.12050300  0.90233100  1
  Be  Be4  1  0.72097700  0.52525800  0.07156200  1
  Be  Be5  1  0.83763500  0.78799900  0.83052900  1
  Be  Be6  1  0.04937200  0.25921300  0.39628200  1
  Be  Be7  1  0.25487700  0.02078700  0.32609900  1
  Be  Be8  1  0.75594000  0.58689200  0.55591600  1
  Be  Be9  1  0.16357800  0.20872400  0.22142400  1
  Be  Be10  1  0.36453600  0.16797000  0.49280100  1
  Be  Be11  1  0.80008400  0.29040000  0.42271500  1
  Be  Be12  1  0.32168500  0.66627600  0.18694500  1
  Be  Be13  1  0.92865700  0.08228200  0.60712500  1
  Be  Be14  1  0.17009900  0.47493200  0.32184700  1
  Be  Be15  1  0.52323700  0.86411000  0.24000500  1
  Be  Be16  1  0.94245000  0.59149700  0.09595000  1
  Be  Be17  1  0.84247500  0.14050600  0.16727900  1
  Be  Be18  1  0.78099000  0.95997800  0.33939100  1
  Be  Be19  1  0.61204000  0.79625800  0.74477700  1
  Be  Be20  1  0.59142300  0.27545400  0.22175500  1
  Be  Be21  1  0.52435800  0.61273900  0.97660800  1
  Be  Be22  1  0.99379300  0.00076600  0.31807100  1
  Be  Be23  1  0.17209000  0.92812900  0.09600500  1
  Be  Be24  1  0.39876400  0.94493700  0.58409900  1
  Be  Be25  1  0.56416600  0.39247500  0.47208600  1
  Be  Be26  1  0.18666900  0.71391300  0.62226900  1
  Be  Be27  1  0.20648600  0.15383100  0.71580000  1
  Be  Be28  1  0.82549300  0.52877100  0.77714500  1
  Be  Be29  1  0.55034900  0.00628900  0.45441000  1
  Be  Be30  1  0.06053000  0.40563100  0.80950400  1
  Be  Be31  1  0.72400900  0.06462700  0.87198100  1
  Be  Be32  1  0.51928300  0.57114600  0.22804800  1
  Be  Be33  1  0.92347500  0.81449000  0.12420300  1
  Be  Be34  1  0.34736900  0.73665200  0.74898500  1
  Be  Be35  1  0.25676300  0.44145500  0.77681400  1
  Be  Be36  1  0.92562500  0.80436700  0.55173900  1
  Be  Be37  1  0.88553300  0.31412400  0.97181000  1
  Be  Be38  1  0.66900800  0.29782500  0.90627200  1
  Be  Be39  1  0.78199000  0.29762900  0.67250300  1
  Be  Be40  1  0.12681400  0.74666700  0.34626200  1
  Be  Be41  1  0.39027000  0.66017900  0.45519500  1
  Be  Be42  1  0.38618900  0.09372800  0.06214200  1
  Be  Be43  1  0.18809500  0.68575200  0.93205100  1
  Be  Be44  1  0.61188800  0.11503800  0.65574700  1
  Be  Be45  1  0.06203700  0.90883300  0.80163200  1
  Be  Be46  1  0.96655600  0.61419100  0.40188600  1
  Be  Be47  1  0.41477100  0.19337800  0.80573700  1
  Be  Be48  1  0.02552200  0.39488200  0.58368000  1
  Be  Be49  1  0.45785000  0.38612400  0.00924900  1
  O  O50  1  0.40679800  0.37837100  0.82060100  1
  O  O51  1  0.49362800  0.69812100  0.82301500  1
  O  O52  1  0.70005000  0.89118200  0.88601500  1
  O  O53  1  0.07322200  0.06850300  0.71936400  1
  O  O54  1  0.95277700  0.49216300  0.70359900  1
  O  O55  1  0.94249200  0.24756200  0.51616200  1
  O  O56  1  0.33442600  0.79239600  0.58091400  1
  O  O57  1  0.06516000  0.97714500  0.96849400  1
  O  O58  1  0.58367300  0.16803300  0.81902600  1
  O  O59  1  0.83414900  0.67152000  0.46222000  1
  O  O60  1  0.98970900  0.67920800  0.23770700  1
  O  O61  1  0.21237000  0.19827500  0.40113300  1
  O  O62  1  0.15443100  0.33047000  0.69396700  1
  O  O63  1  0.56742400  0.42678400  0.30333400  1
  O  O64  1  0.13300900  0.91366500  0.30408600  1
  O  O65  1  0.17624500  0.37747900  0.18354900  1
  O  O66  1  0.64649400  0.68367400  0.08661000  1
  O  O67  1  0.39417100  0.99820200  0.41466600  1
  O  O68  1  0.86488000  0.45296800  0.08538300  1
  O  O69  1  0.28085200  0.57121000  0.68098400  1
  O  O70  1  0.48100800  0.52353500  0.54437500  1
  O  O71  1  0.92839200  0.84267700  0.72187900  1
  O  O72  1  0.72924100  0.40232200  0.53492100  1
  O  O73  1  0.78071400  0.37630900  0.82250700  1
  O  O74  1  0.61006900  0.43307500  0.99168600  1
  O  O75  1  0.28433000  0.14562600  0.89937000  1
  O  O76  1  0.16938300  0.50833600  0.91327800  1
  O  O77  1  0.06904000  0.72678800  0.50178600  1
  O  O78  1  0.73167800  0.66309900  0.71655500  1
  O  O79  1  0.25706400  0.07140500  0.15942000  1
  O  O80  1  0.90744000  0.97046100  0.46182200  1
  O  O81  1  0.00028100  0.17101500  0.24896100  1
  O  O82  1  0.74200700  0.21128100  0.28088000  1
  O  O83  1  0.79375100  0.17613500  0.99745900  1
  O  O84  1  0.22274500  0.76038500  0.08039500  1
  O  O85  1  0.56431600  0.93644400  0.62594400  1
  O  O86  1  0.53106900  0.20725300  0.51028100  1
  O  O87  1  0.41576400  0.55446400  0.07927900  1
  O  O88  1  0.63591700  0.93504200  0.34526300  1
  O  O89  1  0.25117200  0.61785000  0.33735300  1
  O  O90  1  0.85893700  0.95283900  0.19574700  1
  O  O91  1  0.05151200  0.44712300  0.41773700  1
  O  O92  1  0.47552200  0.23648400  0.10091700  1
  O  O93  1  0.34463700  0.11061500  0.65283700  1
  O  O94  1  0.19358900  0.78624600  0.79364100  1
  O  O95  1  0.49398700  0.93341900  0.08143900  1
  O  O96  1  0.91184600  0.71542200  0.98040300  1
  O  O97  1  0.03899400  0.28855000  0.93605000  1
  O  O98  1  0.45912300  0.71900700  0.29944700  1
  O  O99  1  0.77893100  0.12475800  0.67917100  1
