# generated using pymatgen
data_B2O3
_symmetry_space_group_name_H-M   'P 1'
_cell_length_a   11.66829873
_cell_length_b   10.55595990
_cell_length_c   10.53521535
_cell_angle_alpha   88.64137249
_cell_angle_beta   97.66813638
_cell_angle_gamma   95.60074864
_symmetry_Int_Tables_number   1
_chemical_formula_structural   B2O3
_chemical_formula_sum   'B40 O60'
_cell_volume   1279.80510249
_cell_formula_units_Z   20
loop_
 _symmetry_equiv_pos_site_id
 _symmetry_equiv_pos_as_xyz
  1  'x, y, z'
loop_
 _atom_site_type_symbol
 _atom_site_label
 _atom_site_symmetry_multiplicity
 _atom_site_fract_x
 _atom_site_fract_y
 _atom_site_fract_z
 _atom_site_occupancy
  B  B0  1  0.85508600  0.78415700  0.03545400  1
  B  B1  1  0.29977100  0.57001400  0.55939400  1
  B  B2  1  0.83879600  0.14327000  0.12390700  1
  B  B3  1  0.84719800  0.51173700  0.76930700  1
  B  B4  1  0.27339400  0.33109600  0.93049400  1
  B  B5  1  0.85675600  0.15916900  0.45776400  1
  B  B6  1  0.64679100  0.74581400  0.47787000  1
  B  B7  1  0.30295100  0.99206100  0.46908000  1
  B  B8  1  0.09758500  0.49208100  0.19700500  1
  B  B9  1  0.69746100  0.52238900  0.43333500  1
  B  B10  1  0.35022900  0.16010300  0.07905800  1
  B  B11  1  0.92731100  0.00820700  0.97400900  1
  B  B12  1  0.08773100  0.22556500  0.48966900  1
  B  B13  1  0.37845400  0.70131200  0.17339900  1
  B  B14  1  0.78100600  0.94111800  0.52406500  1
  B  B15  1  0.65705000  0.97364000  0.10831200  1
  B  B16  1  0.32337200  0.57425700  0.97704000  1
  B  B17  1  0.65480700  0.43855300  0.81952800  1
  B  B18  1  0.79977700  0.29077900  0.78875200  1
  B  B19  1  0.58777300  0.74804900  0.14108700  1
  B  B20  1  0.02668200  0.68894300  0.80166500  1
  B  B21  1  0.46739400  0.03155700  0.95273600  1
  B  B22  1  0.47346500  0.50921200  0.68834800  1
  B  B23  1  0.67506500  0.28174100  0.44847100  1
  B  B24  1  0.50370500  0.11875500  0.50862200  1
  B  B25  1  0.23202700  0.81828700  0.29367500  1
  B  B26  1  0.93861800  0.35509100  0.21558300  1
  B  B27  1  0.05564100  0.93003800  0.82898200  1
  B  B28  1  0.91004100  0.48233300  0.42690100  1
  B  B29  1  0.47535500  0.70233600  0.56645300  1
  B  B30  1  0.68173000  0.59978200  0.00890800  1
  B  B31  1  0.55057700  0.03340800  0.74648200  1
  B  B32  1  0.76111500  0.05920100  0.72757500  1
  B  B33  1  0.16793400  0.30037700  0.71152800  1
  B  B34  1  0.24117800  0.72088700  0.80543000  1
  B  B35  1  0.21377100  0.92474500  0.68098700  1
  B  B36  1  0.36118000  0.18521800  0.31603300  1
  B  B37  1  0.09794300  0.48737300  0.58968100  1
  B  B38  1  0.04025600  0.73035000  0.19354800  1
  B  B39  1  0.21929700  0.34653300  0.32835500  1
  O  O40  1  0.84978000  0.90052900  0.97238400  1
  O  O41  1  0.88608900  0.39085800  0.78593900  1
  O  O42  1  0.29192600  0.91276500  0.37229700  1
  O  O43  1  0.65354300  0.48785100  0.94954900  1
  O  O44  1  0.35791300  0.47810600  0.62864400  1
  O  O45  1  0.18071300  0.56124500  0.53088000  1
  O  O46  1  0.11316900  0.80970100  0.28036400  1
  O  O47  1  0.15240600  0.22077400  0.60761600  1
  O  O48  1  0.36040600  0.67762200  0.51353600  1
  O  O49  1  0.22266600  0.25949700  0.82747600  1
  O  O50  1  0.78102100  0.68065800  0.99815200  1
  O  O51  1  0.54914600  0.79353100  0.51373000  1
  O  O52  1  0.46509600  0.01600700  0.82299000  1
  O  O53  1  0.25524000  0.99121800  0.57708700  1
  O  O54  1  0.27139000  0.82388500  0.72932500  1
  O  O55  1  0.55459600  0.00225500  0.04146700  1
  O  O56  1  0.97389800  0.18028100  0.47033100  1
  O  O57  1  0.94367100  0.78074000  0.13746700  1
  O  O58  1  0.12246900  0.96719000  0.73164400  1
  O  O59  1  0.74045500  0.06994400  0.14195600  1
  O  O60  1  0.13758600  0.27018600  0.38363800  1
  O  O61  1  0.37494500  0.12420900  0.20936700  1
  O  O62  1  0.81213900  0.54487900  0.42375700  1
  O  O63  1  0.37084000  0.07994400  0.98751500  1
  O  O64  1  0.02527000  0.80603800  0.85927700  1
  O  O65  1  0.98395200  0.48547600  0.53853200  1
  O  O66  1  0.12679200  0.41633800  0.69730000  1
  O  O67  1  0.51927900  0.63507100  0.67147800  1
  O  O68  1  0.58623800  0.18313700  0.44929000  1
  O  O69  1  0.32270000  0.68462700  0.90044200  1
  O  O70  1  0.91628200  0.11444600  0.04355700  1
  O  O71  1  0.67189500  0.85087800  0.14784600  1
  O  O72  1  0.60384100  0.63488600  0.09129000  1
  O  O73  1  0.92635200  0.61810200  0.77033100  1
  O  O74  1  0.66426600  0.03223800  0.79042100  1
  O  O75  1  0.30557900  0.27267000  0.04828000  1
  O  O76  1  0.02429100  0.38932900  0.14066600  1
  O  O77  1  0.63948700  0.40094300  0.43619100  1
  O  O78  1  0.35459100  0.58944800  0.10491800  1
  O  O79  1  0.53334900  0.42263100  0.75357500  1
  O  O80  1  0.79030900  0.26138100  0.45864300  1
  O  O81  1  0.69464500  0.30708000  0.82248200  1
  O  O82  1  0.51131800  0.05173300  0.61698900  1
  O  O83  1  0.82713800  0.17274800  0.74398900  1
  O  O84  1  0.13299600  0.65383800  0.78172500  1
  O  O85  1  0.80650700  0.03674900  0.43953200  1
  O  O86  1  0.62989700  0.62080900  0.43770000  1
  O  O87  1  0.48630500  0.76680300  0.19098100  1
  O  O88  1  0.73218600  0.52657600  0.75025100  1
  O  O89  1  0.06740100  0.61151700  0.16583100  1
  O  O90  1  0.28766200  0.74639300  0.22180800  1
  O  O91  1  0.93899800  0.43318300  0.31863900  1
  O  O92  1  0.29267000  0.46011200  0.91861300  1
  O  O93  1  0.01684100  0.02215400  0.89837600  1
  O  O94  1  0.38469900  0.11069000  0.43948200  1
  O  O95  1  0.85858600  0.25210800  0.19671300  1
  O  O96  1  0.32708600  0.30200300  0.32457800  1
  O  O97  1  0.19738200  0.46301400  0.27440200  1
  O  O98  1  0.74832100  0.82090600  0.47579700  1
  O  O99  1  0.78847500  0.96364500  0.65287700  1
