# generated using pymatgen
data_In2O3
_symmetry_space_group_name_H-M   'P 1'
_cell_length_a   11.83071667
_cell_length_b   11.36463494
_cell_length_c   11.37804769
_cell_angle_alpha   93.14057407
_cell_angle_beta   89.77572221
_cell_angle_gamma   86.18068653
_symmetry_Int_Tables_number   1
_chemical_formula_structural   In2O3
_chemical_formula_sum   'In40 O60'
_cell_volume   1524.06475761
_cell_formula_units_Z   20
loop_
 _symmetry_equiv_pos_site_id
 _symmetry_equiv_pos_as_xyz
  1  'x, y, z'
loop_
 _atom_site_type_symbol
 _atom_site_label
 _atom_site_symmetry_multiplicity
 _atom_site_fract_x
 _atom_site_fract_y
 _atom_site_fract_z
 _atom_site_occupancy
  In  In0  1  0.82899631  0.46018796  0.17099531  1
  In  In1  1  0.21477073  0.99332223  0.02349274  1
  In  In2  1  0.48241411  0.88323057  0.11815692  1
  In  In3  1  0.92385214  0.40128313  0.90325050  1
  In  In4  1  0.01887020  0.67154655  0.93586412  1
  In  In5  1  0.75060255  0.04596698  0.67217626  1
  In  In6  1  0.15743638  0.20811023  0.83393852  1
  In  In7  1  0.39743220  0.21585732  0.02765407  1
  In  In8  1  0.24871281  0.69786436  0.12815061  1
  In  In9  1  0.74833527  0.57022164  0.43574689  1
  In  In10  1  0.34177230  0.99178580  0.61839466  1
  In  In11  1  0.66527924  0.11963345  0.20011636  1
  In  In12  1  0.83876391  0.31278791  0.66417081  1
  In  In13  1  0.00209830  0.90786541  0.19251063  1
  In  In14  1  0.23728015  0.24730508  0.48718347  1
  In  In15  1  0.70326448  0.22011843  0.95638915  1
  In  In16  1  0.52912857  -0.00156660  0.86063522  1
  In  In17  1  0.91730620  0.83232500  0.52093221  1
  In  In18  1  0.57057866  0.36522183  0.44122441  1
  In  In19  1  0.52583425  0.63575652  0.92969420  1
  In  In20  1  0.28956442  0.79393206  0.81520824  1
  In  In21  1  0.22590150  0.50918671  0.80848990  1
  In  In22  1  0.97903391  0.16672480  0.12246617  1
  In  In23  1  0.06443233  0.93159290  0.72211319  1
  In  In24  1  0.29497628  0.41051928  0.32163886  1
  In  In25  1  0.53588064  0.42288017  0.17195273  1
  In  In26  1  0.04056397  0.47732316  0.59201041  1
  In  In27  1  0.20145283  0.68972699  0.54740904  1
  In  In28  1  0.45141573  0.68539721  0.37650620  1
  In  In29  1  0.98031012  0.12775963  0.46438881  1
  In  In30  1  0.28101525  0.90943931  0.35113906  1
  In  In31  1  0.74719526  0.81181384  0.28007867  1
  In  In32  1  0.01260289  0.63606218  0.29802220  1
  In  In33  1  0.10525266  0.45356980  0.10505461  1
  In  In34  1  0.78781650  0.61631847  0.72591610  1
  In  In35  1  0.59669998  0.81230178  0.57859410  1
  In  In36  1  0.51211729  0.05523249  0.42657339  1
  In  In37  1  0.41752585  0.24832421  0.71560438  1
  In  In38  1  0.49679927  0.54422884  0.65864997  1
  In  In39  1  0.75684804  0.85874406  0.95894709  1
  O  O40  1  0.80325763  0.17354012  0.11615825  1
  O  O41  1  0.02909640  0.00329308  0.03785791  1
  O  O42  1  0.89116037  0.91851083  0.69384128  1
  O  O43  1  0.85201812  0.72409637  0.86871663  1
  O  O44  1  0.17453715  0.01805336  0.83031738  1
  O  O45  1  0.22756845  0.17701731  0.00893566  1
  O  O46  1  0.58891140  0.79847613  0.98985499  1
  O  O47  1  0.82160973  0.87318280  0.13127557  1
  O  O48  1  0.21472539  0.52025429  0.61263678  1
  O  O49  1  0.26467918  0.73083179  0.38959200  1
  O  O50  1  0.49811803  0.18989934  0.86770049  1
  O  O51  1  0.06295220  0.28809981  0.51151507  1
  O  O52  1  0.77590495  0.93828333  0.42828952  1
  O  O53  1  0.82313410  0.62559379  0.27829429  1
  O  O54  1  0.94761719  0.53898029  0.03388819  1
  O  O55  1  0.45285122  0.37493612  0.59660789  1
  O  O56  1  0.67643545  0.02804923  0.96424356  1
  O  O57  1  0.03097758  0.65689399  0.49695137  1
  O  O58  1  0.79396446  0.44894794  0.78667293  1
  O  O59  1  0.44164912  0.89416847  0.46919560  1
  O  O60  1  0.57347464  0.24650713  0.09326363  1
  O  O61  1  0.04100739  0.51516151  0.78779819  1
  O  O62  1  0.03299207  0.30334670  0.02796081  1
  O  O63  1  0.99105873  0.44797631  0.25678756  1
  O  O64  1  0.05064282  0.96863278  0.52970874  1
  O  O65  1  0.94148907  0.81453654  0.33614931  1
  O  O66  1  0.49151245  0.10029390  0.61212699  1
  O  O67  1  0.11059490  0.76731902  0.81680523  1
  O  O68  1  0.19839144  0.54983719  0.23910203  1
  O  O69  1  0.28839876  0.33732860  0.83361391  1
  O  O70  1  0.18826772  0.56795222  0.98765463  1
  O  O71  1  0.68391676  0.42967887  0.28892885  1
  O  O72  1  0.77327340  0.71652146  0.57238259  1
  O  O73  1  0.57846177  0.20151719  0.35518527  1
  O  O74  1  0.25808937  0.16762921  0.65553145  1
  O  O75  1  0.37585239  0.61370865  0.80563254  1
  O  O76  1  0.62672206  0.72476204  0.38361290  1
  O  O77  1  0.76741886  0.38785391  0.01357564  1
  O  O78  1  0.39409708  0.78027949  0.22563868  1
  O  O79  1  0.46237674  0.69060645  0.56413259  1
  O  O80  1  0.22769177  0.84830404  0.63923974  1
  O  O81  1  0.41693034  0.02368836  0.02680968  1
  O  O82  1  0.61134128  0.62731442  0.77284639  1
  O  O83  1  0.82390147  0.16834488  0.54880646  1
  O  O84  1  0.41216251  0.90580749  0.76506937  1
  O  O85  1  0.64869797  0.91218267  0.73348620  1
  O  O86  1  0.99212689  0.26481597  0.77786179  1
  O  O87  1  0.36951399  0.34796282  0.16188916  1
  O  O88  1  0.45401527  0.49254879  0.34861059  1
  O  O89  1  0.48362123  0.56735154  0.08039298  1
  O  O90  1  0.74165355  0.20196758  0.77752748  1
  O  O91  1  0.64644177  0.48358662  0.55098876  1
  O  O92  1  0.58976649  0.96617851  0.24968260  1
  O  O93  1  0.18909994  0.92945239  0.20101450  1
  O  O94  1  0.67559470  0.97261178  0.50378790  1
  O  O95  1  0.86972963  0.47321954  0.55955322  1
  O  O96  1  0.06413896  0.72874948  0.13368404  1
  O  O97  1  0.31366269  0.08163197  0.41815447  1
  O  O98  1  0.98474724  0.08873147  0.28487261  1
  O  O99  1  0.30629531  0.81449743  0.00033996  1
