# generated using pymatgen
data_Cr2O3
_symmetry_space_group_name_H-M   'P 1'
_cell_length_a   10.20665458
_cell_length_b   10.26634028
_cell_length_c   9.42001176
_cell_angle_alpha   81.91965567
_cell_angle_beta   89.20010067
_cell_angle_gamma   91.45847096
_symmetry_Int_Tables_number   1
_chemical_formula_structural   Cr2O3
_chemical_formula_sum   'Cr32 O48'
_cell_volume   976.80608749
_cell_formula_units_Z   16
loop_
 _symmetry_equiv_pos_site_id
 _symmetry_equiv_pos_as_xyz
  1  'x, y, z'
loop_
 _atom_site_type_symbol
 _atom_site_label
 _atom_site_symmetry_multiplicity
 _atom_site_fract_x
 _atom_site_fract_y
 _atom_site_fract_z
 _atom_site_occupancy
  Cr  Cr0  1  0.16007300  0.47017300  0.47684600  1
  Cr  Cr1  1  0.74517600  0.42300300  0.25632900  1
  Cr  Cr2  1  0.48588700  0.48878200  0.86618900  1
  Cr  Cr3  1  0.86011700  0.26964500  0.54467500  1
  Cr  Cr4  1  0.63371700  0.07988700  0.35053500  1
  Cr  Cr5  1  0.03029400  0.75702700  0.85132400  1
  Cr  Cr6  1  0.08507800  0.88489500  0.26454600  1
  Cr  Cr7  1  0.69156400  0.52208800  0.58929500  1
  Cr  Cr8  1  0.24984900  0.03580100  0.85715100  1
  Cr  Cr9  1  0.56689100  0.80567500  0.46393100  1
  Cr  Cr10  1  0.93243600  0.66745600  0.34908900  1
  Cr  Cr11  1  0.28196000  0.65850800  0.00719200  1
  Cr  Cr12  1  0.35277200  0.00987300  0.41411700  1
  Cr  Cr13  1  0.36074200  0.95426800  0.14464900  1
  Cr  Cr14  1  0.85821200  0.20318900  0.12848900  1
  Cr  Cr15  1  0.51197600  0.18046600  0.90272400  1
  Cr  Cr16  1  0.30944400  0.68136600  0.32783500  1
  Cr  Cr17  1  0.31400100  0.23637800  0.55992200  1
  Cr  Cr18  1  0.06721100  0.26082100  0.81123500  1
  Cr  Cr19  1  0.27070800  0.72956600  0.66469800  1
  Cr  Cr20  1  0.96965300  0.52278500  0.73321600  1
  Cr  Cr21  1  0.05099000  0.97978100  0.61899300  1
  Cr  Cr22  1  0.53901800  0.04145200  0.65053600  1
  Cr  Cr23  1  0.71346800  0.73828000  0.86078000  1
  Cr  Cr24  1  0.14168700  0.14348800  0.10393100  1
  Cr  Cr25  1  0.08184500  0.21128000  0.37629200  1
  Cr  Cr26  1  0.82408700  0.80252400  0.55471800  1
  Cr  Cr27  1  0.77294700  0.86682100  0.18690800  1
  Cr  Cr28  1  0.53151500  0.64144000  0.14740400  1
  Cr  Cr29  1  0.36317800  0.33745700  0.18144800  1
  Cr  Cr30  1  0.97547500  0.48594900  0.04918500  1
  Cr  Cr31  1  0.76026600  0.27561300  0.86764800  1
  O  O32  1  0.00051400  0.36491200  0.43955000  1
  O  O33  1  0.93812200  0.80902600  0.17191900  1
  O  O34  1  0.81427200  0.37814700  0.04831700  1
  O  O35  1  0.06389200  0.42910300  0.88624400  1
  O  O36  1  0.58203500  0.45986700  0.20726100  1
  O  O37  1  0.87607100  0.54788100  0.21758500  1
  O  O38  1  0.89260200  0.34398800  0.71584100  1
  O  O39  1  0.43015300  0.33279000  0.97625500  1
  O  O40  1  0.63026600  0.41488900  0.76612200  1
  O  O41  1  0.11659400  0.62359200  0.33082100  1
  O  O42  1  0.29296700  0.60101700  0.52635800  1
  O  O43  1  0.49626300  0.67336100  0.35217100  1
  O  O44  1  0.33936000  0.62006900  0.83491900  1
  O  O45  1  0.19389800  0.86707200  0.76961100  1
  O  O46  1  0.94100200  0.11442400  0.51039500  1
  O  O47  1  0.67399200  0.96176200  0.52512600  1
  O  O48  1  0.03161100  0.29458100  0.17062400  1
  O  O49  1  0.39061900  0.13705200  0.72754300  1
  O  O50  1  0.31500600  0.12959200  0.21482100  1
  O  O51  1  0.11008300  0.64855200  0.02090300  1
  O  O52  1  0.18083600  0.96003100  0.06754700  1
  O  O53  1  0.50971100  0.95076600  0.30102200  1
  O  O54  1  0.42028000  0.87695500  0.57773100  1
  O  O55  1  0.65763800  0.18765900  0.03179700  1
  O  O56  1  0.21861300  0.20526300  0.92308100  1
  O  O57  1  0.92203000  0.17029700  0.95041600  1
  O  O58  1  0.19364300  0.34067900  0.64769600  1
  O  O59  1  0.77680400  0.03256000  0.23699900  1
  O  O60  1  0.20427500  0.08868000  0.50803100  1
  O  O61  1  0.90060700  0.85771000  0.72888100  1
  O  O62  1  0.09190400  0.66729600  0.69962700  1
  O  O63  1  0.42684800  0.01310600  0.95947600  1
  O  O64  1  0.67291800  0.79029100  0.07038800  1
  O  O65  1  0.86956900  0.60452300  0.55876900  1
  O  O66  1  0.74578400  0.76290900  0.36712700  1
  O  O67  1  0.25186100  0.33766400  0.37538500  1
  O  O68  1  0.04616500  0.06053300  0.26881000  1
  O  O69  1  0.65659600  0.70550900  0.64432400  1
  O  O70  1  0.65588800  0.13898000  0.75879300  1
  O  O71  1  0.08027000  0.08038700  0.76720500  1
  O  O72  1  0.37427000  0.77006700  0.11325400  1
  O  O73  1  0.57409500  0.61793600  0.94730800  1
  O  O74  1  0.99604000  0.83475500  0.45308600  1
  O  O75  1  0.72242800  0.38715600  0.46638100  1
  O  O76  1  0.89305400  0.61482100  0.88604600  1
  O  O77  1  0.26325100  0.86702200  0.33635600  1
  O  O78  1  0.48343300  0.14364800  0.46849700  1
  O  O79  1  0.35131900  0.53784600  0.15290800  1
