# generated using pymatgen
data_GaN
_symmetry_space_group_name_H-M   'P 1'
_cell_length_a   11.17250858
_cell_length_b   11.45200443
_cell_length_c   10.97768528
_cell_angle_alpha   94.24461403
_cell_angle_beta   89.56219268
_cell_angle_gamma   87.31410130
_symmetry_Int_Tables_number   1
_chemical_formula_structural   GaN
_chemical_formula_sum   'Ga50 N50'
_cell_volume   1399.09036841
_cell_formula_units_Z   50
loop_
 _symmetry_equiv_pos_site_id
 _symmetry_equiv_pos_as_xyz
  1  'x, y, z'
loop_
 _atom_site_type_symbol
 _atom_site_label
 _atom_site_symmetry_multiplicity
 _atom_site_fract_x
 _atom_site_fract_y
 _atom_site_fract_z
 _atom_site_occupancy
  Ga  Ga0  1  0.22584340  0.48184886  0.24071947  1
  Ga  Ga1  1  0.24215843  0.57934446  0.61495094  1
  Ga  Ga2  1  0.81258233  0.85597263  0.04341262  1
  Ga  Ga3  1  0.08362356  0.47909977  0.81197724  1
  Ga  Ga4  1  0.20432944  0.21066861  0.25832455  1
  Ga  Ga5  1  0.38544695  0.08533285  0.70454057  1
  Ga  Ga6  1  0.55802595  0.88238316  0.74109190  1
  Ga  Ga7  1  0.89775406  0.33109118  0.45241278  1
  Ga  Ga8  1  0.44513802  0.26586219  0.48726304  1
  Ga  Ga9  1  0.66334144  0.00650234  0.18489690  1
  Ga  Ga10  1  0.12592130  0.77757850  0.33261304  1
  Ga  Ga11  1  0.24668403  0.01587787  0.31998657  1
  Ga  Ga12  1  0.47027152  0.33443482  0.25555641  1
  Ga  Ga13  1  0.67958869  0.49184551  0.37226469  1
  Ga  Ga14  1  0.96337652  0.35788729  0.68053810  1
  Ga  Ga15  1  0.59022116  0.09636902  0.94269684  1
  Ga  Ga16  1  0.14250702  0.17480759  0.59663442  1
  Ga  Ga17  1  0.31442477  0.25301411  0.00424210  1
  Ga  Ga18  1  0.03689319  0.71325055  0.65251650  1
  Ga  Ga19  1  0.32577714  0.51428146  0.97499546  1
  Ga  Ga20  1  0.69843750  0.19222961  0.40514330  1
  Ga  Ga21  1  0.35253036  0.34091070  0.71716401  1
  Ga  Ga22  1  0.94368936  0.61012805  0.28803540  1
  Ga  Ga23  1  0.02087294  0.22060162  0.88807742  1
  Ga  Ga24  1  0.43746025  0.53271510  0.48771193  1
  Ga  Ga25  1  0.14004301  0.70631375  0.90502680  1
  Ga  Ga26  1  0.75440698  0.57284548  0.12087973  1
  Ga  Ga27  1  0.37788301  0.81577915  0.17731028  1
  Ga  Ga28  1  0.59184897  0.81430064  0.95121860  1
  Ga  Ga29  1  0.91901856  0.10427127  0.19025068  1
  Ga  Ga30  1  0.81847749  0.32169833  0.93497500  1
  Ga  Ga31  1  0.85119822  0.11544349  0.65658171  1
  Ga  Ga32  1  0.09353058  0.88887962  0.53391538  1
  Ga  Ga33  1  0.60197055  0.67339599  0.55474704  1
  Ga  Ga34  1  0.92679594  0.87040979  0.26659844  1
  Ga  Ga35  1  0.08786646  0.42798350  0.02959256  1
  Ga  Ga36  1  0.72513485  0.44294241  0.64706011  1
  Ga  Ga37  1  0.84356354  0.68711753  0.51916572  1
  Ga  Ga38  1  0.81431646  0.61572174  0.82469359  1
  Ga  Ga39  1  0.69979420  0.73559928  0.31871911  1
  Ga  Ga40  1  0.04421485  0.52517997  0.48824443  1
  Ga  Ga41  1  0.93581839  0.36432550  0.23202977  1
  Ga  Ga42  1  0.11188333  0.88347865  0.06579006  1
  Ga  Ga43  1  0.49344629  0.97560205  0.46794965  1
  Ga  Ga44  1  0.57051522  0.36244841  0.87026301  1
  Ga  Ga45  1  0.34417848  0.79973123  0.57694618  1
  Ga  Ga46  1  0.34635370  0.79159458  0.86561121  1
  Ga  Ga47  1  0.49145538  0.64791140  0.25858406  1
  Ga  Ga48  1  0.63007797  0.16959491  0.67721662  1
  Ga  Ga49  1  0.66864422  0.28701105  0.14157433  1
  N  N50  1  0.42932153  0.61342756  0.80820552  1
  N  N51  1  0.17532249  0.95762505  0.84949971  1
  N  N52  1  0.42963156  0.96180427  0.29888228  1
  N  N53  1  0.94013284  0.98796325  0.53895993  1
  N  N54  1  0.52559337  0.83683428  0.56949641  1
  N  N55  1  0.74609497  0.61612268  0.65044136  1
  N  N56  1  0.99648533  0.19072155  0.70347704  1
  N  N57  1  0.21031803  0.87078882  0.21398050  1
  N  N58  1  0.18479422  0.29657276  0.43846511  1
  N  N59  1  0.43898063  0.12660222  0.04311450  1
  N  N60  1  0.74396610  0.15241487  0.22856892  1
  N  N61  1  0.76160986  0.44221513  0.82004310  1
  N  N62  1  0.23721410  0.63738406  0.35071484  1
  N  N63  1  0.05468274  0.48175833  0.20119505  1
  N  N64  1  0.20272901  0.20943547  0.85961474  1
  N  N65  1  0.85715432  0.15620428  0.47793220  1
  N  N66  1  0.96999673  0.02973006  0.33872317  1
  N  N67  1  0.33098691  0.98835100  0.56312849  1
  N  N68  1  0.50298579  0.49283284  0.32264563  1
  N  N69  1  0.74433179  0.70916245  0.97093147  1
  N  N70  1  0.95006120  0.69273395  0.09902850  1
  N  N71  1  0.02992923  0.64570749  0.04392423  1
  N  N72  1  0.10418712  0.96628487  0.77599124  1
  N  N73  1  0.43183070  0.81283493  0.01347602  1
  N  N74  1  0.52198860  0.52130292  0.00385142  1
  N  N75  1  0.39355666  0.35723562  0.89413842  1
  N  N76  1  0.00158290  0.64034756  0.80615487  1
  N  N77  1  0.67060651  0.96207012  0.01053092  1
  N  N78  1  0.57079559  0.56252684  0.09225267  1
  N  N79  1  0.04105494  0.22370113  0.16873918  1
  N  N80  1  0.21696134  0.02703422  0.50980259  1
  N  N81  1  0.22245077  0.45155703  0.70822269  1
  N  N82  1  0.17094289  0.40190009  0.42317891  1
  N  N83  1  0.33249767  0.67547265  0.40339110  1
  N  N84  1  0.57211658  0.12644516  0.50105676  1
  N  N85  1  0.75552839  0.86826262  0.23602321  1
  N  N86  1  0.40818177  0.07739067  0.14070826  1
  N  N87  1  0.09201642  0.24599139  0.05470560  1
  N  N88  1  0.85842076  0.87738528  0.79504653  1
  N  N89  1  0.80552452  0.39882576  0.11086900  1
  N  N90  1  0.71564391  0.36057068  0.48314558  1
  N  N91  1  0.50388289  0.55926531  0.75452911  1
  N  N92  1  0.48599149  0.03176287  0.21466275  1
  N  N93  1  0.24261103  0.17126362  0.75295431  1
  N  N94  1  0.92389921  0.05509665  0.44755384  1
  N  N95  1  0.94970658  0.94735805  0.10091177  1
  N  N96  1  0.53720455  0.05686411  0.77219956  1
  N  N97  1  0.78162862  0.90812830  0.73655084  1
  N  N98  1  0.30641329  0.32554051  0.18478511  1
  N  N99  1  0.66138853  0.24794313  0.96305577  1
