# generated using pymatgen
data_MoO3
_symmetry_space_group_name_H-M   'P 1'
_cell_length_a   11.78176017
_cell_length_b   13.69591362
_cell_length_c   12.20732395
_cell_angle_alpha   91.19274007
_cell_angle_beta   92.77010228
_cell_angle_gamma   89.94326787
_symmetry_Int_Tables_number   1
_chemical_formula_structural   MoO3
_chemical_formula_sum   'Mo25 O75'
_cell_volume   1967.06981051
_cell_formula_units_Z   25
loop_
 _symmetry_equiv_pos_site_id
 _symmetry_equiv_pos_as_xyz
  1  'x, y, z'
loop_
 _atom_site_type_symbol
 _atom_site_label
 _atom_site_symmetry_multiplicity
 _atom_site_fract_x
 _atom_site_fract_y
 _atom_site_fract_z
 _atom_site_occupancy
  Mo  Mo0  1  0.15112705  0.13206514  0.09673768  1
  Mo  Mo1  1  0.91349949  0.28067456  0.12676294  1
  Mo  Mo2  1  0.84036044  0.86915096  0.09802318  1
  Mo  Mo3  1  0.30598603  0.80011175  0.72502833  1
  Mo  Mo4  1  0.17827190  0.31706039  0.31592540  1
  Mo  Mo5  1  0.05187197  0.64528873  0.07722138  1
  Mo  Mo6  1  0.52609899  0.96227045  0.70246305  1
  Mo  Mo7  1  0.68273852  0.88715302  0.37342667  1
  Mo  Mo8  1  0.62970757  0.15507413  0.86552272  1
  Mo  Mo9  1  0.37490252  0.17294315  0.33406361  1
  Mo  Mo10  1  0.46971415  0.47052776  0.80569442  1
  Mo  Mo11  1  0.01952172  0.93636177  0.35061701  1
  Mo  Mo12  1  0.53582178  0.28501272  0.12759636  1
  Mo  Mo13  1  0.99990618  0.06125738  0.67986194  1
  Mo  Mo14  1  0.43854146  0.72392745  0.30999068  1
  Mo  Mo15  1  0.60922445  0.57466234  0.63572271  1
  Mo  Mo16  1  0.90037814  0.39672935  0.39428041  1
  Mo  Mo17  1  0.90400536  0.87024749  0.59122158  1
  Mo  Mo18  1  0.02935416  0.31260794  0.69086299  1
  Mo  Mo19  1  0.18554659  0.58716682  0.28543346  1
  Mo  Mo20  1  0.64562926  0.66004206  0.09700973  1
  Mo  Mo21  1  0.91460970  0.18182519  0.46975313  1
  Mo  Mo22  1  0.46598284  0.24805407  0.63499976  1
  Mo  Mo23  1  0.29859603  0.57067338  0.54107495  1
  Mo  Mo24  1  0.96633046  0.56231707  0.80338724  1
  O  O25  1  0.50679322  0.21434426  0.25630758  1
  O  O26  1  0.28586004  0.14059846  0.21095294  1
  O  O27  1  0.66505435  0.00612031  0.33672267  1
  O  O28  1  0.05306391  0.95133615  0.60562469  1
  O  O29  1  0.76375616  0.97497193  0.11600840  1
  O  O30  1  0.94069841  0.51376429  0.43227123  1
  O  O31  1  0.89886299  0.34611007  0.00887261  1
  O  O32  1  0.90656657  0.76111074  0.65270371  1
  O  O33  1  0.93496682  0.72174187  0.10767613  1
  O  O34  1  0.58980086  0.20759750  0.99552335  1
  O  O35  1  0.13788021  0.44031806  0.34844271  1
  O  O36  1  0.99220304  0.56256737  0.95827627  1
  O  O37  1  0.62028409  0.86739666  0.70213791  1
  O  O38  1  0.77037632  0.12974601  0.87343587  1
  O  O39  1  0.59917314  0.22320657  0.73511851  1
  O  O40  1  0.97071140  0.90569274  0.21137886  1
  O  O41  1  0.55575363  0.66797786  0.22481090  1
  O  O42  1  0.65811716  0.46919221  0.57479638  1
  O  O43  1  0.86212745  0.12444328  0.59786406  1
  O  O44  1  0.17712602  0.61889787  0.43232140  1
  O  O45  1  0.21672165  0.49863744  0.61936230  1
  O  O46  1  0.76915710  0.82961215  0.27789961  1
  O  O47  1  0.17144618  0.31125895  0.72921292  1
  O  O48  1  0.04961565  0.06469317  0.81275215  1
  O  O49  1  0.55431080  0.62574871  0.98927389  1
  O  O50  1  0.33002110  0.60375483  0.25134495  1
  O  O51  1  0.55028545  0.03899372  0.84037805  1
  O  O52  1  0.11132491  0.52861984  0.15644243  1
  O  O53  1  0.46357032  0.24280138  0.48886917  1
  O  O54  1  0.21198136  0.15964478  0.97635750  1
  O  O55  1  0.40481258  0.75798992  0.82204037  1
  O  O56  1  0.24242163  0.21502115  0.41240493  1
  O  O57  1  0.95919823  0.05421703  0.39924008  1
  O  O58  1  0.15128561  0.71028242  0.01313719  1
  O  O59  1  0.05587561  0.64925209  0.75829211  1
  O  O60  1  0.92636623  0.31878938  0.54474446  1
  O  O61  1  0.60158347  0.54934122  0.79124394  1
  O  O62  1  0.82819247  0.59905041  0.77050478  1
  O  O63  1  0.14643202  0.00704506  0.10237210  1
  O  O64  1  0.31815905  0.33644390  0.27897378  1
  O  O65  1  0.56255960  0.04204052  0.60154645  1
  O  O66  1  0.76219093  0.88251420  0.51219518  1
  O  O67  1  0.37994883  0.91717386  0.66681408  1
  O  O68  1  0.71445043  0.77938472  0.06190604  1
  O  O69  1  0.06383945  0.16805188  0.61004313  1
  O  O70  1  0.16368620  0.94528643  0.35774099  1
  O  O71  1  0.92404599  0.38260541  0.23968921  1
  O  O72  1  0.35220026  0.48889230  0.44540920  1
  O  O73  1  0.36335012  0.17111388  0.67611649  1
  O  O74  1  0.35492933  0.53073222  0.85391935  1
  O  O75  1  0.01495474  0.25554386  0.37985274  1
  O  O76  1  0.12154486  0.69784369  0.23751609  1
  O  O77  1  0.99027755  0.15996057  0.08297979  1
  O  O78  1  0.40054856  0.68791184  0.44099043  1
  O  O79  1  0.44920250  0.56772316  0.62934052  1
  O  O80  1  0.27353451  0.70608812  0.61913284  1
  O  O81  1  0.74727548  0.57079079  0.11206781  1
  O  O82  1  0.54424210  0.82554280  0.37030943  1
  O  O83  1  0.66139100  0.67601847  0.57305445  1
  O  O84  1  0.99225520  0.44533360  0.72326630  1
  O  O85  1  0.43112618  0.37104983  0.68503009  1
  O  O86  1  0.75554420  0.39949533  0.38993884  1
  O  O87  1  0.95889814  0.25348299  0.79027720  1
  O  O88  1  0.34274888  0.80227555  0.24949430  1
  O  O89  1  0.51668764  0.39004249  0.90496545  1
  O  O90  1  0.40221176  0.31388859  0.07856483  1
  O  O91  1  0.77865964  0.23533773  0.14879501  1
  O  O92  1  0.87053957  0.96182860  0.69815844  1
  O  O93  1  0.11352366  0.27536702  0.18410207  1
  O  O94  1  0.97307445  0.84175954  0.44591594  1
  O  O95  1  0.90078267  0.88696977  0.97545352  1
  O  O96  1  0.78614478  0.20100582  0.40359076  1
  O  O97  1  0.18781341  0.84018873  0.79008574  1
  O  O98  1  0.41303680  0.06199003  0.38368272  1
  O  O99  1  0.59866761  0.39425483  0.16240736  1
