# generated using pymatgen
data_TiO2
_symmetry_space_group_name_H-M   'P 1'
_cell_length_a   10.59112378
_cell_length_b   10.78473663
_cell_length_c   10.48617618
_cell_angle_alpha   89.96794960
_cell_angle_beta   83.83199252
_cell_angle_gamma   83.35628125
_symmetry_Int_Tables_number   1
_chemical_formula_structural   TiO2
_chemical_formula_sum   'Ti30 O60'
_cell_volume   1182.74125959
_cell_formula_units_Z   30
loop_
 _symmetry_equiv_pos_site_id
 _symmetry_equiv_pos_as_xyz
  1  'x, y, z'
loop_
 _atom_site_type_symbol
 _atom_site_label
 _atom_site_symmetry_multiplicity
 _atom_site_fract_x
 _atom_site_fract_y
 _atom_site_fract_z
 _atom_site_occupancy
  Ti  Ti0  1  0.17952600  0.34793800  0.38516700  1
  Ti  Ti1  1  0.85582800  0.10086900  0.52685900  1
  Ti  Ti2  1  0.52256500  0.80652500  0.64302300  1
  Ti  Ti3  1  0.75344600  0.79094900  0.19929300  1
  Ti  Ti4  1  0.29551100  0.43981200  0.07341500  1
  Ti  Ti5  1  0.42214900  0.16314100  0.20481600  1
  Ti  Ti6  1  0.99532500  0.56025100  0.26346900  1
  Ti  Ti7  1  0.55775200  0.52110300  0.08098200  1
  Ti  Ti8  1  0.63806800  0.54453400  0.76243300  1
  Ti  Ti9  1  0.48469800  0.36854100  0.45512200  1
  Ti  Ti10  1  0.37323100  0.03956400  0.82894200  1
  Ti  Ti11  1  0.89706500  0.42671500  0.54039000  1
  Ti  Ti12  1  0.08563400  0.43012500  0.80119600  1
  Ti  Ti13  1  0.07197000  0.87230200  0.63600800  1
  Ti  Ti14  1  0.16630300  0.18658800  0.02715800  1
  Ti  Ti15  1  0.30487500  0.65396100  0.81090300  1
  Ti  Ti16  1  0.87502200  0.30017600  0.25659300  1
  Ti  Ti17  1  0.29867200  0.22995200  0.60744800  1
  Ti  Ti18  1  0.60449100  0.22234800  0.73561000  1
  Ti  Ti19  1  0.68390900  0.56013900  0.37316900  1
  Ti  Ti20  1  0.92344600  0.04584400  0.16762200  1
  Ti  Ti21  1  0.83016900  0.76706700  0.48629500  1
  Ti  Ti22  1  0.85860400  0.01416700  0.84005800  1
  Ti  Ti23  1  0.31849900  0.90020000  0.39495700  1
  Ti  Ti24  1  0.10511200  0.90403000  0.95964800  1
  Ti  Ti25  1  0.66002900  0.24876800  0.02789800  1
  Ti  Ti26  1  0.26466600  0.64090000  0.28492300  1
  Ti  Ti27  1  0.16328800  0.61382800  0.56816700  1
  Ti  Ti28  1  0.87519900  0.51448700  0.97051800  1
  Ti  Ti29  1  0.68780300  0.76122000  0.95038900  1
  O  O30  1  0.00898800  0.87395600  0.82527900  1
  O  O31  1  0.28666200  0.80361500  0.25715300  1
  O  O32  1  0.79456200  0.94851600  0.19951900  1
  O  O33  1  0.49857800  0.26621200  0.32089900  1
  O  O34  1  0.47630700  0.89313000  0.79744700  1
  O  O35  1  0.30741900  0.39744800  0.49097900  1
  O  O36  1  0.79177800  0.22087100  0.13477000  1
  O  O37  1  0.22673500  0.53927600  0.71738100  1
  O  O38  1  0.64545800  0.58304400  0.21098000  1
  O  O39  1  0.57196300  0.12446700  0.10402400  1
  O  O40  1  0.33859300  0.06805500  0.66748800  1
  O  O41  1  0.18720900  0.21004100  0.48508000  1
  O  O42  1  0.77402800  0.60159800  0.83962700  1
  O  O43  1  0.16703700  0.93695700  0.49697400  1
  O  O44  1  0.69828100  0.74786800  0.37214700  1
  O  O45  1  0.32372300  0.12868000  0.06386800  1
  O  O46  1  0.93711300  0.37320900  0.86538400  1
  O  O47  1  0.05945700  0.92364800  0.13536600  1
  O  O48  1  0.86100700  0.92237300  0.46848100  1
  O  O49  1  0.74648900  0.90200900  0.86639200  1
  O  O50  1  0.53334100  0.52887000  0.45574900  1
  O  O51  1  0.37444900  0.03727400  0.31107900  1
  O  O52  1  0.00669900  0.73500100  0.56733700  1
  O  O53  1  0.23471100  0.77774800  0.93071400  1
  O  O54  1  0.69718100  0.11286600  0.61083300  1
  O  O55  1  0.03171800  0.56461100  0.91300500  1
  O  O56  1  0.44724800  0.85621400  0.50362800  1
  O  O57  1  0.20494700  0.28768900  0.74710300  1
  O  O58  1  0.26899200  0.31194900  0.23040500  1
  O  O59  1  0.55747700  0.63688400  0.95273000  1
  O  O60  1  0.91455300  0.46175600  0.15195500  1
  O  O61  1  0.93679100  0.05420600  0.98027000  1
  O  O62  1  0.18266200  0.35098400  0.98707800  1
  O  O63  1  0.02971200  0.47203800  0.62848400  1
  O  O64  1  0.20812400  0.76383100  0.68204900  1
  O  O65  1  0.86678200  0.57593200  0.42582300  1
  O  O66  1  0.70853800  0.42266400  0.01800600  1
  O  O67  1  0.04002500  0.19140300  0.15661500  1
  O  O68  1  0.48043200  0.15945200  0.83792500  1
  O  O69  1  0.88590800  0.13846200  0.34315400  1
  O  O70  1  0.74500700  0.38369500  0.36352600  1
  O  O71  1  0.48381600  0.26783000  0.60028600  1
  O  O72  1  0.93014800  0.71791000  0.25031100  1
  O  O73  1  0.59712900  0.38784100  0.78882000  1
  O  O74  1  0.00063900  0.37031400  0.36461700  1
  O  O75  1  0.72912300  0.17241700  0.86783600  1
  O  O76  1  0.94518000  0.02962300  0.66755800  1
  O  O77  1  0.19299500  0.04287100  0.90317600  1
  O  O78  1  0.82191100  0.70011200  0.04079900  1
  O  O79  1  0.39716200  0.54275300  0.19947900  1
  O  O80  1  0.29148500  0.66778400  0.45937400  1
  O  O81  1  0.73610000  0.50196700  0.61322000  1
  O  O82  1  0.12960900  0.54819200  0.39300500  1
  O  O83  1  0.33398400  0.53404600  0.93322300  1
  O  O84  1  0.48436300  0.36063700  0.05865700  1
  O  O85  1  0.69674500  0.77734400  0.62157100  1
  O  O86  1  0.88274200  0.26418800  0.57302100  1
  O  O87  1  0.61424200  0.82710700  0.10287900  1
  O  O88  1  0.47896400  0.65180000  0.71590700  1
  O  O89  1  0.16389300  0.56056600  0.16028400  1
