# generated using pymatgen
data_Cr2O3
_symmetry_space_group_name_H-M   'P 1'
_cell_length_a   10.19560740
_cell_length_b   9.95748279
_cell_length_c   9.54231854
_cell_angle_alpha   85.54428501
_cell_angle_beta   86.46254938
_cell_angle_gamma   93.03128111
_symmetry_Int_Tables_number   1
_chemical_formula_structural   Cr2O3
_chemical_formula_sum   'Cr32 O48'
_cell_volume   962.37216550
_cell_formula_units_Z   16
loop_
 _symmetry_equiv_pos_site_id
 _symmetry_equiv_pos_as_xyz
  1  'x, y, z'
loop_
 _atom_site_type_symbol
 _atom_site_label
 _atom_site_symmetry_multiplicity
 _atom_site_fract_x
 _atom_site_fract_y
 _atom_site_fract_z
 _atom_site_occupancy
  Cr  Cr0  1  0.44653400  0.29986900  0.45251100  1
  Cr  Cr1  1  0.67426500  0.28546300  0.25857400  1
  Cr  Cr2  1  0.50422300  0.51318600  0.00578100  1
  Cr  Cr3  1  0.15135200  0.48957300  0.60231200  1
  Cr  Cr4  1  0.86453500  0.13987800  0.41463000  1
  Cr  Cr5  1  0.99924200  0.85275000  0.86506200  1
  Cr  Cr6  1  0.59441300  0.96591100  0.47889800  1
  Cr  Cr7  1  0.60655200  0.73566300  0.70228500  1
  Cr  Cr8  1  0.28449400  0.31557800  0.75649000  1
  Cr  Cr9  1  0.60306100  0.60475300  0.32080600  1
  Cr  Cr10  1  0.80955000  0.62494900  0.01742600  1
  Cr  Cr11  1  0.19370000  0.86273100  0.63186900  1
  Cr  Cr12  1  0.33759300  0.93687700  0.27438500  1
  Cr  Cr13  1  0.41143600  0.85763100  0.94577900  1
  Cr  Cr14  1  0.91903200  0.06800900  0.13365600  1
  Cr  Cr15  1  0.43325100  0.23159300  0.04148200  1
  Cr  Cr16  1  0.93288200  0.75011200  0.28711300  1
  Cr  Cr17  1  0.53582300  0.44273200  0.70558300  1
  Cr  Cr18  1  0.03328400  0.14882100  0.74545100  1
  Cr  Cr19  1  0.39566800  0.65067500  0.49356600  1
  Cr  Cr20  1  0.03735000  0.37126300  0.92854900  1
  Cr  Cr21  1  0.87498500  0.92888200  0.59622000  1
  Cr  Cr22  1  0.57336000  0.12586900  0.75553300  1
  Cr  Cr23  1  0.71780300  0.92356800  0.91841900  1
  Cr  Cr24  1  0.22229400  0.04127300  0.99965800  1
  Cr  Cr25  1  0.16724800  0.13844400  0.48881700  1
  Cr  Cr26  1  0.89273900  0.50347300  0.46150600  1
  Cr  Cr27  1  0.62890300  0.99852400  0.17522800  1
  Cr  Cr28  1  0.17479500  0.66962800  0.01654800  1
  Cr  Cr29  1  0.26475400  0.48227500  0.23057600  1
  Cr  Cr30  1  0.02138900  0.33343900  0.22946000  1
  Cr  Cr31  1  0.76545000  0.29370700  0.91792300  1
  O  O32  1  0.17610100  0.46769700  0.79925300  1
  O  O33  1  0.64544500  0.60067300  0.11894900  1
  O  O34  1  0.67720300  0.11029000  0.92192100  1
  O  O35  1  0.86795800  0.48042000  0.94730000  1
  O  O36  1  0.59395200  0.41420800  0.37319000  1
  O  O37  1  0.85789100  0.33763400  0.35564600  1
  O  O38  1  0.60476000  0.57603100  0.82274300  1
  O  O39  1  0.12549400  0.46783700  0.09561700  1
  O  O40  1  0.96823200  0.50269200  0.62028200  1
  O  O41  1  0.96377500  0.70006000  0.09496000  1
  O  O42  1  0.39696200  0.59370300  0.31849600  1
  O  O43  1  0.46116400  0.83062400  0.40043200  1
  O  O44  1  0.42796100  0.37238300  0.87755100  1
  O  O45  1  0.23779200  0.67978400  0.57543800  1
  O  O46  1  0.92466200  0.28507900  0.80124400  1
  O  O47  1  0.98481900  0.10413000  0.55638700  1
  O  O48  1  0.14802000  0.28623500  0.62352100  1
  O  O49  1  0.40145900  0.39180300  0.15284000  1
  O  O50  1  0.27480500  0.86645100  0.10595000  1
  O  O51  1  0.19643100  0.82828300  0.84874500  1
  O  O52  1  0.04337200  0.97801500  0.02238700  1
  O  O53  1  0.76073600  0.11753600  0.25332200  1
  O  O54  1  0.71777500  0.82054900  0.56553100  1
  O  O55  1  0.52743500  0.15393200  0.34657500  1
  O  O56  1  0.41396900  0.08021700  0.91116200  1
  O  O57  1  0.91407200  0.26187000  0.07116900  1
  O  O58  1  0.16013200  0.21347500  0.90077000  1
  O  O59  1  0.79396100  0.92499500  0.09821600  1
  O  O60  1  0.43880200  0.21073900  0.63082500  1
  O  O61  1  0.01047500  0.81137600  0.66257900  1
  O  O62  1  0.81336800  0.75789300  0.87823800  1
  O  O63  1  0.55681000  0.90202000  0.78054400  1
  O  O64  1  0.55908700  0.86757400  0.05338200  1
  O  O65  1  0.03524000  0.62780300  0.36483900  1
  O  O66  1  0.78944600  0.62734400  0.34362400  1
  O  O67  1  0.36080200  0.44816400  0.57959200  1
  O  O68  1  0.31020600  0.11051300  0.16194300  1
  O  O69  1  0.56246700  0.60780000  0.55189700  1
  O  O70  1  0.72632000  0.07990000  0.56571100  1
  O  O71  1  0.18643300  0.04608400  0.67542000  1
  O  O72  1  0.37490300  0.65513400  0.98247200  1
  O  O73  1  0.61480800  0.32082500  0.06400600  1
  O  O74  1  0.91492800  0.90033700  0.37703100  1
  O  O75  1  0.02246200  0.14623900  0.28169500  1
  O  O76  1  0.88768600  0.99097700  0.79359800  1
  O  O77  1  0.23015300  0.96411400  0.43551100  1
  O  O78  1  0.65864500  0.31203100  0.74756400  1
  O  O79  1  0.16848900  0.35528500  0.35599400  1
