# generated using pymatgen
data_WO3
_symmetry_space_group_name_H-M   'P 1'
_cell_length_a   12.57741389
_cell_length_b   12.05313869
_cell_length_c   11.51422818
_cell_angle_alpha   86.14895045
_cell_angle_beta   80.94909323
_cell_angle_gamma   83.03795727
_symmetry_Int_Tables_number   1
_chemical_formula_structural   WO3
_chemical_formula_sum   'W25 O75'
_cell_volume   1709.02168077
_cell_formula_units_Z   25
loop_
 _symmetry_equiv_pos_site_id
 _symmetry_equiv_pos_as_xyz
  1  'x, y, z'
loop_
 _atom_site_type_symbol
 _atom_site_label
 _atom_site_symmetry_multiplicity
 _atom_site_fract_x
 _atom_site_fract_y
 _atom_site_fract_z
 _atom_site_occupancy
  W  W0  1  0.01997373  0.87593464  0.74390416  1
  W  W1  1  0.27334338  0.05077272  0.49183304  1
  W  W2  1  0.18839176  0.94132463  0.21813224  1
  W  W3  1  0.10110349  0.49576725  0.08227699  1
  W  W4  1  0.65134634  0.69214813  0.46823471  1
  W  W5  1  0.04320846  0.63652356  0.55085428  1
  W  W6  1  0.55457308  0.91983060  0.99919100  1
  W  W7  1  0.13979546  0.18765214  0.03687641  1
  W  W8  1  0.40756192  0.77572072  0.84109290  1
  W  W9  1  0.49688127  0.55447885  0.30269928  1
  W  W10  1  0.56776917  0.16867579  0.76854664  1
  W  W11  1  0.82361474  0.28497416  0.72575517  1
  W  W12  1  0.22783699  0.52780568  0.77301892  1
  W  W13  1  0.46294973  0.21683895  0.09334507  1
  W  W14  1  0.90584453  0.85939977  0.37904263  1
  W  W15  1  0.78655052  0.82172610  0.95244280  1
  W  W16  1  0.34175175  0.73580027  0.54965639  1
  W  W17  1  0.89565412  0.65138325  0.11525926  1
  W  W18  1  0.39921573  0.52298999  0.00918365  1
  W  W19  1  0.70928269  0.31188435  0.20568895  1
  W  W20  1  0.18035563  0.35471934  0.44884003  1
  W  W21  1  0.08161691  0.11724278  0.73508052  1
  W  W22  1  0.45924957  0.31878657  0.53530999  1
  W  W23  1  0.96055757  0.29729406  0.31470261  1
  W  W24  1  0.69245783  0.10068883  0.44809584  1
  O  O25  1  0.01953821  0.93789224  0.33478929  1
  O  O26  1  0.04463997  0.64638106  0.13451098  1
  O  O27  1  0.04370753  0.42878824  0.22231566  1
  O  O28  1  0.58367720  0.24916293  0.44650202  1
  O  O29  1  0.48176217  0.22179125  0.90183101  1
  O  O30  1  0.68707785  0.57134474  0.54950798  1
  O  O31  1  0.51547693  0.74669770  0.53998823  1
  O  O32  1  0.85633742  0.39751281  0.79452217  1
  O  O33  1  0.31927068  0.95028312  0.14086873  1
  O  O34  1  0.70805903  0.93970837  0.03559932  1
  O  O35  1  0.98936919  0.71998470  0.41541780  1
  O  O36  1  0.99573670  0.78048503  0.62506306  1
  O  O37  1  0.59145130  0.02870204  0.82584918  1
  O  O38  1  0.39784903  0.10439148  0.46229491  1
  O  O39  1  0.23045318  0.06861992  0.65959612  1
  O  O40  1  0.35194283  0.49939818  0.86848456  1
  O  O41  1  0.53732121  0.52704638  0.96185109  1
  O  O42  1  0.62209922  0.45246010  0.22653852  1
  O  O43  1  0.23438247  0.38687783  0.74866454  1
  O  O44  1  0.24294138  0.36953160  0.30589671  1
  O  O45  1  0.46054432  0.20633746  0.66505727  1
  O  O46  1  0.82251907  0.36389445  0.28569486  1
  O  O47  1  0.60755018  0.64501193  0.32826970  1
  O  O48  1  0.33199543  0.60551147  0.65726709  1
  O  O49  1  0.49998183  0.42071680  0.61233600  1
  O  O50  1  0.52480201  0.82640037  0.11727460  1
  O  O51  1  0.94034564  0.51839187  0.04207197  1
  O  O52  1  0.86772911  0.84160668  0.24293012  1
  O  O53  1  0.12175022  0.16285078  0.88165467  1
  O  O54  1  0.03812101  0.22176270  0.18470121  1
  O  O55  1  0.17851059  0.79838742  0.21669622  1
  O  O56  1  0.51332732  0.06215911  0.06023010  1
  O  O57  1  0.82172996  0.32075389  0.57593403  1
  O  O58  1  0.76890175  0.67783134  0.02377210  1
  O  O59  1  0.19216168  0.19128626  0.45880867  1
  O  O60  1  0.45473161  0.43147453  0.38910054  1
  O  O61  1  0.33292542  0.80459147  0.71517136  1
  O  O62  1  0.13613330  0.55303500  0.91428284  1
  O  O63  1  0.86641394  0.86114020  0.80802885  1
  O  O64  1  0.33474712  0.89188906  0.50927412  1
  O  O65  1  0.52947703  0.70447404  0.78467825  1
  O  O66  1  0.75869063  0.78450455  0.46161953  1
  O  O67  1  0.60174130  0.01285322  0.42170853  1
  O  O68  1  0.42787462  0.57639945  0.17535292  1
  O  O69  1  0.30734731  0.34033655  0.52956220  1
  O  O70  1  0.66574379  0.12325721  0.61133179  1
  O  O71  1  0.82807797  0.61888899  0.25606724  1
  O  O72  1  0.91207087  0.80115315  0.02575126  1
  O  O73  1  0.12006396  0.78329122  0.79794918  1
  O  O74  1  0.35106507  0.68787419  0.96868786  1
  O  O75  1  0.43757048  0.90396986  0.90822848  1
  O  O76  1  0.38524573  0.18961388  0.22752122  1
  O  O77  1  0.02635403  0.99121850  0.84827608  1
  O  O78  1  0.11832209  0.03743413  0.10011456  1
  O  O79  1  0.08412837  0.25053644  0.65905052  1
  O  O80  1  0.65142772  0.81687409  0.89406403  1
  O  O81  1  0.92021039  0.15634472  0.75088320  1
  O  O82  1  0.13836890  0.51223060  0.47479395  1
  O  O83  1  0.68002049  0.25037102  0.79433407  1
  O  O84  1  0.81379155  0.99128569  0.44788250  1
  O  O85  1  0.93026358  0.56827361  0.59772754  1
  O  O86  1  0.02952645  0.34732396  0.43272892  1
  O  O87  1  0.58963991  0.24986669  0.14231467  1
  O  O88  1  0.12088228  0.34732865  0.01381613  1
  O  O89  1  0.73576281  0.17119536  0.28995686  1
  O  O90  1  0.21693555  0.99835730  0.36233647  1
  O  O91  1  0.23961669  0.51331772  0.10043834  1
  O  O92  1  0.20648829  0.73005640  0.52272597  1
  O  O93  1  0.41213201  0.36944247  0.06650230  1
  O  O94  1  0.11728805  0.58783558  0.68564221  1
  O  O95  1  0.28010181  0.17845503  0.04188612  1
  O  O96  1  0.79088646  0.30899855  0.07050210  1
  O  O97  1  0.91984380  0.17774393  0.39490645  1
  O  O98  1  0.40136227  0.65364196  0.40799890  1
  O  O99  1  0.06199337  0.99265263  0.62840194  1
