# generated using pymatgen
data_Ga2O3
_symmetry_space_group_name_H-M   'P 1'
_cell_length_a   10.03572293
_cell_length_b   10.07111935
_cell_length_c   10.04461940
_cell_angle_alpha   93.02739641
_cell_angle_beta   90.29631372
_cell_angle_gamma   89.48956239
_symmetry_Int_Tables_number   1
_chemical_formula_structural   Ga2O3
_chemical_formula_sum   'Ga32 O48'
_cell_volume   1013.75104954
_cell_formula_units_Z   16
loop_
 _symmetry_equiv_pos_site_id
 _symmetry_equiv_pos_as_xyz
  1  'x, y, z'
loop_
 _atom_site_type_symbol
 _atom_site_label
 _atom_site_symmetry_multiplicity
 _atom_site_fract_x
 _atom_site_fract_y
 _atom_site_fract_z
 _atom_site_occupancy
  Ga  Ga0  1  0.41159100  0.68608300  0.86073100  1
  Ga  Ga1  1  0.60838800  0.22532100  0.79682700  1
  Ga  Ga2  1  0.16929100  0.24235900  0.10629300  1
  Ga  Ga3  1  0.03367500  0.00341000  0.07240500  1
  Ga  Ga4  1  0.42346300  0.47497000  0.62397500  1
  Ga  Ga5  1  0.10015500  0.36442100  0.63814500  1
  Ga  Ga6  1  0.75818800  0.71845900  0.86068900  1
  Ga  Ga7  1  0.78061900  0.99884600  0.26572800  1
  Ga  Ga8  1  0.01001800  0.86662600  0.72262700  1
  Ga  Ga9  1  0.46148900  0.94292400  0.33974900  1
  Ga  Ga10  1  0.74706600  0.01894300  0.62218600  1
  Ga  Ga11  1  0.26457000  0.22063000  0.41752200  1
  Ga  Ga12  1  0.85825800  0.58248400  0.13657300  1
  Ga  Ga13  1  0.91706000  0.61964000  0.56325100  1
  Ga  Ga14  1  0.76641500  0.32747500  0.53954300  1
  Ga  Ga15  1  0.23720900  0.85756900  0.53086400  1
  Ga  Ga16  1  0.54292900  0.75556100  0.60802700  1
  Ga  Ga17  1  0.74231300  0.28626800  0.10144700  1
  Ga  Ga18  1  0.42860200  0.45971200  0.09882000  1
  Ga  Ga19  1  0.16711000  0.66142700  0.06304100  1
  Ga  Ga20  1  0.33266300  0.03451500  0.94330100  1
  Ga  Ga21  1  0.32856500  0.29158900  0.83146200  1
  Ga  Ga22  1  0.03814000  0.81176600  0.33931200  1
  Ga  Ga23  1  0.65960800  0.54663100  0.36339900  1
  Ga  Ga24  1  0.98441200  0.40455800  0.35606400  1
  Ga  Ga25  1  0.57206600  0.75890700  0.12503400  1
  Ga  Ga26  1  0.84506600  0.42382400  0.83024500  1
  Ga  Ga27  1  0.01867400  0.13676900  0.83998700  1
  Ga  Ga28  1  0.64577700  0.98850700  0.97287500  1
  Ga  Ga29  1  0.50681600  0.30258000  0.32703500  1
  Ga  Ga30  1  0.33748500  0.64349400  0.30550600  1
  Ga  Ga31  1  0.00369900  0.09261200  0.49521500  1
  O  O32  1  0.37864400  0.65480100  0.67591500  1
  O  O33  1  0.25326800  0.41809500  0.72561800  1
  O  O34  1  0.88149800  0.40008400  0.17504800  1
  O  O35  1  0.80499900  0.47468000  0.65842500  1
  O  O36  1  0.57104400  0.58695400  0.52174300  1
  O  O37  1  0.41216500  0.12832400  0.33471500  1
  O  O38  1  0.47135100  0.51375900  0.28575000  1
  O  O39  1  0.47125500  0.92124300  0.99041000  1
  O  O40  1  0.89788400  0.72217000  0.73799200  1
  O  O41  1  0.18714600  0.87438700  0.70019800  1
  O  O42  1  0.93186500  0.27456900  0.47194600  1
  O  O43  1  0.15910600  0.19679800  0.56104300  1
  O  O44  1  0.68140100  0.86150100  0.56800400  1
  O  O45  1  0.00137000  0.18872400  0.03547600  1
  O  O46  1  0.73607800  0.10149800  0.11587400  1
  O  O47  1  0.67414700  0.35298500  0.38254000  1
  O  O48  1  0.20077300  0.71775200  0.40102500  1
  O  O49  1  0.94242900  0.04340300  0.66983500  1
  O  O50  1  0.38880900  0.35318100  0.47179600  1
  O  O51  1  0.45332600  0.15452200  0.86737000  1
  O  O52  1  0.25512600  0.54673700  0.16287100  1
  O  O53  1  0.13312700  0.97312600  0.41479800  1
  O  O54  1  0.69540200  0.63700400  0.20666400  1
  O  O55  1  0.14492000  0.29655700  0.28760600  1
  O  O56  1  0.95082400  0.93157800  0.21391400  1
  O  O57  1  0.72122700  0.82329200  0.01705200  1
  O  O58  1  0.70184700  0.05339900  0.81761100  1
  O  O59  1  0.85137500  0.54787500  0.39627700  1
  O  O60  1  0.49202500  0.60682700  0.00926500  1
  O  O61  1  0.29895200  0.33740300  0.01876100  1
  O  O62  1  0.21883500  0.05157100  0.09920700  1
  O  O63  1  0.20661300  0.13829200  0.84169000  1
  O  O64  1  0.55507100  0.31659200  0.14176600  1
  O  O65  1  0.23839500  0.73357500  0.92562600  1
  O  O66  1  0.06639800  0.49724600  0.52200200  1
  O  O67  1  0.62443900  0.90819600  0.26068800  1
  O  O68  1  0.58812700  0.73197300  0.79299700  1
  O  O69  1  0.41891600  0.87971000  0.50577300  1
  O  O70  1  0.73064200  0.31660400  0.91860000  1
  O  O71  1  0.49942100  0.38002900  0.76366500  1
  O  O72  1  0.99007700  0.31405700  0.78146100  1
  O  O73  1  0.84428900  0.57402900  0.94710100  1
  O  O74  1  0.67639700  0.19737300  0.62127900  1
  O  O75  1  0.96438500  0.78630800  0.50467200  1
  O  O76  1  0.82709600  0.04612500  0.43658700  1
  O  O77  1  0.01564800  0.68166300  0.16966400  1
  O  O78  1  0.40844100  0.79199400  0.22671100  1
  O  O79  1  0.98783800  0.95518400  0.89974000  1
