# generated using pymatgen
data_Ti2O
_symmetry_space_group_name_H-M   'P 1'
_cell_length_a   11.54548123
_cell_length_b   11.07535570
_cell_length_c   10.93150337
_cell_angle_alpha   85.65811074
_cell_angle_beta   90.71966020
_cell_angle_gamma   90.84290042
_symmetry_Int_Tables_number   1
_chemical_formula_structural   Ti2O
_chemical_formula_sum   'Ti68 O34'
_cell_volume   1393.56040932
_cell_formula_units_Z   34
loop_
 _symmetry_equiv_pos_site_id
 _symmetry_equiv_pos_as_xyz
  1  'x, y, z'
loop_
 _atom_site_type_symbol
 _atom_site_label
 _atom_site_symmetry_multiplicity
 _atom_site_fract_x
 _atom_site_fract_y
 _atom_site_fract_z
 _atom_site_occupancy
  Ti  Ti0  1  0.00031499  0.90895303  0.49062817  1
  Ti  Ti1  1  0.62985013  0.77900317  0.61620078  1
  Ti  Ti2  1  0.93056316  0.60258386  0.29371020  1
  Ti  Ti3  1  0.99824074  0.42760775  0.95843523  1
  Ti  Ti4  1  0.05032736  0.17779021  0.92279500  1
  Ti  Ti5  1  0.45548299  0.29069345  0.16333771  1
  Ti  Ti6  1  0.18801928  0.22293077  0.18209905  1
  Ti  Ti7  1  0.16323395  0.97208904  0.03237325  1
  Ti  Ti8  1  0.35257223  0.86635749  0.30080099  1
  Ti  Ti9  1  0.59567302  0.67170135  0.00415589  1
  Ti  Ti10  1  0.81321160  0.85313318  0.34404544  1
  Ti  Ti11  1  0.44849331  0.59964679  0.21011804  1
  Ti  Ti12  1  0.42946825  0.10056979  0.35636223  1
  Ti  Ti13  1  0.23020545  0.74147234  0.13494995  1
  Ti  Ti14  1  0.17206630  0.31483979  0.65601244  1
  Ti  Ti15  1  0.37505865  0.99593210  0.78900453  1
  Ti  Ti16  1  0.40638471  0.84027112  -0.00013563  1
  Ti  Ti17  1  0.22822113  0.79059307  0.84877824  1
  Ti  Ti18  1  0.93558407  0.33010541  0.73183258  1
  Ti  Ti19  1  0.81912969  0.09838836  0.83873101  1
  Ti  Ti20  1  0.05524349  0.66854625  0.98988589  1
  Ti  Ti21  1  0.34249480  0.11861833  0.01338252  1
  Ti  Ti22  1  0.12808751  0.02956700  0.32429022  1
  Ti  Ti23  1  0.35917670  0.60140795  0.96437006  1
  Ti  Ti24  1  0.06579656  0.29400990  0.40713549  1
  Ti  Ti25  1  0.61233069  0.93472866  0.90676500  1
  Ti  Ti26  1  0.77281108  0.83847888  0.08402953  1
  Ti  Ti27  1  0.97898809  0.13879719  0.58188071  1
  Ti  Ti28  1  0.94656204  0.37512440  0.19791222  1
  Ti  Ti29  1  0.69385081  0.53246175  0.55655300  1
  Ti  Ti30  1  0.90875767  0.15436512  0.11126373  1
  Ti  Ti31  1  0.38530793  0.90067720  0.55578147  1
  Ti  Ti32  1  0.40747355  0.37307806  0.91012485  1
  Ti  Ti33  1  0.46538550  0.67980298  0.46307121  1
  Ti  Ti34  1  0.05292011  0.53023111  0.54323747  1
  Ti  Ti35  1  0.63285166  0.19602243  0.44047455  1
  Ti  Ti36  1  0.68538692  0.38382762  0.14315546  1
  Ti  Ti37  1  0.21874416  0.43234167  0.07383325  1
  Ti  Ti38  1  0.55976706  0.03734729  0.64763640  1
  Ti  Ti39  1  0.65648582  0.09008542  0.20285140  1
  Ti  Ti40  1  0.21362526  0.52309231  0.32604690  1
  Ti  Ti41  1  0.53928807  0.42685239  0.40828413  1
  Ti  Ti42  1  0.69328020  0.63423134  0.25233193  1
  Ti  Ti43  1  0.17731339  0.51680513  0.81214128  1
  Ti  Ti44  1  0.82128522  0.58915436  0.03432846  1
  Ti  Ti45  1  0.04068798  0.72068629  0.73663725  1
  Ti  Ti46  1  0.99745108  0.85124407  0.18119966  1
  Ti  Ti47  1  0.32140252  0.33062310  0.43522054  1
  Ti  Ti48  1  0.56165497  0.19403228  0.91713270  1
  Ti  Ti49  1  0.87398742  0.11960602  0.35200593  1
  Ti  Ti50  1  0.40496826  0.23668237  0.67535578  1
  Ti  Ti51  1  0.46287758  0.76140131  0.77874734  1
  Ti  Ti52  1  0.97684473  0.89599749  0.90198708  1
  Ti  Ti53  1  0.63160129  0.51975464  0.80969703  1
  Ti  Ti54  1  0.78838384  0.98269761  0.57197853  1
  Ti  Ti55  1  0.24898830  0.69130422  0.61768406  1
  Ti  Ti56  1  0.83601780  0.37465414  0.41762252  1
  Ti  Ti57  1  0.13857843  0.01923564  0.76202505  1
  Ti  Ti58  1  0.24037376  0.11044983  0.53831731  1
  Ti  Ti59  1  0.76168433  0.76813373  0.81584965  1
  Ti  Ti60  1  0.13118941  0.73843732  0.38062178  1
  Ti  Ti61  1  0.56152662  0.83590548  0.17972648  1
  Ti  Ti62  1  0.86884801  0.70615823  0.55221671  1
  Ti  Ti63  1  0.79541578  0.33187065  0.92611626  1
  Ti  Ti64  1  0.43187869  0.51399956  0.67894155  1
  Ti  Ti65  1  0.87623401  0.55948474  0.78699685  1
  Ti  Ti66  1  0.59876021  0.93689097  0.42048636  1
  Ti  Ti67  1  0.67907790  0.26455429  0.69480841  1
  O  O68  1  0.17749597  0.41722993  0.49036986  1
  O  O69  1  0.97116214  0.54177695  0.11339861  1
  O  O70  1  0.74101564  0.64404619  0.68589168  1
  O  O71  1  0.05295226  0.28192067  0.06708911  1
  O  O72  1  0.06621439  0.19447625  0.73917218  1
  O  O73  1  0.55560198  0.34443669  0.01337227  1
  O  O74  1  0.64947289  0.09378372  0.79414688  1
  O  O75  1  0.98713348  0.01510212  0.04128750  1
  O  O76  1  0.17143429  0.87752338  0.23410786  1
  O  O77  1  0.30861442  0.37691887  0.75606360  1
  O  O78  1  0.20925164  0.20058587  0.36746615  1
  O  O79  1  0.28610490  0.57529109  0.14839352  1
  O  O80  1  0.09929992  0.00856484  0.59062848  1
  O  O81  1  0.30224006  0.76446691  0.45601884  1
  O  O82  1  0.67840675  0.35652681  0.51283557  1
  O  O83  1  0.83576828  0.17760105  0.67384417  1
  O  O84  1  0.49719073  0.97369168  0.26221415  1
  O  O85  1  0.29371083  0.28996954  0.02412154  1
  O  O86  1  0.12375562  0.39688619  0.23981552  1
  O  O87  1  0.34968515  0.14225583  0.19127733  1
  O  O88  1  0.46439849  0.01983556  0.95214951  1
  O  O89  1  0.79604474  0.92017547  0.90225242  1
  O  O90  1  0.06539107  0.72836129  0.55274658  1
  O  O91  1  0.32405901  0.63664139  0.77935574  1
  O  O92  1  0.47119419  0.27208863  0.35526831  1
  O  O93  1  0.28941473  0.99319933  0.41578995  1
  O  O94  1  0.43592490  0.37957504  0.56119183  1
  O  O95  1  0.59785748  0.59104875  0.39422010  1
  O  O96  1  0.77550546  0.41575019  0.73729325  1
  O  O97  1  0.95919898  0.96724794  0.31223216  1
  O  O98  1  0.92181602  0.76386742  0.04473457  1
  O  O99  1  0.87366226  0.54040571  0.47399497  1
  O  O100  1  0.65446182  0.97170960  0.08247076  1
  O  O101  1  0.38450729  0.51856230  0.37126898  1
