# generated using pymatgen
data_Al2O3
_symmetry_space_group_name_H-M   'P 1'
_cell_length_a   10.68917266
_cell_length_b   10.55568000
_cell_length_c   10.08483131
_cell_angle_alpha   96.49248425
_cell_angle_beta   92.99268557
_cell_angle_gamma   88.60639423
_symmetry_Int_Tables_number   1
_chemical_formula_structural   Al2O3
_chemical_formula_sum   'Al40 O60'
_cell_volume   1128.85249343
_cell_formula_units_Z   20
loop_
 _symmetry_equiv_pos_site_id
 _symmetry_equiv_pos_as_xyz
  1  'x, y, z'
loop_
 _atom_site_type_symbol
 _atom_site_label
 _atom_site_symmetry_multiplicity
 _atom_site_fract_x
 _atom_site_fract_y
 _atom_site_fract_z
 _atom_site_occupancy
  Al  Al0  1  0.34503600  0.59966300  0.39461100  1
  Al  Al1  1  0.51164900  0.96329300  0.97913800  1
  Al  Al2  1  0.03099700  0.79009200  0.52742500  1
  Al  Al3  1  0.09639900  0.62214800  0.87714700  1
  Al  Al4  1  0.31317400  0.15958400  0.77798400  1
  Al  Al5  1  0.87065000  0.18008400  0.73026900  1
  Al  Al6  1  0.08961800  0.22727100  0.54129800  1
  Al  Al7  1  0.75785600  0.02547900  0.12974600  1
  Al  Al8  1  0.34439400  0.89849100  0.23282200  1
  Al  Al9  1  0.12405500  0.52593000  0.55445000  1
  Al  Al10  1  0.87551000  0.47657600  0.02849500  1
  Al  Al11  1  0.66730600  0.23768900  0.96477800  1
  Al  Al12  1  0.74212600  0.16232000  0.41985000  1
  Al  Al13  1  0.51788400  0.80136300  0.68525900  1
  Al  Al14  1  0.99660200  0.89408100  0.83175200  1
  Al  Al15  1  0.91650800  0.27833700  0.20759000  1
  Al  Al16  1  0.96546400  0.41041100  0.79369500  1
  Al  Al17  1  0.04591100  0.04284400  0.19323100  1
  Al  Al18  1  0.47382400  0.00232200  0.54357900  1
  Al  Al19  1  0.29934100  0.09307000  0.05830800  1
  Al  Al20  1  0.45913500  0.28284700  0.39354500  1
  Al  Al21  1  0.73247700  0.81939600  0.87587000  1
  Al  Al22  1  0.61835400  0.64796300  0.33113600  1
  Al  Al23  1  0.82191500  0.87488800  0.32580600  1
  Al  Al24  1  0.26135700  0.79176800  0.63958900  1
  Al  Al25  1  0.21317100  0.02188600  0.46589600  1
  Al  Al26  1  0.77592300  0.93582500  0.61138900  1
  Al  Al27  1  0.44130100  0.34553300  0.12488000  1
  Al  Al28  1  0.69312400  0.40857400  0.25603600  1
  Al  Al29  1  0.65262700  0.53782600  0.79240300  1
  Al  Al30  1  0.24867100  0.60658900  0.12892100  1
  Al  Al31  1  0.56805700  0.52749600  0.53308800  1
  Al  Al32  1  0.41188100  0.68411400  0.91812400  1
  Al  Al33  1  0.20919600  0.30387900  0.29657300  1
  Al  Al34  1  0.04484500  0.13632500  0.91396300  1
  Al  Al35  1  0.05183300  0.55708800  0.28187600  1
  Al  Al36  1  0.40152500  0.41609700  0.89584800  1
  Al  Al37  1  0.95740000  0.75391600  0.09681000  1
  Al  Al38  1  0.67276500  0.69743000  0.08870700  1
  Al  Al39  1  0.58771500  0.24233000  0.66239100  1
  O  O40  1  0.36906700  0.98080800  0.39789100  1
  O  O41  1  0.39098200  0.05405400  0.90261200  1
  O  O42  1  0.87757300  0.85282500  0.49136300  1
  O  O43  1  0.61019400  0.65100200  0.66549100  1
  O  O44  1  0.02776600  0.49463200  0.95086000  1
  O  O45  1  0.96389500  0.28939700  0.64718900  1
  O  O46  1  0.31146300  0.22398600  0.40534200  1
  O  O47  1  0.76507400  0.34294100  0.08586800  1
  O  O48  1  0.95618300  0.88512100  0.22860800  1
  O  O49  1  0.61802300  0.55243600  0.17175100  1
  O  O50  1  0.43084100  0.99284800  0.13298100  1
  O  O51  1  0.07002300  0.09655800  0.40400200  1
  O  O52  1  0.70629000  0.20691100  0.79137900  1
  O  O53  1  0.60496000  0.40895700  0.65567100  1
  O  O54  1  0.61599300  0.90921700  0.57000500  1
  O  O55  1  0.49427900  0.53998200  0.86301600  1
  O  O56  1  0.99555600  0.75379700  0.92648900  1
  O  O57  1  0.64065200  0.08990400  0.02881400  1
  O  O58  1  0.80577500  0.46179800  0.84310400  1
  O  O59  1  0.32033100  0.24885600  0.15802700  1
  O  O60  1  0.55257900  0.31423200  0.25196500  1
  O  O61  1  0.97788300  0.04950900  0.75814400  1
  O  O62  1  0.32797000  0.72246300  0.24844500  1
  O  O63  1  0.51659200  0.31101300  0.97008300  1
  O  O64  1  0.58966500  0.89251900  0.83143600  1
  O  O65  1  0.38764300  0.89347800  0.61897000  1
  O  O66  1  0.68908600  0.51817100  0.41130100  1
  O  O67  1  0.21846200  0.49723000  0.28368000  1
  O  O68  1  0.11873800  0.37117100  0.46491800  1
  O  O69  1  0.24866700  0.65514500  0.95790300  1
  O  O70  1  0.73804700  0.02094200  0.30639100  1
  O  O71  1  0.35588200  0.47699500  0.06688700  1
  O  O72  1  0.02261900  0.62530400  0.44991800  1
  O  O73  1  0.06652600  0.52964000  0.71649400  1
  O  O74  1  0.83281000  0.86460000  0.75763600  1
  O  O75  1  0.25565700  0.62933000  0.54436200  1
  O  O76  1  0.88951100  0.11663400  0.14601400  1
  O  O77  1  0.49467300  0.67238400  0.43890800  1
  O  O78  1  0.20163500  0.16468400  0.92392100  1
  O  O79  1  0.69567300  0.66868500  0.90976700  1
  O  O80  1  0.08786900  0.66291200  0.16577900  1
  O  O81  1  0.07960900  0.22797600  0.20275800  1
  O  O82  1  0.20443500  0.12491800  0.62450300  1
  O  O83  1  0.46169700  0.13839000  0.66859400  1
  O  O84  1  0.79739100  0.09957200  0.57323700  1
  O  O85  1  0.20773900  0.98959000  0.17544900  1
  O  O86  1  0.69744800  0.77220300  0.27426800  1
  O  O87  1  0.80174400  0.28808800  0.33903700  1
  O  O88  1  0.37607200  0.74484400  0.76873700  1
  O  O89  1  0.16698400  0.86364100  0.48900400  1
  O  O90  1  0.09638600  0.80075500  0.70416300  1
  O  O91  1  0.03222300  0.99381800  0.98999600  1
  O  O92  1  0.94812600  0.44406000  0.20291300  1
  O  O93  1  0.51087900  0.77492000  0.03910500  1
  O  O94  1  0.31145500  0.32923600  0.77994600  1
  O  O95  1  0.94151000  0.26608200  0.89208100  1
  O  O96  1  0.84149900  0.63689100  0.10519700  1
  O  O97  1  0.58660500  0.19862500  0.47713800  1
  O  O98  1  0.43276100  0.45031800  0.44381100  1
  O  O99  1  0.76841600  0.86824400  0.04882200  1
