# generated using pymatgen
data_TiO
_symmetry_space_group_name_H-M   'P 1'
_cell_length_a   10.42649089
_cell_length_b   10.75088039
_cell_length_c   10.67691342
_cell_angle_alpha   91.88886874
_cell_angle_beta   89.34707635
_cell_angle_gamma   89.42376961
_symmetry_Int_Tables_number   1
_chemical_formula_structural   TiO
_chemical_formula_sum   'Ti50 O50'
_cell_volume   1196.02432423
_cell_formula_units_Z   50
loop_
 _symmetry_equiv_pos_site_id
 _symmetry_equiv_pos_as_xyz
  1  'x, y, z'
loop_
 _atom_site_type_symbol
 _atom_site_label
 _atom_site_symmetry_multiplicity
 _atom_site_fract_x
 _atom_site_fract_y
 _atom_site_fract_z
 _atom_site_occupancy
  Ti  Ti0  1  0.25160400  0.48708700  0.00928000  1
  Ti  Ti1  1  0.57797400  0.69374000  0.13381300  1
  Ti  Ti2  1  0.67032000  0.07026400  0.26503900  1
  Ti  Ti3  1  0.64389900  0.11038200  0.58865600  1
  Ti  Ti4  1  0.43871800  0.18071100  0.13604800  1
  Ti  Ti5  1  0.62123000  0.10867500  0.91161800  1
  Ti  Ti6  1  0.56939900  0.81013500  0.91724900  1
  Ti  Ti7  1  0.16889500  0.24662200  0.12077100  1
  Ti  Ti8  1  0.01053000  0.64596400  0.42841400  1
  Ti  Ti9  1  0.08521100  0.88078800  0.11494700  1
  Ti  Ti10  1  0.14683300  0.27160300  0.83577900  1
  Ti  Ti11  1  0.77302300  0.55885400  0.36439700  1
  Ti  Ti12  1  0.30013600  0.74444800  0.32072400  1
  Ti  Ti13  1  0.11727200  0.12799700  0.55141900  1
  Ti  Ti14  1  0.36112500  0.26434900  0.43887900  1
  Ti  Ti15  1  0.92981400  0.45982000  0.64314100  1
  Ti  Ti16  1  0.42643400  0.56540900  0.48756500  1
  Ti  Ti17  1  0.56783600  0.87152000  0.67411200  1
  Ti  Ti18  1  0.32824600  0.72612500  0.03290900  1
  Ti  Ti19  1  0.96936900  0.44600100  0.92052300  1
  Ti  Ti20  1  0.38624100  0.30013100  0.90199400  1
  Ti  Ti21  1  0.79652500  0.56589500  0.07498800  1
  Ti  Ti22  1  0.57524500  0.80021300  0.39884100  1
  Ti  Ti23  1  0.85661300  0.80084500  0.63441200  1
  Ti  Ti24  1  0.80212400  0.64430500  0.83892700  1
  Ti  Ti25  1  0.04948600  0.60587200  0.13290900  1
  Ti  Ti26  1  0.37518700  0.12894200  0.73365500  1
  Ti  Ti27  1  0.93629500  0.35222100  0.15869700  1
  Ti  Ti28  1  0.07985000  0.88487600  0.41389100  1
  Ti  Ti29  1  0.46832300  0.91413400  0.15480200  1
  Ti  Ti30  1  0.08680700  0.94581200  0.74284800  1
  Ti  Ti31  1  0.64051400  0.34733000  0.29916600  1
  Ti  Ti32  1  0.88251900  0.24747300  0.43220100  1
  Ti  Ti33  1  0.86441100  0.13052400  0.70120600  1
  Ti  Ti34  1  0.43454400  0.60143900  0.78042200  1
  Ti  Ti35  1  0.26261600  0.02983800  0.26542300  1
  Ti  Ti36  1  0.66954700  0.63089500  0.60825700  1
  Ti  Ti37  1  0.43988800  0.00291100  0.46735700  1
  Ti  Ti38  1  0.28525400  0.79259000  0.59437300  1
  Ti  Ti39  1  0.21302700  0.43991500  0.62369900  1
  Ti  Ti40  1  0.64466500  0.37989300  0.57008900  1
  Ti  Ti41  1  0.88119900  0.96579400  0.91876400  1
  Ti  Ti42  1  0.08307900  0.66019100  0.84819400  1
  Ti  Ti43  1  0.73518100  0.37424500  0.85411000  1
  Ti  Ti44  1  0.95128300  0.07480700  0.23932800  1
  Ti  Ti45  1  0.83761800  0.82135900  0.23375600  1
  Ti  Ti46  1  0.82832000  0.97224900  0.45847800  1
  Ti  Ti47  1  0.53761800  0.46314500  0.03454600  1
  Ti  Ti48  1  0.26494700  0.03264600  0.98137800  1
  Ti  Ti49  1  0.32336800  0.43290200  0.23095500  1
  O  O50  1  0.49544700  0.35158800  0.18029700  1
  O  O51  1  0.45873800  0.17446200  0.56599800  1
  O  O52  1  0.15133600  0.77260900  0.72798700  1
  O  O53  1  0.13853400  0.43542100  0.16545600  1
  O  O54  1  0.08853700  0.96654700  0.92650900  1
  O  O55  1  0.50425900  0.39400900  0.42463800  1
  O  O56  1  0.54714000  0.04552100  0.74935900  1
  O  O57  1  0.29656500  0.56787500  0.35652000  1
  O  O58  1  0.32032000  0.32324900  0.73728400  1
  O  O59  1  0.80970600  0.13430500  0.88017400  1
  O  O60  1  0.91480800  0.80309800  0.81952600  1
  O  O61  1  0.13058100  0.06627400  0.13261300  1
  O  O62  1  0.08752600  0.73593500  0.28282900  1
  O  O63  1  0.27171200  0.61467200  0.87947400  1
  O  O64  1  0.69083200  0.23688500  0.44019800  1
  O  O65  1  0.17670400  0.11788500  0.73222000  1
  O  O66  1  0.58504300  0.06341900  0.09843900  1
  O  O67  1  0.96369500  0.25657400  0.60345800  1
  O  O68  1  0.27301300  0.08984500  0.43590900  1
  O  O69  1  0.98905100  0.06652500  0.42607600  1
  O  O70  1  0.07151600  0.51217700  0.53083800  1
  O  O71  1  0.63173800  0.99392000  0.42956700  1
  O  O72  1  0.09192700  0.45112900  0.77329000  1
  O  O73  1  0.16452000  0.93897400  0.57025700  1
  O  O74  1  0.58218500  0.29829600  0.94382600  1
  O  O75  1  0.50371200  0.64447600  0.95473600  1
  O  O76  1  0.79806000  0.17886700  0.19951800  1
  O  O77  1  0.04098300  0.28975000  0.99152400  1
  O  O78  1  0.30483700  0.60440500  0.62645500  1
  O  O79  1  0.42299300  0.12169000  0.94127300  1
  O  O80  1  0.60566800  0.62572000  0.43295800  1
  O  O81  1  0.72771300  0.71650500  0.00235800  1
  O  O82  1  0.28020800  0.85705800  0.17436100  1
  O  O83  1  0.20013900  0.29230000  0.52075900  1
  O  O84  1  0.69602000  0.93593700  0.90901900  1
  O  O85  1  0.75322500  0.49823900  0.71543000  1
  O  O86  1  0.81298300  0.38248100  0.02332600  1
  O  O87  1  0.75519900  0.96396500  0.64238700  1
  O  O88  1  0.39935800  0.89047200  0.97226400  1
  O  O89  1  0.11467500  0.73163400  0.01807000  1
  O  O90  1  0.39368600  0.56978600  0.12599400  1
  O  O91  1  0.85438500  0.62904400  0.53461900  1
  O  O92  1  0.02463700  0.24253500  0.28120100  1
  O  O93  1  0.69959300  0.26144200  0.69790200  1
  O  O94  1  0.64905400  0.85849800  0.22397800  1
  O  O95  1  0.52567400  0.50758600  0.64775100  1
  O  O96  1  0.82987800  0.38984500  0.31267000  1
  O  O97  1  0.65520000  0.51998000  0.19891300  1
  O  O98  1  0.29865200  0.24542500  0.26365400  1
  O  O99  1  0.89970100  0.94361800  0.10287200  1
