# generated using pymatgen
data_Fe2O3
_symmetry_space_group_name_H-M   'P 1'
_cell_length_a   10.68395234
_cell_length_b   9.80278411
_cell_length_c   10.67025607
_cell_angle_alpha   96.54510608
_cell_angle_beta   91.44888926
_cell_angle_gamma   101.08004958
_symmetry_Int_Tables_number   1
_chemical_formula_structural   Fe2O3
_chemical_formula_sum   'Fe32 O48'
_cell_volume   1088.26652461
_cell_formula_units_Z   16
loop_
 _symmetry_equiv_pos_site_id
 _symmetry_equiv_pos_as_xyz
  1  'x, y, z'
loop_
 _atom_site_type_symbol
 _atom_site_label
 _atom_site_symmetry_multiplicity
 _atom_site_fract_x
 _atom_site_fract_y
 _atom_site_fract_z
 _atom_site_occupancy
  Fe  Fe0  1  0.17618877  0.79174961  0.04376516  1
  Fe  Fe1  1  0.55890547  0.44637530  0.82261734  1
  Fe  Fe2  1  0.67887522  0.79432135  0.79165312  1
  Fe  Fe3  1  0.95265287  0.15818371  0.42044107  1
  Fe  Fe4  1  0.44232702  0.37834127  0.33011021  1
  Fe  Fe5  1  0.41893458  0.69629382  0.87602090  1
  Fe  Fe6  1  0.56312746  0.05303687  0.77764403  1
  Fe  Fe7  1  0.69963451  0.69525100  0.05281331  1
  Fe  Fe8  1  0.10496730  0.43227746  0.59435898  1
  Fe  Fe9  1  0.13299584  0.66493162  0.76588254  1
  Fe  Fe10  1  0.88637967  0.76258093  0.22563587  1
  Fe  Fe11  1  0.24308390  0.35164563  0.90751015  1
  Fe  Fe12  1  0.81454660  0.31728950  0.68362795  1
  Fe  Fe13  1  0.16590569  0.34026176  0.32006487  1
  Fe  Fe14  1  0.07412522  0.16098181  0.07144971  1
  Fe  Fe15  1  0.27322691  0.88295806  0.64198297  1
  Fe  Fe16  1  0.14564859  0.15030274  0.62260959  1
  Fe  Fe17  1  0.65118663  0.55472120  0.58516705  1
  Fe  Fe18  1  0.48484339  0.75445993  0.55502602  1
  Fe  Fe19  1  0.42956579  0.21188382  0.01374873  1
  Fe  Fe20  1  0.64705364  0.70683620  0.35182500  1
  Fe  Fe21  1  0.69143913  0.41136284  0.14179943  1
  Fe  Fe22  1  0.33658471  0.60968200  0.15516786  1
  Fe  Fe23  1  0.63443069  0.17489034  0.35898996  1
  Fe  Fe24  1  0.63332793  0.98274300  0.07941363  1
  Fe  Fe25  1  0.99497370  0.85940888  0.87489670  1
  Fe  Fe26  1  0.84892644  0.11416944  0.84570752  1
  Fe  Fe27  1  0.87671544  0.44270860  0.40183401  1
  Fe  Fe28  1  0.18634387  0.65974980  0.39131361  1
  Fe  Fe29  1  0.44454036  0.87478591  0.30385726  1
  Fe  Fe30  1  0.96852426  0.47392836  0.99067789  1
  Fe  Fe31  1  0.78370694  0.94602830  0.53064069  1
  O  O32  1  0.79606668  0.56730197  0.49125186  1
  O  O33  1  0.75958168  0.86623621  0.14996801  1
  O  O34  1  0.67263583  0.40710114  0.69160373  1
  O  O35  1  0.91130463  0.32206949  0.53208905  1
  O  O36  1  0.74558946  0.32559570  0.29393424  1
  O  O37  1  0.77063101  0.08939236  0.41914400  1
  O  O38  1  0.44863630  0.87300009  0.70450392  1
  O  O39  1  0.42314733  0.30950228  0.86419475  1
  O  O40  1  0.84818155  0.39020722  0.08784148  1
  O  O41  1  0.99834322  0.52836275  0.69711457  1
  O  O42  1  0.50845856  0.34027914  0.16109436  1
  O  O43  1  0.55085806  0.09766905  0.96139172  1
  O  O44  1  0.28703656  0.07088656  0.63573454  1
  O  O45  1  0.06478309  0.47762989  0.39780801  1
  O  O46  1  0.73446004  0.10743732  0.69484016  1
  O  O47  1  0.33568851  0.54318792  0.98185756  1
  O  O48  1  0.16066062  0.32165089  0.73629770  1
  O  O49  1  0.08526430  0.94207802  0.03056103  1
  O  O50  1  0.88582821  0.31272503  0.84410964  1
  O  O51  1  0.53947730  0.03304454  0.23422101  1
  O  O52  1  0.30688816  0.80644094  0.17538941  1
  O  O53  1  0.87086445  0.68553445  0.04106495  1
  O  O54  1  0.97343735  0.04772346  0.55764895  1
  O  O55  1  0.05370528  0.70346681  0.25236426  1
  O  O56  1  0.64020220  0.50821632  0.98357596  1
  O  O57  1  0.68315276  0.77601068  0.60801698  1
  O  O58  1  0.14457632  0.26692643  0.48548679  1
  O  O59  1  0.52167535  0.27905751  0.43756022  1
  O  O60  1  0.10249991  0.84756025  0.72328653  1
  O  O61  1  0.09524326  0.62353916  0.13887997  1
  O  O62  1  0.90702000  0.10967395  0.00287019  1
  O  O63  1  0.10046190  0.36229570  0.01902296  1
  O  O64  1  0.59871978  0.79293432  0.95532952  1
  O  O65  1  0.32927103  0.81085581  0.46334847  1
  O  O66  1  0.84933844  0.91780207  0.81176047  1
  O  O67  1  0.53297921  0.60448625  0.73780355  1
  O  O68  1  0.28583506  0.24207005  0.27858693  1
  O  O69  1  0.03686564  0.66939404  0.90937014  1
  O  O70  1  0.02707952  0.19498563  0.25357690  1
  O  O71  1  0.82765341  0.82073368  0.38917145  1
  O  O72  1  0.24788436  0.18505974  0.99916285  1
  O  O73  1  0.72999790  0.60419256  0.22399574  1
  O  O74  1  0.23120592  0.61999568  0.62915236  1
  O  O75  1  0.57863148  0.87344560  0.43811962  1
  O  O76  1  0.29408491  0.50594496  0.29850317  1
  O  O77  1  0.26647265  0.77568342  0.88463416  1
  O  O78  1  0.50713405  0.70561976  0.22182100  1
  O  O79  1  0.52483925  0.57572112  0.45054503  1
