# generated using pymatgen
data_Al2O3
_symmetry_space_group_name_H-M   'P 1'
_cell_length_a   10.40875611
_cell_length_b   10.31516624
_cell_length_c   10.48306928
_cell_angle_alpha   93.36424839
_cell_angle_beta   91.06723939
_cell_angle_gamma   90.97024258
_symmetry_Int_Tables_number   1
_chemical_formula_structural   Al2O3
_chemical_formula_sum   'Al40 O60'
_cell_volume   1123.22883170
_cell_formula_units_Z   20
loop_
 _symmetry_equiv_pos_site_id
 _symmetry_equiv_pos_as_xyz
  1  'x, y, z'
loop_
 _atom_site_type_symbol
 _atom_site_label
 _atom_site_symmetry_multiplicity
 _atom_site_fract_x
 _atom_site_fract_y
 _atom_site_fract_z
 _atom_site_occupancy
  Al  Al0  1  0.25405100  0.43915200  0.28441100  1
  Al  Al1  1  0.22729000  0.03562900  0.40334300  1
  Al  Al2  1  0.49244300  0.72354800  0.63806700  1
  Al  Al3  1  0.54743700  0.86545800  0.91623100  1
  Al  Al4  1  0.25608900  0.89766800  0.60369300  1
  Al  Al5  1  0.06726200  0.28714900  0.81239100  1
  Al  Al6  1  0.62897300  0.13857100  0.76122200  1
  Al  Al7  1  0.23600200  0.94132800  0.93179600  1
  Al  Al8  1  0.46374100  0.59448400  0.85730100  1
  Al  Al9  1  0.75544400  0.61373100  0.51107800  1
  Al  Al10  1  0.49648500  0.92485300  0.42782700  1
  Al  Al11  1  0.75861600  0.32786800  0.29966500  1
  Al  Al12  1  0.81603400  0.86231200  0.39680100  1
  Al  Al13  1  0.34370900  0.70253800  0.23559800  1
  Al  Al14  1  0.14927300  0.65686000  0.47598200  1
  Al  Al15  1  0.21825200  0.15533000  0.14749000  1
  Al  Al16  1  0.79747400  0.38589000  0.05436000  1
  Al  Al17  1  0.66211400  0.39566100  0.56985400  1
  Al  Al18  1  0.68709400  0.10205200  0.50614600  1
  Al  Al19  1  0.48964100  0.24767500  0.39314900  1
  Al  Al20  1  0.96537300  0.06951800  0.33209800  1
  Al  Al21  1  0.96571900  0.08081100  0.01466200  1
  Al  Al22  1  0.70639800  0.91108000  0.14138900  1
  Al  Al23  1  0.40620500  0.96709500  0.14337900  1
  Al  Al24  1  0.11023300  0.33684100  0.56274900  1
  Al  Al25  1  0.03502300  0.29075100  0.26146500  1
  Al  Al26  1  0.91091000  0.06417700  0.64338700  1
  Al  Al27  1  0.49753900  0.43837700  0.13756900  1
  Al  Al28  1  0.47748400  0.54228500  0.41614700  1
  Al  Al29  1  0.63909000  0.66476000  0.14532600  1
  Al  Al30  1  0.24685000  0.45674000  0.00212300  1
  Al  Al31  1  0.74048000  0.56573500  0.81801300  1
  Al  Al32  1  0.21323700  0.60973000  0.73128800  1
  Al  Al33  1  0.92737400  0.57876500  0.21410800  1
  Al  Al34  1  0.30124800  0.14073000  0.71481500  1
  Al  Al35  1  0.98267400  0.58701100  0.92857900  1
  Al  Al36  1  0.50324700  0.32885100  0.87149500  1
  Al  Al37  1  0.07113600  0.78583700  0.20982900  1
  Al  Al38  1  0.69120300  0.11956600  0.01389000  1
  Al  Al39  1  0.98491600  0.82010500  0.82464400  1
  O  O40  1  0.95842600  0.89961300  0.28266200  1
  O  O41  1  0.30343000  0.07022300  0.03347300  1
  O  O42  1  0.74218900  0.04280100  0.67104200  1
  O  O43  1  0.58382200  0.65316800  0.51038700  1
  O  O44  1  0.39598400  0.35498800  0.00294600  1
  O  O45  1  0.26534800  0.06851200  0.56502000  1
  O  O46  1  0.20981700  0.28802100  0.70866800  1
  O  O47  1  0.75411700  0.52683200  0.65234500  1
  O  O48  1  0.81800200  0.99196300  0.05299900  1
  O  O49  1  0.56194500  0.73510300  0.79728200  1
  O  O50  1  0.45590400  0.19790600  0.76032300  1
  O  O51  1  0.10362600  0.14875000  0.40156400  1
  O  O52  1  0.98414000  0.93568600  0.71051800  1
  O  O53  1  0.50160200  0.39822300  0.50135000  1
  O  O54  1  0.58094000  0.03485900  0.13390400  1
  O  O55  1  0.73165500  0.79217600  0.25254300  1
  O  O56  1  0.66290100  0.93540900  0.43998900  1
  O  O57  1  0.77169700  0.56313700  0.14495100  1
  O  O58  1  0.08967200  0.68090100  0.83336000  1
  O  O59  1  0.41371400  0.36057700  0.28166300  1
  O  O60  1  0.84099600  0.46885600  0.91459000  1
  O  O61  1  0.27223100  0.97675100  0.77226700  1
  O  O62  1  0.29996800  0.55997300  0.88402500  1
  O  O63  1  0.84303500  0.21786300  0.03186300  1
  O  O64  1  0.20119800  0.86880700  0.43017300  1
  O  O65  1  0.18695100  0.74374600  0.62409200  1
  O  O66  1  0.42966500  0.85984900  0.56937100  1
  O  O67  1  0.18198900  0.32323400  0.16090100  1
  O  O68  1  0.08935600  0.43352500  0.92021500  1
  O  O69  1  0.38363700  0.60747400  0.68334700  1
  O  O70  1  0.65692000  0.22017000  0.37799400  1
  O  O71  1  0.57548500  0.47074900  0.80503800  1
  O  O72  1  0.30787900  0.59885500  0.39102400  1
  O  O73  1  0.06682400  0.15961100  0.90813300  1
  O  O74  1  0.63469600  0.79293300  0.03602700  1
  O  O75  1  0.23021400  0.81175500  0.17264900  1
  O  O76  1  0.53249900  0.56932000  0.02647300  1
  O  O77  1  0.12621100  0.51148300  0.60050100  1
  O  O78  1  0.05131400  0.11402400  0.16841500  1
  O  O79  1  0.28351200  0.54608800  0.15381000  1
  O  O80  1  0.39032300  0.85958300  0.98243300  1
  O  O81  1  0.88805800  0.22042400  0.31605300  1
  O  O82  1  0.00404200  0.66184400  0.09116500  1
  O  O83  1  0.64559400  0.25049800  0.90962600  1
  O  O84  1  0.05103000  0.64933700  0.32687100  1
  O  O85  1  0.44873200  0.85006200  0.27292100  1
  O  O86  1  0.74734400  0.45843300  0.42230100  1
  O  O87  1  0.48488400  0.09616300  0.46571000  1
  O  O88  1  0.92767100  0.40804600  0.19602100  1
  O  O89  1  0.86034400  0.73530100  0.48747200  1
  O  O90  1  0.13118500  0.38346600  0.39085300  1
  O  O91  1  0.85466100  0.70018400  0.85319200  1
  O  O92  1  0.51705000  0.59241100  0.25780500  1
  O  O93  1  0.87359100  0.03360600  0.47229100  1
  O  O94  1  0.65383300  0.34889300  0.15662100  1
  O  O95  1  0.06384500  0.91628100  0.96197100  1
  O  O96  1  0.97982600  0.24179400  0.65622100  1
  O  O97  1  0.66886300  0.24515800  0.62795400  1
  O  O98  1  0.31846500  0.08321200  0.26811600  1
  O  O99  1  0.61244100  0.01457800  0.87897200  1
