# generated using pymatgen
data_SiO2
_symmetry_space_group_name_H-M   'P 1'
_cell_length_a   11.42068144
_cell_length_b   11.60779859
_cell_length_c   12.38003334
_cell_angle_alpha   94.95090489
_cell_angle_beta   91.35904044
_cell_angle_gamma   95.61624679
_symmetry_Int_Tables_number   1
_chemical_formula_structural   SiO2
_chemical_formula_sum   'Si34 O68'
_cell_volume   1626.37960583
_cell_formula_units_Z   34
loop_
 _symmetry_equiv_pos_site_id
 _symmetry_equiv_pos_as_xyz
  1  'x, y, z'
loop_
 _atom_site_type_symbol
 _atom_site_label
 _atom_site_symmetry_multiplicity
 _atom_site_fract_x
 _atom_site_fract_y
 _atom_site_fract_z
 _atom_site_occupancy
  Si  Si0  1  0.71973577  0.25193571  0.44134855  1
  Si  Si1  1  0.54410161  0.35373731  0.03552727  1
  Si  Si2  1  0.92444804  0.83484004  0.71262505  1
  Si  Si3  1  0.15938779  0.71804536  0.66889043  1
  Si  Si4  1  0.32955149  0.29013497  0.07438871  1
  Si  Si5  1  0.97161123  0.70434998  0.33136251  1
  Si  Si6  1  0.07087817  0.20422188  0.01110474  1
  Si  Si7  1  0.33133714  0.41301349  0.68841953  1
  Si  Si8  1  0.70783568  0.40517918  0.24186415  1
  Si  Si9  1  0.97559484  0.11348937  0.19788119  1
  Si  Si10  1  0.71749861  0.64479161  0.71015195  1
  Si  Si11  1  0.20758632  0.82353625  0.32382635  1
  Si  Si12  1  0.66795767  0.42660441  0.81528757  1
  Si  Si13  1  0.92678195  0.15473423  0.50944633  1
  Si  Si14  1  0.69628858  0.97258252  0.99816537  1
  Si  Si15  1  0.58497541  0.86156428  0.17593974  1
  Si  Si16  1  0.14875393  0.32026207  0.49501016  1
  Si  Si17  1  0.42115407  0.99151817  0.32674743  1
  Si  Si18  1  0.47388485  0.83858185  0.95478838  1
  Si  Si19  1  0.71529463  0.67253962  0.29444785  1
  Si  Si20  1  0.54393159  0.07089013  0.53631973  1
  Si  Si21  1  0.43696767  0.46954010  0.48465030  1
  Si  Si22  1  0.33447988  0.25053631  0.32921942  1
  Si  Si23  1  0.01137276  0.94992105  0.37904937  1
  Si  Si24  1  0.47063080  0.22855498  0.73374252  1
  Si  Si25  1  0.34025211  0.70395300  0.50178308  1
  Si  Si26  1  0.77454209  0.02029308  0.65773186  1
  Si  Si27  1  0.28695939  0.63202180  0.86260364  1
  Si  Si28  1  0.03167053  0.52414074  0.50363436  1
  Si  Si29  1  0.59618815  0.68279124  0.50771089  1
  Si  Si30  1  0.49362385  0.09276319  0.94360813  1
  Si  Si31  1  0.81246264  0.43064268  0.63143710  1
  Si  Si32  1  0.92439766  0.29658263  0.16886990  1
  Si  Si33  1  0.90244647  0.03510316  0.86854102  1
  O  O34  1  0.63856347  0.00623196  0.60774197  1
  O  O35  1  0.15161994  0.93751817  0.38206354  1
  O  O36  1  0.38868309  0.12513885  0.31386450  1
  O  O37  1  0.79040452  0.05732860  0.78881352  1
  O  O38  1  0.44171260  0.42231753  0.60446357  1
  O  O39  1  0.03865481  0.24506379  0.54217140  1
  O  O40  1  0.58429140  0.32521733  0.74558413  1
  O  O41  1  0.10120120  0.42743895  0.43482869  1
  O  O42  1  0.84458049  0.13335538  0.61135723  1
  O  O43  1  0.21975855  0.24165564  0.40593812  1
  O  O44  1  0.24835845  0.58330598  0.96988077  1
  O  O45  1  0.63006047  0.09292046  0.98560386  1
  O  O46  1  0.41921312  0.36258640  0.38719903  1
  O  O47  1  0.85190732  0.16198875  0.14979923  1
  O  O48  1  0.75727426  0.55155383  0.61615098  1
  O  O49  1  0.21915485  0.37067279  0.60669148  1
  O  O50  1  0.79911246  0.40837904  0.76268477  1
  O  O51  1  0.48416641  0.81152477  0.08295152  1
  O  O52  1  0.65461944  0.56607693  0.80392625  1
  O  O53  1  0.28295584  0.76409471  0.61060938  1
  O  O54  1  0.46935122  0.15187416  0.61771882  1
  O  O55  1  0.33565658  0.56087633  0.48560511  1
  O  O56  1  0.83429168  0.72956250  0.75637372  1
  O  O57  1  0.30778653  0.27650338  0.20105029  1
  O  O58  1  0.01738757  0.24840331  0.25805115  1
  O  O59  1  0.06549145  0.10040166  0.09563733  1
  O  O60  1  0.11897510  0.60016251  0.59134177  1
  O  O61  1  0.44852452  0.98485664  0.45773968  1
  O  O62  1  0.09307196  0.73878470  0.26449298  1
  O  O63  1  0.93971651  0.45121432  0.57865608  1
  O  O64  1  0.00173790  0.31583205  0.05951482  1
  O  O65  1  0.66956488  0.53497726  0.26455493  1
  O  O66  1  0.84458094  0.40096758  0.20220163  1
  O  O67  1  0.69439120  0.93403654  0.12105264  1
  O  O68  1  0.47946822  0.13571667  0.82469480  1
  O  O69  1  0.73432604  0.32807703  0.55763140  1
  O  O70  1  0.84061380  0.90174606  0.63191152  1
  O  O71  1  0.04436658  0.79433655  0.65883473  1
  O  O72  1  0.97067608  0.92959743  0.81371475  1
  O  O73  1  0.94477571  0.82496028  0.40021643  1
  O  O74  1  0.40421404  0.73842123  0.87516040  1
  O  O75  1  0.83500566  0.99071938  0.97388270  1
  O  O76  1  0.41797925  0.96955254  0.95627711  1
  O  O77  1  0.45214741  0.21270607  0.02356771  1
  O  O78  1  0.63525244  0.75183309  0.22815060  1
  O  O79  1  0.70107031  0.71554340  0.42363617  1
  O  O80  1  0.47918448  0.75134075  0.49091684  1
  O  O81  1  0.21285388  0.24881013  0.99919377  1
  O  O82  1  0.63002869  0.39848675  0.94211075  1
  O  O83  1  0.62927096  0.71341889  0.63826356  1
  O  O84  1  0.00176164  0.14655675  0.89893406  1
  O  O85  1  0.85208583  0.67655008  0.25491005  1
  O  O86  1  0.97777289  0.60203963  0.41353911  1
  O  O87  1  0.32634255  0.53144871  0.76363495  1
  O  O88  1  0.26169937  0.73690913  0.40106630  1
  O  O89  1  0.53850774  0.95868552  0.26374668  1
  O  O90  1  0.41761804  0.40836227  0.05473952  1
  O  O91  1  0.96972893  0.00121415  0.26564686  1
  O  O92  1  0.56221929  0.54411396  0.47100643  1
  O  O93  1  0.35546376  0.29886699  0.75502909  1
  O  O94  1  0.18803624  0.69933812  0.79310848  1
  O  O95  1  0.84217746  0.19450167  0.41358695  1
  O  O96  1  0.62024836  0.34176302  0.14314369  1
  O  O97  1  0.98108698  0.03469813  0.47885704  1
  O  O98  1  0.31979868  0.89225305  0.26839485  1
  O  O99  1  0.61336232  0.87159089  0.91955997  1
  O  O100  1  0.61410064  0.15049683  0.45135773  1
  O  O101  1  0.68889565  0.33113463  0.34518952  1
