# generated using pymatgen
data_Al2O3
_symmetry_space_group_name_H-M   'P 1'
_cell_length_a   10.25309067
_cell_length_b   10.38015653
_cell_length_c   10.45870713
_cell_angle_alpha   93.30522278
_cell_angle_beta   87.28226719
_cell_angle_gamma   91.97061737
_symmetry_Int_Tables_number   1
_chemical_formula_structural   Al2O3
_chemical_formula_sum   'Al40 O60'
_cell_volume   1109.44566733
_cell_formula_units_Z   20
loop_
 _symmetry_equiv_pos_site_id
 _symmetry_equiv_pos_as_xyz
  1  'x, y, z'
loop_
 _atom_site_type_symbol
 _atom_site_label
 _atom_site_symmetry_multiplicity
 _atom_site_fract_x
 _atom_site_fract_y
 _atom_site_fract_z
 _atom_site_occupancy
  Al  Al0  1  0.09231500  0.32009000  0.55275200  1
  Al  Al1  1  0.67329600  0.19076500  0.48626200  1
  Al  Al2  1  0.03945600  0.77665300  0.54151000  1
  Al  Al3  1  0.06349800  0.45604800  0.84912500  1
  Al  Al4  1  0.72321000  0.74314900  0.45100400  1
  Al  Al5  1  0.29951500  0.35219400  0.75695900  1
  Al  Al6  1  0.42234300  0.32871100  0.48818300  1
  Al  Al7  1  0.02565000  0.06241900  0.74710800  1
  Al  Al8  1  0.19036200  0.41679100  0.08267000  1
  Al  Al9  1  0.71321400  0.58778400  0.89611000  1
  Al  Al10  1  0.30752400  0.63812500  0.21180900  1
  Al  Al11  1  0.49733100  0.16134800  0.93544700  1
  Al  Al12  1  0.57088700  0.12659100  0.26046800  1
  Al  Al13  1  0.71645400  0.02065300  0.65626300  1
  Al  Al14  1  0.44224300  0.60043600  0.91048900  1
  Al  Al15  1  0.88246000  0.05973400  0.03098400  1
  Al  Al16  1  0.33255800  0.08612300  0.64489700  1
  Al  Al17  1  0.17410000  0.74284100  0.96037700  1
  Al  Al18  1  0.33584200  0.92566900  0.88418700  1
  Al  Al19  1  0.50333500  0.83652100  0.63564900  1
  Al  Al20  1  0.57678100  0.27842600  0.71670200  1
  Al  Al21  1  0.03546400  0.77917200  0.25712100  1
  Al  Al22  1  0.03834100  0.46397600  0.34642400  1
  Al  Al23  1  0.07766700  0.16642000  0.26575900  1
  Al  Al24  1  0.28128300  0.93546900  0.33677000  1
  Al  Al25  1  0.08927000  0.03014100  0.50785800  1
  Al  Al26  1  0.83858000  0.02760200  0.32229700  1
  Al  Al27  1  0.51115500  0.43381000  0.09802900  1
  Al  Al28  1  0.81887400  0.23121900  0.85947500  1
  Al  Al29  1  0.51123000  0.55390000  0.56677700  1
  Al  Al30  1  0.59294100  0.54922300  0.31496300  1
  Al  Al31  1  0.62775600  0.86703900  0.92429100  1
  Al  Al32  1  0.54564500  0.84556000  0.26400500  1
  Al  Al33  1  0.84506200  0.43332700  0.64843500  1
  Al  Al34  1  0.17576400  0.16606300  0.93383600  1
  Al  Al35  1  0.78858600  0.29921500  0.18771500  1
  Al  Al36  1  0.32458300  0.12491100  0.15041200  1
  Al  Al37  1  0.92197200  0.54361300  0.13445300  1
  Al  Al38  1  0.76193000  0.79345100  0.12805100  1
  Al  Al39  1  0.23489100  0.60801300  0.69315000  1
  O  O40  1  0.18498000  0.24624900  0.12425800  1
  O  O41  1  0.35270100  0.51822200  0.78431000  1
  O  O42  1  0.78043800  0.55860100  0.74284200  1
  O  O43  1  0.41899800  0.68246900  0.63187600  1
  O  O44  1  0.91652000  0.36431000  0.79892300  1
  O  O45  1  0.96327000  0.43525500  0.51554700  1
  O  O46  1  0.12051100  0.30502100  0.37918900  1
  O  O47  1  0.04434100  0.17125500  0.61213700  1
  O  O48  1  0.48660600  0.23317800  0.11269700  1
  O  O49  1  0.68143100  0.71436100  0.28177600  1
  O  O50  1  0.42082300  0.24943900  0.81325900  1
  O  O51  1  0.26890100  0.02432000  0.49194600  1
  O  O52  1  0.76484100  0.04650300  0.49377200  1
  O  O53  1  0.15438400  0.42914700  0.68226500  1
  O  O54  1  0.04400200  0.92613800  0.63470500  1
  O  O55  1  0.51598400  0.21450400  0.40482200  1
  O  O56  1  0.38060300  0.93677700  0.71069200  1
  O  O57  1  0.31822800  0.08926000  0.98306600  1
  O  O58  1  0.58004900  0.48139200  0.94858900  1
  O  O59  1  0.14920300  0.66124900  0.56847800  1
  O  O60  1  0.42925700  0.02357900  0.24191300  1
  O  O61  1  0.16210200  0.89791500  0.91124000  1
  O  O62  1  0.19705300  0.04283500  0.23741600  1
  O  O63  1  0.84112600  0.08402800  0.76038900  1
  O  O64  1  0.64700300  0.23106000  0.85620300  1
  O  O65  1  0.57707000  0.83835400  0.47639800  1
  O  O66  1  0.65962500  0.58130100  0.47593300  1
  O  O67  1  0.87729800  0.76716200  0.50040000  1
  O  O68  1  0.11952900  0.84811900  0.39057600  1
  O  O69  1  0.51404500  0.99038100  0.92571900  1
  O  O70  1  0.66948900  0.98408200  0.26527300  1
  O  O71  1  0.47177100  0.57437400  0.20496800  1
  O  O72  1  0.65963300  0.42256200  0.19983400  1
  O  O73  1  0.79247700  0.91455400  0.99076900  1
  O  O74  1  0.96957300  0.62088900  0.28254900  1
  O  O75  1  0.92500600  0.39571800  0.22341600  1
  O  O76  1  0.89557000  0.86490400  0.22181000  1
  O  O77  1  0.43932800  0.48017000  0.42205100  1
  O  O78  1  0.18314100  0.33604900  0.89854100  1
  O  O79  1  0.59242300  0.81486700  0.09492600  1
  O  O80  1  0.34518800  0.49222700  0.03630300  1
  O  O81  1  0.04366800  0.48669000  0.02352100  1
  O  O82  1  0.50907800  0.39832400  0.62733600  1
  O  O83  1  0.73502400  0.20674200  0.31607300  1
  O  O84  1  0.56333200  0.12248300  0.62535900  1
  O  O85  1  0.16377200  0.73266200  0.13496100  1
  O  O86  1  0.37143300  0.79012300  0.29288900  1
  O  O87  1  0.99300100  0.07338400  0.38816100  1
  O  O88  1  0.19218900  0.50455900  0.24586100  1
  O  O89  1  0.00762600  0.11530300  0.92114600  1
  O  O90  1  0.12039700  0.62634400  0.83796100  1
  O  O91  1  0.35024200  0.74931000  0.93184300  1
  O  O92  1  0.79565500  0.21611300  0.03148100  1
  O  O93  1  0.64680700  0.88341000  0.72529000  1
  O  O94  1  0.20340000  0.10563500  0.76862400  1
  O  O95  1  0.81384800  0.63434200  0.04154700  1
  O  O96  1  0.59278700  0.70103900  0.87323700  1
  O  O97  1  0.73257200  0.30476500  0.60962600  1
  O  O98  1  0.30367800  0.25823500  0.59265800  1
  O  O99  1  0.93097900  0.11439400  0.18276500  1
