# generated using pymatgen
data_Si3N4
_symmetry_space_group_name_H-M   'P 1'
_cell_length_a   10.37125811
_cell_length_b   11.09950620
_cell_length_c   10.74710478
_cell_angle_alpha   94.49882203
_cell_angle_beta   87.67125090
_cell_angle_gamma   88.01084053
_symmetry_Int_Tables_number   1
_chemical_formula_structural   Si3N4
_chemical_formula_sum   'Si45 N60'
_cell_volume   1231.43945734
_cell_formula_units_Z   15
loop_
 _symmetry_equiv_pos_site_id
 _symmetry_equiv_pos_as_xyz
  1  'x, y, z'
loop_
 _atom_site_type_symbol
 _atom_site_label
 _atom_site_symmetry_multiplicity
 _atom_site_fract_x
 _atom_site_fract_y
 _atom_site_fract_z
 _atom_site_occupancy
  Si  Si0  1  0.04032600  0.51828000  0.51398800  1
  Si  Si1  1  0.72469900  0.66372400  0.39393400  1
  Si  Si2  1  0.57842000  0.06148500  0.56436500  1
  Si  Si3  1  0.12688000  0.34405900  0.28735700  1
  Si  Si4  1  0.40613200  0.27725800  0.27323100  1
  Si  Si5  1  0.56754700  0.41058400  0.87566200  1
  Si  Si6  1  0.77610200  0.93452200  0.96080100  1
  Si  Si7  1  0.90804800  0.75260700  0.60768500  1
  Si  Si8  1  0.09477100  0.63116100  0.83003700  1
  Si  Si9  1  0.14898200  0.69853600  0.08745900  1
  Si  Si10  1  0.39335500  0.86503500  0.47538800  1
  Si  Si11  1  0.39343100  0.79378800  0.15765500  1
  Si  Si12  1  0.70803600  0.09580200  0.10230400  1
  Si  Si13  1  0.53727500  0.30153800  0.04984900  1
  Si  Si14  1  0.55659200  0.43123000  0.64975800  1
  Si  Si15  1  0.54767400  0.84548300  0.81240800  1
  Si  Si16  1  0.86704200  0.34988000  0.47123500  1
  Si  Si17  1  0.43917200  0.03125700  0.03209600  1
  Si  Si18  1  0.40454300  0.04330600  0.28911300  1
  Si  Si19  1  0.02413100  0.84832500  0.87094700  1
  Si  Si20  1  0.88136900  0.02202300  0.49003200  1
  Si  Si21  1  0.04455700  0.45906000  0.02352600  1
  Si  Si22  1  0.16192400  0.07562000  0.18476900  1
  Si  Si23  1  0.16340900  0.12978900  0.42221300  1
  Si  Si24  1  0.41322400  0.62045800  0.84328400  1
  Si  Si25  1  0.32309200  0.54349300  0.64174200  1
  Si  Si26  1  0.97218900  0.74290300  0.34483400  1
  Si  Si27  1  0.10235100  0.91695900  0.53123300  1
  Si  Si28  1  0.65109100  0.23651100  0.47847200  1
  Si  Si29  1  0.88529600  0.49419600  0.76319400  1
  Si  Si30  1  0.18958300  0.84424800  0.33879300  1
  Si  Si31  1  0.66176600  0.63693800  0.91183900  1
  Si  Si32  1  0.97559300  0.11356800  0.98269300  1
  Si  Si33  1  0.66438000  0.93703300  0.35268300  1
  Si  Si34  1  0.28162000  0.35389000  0.50269500  1
  Si  Si35  1  0.75756100  0.73076600  0.17072100  1
  Si  Si36  1  0.18513000  0.92642500  0.99880000  1
  Si  Si37  1  0.88774700  0.94655600  0.19867700  1
  Si  Si38  1  0.88805500  0.32945900  0.16224600  1
  Si  Si39  1  0.57872300  0.72069700  0.62060300  1
  Si  Si40  1  0.49033700  0.67393100  0.32800400  1
  Si  Si41  1  0.35642300  0.50507600  0.08758900  1
  Si  Si42  1  0.61338000  0.05457200  0.80019800  1
  Si  Si43  1  0.64921000  0.40749400  0.29852400  1
  Si  Si44  1  0.72232700  0.47695900  0.03834300  1
  N  N45  1  0.99555100  0.66783100  0.48288300  1
  N  N46  1  0.71593400  0.97839100  0.49914800  1
  N  N47  1  0.81005800  0.37030900  0.31257300  1
  N  N48  1  0.63860800  0.77930300  0.29848900  1
  N  N49  1  0.64540200  0.38673200  0.13530200  1
  N  N50  1  0.92352300  0.97404100  0.90167100  1
  N  N51  1  0.51858800  0.72597900  0.90563800  1
  N  N52  1  0.68033400  0.38049700  0.54910000  1
  N  N53  1  0.00255400  0.73453000  0.74439400  1
  N  N54  1  0.60886500  0.55799400  0.35116800  1
  N  N55  1  0.82217900  0.19093400  0.48059000  1
  N  N56  1  0.39446700  0.35452900  0.12701900  1
  N  N57  1  0.28257800  0.37487000  0.34041000  1
  N  N58  1  0.47271800  0.98080900  0.87771400  1
  N  N59  1  0.49228500  0.98708100  0.41762200  1
  N  N60  1  0.40161900  0.40295400  0.60283200  1
  N  N61  1  0.42719100  0.50154200  0.93389200  1
  N  N62  1  0.19819900  0.50285300  0.55410000  1
  N  N63  1  0.49360600  0.59105800  0.68427400  1
  N  N64  1  0.23750000  0.00083100  0.30781900  1
  N  N65  1  0.05247500  0.72453200  0.96557000  1
  N  N66  1  0.90066000  0.89458700  0.34389400  1
  N  N67  1  0.91973600  0.45995100  0.60841000  1
  N  N68  1  0.82229200  0.84073400  0.08726800  1
  N  N69  1  0.84318400  0.18717500  0.08593200  1
  N  N70  1  0.87907500  0.43972300  0.05053300  1
  N  N71  1  0.03825900  0.99270100  0.12262700  1
  N  N72  1  0.48413500  0.73543200  0.49330200  1
  N  N73  1  0.46581500  0.93735400  0.15558700  1
  N  N74  1  0.18874100  0.54473800  0.06214700  1
  N  N75  1  0.05124400  0.22592800  0.71639300  1
  N  N76  1  0.54864500  0.14879200  0.07176000  1
  N  N77  1  0.27203600  0.20325800  0.50431200  1
  N  N78  1  0.94306900  0.90051400  0.59032700  1
  N  N79  1  0.81102400  0.33758600  0.80303800  1
  N  N80  1  0.05935000  0.36017500  0.14448100  1
  N  N81  1  0.27686000  0.05258600  0.73285900  1
  N  N82  1  0.55410300  0.29159800  0.34794600  1
  N  N83  1  0.12336300  0.29668400  0.70440600  1
  N  N84  1  0.70109100  0.89583900  0.82269400  1
  N  N85  1  0.73283300  0.02988200  0.24208900  1
  N  N86  1  0.42429400  0.63292200  0.17370600  1
  N  N87  1  0.10432300  0.74502500  0.24033300  1
  N  N88  1  0.26038400  0.89260700  0.56249500  1
  N  N89  1  0.85104100  0.65822200  0.27884500  1
  N  N90  1  0.35457300  0.79564000  0.32395300  1
  N  N91  1  0.17857500  0.04115400  0.77596700  1
  N  N92  1  0.37653300  0.24573400  0.82290600  1
  N  N93  1  0.26860400  0.05721100  0.05231300  1
  N  N94  1  0.26200200  0.62588900  0.78009300  1
  N  N95  1  0.26799300  0.80210200  0.05933300  1
  N  N96  1  0.02442600  0.49464600  0.85761600  1
  N  N97  1  0.82452400  0.23695600  0.81461800  1
  N  N98  1  0.28961600  0.27465000  0.88456500  1
  N  N99  1  0.02666100  0.39378700  0.41202200  1
  N  N100  1  0.76563100  0.59865400  0.79537300  1
  N  N101  1  0.74180800  0.70587500  0.55484500  1
  N  N102  1  0.11298800  0.19141100  0.28630500  1
  N  N103  1  0.69595700  0.63109000  0.06373700  1
  N  N104  1  0.04693700  0.06082100  0.49764200  1
