# generated using pymatgen
data_ZnS
_symmetry_space_group_name_H-M   'P 1'
_cell_length_a   13.24306216
_cell_length_b   13.76673509
_cell_length_c   13.10336565
_cell_angle_alpha   84.20367252
_cell_angle_beta   81.11532048
_cell_angle_gamma   83.93460619
_symmetry_Int_Tables_number   1
_chemical_formula_structural   ZnS
_chemical_formula_sum   'Zn50 S50'
_cell_volume   2338.31357166
_cell_formula_units_Z   50
loop_
 _symmetry_equiv_pos_site_id
 _symmetry_equiv_pos_as_xyz
  1  'x, y, z'
loop_
 _atom_site_type_symbol
 _atom_site_label
 _atom_site_symmetry_multiplicity
 _atom_site_fract_x
 _atom_site_fract_y
 _atom_site_fract_z
 _atom_site_occupancy
  Zn  Zn0  1  0.47930842  0.56521513  0.76218337  1
  Zn  Zn1  1  0.44150850  0.12746979  0.79812549  1
  Zn  Zn2  1  0.62988761  0.33523703  0.84996923  1
  Zn  Zn3  1  0.48852140  0.09109133  0.61087984  1
  Zn  Zn4  1  0.02214872  0.90385809  0.32430188  1
  Zn  Zn5  1  0.87564526  0.62628236  0.51167301  1
  Zn  Zn6  1  0.98808565  0.12903530  0.94650297  1
  Zn  Zn7  1  0.69648570  0.71518088  0.99108430  1
  Zn  Zn8  1  0.01455703  0.34077317  0.96364929  1
  Zn  Zn9  1  0.13135802  0.16869638  0.77561292  1
  Zn  Zn10  1  0.55945504  0.32564350  0.33719933  1
  Zn  Zn11  1  0.70756628  0.51388183  0.88192491  1
  Zn  Zn12  1  0.47299866  0.00941062  0.01278595  1
  Zn  Zn13  1  0.00722972  0.14782546  0.20834005  1
  Zn  Zn14  1  0.13482688  0.67068959  0.39213503  1
  Zn  Zn15  1  0.61748636  0.31866052  0.12740595  1
  Zn  Zn16  1  0.36169253  0.25120116  0.57934042  1
  Zn  Zn17  1  0.83762129  0.99649572  0.26059624  1
  Zn  Zn18  1  0.63935481  0.01499695  0.06781952  1
  Zn  Zn19  1  0.05688617  0.95363345  0.64219421  1
  Zn  Zn20  1  0.36938516  0.78898004  0.38742879  1
  Zn  Zn21  1  0.60391612  0.88841477  0.29004443  1
  Zn  Zn22  1  0.92525658  0.08746851  0.47447739  1
  Zn  Zn23  1  0.52285331  0.92046935  0.54964770  1
  Zn  Zn24  1  0.25402367  0.30226185  0.34555292  1
  Zn  Zn25  1  0.17924705  0.08901254  0.94804569  1
  Zn  Zn26  1  0.03527653  0.79806638  0.90719177  1
  Zn  Zn27  1  0.68257704  0.46336816  0.64132339  1
  Zn  Zn28  1  0.54272544  0.27138346  0.59076162  1
  Zn  Zn29  1  0.62475330  0.94894943  0.87052126  1
  Zn  Zn30  1  0.27340643  0.69488368  0.18407387  1
  Zn  Zn31  1  0.21217211  0.66656456  0.67389913  1
  Zn  Zn32  1  0.49973621  0.95076968  0.75346025  1
  Zn  Zn33  1  0.80688827  0.44349928  0.15015026  1
  Zn  Zn34  1  0.46422072  0.23851136  0.21513033  1
  Zn  Zn35  1  0.73361265  0.70924212  0.67453703  1
  Zn  Zn36  1  0.76505925  0.41329140  0.38338512  1
  Zn  Zn37  1  0.95101713  0.46932821  0.70437911  1
  Zn  Zn38  1  0.13092963  0.42824239  0.58387829  1
  Zn  Zn39  1  0.61097762  0.55129996  0.10123742  1
  Zn  Zn40  1  0.33530958  0.53150523  0.41069096  1
  Zn  Zn41  1  0.99071038  0.32031729  0.58813771  1
  Zn  Zn42  1  0.24172514  0.42881621  0.81435162  1
  Zn  Zn43  1  0.83779684  0.84930650  0.39869475  1
  Zn  Zn44  1  0.27028533  0.21440394  0.11172652  1
  Zn  Zn45  1  0.61379751  0.66062884  0.40757794  1
  Zn  Zn46  1  0.03246419  0.52664828  0.28845596  1
  Zn  Zn47  1  0.13907352  0.52704729  0.00043157  1
  Zn  Zn48  1  0.30544147  0.81903937  0.97398689  1
  Zn  Zn49  1  0.25656303  0.90282965  0.74454703  1
  S  S50  1  0.61008215  0.64590786  0.80133975  1
  S  S51  1  0.86931068  0.14638226  0.32671330  1
  S  S52  1  0.45462445  0.92079896  0.39282991  1
  S  S53  1  0.86899766  0.86926473  0.94444205  1
  S  S54  1  0.32019557  0.36428958  0.12009995  1
  S  S55  1  0.31865054  0.15960532  0.27245940  1
  S  S56  1  0.63701115  0.46791672  0.25832872  1
  S  S57  1  0.10618717  0.70318905  0.04265390  1
  S  S58  1  0.58883720  0.18008098  0.91396996  1
  S  S59  1  0.18798355  0.58252680  0.54145592  1
  S  S60  1  0.41618709  0.83042638  0.69963185  1
  S  S61  1  0.72201573  0.07998745  0.90486115  1
  S  S62  1  0.38669491  0.36266299  0.41941692  1
  S  S63  1  0.18329038  0.92002846  0.91980880  1
  S  S64  1  0.30628401  0.58401644  0.78920946  1
  S  S65  1  0.69473971  0.79840411  0.51805017  1
  S  S66  1  0.08494000  0.98625037  0.16553982  1
  S  S67  1  0.91799730  0.41187094  0.27073948  1
  S  S68  1  0.33834324  0.12292441  0.97059533  1
  S  S69  1  0.96482607  0.68288722  0.36282109  1
  S  S70  1  0.86526008  0.26714620  0.95376531  1
  S  S71  1  0.76227600  0.82056915  0.85971524  1
  S  S72  1  0.96057853  0.08228722  0.73657718  1
  S  S73  1  0.00972243  0.59226450  0.11468414  1
  S  S74  1  0.56594522  0.43531583  0.99715070  1
  S  S75  1  0.20071342  0.05739881  0.64792405  1
  S  S76  1  0.67504884  0.28036972  0.45468492  1
  S  S77  1  0.09988050  0.36588102  0.43004765  1
  S  S78  1  0.78535833  0.40165406  0.76261410  1
  S  S79  1  0.73291350  0.54588378  0.48775861  1
  S  S80  1  0.79937923  0.27431020  0.10983378  1
  S  S81  1  0.79478013  0.56338668  0.00590139  1
  S  S82  1  0.68290994  0.73492293  0.24531637  1
  S  S83  1  0.44095191  0.64251490  0.45187078  1
  S  S84  1  0.21752624  0.80788722  0.31516854  1
  S  S85  1  0.09739251  0.23391555  0.07823938  1
  S  S86  1  0.57114734  0.72261148  0.13956505  1
  S  S87  1  0.22504574  0.31290821  0.69780769  1
  S  S88  1  0.90226932  0.17691397  0.61863817  1
  S  S89  1  0.95532998  0.99825784  0.08663436  1
  S  S90  1  0.22374053  0.55254904  0.27751638  1
  S  S91  1  0.11525525  0.80510623  0.72930206  1
  S  S92  1  0.32390523  0.09814280  0.53667110  1
  S  S93  1  0.67040379  0.03212877  0.22752861  1
  S  S94  1  0.90257221  0.63983732  0.67411133  1
  S  S95  1  0.53181667  0.40123976  0.71537826  1
  S  S96  1  0.05985412  0.47246315  0.86022941  1
  S  S97  1  0.98260329  0.92834551  0.50201447  1
  S  S98  1  0.30297077  0.45446973  0.98330109  1
  S  S99  1  0.39701116  0.70138339  0.04334928  1
