# generated using pymatgen
data_VO2
_symmetry_space_group_name_H-M   'P 1'
_cell_length_a   11.50744621
_cell_length_b   11.35817601
_cell_length_c   11.51084878
_cell_angle_alpha   87.20472532
_cell_angle_beta   91.01604672
_cell_angle_gamma   92.27723176
_symmetry_Int_Tables_number   1
_chemical_formula_structural   VO2
_chemical_formula_sum   'V34 O68'
_cell_volume   1501.34444450
_cell_formula_units_Z   34
loop_
 _symmetry_equiv_pos_site_id
 _symmetry_equiv_pos_as_xyz
  1  'x, y, z'
loop_
 _atom_site_type_symbol
 _atom_site_label
 _atom_site_symmetry_multiplicity
 _atom_site_fract_x
 _atom_site_fract_y
 _atom_site_fract_z
 _atom_site_occupancy
  V  V0  1  0.34248883  0.39974964  0.16553416  1
  V  V1  1  0.61475105  0.87253112  0.73004470  1
  V  V2  1  0.54460682  0.51972589  0.02495425  1
  V  V3  1  0.23914201  0.58175121  0.41269908  1
  V  V4  1  0.69051284  0.15299256  0.03648287  1
  V  V5  1  0.06439640  0.08518641  0.06591645  1
  V  V6  1  0.12501224  0.45996854  0.21450723  1
  V  V7  1  0.33589963  0.81403573  0.58026902  1
  V  V8  1  0.10113266  0.67120148  0.74753082  1
  V  V9  1  0.84466810  0.74517905  0.77331457  1
  V  V10  1  0.87195064  0.84121226  0.53061335  1
  V  V11  1  0.06914606  0.22695557  0.30846785  1
  V  V12  1  0.61444729  0.96828808  0.22675371  1
  V  V13  1  0.74603156  0.64693937  0.33707957  1
  V  V14  1  0.78762598  0.36211452  0.41767371  1
  V  V15  1  0.76791410  0.29175410  0.79177832  1
  V  V16  1  0.28588897  0.78588380  0.98715619  1
  V  V17  1  0.02354252  0.71573091  0.32374523  1
  V  V18  1  0.38358439  0.06474173  0.06704131  1
  V  V19  1  0.91852022  0.33337294  0.02050081  1
  V  V20  1  0.03142602  0.77882055  0.01421762  1
  V  V21  1  0.55598692  0.41999576  0.32261698  1
  V  V22  1  0.27789602  0.49441401  0.92766995  1
  V  V23  1  0.62399760  0.53840910  0.72154308  1
  V  V24  1  0.80780501  0.00422070  0.82381989  1
  V  V25  1  0.35740930  0.34978523  0.55003495  1
  V  V26  1  0.12922901  0.96917880  0.46512000  1
  V  V27  1  0.04892027  0.47282349  0.55184048  1
  V  V28  1  0.72075498  0.75730586  0.04381642  1
  V  V29  1  0.11413159  0.93515841  0.74827856  1
  V  V30  1  0.50958188  0.32146138  0.82845709  1
  V  V31  1  0.25717190  0.18785389  0.87703028  1
  V  V32  1  0.80179875  0.12101571  0.41773429  1
  V  V33  1  0.40338732  0.16250888  0.34046363  1
  O  O34  1  0.59282146  0.67009404  0.99247469  1
  O  O35  1  0.66124685  0.44502785  0.03450816  1
  O  O36  1  0.18990239  0.75393422  0.09385971  1
  O  O37  1  0.75324585  0.83628575  0.65241783  1
  O  O38  1  0.95103382  0.75022184  0.64262479  1
  O  O39  1  0.90303685  0.61658045  0.32721168  1
  O  O40  1  0.77990949  0.78087984  0.42480288  1
  O  O41  1  0.86151886  0.01015273  0.50266495  1
  O  O42  1  0.28138862  0.47784670  0.29393093  1
  O  O43  1  0.03999718  0.52352603  0.68966193  1
  O  O44  1  0.98652953  0.70372539  0.86201720  1
  O  O45  1  0.83557356  0.16560220  0.75649348  1
  O  O46  1  0.98367270  0.43601249  0.10935836  1
  O  O47  1  0.90104347  0.22951317  0.35947286  1
  O  O48  1  0.01189978  0.22311657  0.98437070  1
  O  O49  1  0.40081669  0.30703794  0.69518696  1
  O  O50  1  0.76063466  0.61344826  0.77761273  1
  O  O51  1  0.90820362  0.41400780  0.51909014  1
  O  O52  1  0.20983147  0.49169584  0.07061413  1
  O  O53  1  0.44711343  0.29579502  0.25753103  1
  O  O54  1  0.72641269  0.21642387  0.49866738  1
  O  O55  1  0.09298923  0.61697630  0.47520615  1
  O  O56  1  0.22565729  0.11433333  0.02547230  1
  O  O57  1  0.65033714  0.37429175  0.70881463  1
  O  O58  1  0.67697479  0.33890980  0.29033839  1
  O  O59  1  0.17552472  0.81540300  0.88002662  1
  O  O60  1  0.02299450  0.10313159  0.20942421  1
  O  O61  1  0.41137636  0.17315432  0.92857918  1
  O  O62  1  0.52125327  0.49265782  0.84633593  1
  O  O63  1  0.37868861  0.91702276  0.01804805  1
  O  O64  1  0.52297751  0.10335464  0.38782447  1
  O  O65  1  0.22871176  0.44477699  0.52956232  1
  O  O66  1  0.46973378  0.85142439  0.67147195  1
  O  O67  1  0.68821686  0.51375264  0.41044357  1
  O  O68  1  0.00691358  0.79501459  0.19827536  1
  O  O69  1  0.22441626  0.33460898  0.87764688  1
  O  O70  1  0.49730530  0.50699065  0.18256231  1
  O  O71  1  0.78699313  0.04849152  0.96661476  1
  O  O72  1  0.33255915  0.21728886  0.46413810  1
  O  O73  1  0.35675592  0.65869060  0.96800037  1
  O  O74  1  0.73041606  0.83361452  0.86870061  1
  O  O75  1  0.19200236  0.80848791  0.66753938  1
  O  O76  1  0.86202226  0.38690250  0.88326649  1
  O  O77  1  0.64739071  0.01766811  0.75665940  1
  O  O78  1  0.07323096  0.99614984  0.60386614  1
  O  O79  1  0.02238979  0.84599918  0.42475248  1
  O  O80  1  0.03618674  0.95073521  0.00478811  1
  O  O81  1  0.94144706  0.93580096  0.78502335  1
  O  O82  1  0.86583187  0.73280356  0.03756263  1
  O  O83  1  0.34157865  0.07823777  0.22279649  1
  O  O84  1  0.52878227  0.87734426  0.30126694  1
  O  O85  1  0.33182474  0.68876184  0.47138086  1
  O  O86  1  0.47360680  0.41918413  0.45928594  1
  O  O87  1  0.80560481  0.25847821  0.09613992  1
  O  O88  1  0.27662512  0.93915654  0.47684485  1
  O  O89  1  0.64583918  0.23990446  0.89316195  1
  O  O90  1  0.17649356  0.29566810  0.19800684  1
  O  O91  1  0.68849099  0.89193098  0.12632270  1
  O  O92  1  0.70028529  0.66968514  0.19707825  1
  O  O93  1  0.55068257  0.07870817  0.11605911  1
  O  O94  1  0.19802944  0.06063649  0.79272340  1
  O  O95  1  0.55845113  0.63135704  0.63057904  1
  O  O96  1  0.22632106  0.57282461  0.80587010  1
  O  O97  1  0.06149044  0.39677980  0.34548137  1
  O  O98  1  0.72942911  0.05184568  0.29934989  1
  O  O99  1  0.13961022  0.62825418  0.27284258  1
  O  O100  1  0.40795265  0.41139694  0.00533973  1
  O  O101  1  0.12353217  0.12818164  0.41330798  1
