# generated using pymatgen
data_SnO2
_symmetry_space_group_name_H-M   'P 1'
_cell_length_a   11.18898586
_cell_length_b   11.05947914
_cell_length_c   11.96731219
_cell_angle_alpha   90.00919358
_cell_angle_beta   88.48461276
_cell_angle_gamma   92.30355809
_symmetry_Int_Tables_number   1
_chemical_formula_structural   SnO2
_chemical_formula_sum   'Sn34 O68'
_cell_volume   1479.17252029
_cell_formula_units_Z   34
loop_
 _symmetry_equiv_pos_site_id
 _symmetry_equiv_pos_as_xyz
  1  'x, y, z'
loop_
 _atom_site_type_symbol
 _atom_site_label
 _atom_site_symmetry_multiplicity
 _atom_site_fract_x
 _atom_site_fract_y
 _atom_site_fract_z
 _atom_site_occupancy
  Sn  Sn0  1  0.49355562  0.53177638  0.67604394  1
  Sn  Sn1  1  0.11686232  0.13670967  0.42664076  1
  Sn  Sn2  1  0.30642056  0.60793041  0.93285588  1
  Sn  Sn3  1  0.92731289  0.13992437  0.62700585  1
  Sn  Sn4  1  0.19554816  0.37307497  0.61049228  1
  Sn  Sn5  1  0.68246120  0.29143041  0.78241106  1
  Sn  Sn6  1  0.92390216  0.57306671  0.29719385  1
  Sn  Sn7  1  0.21791546  0.37293653  0.24903049  1
  Sn  Sn8  1  0.78885457  0.89913598  0.71382000  1
  Sn  Sn9  1  0.00825809  0.82622374  0.49029240  1
  Sn  Sn10  1  0.05801410  0.55543579  0.07232316  1
  Sn  Sn11  1  0.46677827  0.88736631  0.68663735  1
  Sn  Sn12  1  0.61569077  0.96742461  0.95258793  1
  Sn  Sn13  1  0.62458819  0.70704151  0.14993403  1
  Sn  Sn14  1  0.33261045  0.88434442  0.46529502  1
  Sn  Sn15  1  0.27092934  0.95923031  0.94287959  1
  Sn  Sn16  1  0.21026513  0.66108864  0.61611712  1
  Sn  Sn17  1  0.49774270  0.60920752  0.39544692  1
  Sn  Sn18  1  0.58127594  0.11302251  0.55610054  1
  Sn  Sn19  1  0.95761992  -0.00035537  0.92640814  1
  Sn  Sn20  1  0.68800340  0.62901886  0.89348292  1
  Sn  Sn21  1  0.41213316  0.26498751  0.38154394  1
  Sn  Sn22  1  0.78986050  0.31347189  0.43229645  1
  Sn  Sn23  1  0.02349194  0.72641742  0.81267192  1
  Sn  Sn24  1  0.98993006  0.20531082  0.12207599  1
  Sn  Sn25  1  0.79411385  0.61259339  0.57688145  1
  Sn  Sn26  1  0.24754071  0.79340195  0.19444260  1
  Sn  Sn27  1  0.76886229  0.39768612  0.09475049  1
  Sn  Sn28  1  0.67399868  0.14968991  0.23284384  1
  Sn  Sn29  1  0.47862193  0.20829066  0.03761656  1
  Sn  Sn30  1  0.20471829  0.28931003  0.88952869  1
  Sn  Sn31  1  0.93226170  0.43724051  0.81291038  1
  Sn  Sn32  1  0.31160398  0.12965030  0.67842413  1
  Sn  Sn33  1  0.88197514  0.92385002  0.23272490  1
  O  O34  1  0.93438554  0.66434509  0.15315965  1
  O  O35  1  0.93827287  0.01979811  0.75321537  1
  O  O36  1  0.37378518  0.74750887  0.59285691  1
  O  O37  1  0.59998859  0.55640123  0.52708085  1
  O  O38  1  0.84469599  0.45625439  0.51890787  1
  O  O39  1  0.41842972  0.76570364  0.36027072  1
  O  O40  1  0.35817190  0.24943908  0.22480237  1
  O  O41  1  0.22245420  0.30554370  0.42625244  1
  O  O42  1  0.64234677  0.62896122  0.29847488  1
  O  O43  1  0.78264758  0.39380854  0.91224453  1
  O  O44  1  0.84205693  0.80589554  0.57602987  1
  O  O45  1  0.80520849  0.06452472  0.30942340  1
  O  O46  1  0.37705984  0.79382384  0.91996773  1
  O  O47  1  0.86305768  0.27527360  0.73634574  1
  O  O48  1  0.52013709  0.93989065  0.52177125  1
  O  O49  1  0.10449510  0.51627575  0.57239475  1
  O  O50  1  0.34923321  0.30115239  0.98462365  1
  O  O51  1  0.63808697  0.46212744  0.74538721  1
  O  O52  1  0.09215266  0.52182778  0.24895413  1
  O  O53  1  0.26660332  0.03705635  0.39345202  1
  O  O54  1  0.01529262  0.00944788  0.52037858  1
  O  O55  1  0.30941338  0.30793963  0.73527861  1
  O  O56  1  0.62252925  0.78579275  0.99253555  1
  O  O57  1  0.65844185  0.26572674  0.61190290  1
  O  O58  1  0.60634594  0.30110457  0.13907320  1
  O  O59  1  0.61048579  0.19506285  0.91027844  1
  O  O60  1  0.86613417  0.81172902  0.84595234  1
  O  O61  1  0.81148868  0.21708155  0.12613571  1
  O  O62  1  0.75773224  0.04749973  0.61077713  1
  O  O63  1  0.60346995  0.01084683  0.13010225  1
  O  O64  1  0.41586279  0.20627162  0.54041116  1
  O  O65  1  0.18933119  0.64362050  0.79333791  1
  O  O66  1  0.18039925  0.76591730  0.46457367  1
  O  O67  1  0.95924297  0.23742443  0.48578739  1
  O  O68  1  0.70041530  0.56346499  0.06592905  1
  O  O69  1  0.68527892  0.71002802  0.70226025  1
  O  O70  1  0.33723846  0.84825741  0.81127838  1
  O  O71  1  0.09391321  0.88302833  0.90312455  1
  O  O72  1  0.57442870  0.17460823  0.38043853  1
  O  O73  1  0.48506210  0.07913418  0.71001228  1
  O  O74  1  0.08327693  0.21545455  0.26417944  1
  O  O75  1  0.06811707  0.77387282  0.65239226  1
  O  O76  1  0.18805147  0.68766748  0.04912242  1
  O  O77  1  0.14529883  0.18743393  0.60843337  1
  O  O78  1  0.01429431  0.87582431  0.32412928  1
  O  O79  1  0.78553331  0.02845003  0.94687569  1
  O  O80  1  0.42804875  0.58563201  0.06300605  1
  O  O81  1  0.29377118  0.95699217  0.62584810  1
  O  O82  1  0.49363384  0.08526210  0.16975183  1
  O  O83  1  0.62235911  0.91671786  0.78669721  1
  O  O84  1  0.44026871  0.55489803  0.83405546  1
  O  O85  1  0.43367589  0.68410902  0.14774792  1
  O  O86  1  0.41338120  0.45110794  0.35926625  1
  O  O87  1  0.09076738  0.36566683  0.77500621  1
  O  O88  1  0.89349239  0.58569647  0.72179364  1
  O  O89  1  0.97464112  0.58442859  0.92084473  1
  O  O90  1  0.23670736  0.10342011  0.83967992  1
  O  O91  1  0.44600788  0.03404913  0.95661229  1
  O  O92  1  0.05228805  0.17974591  0.96167515  1
  O  O93  1  0.81305907  0.42970001  0.26904771  1
  O  O94  1  0.97203816  0.01301518  0.10438375  1
  O  O95  1  0.55991853  0.71869032  0.67436670  1
  O  O96  1  0.73610402  0.84259835  0.19061946  1
  O  O97  1  0.96016597  0.39157200  0.07565474  1
  O  O98  1  0.33725175  0.50781477  0.59634948  1
  O  O99  1  0.18878820  0.45833648  0.97556161  1
  O  O100  1  0.91263032  0.66774972  0.43628784  1
  O  O101  1  0.24333432  0.95133262  0.10346471  1
