# generated using pymatgen
data_ZnS
_symmetry_space_group_name_H-M   'P 1'
_cell_length_a   13.39543514
_cell_length_b   13.93740409
_cell_length_c   13.08936754
_cell_angle_alpha   86.68242368
_cell_angle_beta   90.13681641
_cell_angle_gamma   91.44004179
_symmetry_Int_Tables_number   1
_chemical_formula_structural   ZnS
_chemical_formula_sum   'Zn50 S50'
_cell_volume   2438.88636813
_cell_formula_units_Z   50
loop_
 _symmetry_equiv_pos_site_id
 _symmetry_equiv_pos_as_xyz
  1  'x, y, z'
loop_
 _atom_site_type_symbol
 _atom_site_label
 _atom_site_symmetry_multiplicity
 _atom_site_fract_x
 _atom_site_fract_y
 _atom_site_fract_z
 _atom_site_occupancy
  Zn  Zn0  1  0.29406575  0.30982152  0.15477046  1
  Zn  Zn1  1  0.52107394  0.29225811  0.65883478  1
  Zn  Zn2  1  0.72711885  0.17331829  0.65551957  1
  Zn  Zn3  1  0.81986159  0.97953816  0.00611114  1
  Zn  Zn4  1  0.31080260  0.31235654  0.43236034  1
  Zn  Zn5  1  0.70960883  0.73528169  0.23510416  1
  Zn  Zn6  1  0.80218580  0.98364920  0.22132216  1
  Zn  Zn7  1  0.99299401  0.24316915  0.43938616  1
  Zn  Zn8  1  0.80586409  0.81073591  0.74915395  1
  Zn  Zn9  1  0.11209083  0.00130005  0.13110247  1
  Zn  Zn10  1  0.55778739  0.07882431  0.05497466  1
  Zn  Zn11  1  0.79947907  0.48013569  0.86348426  1
  Zn  Zn12  1  0.15100173  0.46705328  0.66059802  1
  Zn  Zn13  1  0.86587006  0.79792660  0.06836779  1
  Zn  Zn14  1  0.54428215  0.80278384  0.65586801  1
  Zn  Zn15  1  0.62972278  0.29602426  0.10694434  1
  Zn  Zn16  1  0.53346049  0.80582082  0.10319507  1
  Zn  Zn17  1  0.02924745  0.88727718  0.79024315  1
  Zn  Zn18  1  0.02804694  0.34147453  0.13168755  1
  Zn  Zn19  1  0.02517917  0.67250514  0.65657805  1
  Zn  Zn20  1  0.19289578  0.78136473  0.20454240  1
  Zn  Zn21  1  0.22997113  0.79016510  0.91755449  1
  Zn  Zn22  1  0.81428229  0.32355785  0.72000107  1
  Zn  Zn23  1  0.11556106  0.13548296  0.50496336  1
  Zn  Zn24  1  0.79727424  0.60984779  0.42662993  1
  Zn  Zn25  1  0.98186614  0.62736520  0.22390184  1
  Zn  Zn26  1  0.76582375  0.18706727  0.85114529  1
  Zn  Zn27  1  0.11890916  0.40802754  0.41710614  1
  Zn  Zn28  1  0.70995086  0.34554972  0.44167671  1
  Zn  Zn29  1  0.48467033  0.22851545  0.85501598  1
  Zn  Zn30  1  0.68306024  0.05814041  0.35034838  1
  Zn  Zn31  1  0.34274549  0.29090031  0.73912732  1
  Zn  Zn32  1  0.79746810  0.16122230  0.22804651  1
  Zn  Zn33  1  0.11430301  0.11521149  0.98922463  1
  Zn  Zn34  1  0.58037688  0.68301710  0.83712230  1
  Zn  Zn35  1  0.47473238  0.93542251  0.89683499  1
  Zn  Zn36  1  0.84971649  0.86623534  0.49332393  1
  Zn  Zn37  1  0.10026165  0.61026535  0.44583880  1
  Zn  Zn38  1  0.15997653  0.42204855  0.93064439  1
  Zn  Zn39  1  0.41638574  0.10018746  0.38747548  1
  Zn  Zn40  1  0.07096822  0.57851015  0.90430811  1
  Zn  Zn41  1  0.52768143  0.84177932  0.36702991  1
  Zn  Zn42  1  0.08105411  0.29455268  0.66135482  1
  Zn  Zn43  1  0.19820287  0.93784312  0.39837368  1
  Zn  Zn44  1  0.34869592  0.91628279  0.69614030  1
  Zn  Zn45  1  0.84560125  0.40587323  0.25269975  1
  Zn  Zn46  1  0.97970494  0.42898700  0.57772642  1
  Zn  Zn47  1  0.18161330  0.54835006  0.07279593  1
  Zn  Zn48  1  0.36550418  0.11992606  0.55873304  1
  Zn  Zn49  1  0.36811264  0.48336338  0.28536828  1
  S  S50  1  0.45245520  0.94846697  0.06412353  1
  S  S51  1  0.66171079  0.25002308  0.27510509  1
  S  S52  1  0.72963279  0.48475928  0.34055716  1
  S  S53  1  0.26914560  0.94509845  0.85132733  1
  S  S54  1  0.38175293  0.45825937  0.44836164  1
  S  S55  1  0.73112924  0.11739111  0.01464312  1
  S  S56  1  0.23918357  0.93628728  0.23471640  1
  S  S57  1  0.07532110  0.72648526  0.32123811  1
  S  S58  1  0.54590579  0.07110800  0.80680760  1
  S  S59  1  0.85818575  0.30942277  0.53992789  1
  S  S60  1  0.95519444  0.33984074  0.83703523  1
  S  S61  1  0.94289477  0.54590504  0.79120413  1
  S  S62  1  0.10153900  0.73357826  0.82434348  1
  S  S63  1  0.25970977  0.42159587  0.78925681  1
  S  S64  1  0.93746885  0.58085378  0.51985522  1
  S  S65  1  0.88416483  0.43130156  0.07914877  1
  S  S66  1  0.94716327  0.93286155  0.14301307  1
  S  S67  1  0.48866055  0.23157308  0.03442972  1
  S  S68  1  0.44575431  0.80303325  0.80468708  1
  S  S69  1  0.99632972  0.15070645  0.71759724  1
  S  S70  1  0.74596138  0.76465938  0.41206895  1
  S  S71  1  0.96295051  0.18752063  0.86419605  1
  S  S72  1  0.30055887  0.21190517  0.30047204  1
  S  S73  1  0.12761454  0.97826257  0.53816732  1
  S  S74  1  0.15759942  0.28307605  0.03895773  1
  S  S75  1  0.24981670  0.23989288  0.59374978  1
  S  S76  1  0.53552340  0.71972033  0.26021356  1
  S  S77  1  0.68036105  0.71466760  0.69854916  1
  S  S78  1  0.33899287  0.46826933  0.12276103  1
  S  S79  1  0.18156352  0.62027739  0.59637286  1
  S  S80  1  0.83417217  0.65224087  0.14667566  1
  S  S81  1  0.87764996  0.87111611  0.89316224  1
  S  S82  1  0.44887663  0.77840736  0.51598992  1
  S  S83  1  0.13744295  0.02033656  0.80980966  1
  S  S84  1  0.76177331  0.01657539  0.63135119  1
  S  S85  1  0.80852092  0.03043385  0.47712381  1
  S  S86  1  0.94327358  0.82310095  0.63815527  1
  S  S87  1  0.70885445  0.87933889  0.11951372  1
  S  S88  1  0.07251141  0.48885003  0.20947714  1
  S  S89  1  0.70278858  0.45590026  0.72163009  1
  S  S90  1  0.61525834  0.69097178  0.01215688  1
  S  S91  1  0.32068239  0.86195289  0.53516324  1
  S  S92  1  0.60809881  0.23326514  0.53381081  1
  S  S93  1  0.24967633  0.70683196  0.07022678  1
  S  S94  1  0.52860955  0.57298415  0.95620390  1
  S  S95  1  0.52918222  0.00258695  0.31248882  1
  S  S96  1  0.48076221  0.03812005  0.66275389  1
  S  S97  1  0.75457738  0.37998669  0.00444171  1
  S  S98  1  0.56583012  0.39575504  0.77525726  1
  S  S99  1  0.93499550  0.25988406  0.26774466  1
