# generated using pymatgen
data_Al2O3
_symmetry_space_group_name_H-M   'P 1'
_cell_length_a   10.54966178
_cell_length_b   10.14336905
_cell_length_c   10.24359370
_cell_angle_alpha   92.22476849
_cell_angle_beta   92.20911185
_cell_angle_gamma   90.27215823
_symmetry_Int_Tables_number   1
_chemical_formula_structural   Al2O3
_chemical_formula_sum   'Al40 O60'
_cell_volume   1094.49615113
_cell_formula_units_Z   20
loop_
 _symmetry_equiv_pos_site_id
 _symmetry_equiv_pos_as_xyz
  1  'x, y, z'
loop_
 _atom_site_type_symbol
 _atom_site_label
 _atom_site_symmetry_multiplicity
 _atom_site_fract_x
 _atom_site_fract_y
 _atom_site_fract_z
 _atom_site_occupancy
  Al  Al0  1  0.46456500  0.16103500  0.89763000  1
  Al  Al1  1  0.09926600  0.01557900  0.52613600  1
  Al  Al2  1  0.37073000  0.00842600  0.09596900  1
  Al  Al3  1  0.14176800  0.71651100  0.39967800  1
  Al  Al4  1  0.75307800  0.86076700  0.11682300  1
  Al  Al5  1  0.35046200  0.50942500  0.15138000  1
  Al  Al6  1  0.00237500  0.28078700  0.69524600  1
  Al  Al7  1  0.38694800  0.19033700  0.58844100  1
  Al  Al8  1  0.22127100  0.24313400  0.88825800  1
  Al  Al9  1  0.55388200  0.44629000  0.56190600  1
  Al  Al10  1  0.44927100  0.74492200  0.54456000  1
  Al  Al11  1  0.12524900  0.56206000  0.94023100  1
  Al  Al12  1  0.65130100  0.90987200  0.65527600  1
  Al  Al13  1  0.85532700  0.05468100  0.69988100  1
  Al  Al14  1  0.64543600  0.19509000  0.44699800  1
  Al  Al15  1  0.75840300  0.63316900  0.72690900  1
  Al  Al16  1  0.85951600  0.42145100  0.90526000  1
  Al  Al17  1  0.90235500  0.77599500  0.53943900  1
  Al  Al18  1  0.11971100  0.99399000  0.22161200  1
  Al  Al19  1  0.37547800  0.74466600  0.28200000  1
  Al  Al20  1  0.94512200  0.11204700  0.00901400  1
  Al  Al21  1  0.34952500  0.62102300  0.73405800  1
  Al  Al22  1  0.47230100  0.72681900  0.98666100  1
  Al  Al23  1  0.03239600  0.71645500  0.14622600  1
  Al  Al24  1  0.06141400  0.89484800  0.90291600  1
  Al  Al25  1  0.50305600  0.42231700  0.91684300  1
  Al  Al26  1  0.06065500  0.55093500  0.66715300  1
  Al  Al27  1  0.58256300  0.42584700  0.24099200  1
  Al  Al28  1  0.73096800  0.60539400  0.04765800  1
  Al  Al29  1  0.67675000  0.71139500  0.34462600  1
  Al  Al30  1  0.67495600  0.23199400  0.73356500  1
  Al  Al31  1  0.21693400  0.19645500  0.35901600  1
  Al  Al32  1  0.40989000  0.97272300  0.42085900  1
  Al  Al33  1  0.32530200  0.93647700  0.80169100  1
  Al  Al34  1  0.81831900  0.46679900  0.50026800  1
  Al  Al35  1  0.89332300  0.53332200  0.22795500  1
  Al  Al36  1  0.09188600  0.35457600  0.12171600  1
  Al  Al37  1  0.25769800  0.45918100  0.40173800  1
  Al  Al38  1  0.82592200  0.26547200  0.25576000  1
  Al  Al39  1  0.65802200  0.12003600  0.14870100  1
  O  O40  1  0.86420400  0.72938900  0.09170600  1
  O  O41  1  0.03676200  0.52928400  0.11896100  1
  O  O42  1  0.30002300  0.09173700  0.94502700  1
  O  O43  1  0.94509700  0.23136000  0.14963800  1
  O  O44  1  0.74491000  0.55327000  0.87610000  1
  O  O45  1  0.75205600  0.19972100  0.58206100  1
  O  O46  1  0.38435600  0.67826800  0.11950600  1
  O  O47  1  0.27110300  0.06125800  0.50443600  1
  O  O48  1  0.51710900  0.47270500  0.08095300  1
  O  O49  1  0.99348500  0.11462700  0.62093000  1
  O  O50  1  0.41676200  0.07973200  0.73560000  1
  O  O51  1  0.98405000  0.66371400  0.31449500  1
  O  O52  1  0.87646400  0.40763000  0.34560600  1
  O  O53  1  0.51505200  0.09550600  0.05992600  1
  O  O54  1  0.71423200  0.85876100  0.27889600  1
  O  O55  1  0.16488100  0.27901900  0.73209100  1
  O  O56  1  0.00167300  0.48054400  0.84320100  1
  O  O57  1  0.64346200  0.75207500  0.71273700  1
  O  O58  1  0.41922600  0.91579700  0.24738800  1
  O  O59  1  0.68550500  0.05305200  0.75742200  1
  O  O60  1  0.14208800  0.82462200  0.24369900  1
  O  O61  1  0.15630900  0.57512700  0.51688400  1
  O  O62  1  0.51689100  0.68507100  0.38235100  1
  O  O63  1  0.85497800  0.26826500  0.80582400  1
  O  O64  1  0.82417900  0.45370000  0.07127500  1
  O  O65  1  0.29250500  0.30732500  0.48752600  1
  O  O66  1  0.16182200  0.91929400  0.77599700  1
  O  O67  1  0.08149100  0.24103300  0.97865700  1
  O  O68  1  0.70814100  0.48751900  0.63253900  1
  O  O69  1  0.19716700  0.58417600  0.78048700  1
  O  O70  1  0.53041800  0.90159000  0.53165700  1
  O  O71  1  0.31450200  0.80694900  0.44080000  1
  O  O72  1  0.78890700  0.65330700  0.46838600  1
  O  O73  1  0.25677400  0.60381600  0.29930700  1
  O  O74  1  0.77960600  0.02778300  0.07005000  1
  O  O75  1  0.93081000  0.00637200  0.85533600  1
  O  O76  1  0.37717800  0.31306500  0.88692300  1
  O  O77  1  0.60709200  0.28296400  0.88457800  1
  O  O78  1  0.37617100  0.78824500  0.70272000  1
  O  O79  1  0.70449100  0.57384200  0.23066900  1
  O  O80  1  0.41675300  0.42570300  0.28985900  1
  O  O81  1  0.52177800  0.30036500  0.64353200  1
  O  O82  1  0.08937700  0.73457100  0.97869300  1
  O  O83  1  0.67283600  0.29356900  0.17019100  1
  O  O84  1  0.39203800  0.87541100  0.95841300  1
  O  O85  1  0.73617300  0.12920500  0.31811900  1
  O  O86  1  0.16364800  0.34577200  0.28270900  1
  O  O87  1  0.48856900  0.13253800  0.44426100  1
  O  O88  1  0.63363500  0.75251600  0.02965900  1
  O  O89  1  0.81201700  0.91219100  0.59471100  1
  O  O90  1  0.95998800  0.41625800  0.59415500  1
  O  O91  1  0.07377400  0.08602800  0.36452900  1
  O  O92  1  0.63438800  0.38144100  0.41739000  1
  O  O93  1  0.45581800  0.58622500  0.86729600  1
  O  O94  1  0.43163600  0.56482400  0.58791400  1
  O  O95  1  0.25966500  0.09546100  0.21142600  1
  O  O96  1  0.92552900  0.67232500  0.68025300  1
  O  O97  1  0.04732200  0.98127000  0.06487200  1
  O  O98  1  0.23031500  0.44988100  0.03437600  1
  O  O99  1  0.05344900  0.84409500  0.50264100  1
