# generated using pymatgen
data_SiO2
_symmetry_space_group_name_H-M   'P 1'
_cell_length_a   10.78856465
_cell_length_b   12.22353841
_cell_length_c   12.47739072
_cell_angle_alpha   89.00611699
_cell_angle_beta   92.52710561
_cell_angle_gamma   89.14136339
_symmetry_Int_Tables_number   1
_chemical_formula_structural   SiO2
_chemical_formula_sum   'Si34 O68'
_cell_volume   1643.39695328
_cell_formula_units_Z   34
loop_
 _symmetry_equiv_pos_site_id
 _symmetry_equiv_pos_as_xyz
  1  'x, y, z'
loop_
 _atom_site_type_symbol
 _atom_site_label
 _atom_site_symmetry_multiplicity
 _atom_site_fract_x
 _atom_site_fract_y
 _atom_site_fract_z
 _atom_site_occupancy
  Si  Si0  1  0.73246813  0.34016607  0.47199242  1
  Si  Si1  1  0.44681122  0.19727304  0.20626969  1
  Si  Si2  1  0.99811980  0.71720287  0.70780348  1
  Si  Si3  1  0.25950126  0.59049799  0.71176151  1
  Si  Si4  1  0.24881375  0.49893647  0.02502503  1
  Si  Si5  1  0.85806141  0.67083214  0.39206633  1
  Si  Si6  1  0.13649328  0.99793247  0.02684063  1
  Si  Si7  1  0.19846372  0.33774504  0.75899735  1
  Si  Si8  1  0.65079482  0.37197430  0.22983199  1
  Si  Si9  1  0.00039073  0.18235096  0.15599339  1
  Si  Si10  1  0.76503418  0.59320701  0.75169013  1
  Si  Si11  1  0.12274105  0.71887609  0.40029287  1
  Si  Si12  1  0.67313123  0.69536301  0.95057379  1
  Si  Si13  1  0.94406253  0.29047792  0.63629380  1
  Si  Si14  1  0.71114439  0.93055375  0.00058991  1
  Si  Si15  1  0.60114339  0.85491522  0.19851231  1
  Si  Si16  1  0.01449467  0.43454908  0.07557925  1
  Si  Si17  1  0.50148815  0.99500401  0.37390541  1
  Si  Si18  1  0.37339795  0.88452190  0.02944312  1
  Si  Si19  1  0.70882938  0.62407835  0.18490853  1
  Si  Si20  1  0.61690076  0.12331905  0.56939830  1
  Si  Si21  1  0.39157567  0.67572947  0.52845133  1
  Si  Si22  1  0.23220139  0.33977515  0.18784839  1
  Si  Si23  1  0.94859993  0.86024557  0.48914299  1
  Si  Si24  1  0.46823187  0.23639584  0.74356332  1
  Si  Si25  1  0.32433123  0.88582825  0.52134675  1
  Si  Si26  1  0.88398354  0.05017090  0.62960496  1
  Si  Si27  1  0.40111147  0.66038203  0.90405065  1
  Si  Si28  1  0.15862446  0.55853019  0.21995411  1
  Si  Si29  1  0.64316541  0.56809344  0.52795539  1
  Si  Si30  1  0.49321168  0.09868285  0.96832918  1
  Si  Si31  1  0.72380618  0.34511202  0.79606406  1
  Si  Si32  1  0.79753756  0.29678294  0.03162870  1
  Si  Si33  1  0.94868948  0.91630344  0.85039497  1
  O  O34  1  0.73530572  0.07067692  0.63812916  1
  O  O35  1  0.07086860  0.84391794  0.41307960  1
  O  O36  1  0.47858103  0.09697702  0.28916008  1
  O  O37  1  0.92113425  0.98811752  0.74386663  1
  O  O38  1  0.32904407  0.58035681  0.59785482  1
  O  O39  1  0.07980029  0.33936284  0.66361351  1
  O  O40  1  0.58386651  0.32458031  0.74691996  1
  O  O41  1  0.10392070  0.47907578  0.98417764  1
  O  O42  1  0.96249714  0.15979905  0.61912200  1
  O  O43  1  0.08271336  0.31433882  0.13549817  1
  O  O44  1  0.36045369  0.66735217  0.77866355  1
  O  O45  1  0.63448524  0.04410330  0.97349631  1
  O  O46  1  0.29811345  0.22628329  0.22503231  1
  O  O47  1  0.89379621  0.19513771  0.05791615  1
  O  O48  1  0.64273822  0.43590090  0.52025040  1
  O  O49  1  0.16718836  0.28422163  0.86890608  1
  O  O50  1  0.74563030  0.47584718  0.80955201  1
  O  O51  1  0.46920212  0.88004435  0.13177712  1
  O  O52  1  0.75089007  0.68468603  0.84387138  1
  O  O53  1  0.22296889  0.93579855  0.58859079  1
  O  O54  1  0.50714828  0.14987383  0.65067736  1
  O  O55  1  0.21685233  0.44050764  0.27299430  1
  O  O56  1  0.90400758  0.61344034  0.71049998  1
  O  O57  1  0.30273481  0.38610203  0.08364982  1
  O  O58  1  0.87744303  0.41050785  0.03255169  1
  O  O59  1  0.10047524  0.09410289  0.10013150  1
  O  O60  1  0.01980284  0.52120514  0.17395219  1
  O  O61  1  0.56836160  0.03261038  0.48478409  1
  O  O62  1  0.15811231  0.67009101  0.28536301  1
  O  O63  1  0.83808198  0.30071643  0.72793390  1
  O  O64  1  0.23399265  0.91110505  0.07773566  1
  O  O65  1  0.64412075  0.50448681  0.20078843  1
  O  O66  1  0.70439289  0.30760208  0.12842695  1
  O  O67  1  0.71673451  0.90826787  0.13214312  1
  O  O68  1  0.47245998  0.17571010  0.86341202  1
  O  O69  1  0.72927582  0.28594776  0.91552141  1
  O  O70  1  0.96406076  0.79149818  0.60204260  1
  O  O71  1  0.13633955  0.66871263  0.69874704  1
  O  O72  1  0.98467579  0.79197505  0.81671349  1
  O  O73  1  0.83931251  0.80200958  0.41360051  1
  O  O74  1  0.54503004  0.63100382  0.93253931  1
  O  O75  1  0.84489841  0.92700328  0.94297909  1
  O  O76  1  0.39521270  0.99516018  0.95700194  1
  O  O77  1  0.46915553  0.16052116  0.08240100  1
  O  O78  1  0.61061964  0.72200146  0.21179297  1
  O  O79  1  0.76182305  0.60520736  0.46230125  1
  O  O80  1  0.43096322  0.79662742  0.57261994  1
  O  O81  1  0.36001003  0.77268521  0.96341681  1
  O  O82  1  0.74651674  0.64619040  0.05950607  1
  O  O83  1  0.66146368  0.60860428  0.65196588  1
  O  O84  1  0.07224994  0.96758628  0.91628321  1
  O  O85  1  0.83046328  0.63968505  0.26621748  1
  O  O86  1  0.00505518  0.63948927  0.43062665  1
  O  O87  1  0.33746685  0.54784671  0.94085366  1
  O  O88  1  0.26495994  0.72787366  0.45735170  1
  O  O89  1  0.59170759  0.90776771  0.31559523  1
  O  O90  1  0.24280285  0.59104612  0.11953329  1
  O  O91  1  0.97502776  0.16618942  0.27494256  1
  O  O92  1  0.51233384  0.62079974  0.47469132  1
  O  O93  1  0.33367245  0.28899807  0.71075370  1
  O  O94  1  0.22909614  0.47269710  0.75778039  1
  O  O95  1  0.87335797  0.34494017  0.52613455  1
  O  O96  1  0.51667632  0.31109712  0.24041024  1
  O  O97  1  0.91039596  0.98230544  0.52083616  1
  O  O98  1  0.37268683  0.93601830  0.40756320  1
  O  O99  1  0.63409670  0.82522042  0.95570070  1
  O  O100  1  0.66231308  0.22742248  0.49936754  1
  O  O101  1  0.73414819  0.35647081  0.34109140  1
