# generated using pymatgen
data_SnO
_symmetry_space_group_name_H-M   'P 1'
_cell_length_a   11.74936953
_cell_length_b   12.73501600
_cell_length_c   12.18052392
_cell_angle_alpha   88.88833631
_cell_angle_beta   98.26715525
_cell_angle_gamma   88.01321933
_symmetry_Int_Tables_number   1
_chemical_formula_structural   SnO
_chemical_formula_sum   'Sn40 O40'
_cell_volume   1801.98088293
_cell_formula_units_Z   40
loop_
 _symmetry_equiv_pos_site_id
 _symmetry_equiv_pos_as_xyz
  1  'x, y, z'
loop_
 _atom_site_type_symbol
 _atom_site_label
 _atom_site_symmetry_multiplicity
 _atom_site_fract_x
 _atom_site_fract_y
 _atom_site_fract_z
 _atom_site_occupancy
  Sn  Sn0  1  0.80648960  0.10628377  0.75794443  1
  Sn  Sn1  1  0.73315024  0.52285375  0.15510373  1
  Sn  Sn2  1  0.59409519  0.54909968  0.52817470  1
  Sn  Sn3  1  0.68354305  0.84038212  0.24419261  1
  Sn  Sn4  1  0.96201390  0.98644810  0.53839329  1
  Sn  Sn5  1  0.30577143  0.19209635  0.47218905  1
  Sn  Sn6  1  0.90304215  0.52282048  0.62441372  1
  Sn  Sn7  1  0.27404770  0.84915551  0.12067431  1
  Sn  Sn8  1  0.16900490  0.93187811  0.36380248  1
  Sn  Sn9  1  0.66948094  0.30743243  0.91601645  1
  Sn  Sn10  1  0.64846511  0.05145670  0.00169299  1
  Sn  Sn11  1  0.43685565  0.82246175  0.41651442  1
  Sn  Sn12  1  0.91818731  0.96118625  0.19639707  1
  Sn  Sn13  1  0.05144718  0.24353824  0.65728207  1
  Sn  Sn14  1  0.74630304  0.21840760  0.24889086  1
  Sn  Sn15  1  0.40746677  0.15691980  0.18248291  1
  Sn  Sn16  1  0.52800628  0.06647343  0.70115407  1
  Sn  Sn17  1  0.97095348  0.16902082  0.01683384  1
  Sn  Sn18  1  0.33847267  0.06696800  0.92980727  1
  Sn  Sn19  1  0.08595926  0.94538594  0.84454134  1
  Sn  Sn20  1  0.40232912  0.45232287  0.00743540  1
  Sn  Sn21  1  0.02275171  0.44326615  0.19002485  1
  Sn  Sn22  1  0.30115768  0.46590630  0.26315493  1
  Sn  Sn23  1  0.49659885  0.68834378  0.09920628  1
  Sn  Sn24  1  0.58754259  0.65727964  0.80218402  1
  Sn  Sn25  1  0.01467166  0.73189480  0.68564719  1
  Sn  Sn26  1  0.71447265  0.33268990  0.64162141  1
  Sn  Sn27  1  0.37833851  0.30138169  0.76619460  1
  Sn  Sn28  1  0.24982486  0.65512233  0.57138530  1
  Sn  Sn29  1  0.15358150  0.57016009  0.96259646  1
  Sn  Sn30  1  0.53738847  0.08280290  0.43129355  1
  Sn  Sn31  1  0.98842564  0.72662761  0.08749658  1
  Sn  Sn32  1  0.17358044  0.41109148  0.52265636  1
  Sn  Sn33  1  0.89641099  0.44424878  0.91829538  1
  Sn  Sn34  1  0.01818090  0.20288128  0.37166331  1
  Sn  Sn35  1  0.28882822  0.94912267  0.66314126  1
  Sn  Sn36  1  0.19487531  0.28391613  0.99960014  1
  Sn  Sn37  1  0.91415615  0.70472159  0.41617984  1
  Sn  Sn38  1  0.71102897  0.85516541  0.61935363  1
  Sn  Sn39  1  0.32942108  0.74181631  0.84401419  1
  O  O40  1  0.00557917  0.39977455  0.58041468  1
  O  O41  1  0.96563592  0.15593054  0.52597812  1
  O  O42  1  0.51882856  0.72057556  0.93354065  1
  O  O43  1  0.48467349  0.07555485  0.05497173  1
  O  O44  1  0.82636993  0.45004523  0.74798794  1
  O  O45  1  0.83596018  0.77566494  0.54363644  1
  O  O46  1  0.52840112  0.52260220  0.11021172  1
  O  O47  1  0.33215534  0.60702742  0.97766714  1
  O  O48  1  0.07137591  0.73520089  0.52758772  1
  O  O49  1  0.26035095  0.12358382  0.06775934  1
  O  O50  1  0.28161216  0.22186989  0.87634768  1
  O  O51  1  0.15132218  0.75382176  0.16697891  1
  O  O52  1  0.73755734  0.95575348  0.13555355  1
  O  O53  1  0.49450291  0.17421559  0.81616097  1
  O  O54  1  0.63332707  0.12323044  0.31091008  1
  O  O55  1  0.19064017  0.66497206  0.72555060  1
  O  O56  1  0.29706388  0.89144838  0.50114006  1
  O  O57  1  0.86453469  0.83553861  0.30122198  1
  O  O58  1  0.15305691  0.44019487  0.33919866  1
  O  O59  1  0.73871876  0.45673743  0.98623178  1
  O  O60  1  0.23524332  0.42934059  0.91785299  1
  O  O61  1  0.67792732  0.68895318  0.15266536  1
  O  O62  1  0.59762890  0.15418575  0.58093600  1
  O  O63  1  0.58358833  0.91971163  0.48298544  1
  O  O64  1  0.42274624  0.68076002  0.72093090  1
  O  O65  1  0.94283692  0.59317663  0.16930465  1
  O  O66  1  0.48823596  0.38039557  0.90056126  1
  O  O67  1  0.83276271  0.98245878  0.64903759  1
  O  O68  1  0.32235321  0.90738988  0.28364192  1
  O  O69  1  0.96724569  0.06832753  0.86948997  1
  O  O70  1  0.55989908  0.41886934  0.61102834  1
  O  O71  1  0.34806860  0.33748773  0.11337048  1
  O  O72  1  0.17120718  0.09783452  0.39473546  1
  O  O73  1  0.34151341  0.10083368  0.62107901  1
  O  O74  1  0.75537873  0.47708059  0.52518495  1
  O  O75  1  0.17281880  0.50123358  0.12803603  1
  O  O76  1  0.89390394  0.10092792  0.28494299  1
  O  O77  1  0.69818814  0.20141993  0.06653208  1
  O  O78  1  0.87650980  0.28197000  0.91823890  1
  O  O79  1  0.10552592  0.98725010  0.67843564  1
