# generated using pymatgen
data_V2O5
_symmetry_space_group_name_H-M   'P 1'
_cell_length_a   13.00487384
_cell_length_b   11.14891434
_cell_length_c   12.05330697
_cell_angle_alpha   98.03347679
_cell_angle_beta   88.96784615
_cell_angle_gamma   95.25480077
_symmetry_Int_Tables_number   1
_chemical_formula_structural   V2O5
_chemical_formula_sum   'V30 O75'
_cell_volume   1723.16486091
_cell_formula_units_Z   15
loop_
 _symmetry_equiv_pos_site_id
 _symmetry_equiv_pos_as_xyz
  1  'x, y, z'
loop_
 _atom_site_type_symbol
 _atom_site_label
 _atom_site_symmetry_multiplicity
 _atom_site_fract_x
 _atom_site_fract_y
 _atom_site_fract_z
 _atom_site_occupancy
  V  V0  1  0.91175653  0.13344541  0.75296401  1
  V  V1  1  0.91670426  0.87648289  0.87221064  1
  V  V2  1  0.69726375  0.48018408  0.78890139  1
  V  V3  1  0.88047956  0.98560832  0.24610594  1
  V  V4  1  0.66200080  0.08454261  0.09563348  1
  V  V5  1  0.36139869  0.76712408  0.60978939  1
  V  V6  1  0.60100270  0.61817342  0.29695797  1
  V  V7  1  0.56178709  0.04109433  0.54613834  1
  V  V8  1  0.90092490  0.22959880  0.48561010  1
  V  V9  1  0.25957480  0.64689902  0.10481656  1
  V  V10  1  0.39926340  0.26928412  0.54186578  1
  V  V11  1  0.03778949  0.63891792  0.08309392  1
  V  V12  1  0.12169519  0.00310099  0.76072515  1
  V  V13  1  0.37412921  0.07555110  0.75411949  1
  V  V14  1  0.14593763  0.23545121  0.41883957  1
  V  V15  1  0.14967098  0.93132921  0.17108492  1
  V  V16  1  0.84898982  0.74414928  0.26476257  1
  V  V17  1  0.45270940  0.22489285  0.95710075  1
  V  V18  1  0.64078071  0.78177444  0.84828617  1
  V  V19  1  0.67617252  0.38934315  0.98909406  1
  V  V20  1  0.81721925  0.26588327  0.22646224  1
  V  V21  1  0.14132699  0.63633833  0.53193027  1
  V  V22  1  0.94359629  0.57785005  0.71739281  1
  V  V23  1  0.56533588  0.21103058  0.36619882  1
  V  V24  1  0.62308760  0.07308141  0.82131832  1
  V  V25  1  0.22877516  0.45219616  0.30934122  1
  V  V26  1  0.98508447  0.31477797  0.00550143  1
  V  V27  1  0.50525867  0.79790743  0.10543830  1
  V  V28  1  0.48776281  0.53726833  0.71569089  1
  V  V29  1  0.43298750  0.41925431  0.14423015  1
  O  O30  1  0.35423945  0.41858573  0.27960663  1
  O  O31  1  0.88252731  0.98034550  0.77697991  1
  O  O32  1  0.74675260  0.36188558  0.85254156  1
  O  O33  1  0.37011268  0.77422922  0.09795084  1
  O  O34  1  0.59225523  0.41532136  0.70920467  1
  O  O35  1  0.36974253  0.27576903  0.07743156  1
  O  O36  1  0.69391343  0.11599616  0.52160839  1
  O  O37  1  0.99388408  0.47916950  0.04686638  1
  O  O38  1  0.53968099  0.09131658  0.69929355  1
  O  O39  1  0.24822568  0.05842553  0.81252208  1
  O  O40  1  0.55313865  0.94186291  0.14090712  1
  O  O41  1  0.75737426  0.04873400  0.18320238  1
  O  O42  1  0.15053520  0.31274370  0.29111922  1
  O  O43  1  0.40992020  0.40943563  0.62912517  1
  O  O44  1  0.12054652  0.09113001  0.38670505  1
  O  O45  1  0.43017129  0.54234625  0.83484081  1
  O  O46  1  0.04720197  0.12881952  0.73911196  1
  O  O47  1  0.49271918  0.15083009  0.23899468  1
  O  O48  1  0.75108976  0.45430180  0.09013281  1
  O  O49  1  0.91439146  0.24475011  0.86869467  1
  O  O50  1  0.20795536  0.51407506  0.45098665  1
  O  O51  1  0.83716508  0.34750930  0.50751064  1
  O  O52  1  0.14712488  0.75563448  0.14693289  1
  O  O53  1  0.20206466  0.55355873  0.22210181  1
  O  O54  1  0.53332775  0.37487091  0.03002706  1
  O  O55  1  0.44131853  0.06493205  0.89468094  1
  O  O56  1  0.62002334  0.63819248  0.76005298  1
  O  O57  1  0.81633482  0.82404071  0.16303974  1
  O  O58  1  0.00655815  0.98439884  0.20828956  1
  O  O59  1  0.86108667  0.40049723  0.28268200  1
  O  O60  1  0.50173776  0.33121210  0.43482593  1
  O  O61  1  0.03489592  0.28998200  0.49585653  1
  O  O62  1  0.55621022  0.63781753  0.42273487  1
  O  O63  1  -0.00333569  0.49905621  0.80000831  1
  O  O64  1  0.95770035  0.66913143  0.21351383  1
  O  O65  1  0.02286685  0.58012815  0.58975769  1
  O  O66  1  0.36363048  0.76232328  0.47544432  1
  O  O67  1  0.87646942  0.15570553  0.34102205  1
  O  O68  1  0.27013466  0.26698573  0.48004790  1
  O  O69  1  0.90196089  0.94309816  -0.00110770  1
  O  O70  1  0.60192189  0.89415852  0.77739734  1
  O  O71  1  0.92838791  0.24172397  0.11149310  1
  O  O72  1  0.53673183  0.16187039  0.13383902  1
  O  O73  1  0.10037920  0.27242284  -0.01417948  1
  O  O74  1  0.56244788  0.75875239  0.97082683  1
  O  O75  1  0.44578555  0.66239725  0.65129903  1
  O  O76  1  0.17943643  0.98553024  0.05481165  1
  O  O77  1  0.54743379  0.47294190  0.23089368  1
  O  O78  1  0.76931579  0.79737242  0.87153857  1
  O  O79  1  0.05660237  0.91918450  0.85764853  1
  O  O80  1  0.11683746  0.72840019  0.44653737  1
  O  O81  1  0.72260119  0.22859931  0.08073409  1
  O  O82  1  0.87692258  0.87779253  0.35997650  1
  O  O83  1  0.17951721  0.58630284  0.00013018  1
  O  O84  1  0.37859221  0.53423847  0.09798868  1
  O  O85  1  0.39700656  0.26648846  0.84773122  1
  O  O86  1  0.59604700  0.21455848  0.90665808  1
  O  O87  1  0.64536306  0.07455172  0.41295455  1
  O  O88  1  0.98267718  0.71167065  0.99740996  1
  O  O89  1  0.55302000  0.89452976  0.52794915  1
  O  O90  1  0.23341217  0.70500294  0.63997505  1
  O  O91  1  0.88568408  0.15811527  0.61415281  1
  O  O92  1  0.67659219  0.26579288  0.30935815  1
  O  O93  1  0.24842960  0.96964863  0.25461049  1
  O  O94  1  0.65430742  0.52973639  0.93007620  1
  O  O95  1  0.35162786  0.15820993  0.64743252  1
  O  O96  1  0.13046978  0.91984154  0.64048239  1
  O  O97  1  0.46933764  0.12459296  0.47848645  1
  O  O98  1  0.74076954  0.64777078  0.30329945  1
  O  O99  1  0.80592542  0.52470664  0.70784365  1
  O  O100  1  0.73724155  0.11222354  0.77090644  1
  O  O101  1  0.66108452  0.01052948  0.95922201  1
  O  O102  1  0.93999142  0.72549280  0.78123942  1
  O  O103  1  0.55108431  0.72036157  0.21218809  1
  O  O104  1  0.37570875  0.92342463  0.68444671  1
