# generated using pymatgen
data_SiO2
_symmetry_space_group_name_H-M   'P 1'
_cell_length_a   11.23575061
_cell_length_b   11.12006986
_cell_length_c   11.50748521
_cell_angle_alpha   90.40719151
_cell_angle_beta   90.74703849
_cell_angle_gamma   89.58389637
_symmetry_Int_Tables_number   1
_chemical_formula_structural   SiO2
_chemical_formula_sum   'Si30 O60'
_cell_volume   1437.57656320
_cell_formula_units_Z   30
loop_
 _symmetry_equiv_pos_site_id
 _symmetry_equiv_pos_as_xyz
  1  'x, y, z'
loop_
 _atom_site_type_symbol
 _atom_site_label
 _atom_site_symmetry_multiplicity
 _atom_site_fract_x
 _atom_site_fract_y
 _atom_site_fract_z
 _atom_site_occupancy
  Si  Si0  1  0.16067672  0.51520105  0.20224298  1
  Si  Si1  1  0.70056854  0.09075813  0.81437952  1
  Si  Si2  1  0.14506751  0.60522603  0.95317275  1
  Si  Si3  1  0.97341128  0.75329228  0.09008935  1
  Si  Si4  1  0.13599416  0.79206385  0.28300336  1
  Si  Si5  1  0.90945320  0.91348404  0.71250620  1
  Si  Si6  1  0.27790880  0.77112436  0.63209625  1
  Si  Si7  1  0.17590117  0.38842844  0.54248296  1
  Si  Si8  1  0.08121457  0.88626329  0.52352302  1
  Si  Si9  1  0.09431091  0.05524942  0.83404263  1
  Si  Si10  1  0.35217165  0.49290647  0.36606570  1
  Si  Si11  1  0.33764840  0.10637523  0.92760684  1
  Si  Si12  1  0.52338719  0.05779105  0.01599108  1
  Si  Si13  1  0.74542116  0.73077791  0.60312509  1
  Si  Si14  1  0.78114898  0.50548857  0.44164163  1
  Si  Si15  1  0.28965855  0.31920011  0.76455451  1
  Si  Si16  1  0.89665395  0.25693721  0.89007882  1
  Si  Si17  1  0.36623178  0.58431516  0.81637430  1
  Si  Si18  1  0.62138271  0.69434450  0.82924890  1
  Si  Si19  1  0.62437316  0.91001933  0.42249954  1
  Si  Si20  1  0.56864315  0.31056843  0.42221248  1
  Si  Si21  1  0.05733829  0.42818229  0.77323016  1
  Si  Si22  1  0.26244769  0.02138192  0.63501322  1
  Si  Si23  1  0.52369879  0.11045700  0.59846242  1
  Si  Si24  1  0.84249676  0.28411412  0.16063315  1
  Si  Si25  1  0.79788203  0.56932038  0.19144467  1
  Si  Si26  1  0.38761441  0.77121735  0.37908298  1
  Si  Si27  1  0.73470193  0.72468486  0.00015440  1
  Si  Si28  1  0.64840428  0.10224056  0.24368881  1
  Si  Si29  1  0.99861136  0.35500863  0.35704094  1
  O  O30  1  0.28385585  0.63212466  0.92342964  1
  O  O31  1  0.68111358  0.40068831  0.43838073  1
  O  O32  1  0.74602290  0.17533964  0.16767498  1
  O  O33  1  0.35757955  0.78099379  0.51600358  1
  O  O34  1  0.93030523  0.37455245  0.81291210  1
  O  O35  1  0.18802364  0.98654518  0.51575798  1
  O  O36  1  0.25134287  0.48844666  0.46954061  1
  O  O37  1  0.69932597  0.64452931  0.11381445  1
  O  O38  1  0.85076533  0.80940597  0.03102469  1
  O  O39  1  0.13449356  0.77225967  0.60063863  1
  O  O40  1  0.07696389  0.55640757  0.83731954  1
  O  O41  1  0.05622174  0.83225636  0.39455175  1
  O  O42  1  0.74479099  0.63106130  0.88520399  1
  O  O43  1  0.64627361  0.06012981  0.94171638  1
  O  O44  1  0.19858041  0.06185143  0.93677442  1
  O  O45  1  0.15856818  0.33387241  0.82289517  1
  O  O46  1  0.77001703  0.59332386  0.32814753  1
  O  O47  1  0.79663499  0.99418717  0.75909898  1
  O  O48  1  0.90863344  0.43474933  0.43751796  1
  O  O49  1  0.99110371  0.14961088  0.86674962  1
  O  O50  1  0.42439234  0.98322420  0.93278152  1
  O  O51  1  0.92600123  0.62961951  0.15452620  1
  O  O52  1  0.42395493  0.17302652  0.02830854  1
  O  O53  1  0.38047615  0.09455041  0.60428247  1
  O  O54  1  0.50369053  0.61522457  0.84269548  1
  O  O55  1  0.51327375  0.84014263  0.35744462  1
  O  O56  1  0.05677033  0.43675825  0.25802216  1
  O  O57  1  0.62307633  0.79924542  0.93657053  1
  O  O58  1  0.56218875  0.03100645  0.15025045  1
  O  O59  1  0.96482431  0.94936672  0.58430863  1
  O  O60  1  0.92822390  0.25555996  0.27576735  1
  O  O61  1  0.02103873  0.92828037  0.80757269  1
  O  O62  1  0.04914690  0.84300654  0.17711664  1
  O  O63  1  0.27680235  0.83181849  0.30145689  1
  O  O64  1  0.57293658  0.00222837  0.51847862  1
  O  O65  1  0.27160924  0.31288394  0.62241319  1
  O  O66  1  0.45412239  0.39351707  0.39102124  1
  O  O67  1  0.36485476  0.43932440  0.79778239  1
  O  O68  1  0.35152089  0.19941725  0.81798386  1
  O  O69  1  0.77090943  0.59378995  0.55538052  1
  O  O70  1  0.28961128  0.45927936  0.24091240  1
  O  O71  1  0.10161217  0.30475990  0.44727631  1
  O  O72  1  0.06928442  0.72370811  0.98947343  1
  O  O73  1  0.63231338  0.73169355  0.69320300  1
  O  O74  1  0.89957011  0.27916330  0.03093899  1
  O  O75  1  0.40718981  0.62755066  0.35387345  1
  O  O76  1  0.85830608  0.77818623  0.68349999  1
  O  O77  1  0.31685015  0.65073827  0.69963474  1
  O  O78  1  0.79139594  0.42334248  0.17150912  1
  O  O79  1  0.69638030  0.99188173  0.32777910  1
  O  O80  1  0.16371368  0.09151925  0.71482184  1
  O  O81  1  0.76762001  0.21846255  0.83713021  1
  O  O82  1  0.55101918  0.24215933  0.54491094  1
  O  O83  1  0.58360564  0.20707106  0.32167510  1
  O  O84  1  0.71329600  0.81665121  0.49169213  1
  O  O85  1  0.30229625  0.89712788  0.70431652  1
  O  O86  1  0.58964636  0.10450003  0.72423039  1
  O  O87  1  0.14641136  0.51132453  0.06186999  1
  O  O88  1  0.14853129  0.64845835  0.26031577  1
  O  O89  1  0.07852926  0.44644347  0.63363125  1
