# generated using pymatgen
data_VO2
_symmetry_space_group_name_H-M   'P 1'
_cell_length_a   10.23050119
_cell_length_b   11.78252244
_cell_length_c   11.37423135
_cell_angle_alpha   90.11215288
_cell_angle_beta   85.77241120
_cell_angle_gamma   93.17549185
_symmetry_Int_Tables_number   1
_chemical_formula_structural   VO2
_chemical_formula_sum   'V34 O68'
_cell_volume   1365.22935937
_cell_formula_units_Z   34
loop_
 _symmetry_equiv_pos_site_id
 _symmetry_equiv_pos_as_xyz
  1  'x, y, z'
loop_
 _atom_site_type_symbol
 _atom_site_label
 _atom_site_symmetry_multiplicity
 _atom_site_fract_x
 _atom_site_fract_y
 _atom_site_fract_z
 _atom_site_occupancy
  V  V0  1  0.99253313  0.57738140  0.84805421  1
  V  V1  1  0.69118955  0.74726504  0.10298903  1
  V  V2  1  0.59499521  0.20475001  0.86674985  1
  V  V3  1  0.63625913  0.98247215  0.27984611  1
  V  V4  1  0.81840924  0.44036361  0.09736359  1
  V  V5  1  0.96759799  0.28166404  0.92944480  1
  V  V6  1  0.26985597  0.55107756  0.19368473  1
  V  V7  1  0.41301009  0.58048798  0.47089073  1
  V  V8  1  0.82128916  0.36153237  0.68867049  1
  V  V9  1  0.78537206  0.81019519  0.80028768  1
  V  V10  1  0.09518269  0.89452817  0.61159735  1
  V  V11  1  0.31878566  0.27271376  0.22437462  1
  V  V12  1  0.80074997  0.90940817  0.53177879  1
  V  V13  1  0.96166893  0.65829255  0.23878477  1
  V  V14  1  0.74517114  0.49583470  0.41948965  1
  V  V15  1  0.59125722  0.03025185  0.65161616  1
  V  V16  1  0.07214724  0.84126485  0.90467930  1
  V  V17  1  0.42458734  0.88390099  0.49788658  1
  V  V18  1  0.15776737  0.09672020  0.01510062  1
  V  V19  1  0.04511169  0.41755153  0.30938440  1
  V  V20  1  0.95544999  0.93663086  0.30252015  1
  V  V21  1  0.50645580  0.26641753  0.48523672  1
  V  V22  1  0.29706369  0.49019960  0.69063591  1
  V  V23  1  0.53382371  0.44002735  0.90880615  1
  V  V24  1  0.79738297  0.11806226  0.11750563  1
  V  V25  1  0.06460679  0.47995350  0.56030787  1
  V  V26  1  0.31692514  0.59297890  0.92450202  1
  V  V27  1  0.31164747  0.08618782  0.72235744  1
  V  V28  1  0.62049425  0.59518400  0.65179274  1
  V  V29  1  0.90297640  0.04037781  0.74888304  1
  V  V30  1  0.54517342  0.48740105  0.16843559  1
  V  V31  1  0.62180366  0.97636483  0.95226087  1
  V  V32  1  0.94593557  0.17265977  0.45610819  1
  V  V33  1  0.24491932  0.29703894  0.52195506  1
  O  O34  1  0.78688680  0.95175945  0.36699419  1
  O  O35  1  0.37678899  0.45213127  0.81804010  1
  O  O36  1  0.14358069  0.93726247  0.00437679  1
  O  O37  1  0.12707443  0.81616170  0.73502681  1
  O  O38  1  0.84283082  0.06305000  0.57526477  1
  O  O39  1  0.95126729  0.49529533  0.18267402  1
  O  O40  1  0.89975013  0.88145317  0.66715447  1
  O  O41  1  0.03608101  0.06159576  0.33430182  1
  O  O42  1  0.39774774  0.70898510  0.88007033  1
  O  O43  1  0.62095169  0.90048328  0.54154692  1
  O  O44  1  0.60718519  0.54981443  0.80292425  1
  O  O45  1  0.69860752  0.97585712  0.78085281  1
  O  O46  1  0.68435390  0.81979436  0.96037174  1
  O  O47  1  0.12122444  0.58664394  0.29445766  1
  O  O48  1  0.94200040  0.48339214  0.44654045  1
  O  O49  1  0.40839778  0.54862368  0.29272298  1
  O  O50  1  0.84921369  0.65363550  0.35278650  1
  O  O51  1  0.97770046  0.14126899  0.00602034  1
  O  O52  1  0.23129170  0.89224731  0.51339565  1
  O  O53  1  0.95703165  0.48440346  0.70005739  1
  O  O54  1  0.47746932  0.34290811  0.18460098  1
  O  O55  1  0.49478957  0.14035929  0.76104881  1
  O  O56  1  0.35653426  0.24548368  0.37930711  1
  O  O57  1  0.73117401  0.48176600  0.60878675  1
  O  O58  1  0.96168873  0.28322161  0.32886457  1
  O  O59  1  0.88544510  0.99997094  0.15839218  1
  O  O60  1  0.20407578  0.39305143  0.20028582  1
  O  O61  1  0.24044251  0.11290446  0.85965299  1
  O  O62  1  0.67596547  0.33552760  0.79861128  1
  O  O63  1  0.23358808  0.63381985  0.07632171  1
  O  O64  1  0.39457784  0.40562505  0.54427529  1
  O  O65  1  0.21986541  0.57422833  0.56024641  1
  O  O66  1  0.44054025  0.60462794  0.64718802  1
  O  O67  1  0.56680639  0.64746363  0.12067011  1
  O  O68  1  0.83737200  0.68274444  0.11327563  1
  O  O69  1  0.41127730  0.96534209  0.65080017  1
  O  O70  1  0.63508311  0.35557314  0.43450868  1
  O  O71  1  0.63905367  0.02186781  0.11803928  1
  O  O72  1  0.16102628  0.37635832  0.65095154  1
  O  O73  1  0.48476173  0.29090580  0.95045695  1
  O  O74  1  0.58246746  0.14598700  0.53554113  1
  O  O75  1  0.11269815  0.02983079  0.67596377  1
  O  O76  1  0.73412614  0.14402150  0.25911069  1
  O  O77  1  0.92192559  0.92331993  0.87266366  1
  O  O78  1  0.05293015  0.70265642  0.95527046  1
  O  O79  1  0.32921493  0.19276919  0.60257161  1
  O  O80  1  0.87155724  0.66866003  0.81977227  1
  O  O81  1  0.69667705  0.72838402  0.66923275  1
  O  O82  1  0.60410733  0.59031835  0.47780076  1
  O  O83  1  0.84167574  0.28543671  0.07992697  1
  O  O84  1  0.71154656  0.13082848  0.95356062  1
  O  O85  1  0.41905635  0.74819649  0.45203891  1
  O  O86  1  0.86042799  0.28518846  0.56461261  1
  O  O87  1  0.65613928  0.83387429  0.22202338  1
  O  O88  1  0.46444649  0.98644168  0.94609784  1
  O  O89  1  0.96939936  0.87541252  0.46468642  1
  O  O90  1  0.17455248  0.56388890  0.81275688  1
  O  O91  1  0.70035038  0.47656775  0.24528443  1
  O  O92  1  0.16235472  0.39813294  0.43006167  1
  O  O93  1  0.25061443  0.16253902  0.13970306  1
  O  O94  1  0.09129435  0.18863791  0.51264025  1
  O  O95  1  0.92176977  0.44295910  0.94083015  1
  O  O96  1  0.12559727  0.31042771  0.92042938  1
  O  O97  1  0.41757858  0.50092357  0.03141808  1
  O  O98  1  0.66489804  0.46129728  0.02691717  1
  O  O99  1  0.02664991  0.81931220  0.23695154  1
  O  O100  1  0.91333910  0.22762884  0.79014633  1
  O  O101  1  0.48497207  0.97606954  0.36000509  1
