# generated using pymatgen
data_GaN
_symmetry_space_group_name_H-M   'P 1'
_cell_length_a   12.40237779
_cell_length_b   11.10599998
_cell_length_c   12.27553278
_cell_angle_alpha   91.47822497
_cell_angle_beta   89.00671075
_cell_angle_gamma   83.08056754
_symmetry_Int_Tables_number   1
_chemical_formula_structural   GaN
_chemical_formula_sum   'Ga50 N50'
_cell_volume   1677.61193728
_cell_formula_units_Z   50
loop_
 _symmetry_equiv_pos_site_id
 _symmetry_equiv_pos_as_xyz
  1  'x, y, z'
loop_
 _atom_site_type_symbol
 _atom_site_label
 _atom_site_symmetry_multiplicity
 _atom_site_fract_x
 _atom_site_fract_y
 _atom_site_fract_z
 _atom_site_occupancy
  Ga  Ga0  1  0.71322289  0.69076182  0.58880452  1
  Ga  Ga1  1  0.25963141  0.34197363  0.30185855  1
  Ga  Ga2  1  0.83310963  0.39053561  0.84619868  1
  Ga  Ga3  1  0.84683782  0.56233110  0.38840160  1
  Ga  Ga4  1  0.51276634  0.31942288  0.15797245  1
  Ga  Ga5  1  0.44586385  0.69317876  0.59125702  1
  Ga  Ga6  1  0.70419062  0.94190535  0.84889087  1
  Ga  Ga7  1  0.20560880  0.62557512  0.54798305  1
  Ga  Ga8  1  0.78256143  0.38697360  0.13890622  1
  Ga  Ga9  1  0.92450625  0.55458644  0.94231767  1
  Ga  Ga10  1  0.88846309  0.84483434  0.88987689  1
  Ga  Ga11  1  0.07156617  0.90281474  0.04889740  1
  Ga  Ga12  1  0.56236962  0.53489802  0.77829504  1
  Ga  Ga13  1  0.61789511  0.33375325  0.93955465  1
  Ga  Ga14  1  0.06241048  0.24676018  0.60153111  1
  Ga  Ga15  1  0.44631261  0.69909338  0.03678963  1
  Ga  Ga16  1  0.79265602  0.06304106  0.32105453  1
  Ga  Ga17  1  0.66641649  0.55890848  0.00880368  1
  Ga  Ga18  1  0.92824227  0.55727612  0.17240007  1
  Ga  Ga19  1  0.97992181  0.13975295  0.86820248  1
  Ga  Ga20  1  0.00348808  0.00674586  0.23270584  1
  Ga  Ga21  1  0.33538103  0.49807657  0.08577873  1
  Ga  Ga22  1  0.97265011  0.28774509  0.29863777  1
  Ga  Ga23  1  0.43890589  0.62859159  0.24271092  1
  Ga  Ga24  1  0.29239237  0.62592978  0.79840603  1
  Ga  Ga25  1  0.39118574  0.11323463  0.31832923  1
  Ga  Ga26  1  0.17926361  0.12913846  0.18684523  1
  Ga  Ga27  1  0.25285549  0.58013633  0.34136186  1
  Ga  Ga28  1  0.90695785  0.69345054  0.67896099  1
  Ga  Ga29  1  0.70548462  0.15562496  0.83309055  1
  Ga  Ga30  1  0.14889140  0.41302141  0.02227452  1
  Ga  Ga31  1  0.59251063  0.70033253  0.35538372  1
  Ga  Ga32  1  0.27025844  0.79171631  0.95918541  1
  Ga  Ga33  1  0.09881374  0.59204910  0.78148313  1
  Ga  Ga34  1  0.56161881  0.93814250  0.30231553  1
  Ga  Ga35  1  0.14995267  0.11604792  0.98560766  1
  Ga  Ga36  1  0.68183360  0.90257052  0.50165616  1
  Ga  Ga37  1  0.64516270  0.83616869  0.09063213  1
  Ga  Ga38  1  0.37434118  0.77907951  0.41387945  1
  Ga  Ga39  1  0.03211093  0.75705957  0.31841452  1
  Ga  Ga40  1  0.82314885  0.04712988  0.05803414  1
  Ga  Ga41  1  0.81648519  0.80674897  0.18498249  1
  Ga  Ga42  1  0.20158009  0.17450138  0.45311343  1
  Ga  Ga43  1  0.07486264  0.37044131  0.82758420  1
  Ga  Ga44  1  0.38505339  0.87551710  0.19400858  1
  Ga  Ga45  1  0.13946156  0.67391098  0.09674269  1
  Ga  Ga46  1  0.00492261  0.06242978  0.46959281  1
  Ga  Ga47  1  0.21632991  0.94433677  0.38812088  1
  Ga  Ga48  1  0.00563500  0.48066293  0.52798567  1
  Ga  Ga49  1  0.59895799  0.77881557  0.82383339  1
  N  N50  1  0.52211390  0.42317109  0.41315936  1
  N  N51  1  0.86029603  0.41422473  0.66522603  1
  N  N52  1  0.72517882  0.21026930  0.56837116  1
  N  N53  1  0.05090766  0.22619008  0.75248727  1
  N  N54  1  0.05603144  0.61434368  0.62396879  1
  N  N55  1  0.95308164  0.68420642  0.83602790  1
  N  N56  1  0.03677267  0.55193813  0.05677534  1
  N  N57  1  0.57816074  0.67329282  0.68894263  1
  N  N58  1  0.41676685  0.01143825  0.59444590  1
  N  N59  1  0.44190339  0.52775017  0.96494568  1
  N  N60  1  0.87461997  0.43183224  0.26636499  1
  N  N61  1  0.59312492  0.72168492  0.98105332  1
  N  N62  1  0.29838246  0.21542773  0.72404753  1
  N  N63  1  0.67835202  0.99400631  0.01722341  1
  N  N64  1  0.41679003  0.02519054  0.83983478  1
  N  N65  1  0.30709401  0.30647718  0.76102199  1
  N  N66  1  0.59256176  0.08159837  0.06140661  1
  N  N67  1  0.90915668  0.90056601  0.65932106  1
  N  N68  1  0.12892107  0.24773536  0.30995576  1
  N  N69  1  0.81348528  0.53917951  0.06060922  1
  N  N70  1  0.33964084  0.20392722  0.97993635  1
  N  N71  1  0.41656265  0.24490548  0.99728062  1
  N  N72  1  0.53485150  0.36877381  0.66298853  1
  N  N73  1  0.89777345  0.69435457  0.27958336  1
  N  N74  1  0.20757481  0.91352159  0.70069005  1
  N  N75  1  0.14367474  0.65373986  0.25222971  1
  N  N76  1  0.70525666  0.62665698  0.44197498  1
  N  N77  1  0.67470291  0.00766725  0.38574008  1
  N  N78  1  0.12160925  0.95164470  0.68726969  1
  N  N79  1  0.95083770  0.19691756  0.15517571  1
  N  N80  1  0.87762661  0.96177666  0.59015157  1
  N  N81  1  0.94778599  0.98130001  0.95819777  1
  N  N82  1  0.49805391  0.04416471  0.60262651  1
  N  N83  1  0.91703625  0.14182752  0.35448865  1
  N  N84  1  0.28233273  0.00561249  0.24960830  1
  N  N85  1  0.05767433  0.91467786  0.37048851  1
  N  N86  1  0.42302486  0.53845011  0.85689250  1
  N  N87  1  0.86478545  0.21582462  0.10579579  1
  N  N88  1  0.79544914  0.47500199  0.61877529  1
  N  N89  1  0.83364994  0.22156558  0.86409392  1
  N  N90  1  0.85543061  0.96976173  0.19780838  1
  N  N91  1  0.56116705  0.35215217  0.35367860  1
  N  N92  1  0.74019028  0.26761089  0.49780939  1
  N  N93  1  0.19797035  0.94683950  0.97053875  1
  N  N94  1  0.63286091  0.40419022  0.08931553  1
  N  N95  1  0.32222987  0.63022355  0.64585055  1
  N  N96  1  0.43722843  0.92507776  0.84971016  1
  N  N97  1  0.62280196  0.15795768  0.12570174  1
  N  N98  1  0.48065639  0.31994276  0.61034185  1
  N  N99  1  0.67855827  0.46950797  0.86485068  1
