# generated using pymatgen
data_Ga2O3
_symmetry_space_group_name_H-M   'P 1'
_cell_length_a   10.28086423
_cell_length_b   9.78721661
_cell_length_c   10.44392269
_cell_angle_alpha   90.83470497
_cell_angle_beta   87.69922745
_cell_angle_gamma   89.18860580
_symmetry_Int_Tables_number   1
_chemical_formula_structural   Ga2O3
_chemical_formula_sum   'Ga32 O48'
_cell_volume   1049.80546665
_cell_formula_units_Z   16
loop_
 _symmetry_equiv_pos_site_id
 _symmetry_equiv_pos_as_xyz
  1  'x, y, z'
loop_
 _atom_site_type_symbol
 _atom_site_label
 _atom_site_symmetry_multiplicity
 _atom_site_fract_x
 _atom_site_fract_y
 _atom_site_fract_z
 _atom_site_occupancy
  Ga  Ga0  1  0.24973500  0.77328100  0.07201900  1
  Ga  Ga1  1  0.80418500  0.29861800  0.78501500  1
  Ga  Ga2  1  0.45346300  0.86842400  0.26060400  1
  Ga  Ga3  1  0.19296800  0.16960700  0.92653600  1
  Ga  Ga4  1  0.29216900  0.61909100  0.74353900  1
  Ga  Ga5  1  0.08404500  0.37120800  0.60714900  1
  Ga  Ga6  1  0.75941600  0.57594000  0.89142300  1
  Ga  Ga7  1  0.96356900  0.77776400  0.25883500  1
  Ga  Ga8  1  0.97761300  0.02893800  0.73119800  1
  Ga  Ga9  1  0.69588800  0.01972100  0.22690100  1
  Ga  Ga10  1  0.63256500  0.06780300  0.69967700  1
  Ga  Ga11  1  0.24664300  0.08653300  0.18417800  1
  Ga  Ga12  1  0.89344200  0.44169000  0.34058700  1
  Ga  Ga13  1  0.66032300  0.46176500  0.57839000  1
  Ga  Ga14  1  0.62968100  0.27816500  0.36536700  1
  Ga  Ga15  1  0.12525100  0.92018200  0.44140900  1
  Ga  Ga16  1  0.28361300  0.10303500  0.66090600  1
  Ga  Ga17  1  0.59345100  0.35924000  0.06113400  1
  Ga  Ga18  1  0.27920600  0.47176100  0.99423300  1
  Ga  Ga19  1  0.02154700  0.73493200  0.92797100  1
  Ga  Ga20  1  0.48692600  0.01046900  0.97819700  1
  Ga  Ga21  1  0.47630200  0.31067300  0.82001800  1
  Ga  Ga22  1  0.16641900  0.57634500  0.44498600  1
  Ga  Ga23  1  0.43499200  0.86630400  0.56878600  1
  Ga  Ga24  1  0.96167800  0.40157500  0.02329600  1
  Ga  Ga25  1  0.56071400  0.71617800  0.03326400  1
  Ga  Ga26  1  0.94530300  0.12908400  0.18769400  1
  Ga  Ga27  1  0.34384100  0.30651800  0.43252500  1
  Ga  Ga28  1  0.78112900  0.94520800  0.92517900  1
  Ga  Ga29  1  0.67581100  0.70772700  0.36537000  1
  Ga  Ga30  1  0.42021600  0.51372600  0.22547000  1
  Ga  Ga31  1  0.84355500  0.00205300  0.45237600  1
  O  O32  1  0.19352100  0.67879100  0.89360700  1
  O  O33  1  0.17150800  0.54610500  0.62637800  1
  O  O34  1  0.60318700  0.40662300  0.23309400  1
  O  O35  1  0.75872400  0.48957600  0.73018000  1
  O  O36  1  0.41041100  0.72498400  0.67139800  1
  O  O37  1  0.56663300  0.93153400  0.12775700  1
  O  O38  1  0.50907400  0.34221600  0.49583300  1
  O  O39  1  0.61201500  0.96621800  0.85349800  1
  O  O40  1  0.93274500  0.57278400  0.94606300  1
  O  O41  1  0.93768900  0.86926200  0.84092000  1
  O  O42  1  0.71587400  0.97765700  0.57020500  1
  O  O43  1  0.09581900  0.11421300  0.08743400  1
  O  O44  1  0.82029200  0.09841200  0.80079200  1
  O  O45  1  0.78043800  0.86390200  0.31770900  1
  O  O46  1  0.72627000  0.75673300  0.96406700  1
  O  O47  1  0.76692200  0.36716200  0.45173400  1
  O  O48  1  0.09630200  0.73605500  0.38954200  1
  O  O49  1  0.14366500  0.05673800  0.78577300  1
  O  O50  1  0.22774300  0.25629800  0.56608600  1
  O  O51  1  0.32676100  0.21770300  0.80196800  1
  O  O52  1  0.31989700  0.49408600  0.37872500  1
  O  O53  1  0.28193200  0.89646000  0.22476200  1
  O  O54  1  0.01692700  0.96906400  0.30682900  1
  O  O55  1  0.98864400  0.98114000  0.55807400  1
  O  O56  1  0.05901600  0.78632400  0.09748700  1
  O  O57  1  0.60082800  0.53187700  0.97618000  1
  O  O58  1  0.81643500  0.03510800  0.08565700  1
  O  O59  1  0.94068700  0.33774600  0.19111400  1
  O  O60  1  0.41156600  0.80948400  0.98398900  1
  O  O61  1  0.55819100  0.21463300  0.95420200  1
  O  O62  1  0.32433700  0.07663100  0.01968800  1
  O  O63  1  0.96971300  0.27833000  0.70360600  1
  O  O64  1  0.40047200  0.38049200  0.09493500  1
  O  O65  1  0.27304800  0.59912800  0.13320700  1
  O  O66  1  0.03988800  0.43934800  0.44237200  1
  O  O67  1  0.52196300  0.84049800  0.41299300  1
  O  O68  1  0.45854400  0.03400400  0.65095700  1
  O  O69  1  0.26751900  0.95278100  0.53113800  1
  O  O70  1  0.80148800  0.34819900  0.96096200  1
  O  O71  1  0.37961000  0.48115600  0.83646200  1
  O  O72  1  0.13378400  0.35881900  0.96334300  1
  O  O73  1  0.85240700  0.61981400  0.28874100  1
  O  O74  1  0.62833000  0.26933500  0.71078000  1
  O  O75  1  0.64428400  0.63108300  0.51673700  1
  O  O76  1  0.56349100  0.11761600  0.30950600  1
  O  O77  1  0.27348800  0.19808900  0.31280700  1
  O  O78  1  0.52863600  0.67887300  0.21663300  1
  O  O79  1  0.81994700  0.13763200  0.32694200  1
