# generated using pymatgen
data_Al2O3
_symmetry_space_group_name_H-M   'P 1'
_cell_length_a   10.55620658
_cell_length_b   10.39215355
_cell_length_c   10.34260318
_cell_angle_alpha   91.54188151
_cell_angle_beta   89.05824396
_cell_angle_gamma   84.58213811
_symmetry_Int_Tables_number   1
_chemical_formula_structural   Al2O3
_chemical_formula_sum   'Al40 O60'
_cell_volume   1128.91833401
_cell_formula_units_Z   20
loop_
 _symmetry_equiv_pos_site_id
 _symmetry_equiv_pos_as_xyz
  1  'x, y, z'
loop_
 _atom_site_type_symbol
 _atom_site_label
 _atom_site_symmetry_multiplicity
 _atom_site_fract_x
 _atom_site_fract_y
 _atom_site_fract_z
 _atom_site_occupancy
  Al  Al0  1  0.97889400  0.24457400  0.60892100  1
  Al  Al1  1  0.59244000  0.63106600  0.37610800  1
  Al  Al2  1  0.21774500  0.26205400  0.18298200  1
  Al  Al3  1  0.25199300  0.50527300  0.97839400  1
  Al  Al4  1  0.57219800  0.63456200  0.63709500  1
  Al  Al5  1  0.91289800  0.34771000  0.13736900  1
  Al  Al6  1  0.20448100  0.99600700  0.92206200  1
  Al  Al7  1  0.17223600  0.68893100  0.25237700  1
  Al  Al8  1  0.93426600  0.86714000  0.86826700  1
  Al  Al9  1  0.85882300  0.71004100  0.33022900  1
  Al  Al10  1  0.00198300  0.47442500  0.76847200  1
  Al  Al11  1  0.48109300  0.87851800  0.45563400  1
  Al  Al12  1  0.99461600  0.62813900  0.06445600  1
  Al  Al13  1  0.29190700  0.54836900  0.44976200  1
  Al  Al14  1  0.79786000  0.04338800  0.25899900  1
  Al  Al15  1  0.59727400  0.31408500  0.67413800  1
  Al  Al16  1  0.38490600  0.86795000  0.75244200  1
  Al  Al17  1  0.49093500  0.96753600  0.02065800  1
  Al  Al18  1  0.37484600  0.45446200  0.67230500  1
  Al  Al19  1  0.69118700  0.17419500  0.05838900  1
  Al  Al20  1  0.43456500  0.45570200  0.19775100  1
  Al  Al21  1  0.18812100  0.97229800  0.59916500  1
  Al  Al22  1  0.23254500  0.24228600  0.47815300  1
  Al  Al23  1  0.63725500  0.80012900  0.20402600  1
  Al  Al24  1  0.77196200  0.46631800  0.94620100  1
  Al  Al25  1  0.03783400  0.72954700  0.55295300  1
  Al  Al26  1  0.79688000  0.82733000  0.63829300  1
  Al  Al27  1  0.35134400  0.15085800  0.73866400  1
  Al  Al28  1  0.00310800  0.06926700  0.09787600  1
  Al  Al29  1  0.66236000  0.09604400  0.52075200  1
  Al  Al30  1  0.96682100  0.98714500  0.44604600  1
  Al  Al31  1  0.48149300  0.14222600  0.28168400  1
  Al  Al32  1  0.11857400  0.29084300  0.91537200  1
  Al  Al33  1  0.26566800  0.99244000  0.22640700  1
  Al  Al34  1  0.63891500  0.03322900  0.78532000  1
  Al  Al35  1  0.83101400  0.53432300  0.59244000  1
  Al  Al36  1  0.96212500  0.39395000  0.38658300  1
  Al  Al37  1  0.48891000  0.57561700  0.88568000  1
  Al  Al38  1  0.71810000  0.74829800  0.91570700  1
  Al  Al39  1  0.68857000  0.37862200  0.39823100  1
  O  O40  1  0.99776000  0.23417900  0.02323200  1
  O  O41  1  0.58896500  0.08827200  0.95806100  1
  O  O42  1  0.42889500  0.01817400  0.17615700  1
  O  O43  1  0.88394500  0.80570000  0.47869400  1
  O  O44  1  0.75703700  0.89994800  0.83990400  1
  O  O45  1  0.10375700  0.87809100  0.49255500  1
  O  O46  1  0.73560400  0.32682300  0.02543400  1
  O  O47  1  0.06320300  0.35531100  0.23707300  1
  O  O48  1  0.22964800  0.84029300  0.24649300  1
  O  O49  1  0.68075100  0.95801000  0.62051500  1
  O  O50  1  0.29204000  0.39261600  0.52527400  1
  O  O51  1  0.23254100  0.15440000  0.86262500  1
  O  O52  1  0.74073500  0.67781700  0.68788200  1
  O  O53  1  0.04911700  0.30331500  0.75000400  1
  O  O54  1  0.80596600  0.07656700  0.43163500  1
  O  O55  1  0.04029800  0.95804600  0.95687100  1
  O  O56  1  0.39443400  0.29277300  0.22605300  1
  O  O57  1  0.32740800  0.53339400  0.82239900  1
  O  O58  1  0.98000400  0.02825700  0.27079200  1
  O  O59  1  0.43170400  0.28946000  0.71465500  1
  O  O60  1  0.26247500  0.12744300  0.59712700  1
  O  O61  1  0.09480200  0.48005300  0.90370300  1
  O  O62  1  0.41088000  0.58317900  0.56391000  1
  O  O63  1  0.85352900  0.35675900  0.55004300  1
  O  O64  1  0.14762700  0.64276500  0.43695700  1
  O  O65  1  0.60948400  0.83301900  0.03923200  1
  O  O66  1  0.16551400  0.62889400  0.07722500  1
  O  O67  1  0.01160800  0.07798700  0.58928700  1
  O  O68  1  0.99298700  0.70120700  0.22516900  1
  O  O69  1  0.18160300  0.08370400  0.10425900  1
  O  O70  1  0.99838200  0.57995900  0.64108300  1
  O  O71  1  0.83143300  0.07399500  0.08838000  1
  O  O72  1  0.52272500  0.04469300  0.42617000  1
  O  O73  1  0.31269300  0.55661800  0.28050300  1
  O  O74  1  0.56065500  0.47775400  0.73419400  1
  O  O75  1  0.07309400  0.29745300  0.47838500  1
  O  O76  1  0.89197200  0.73086500  0.95931700  1
  O  O77  1  0.89078200  0.50075700  0.06459200  1
  O  O78  1  0.65178700  0.59778100  0.94383900  1
  O  O79  1  0.21303400  0.91703700  0.76090600  1
  O  O80  1  0.71788800  0.65338500  0.26131300  1
  O  O81  1  0.56342900  0.47113000  0.30338000  1
  O  O82  1  0.95906700  0.82558900  0.70398300  1
  O  O83  1  0.61056900  0.27128500  0.50117400  1
  O  O84  1  0.23674100  0.34158400  0.03397000  1
  O  O85  1  0.46941300  0.01762800  0.75586000  1
  O  O86  1  0.25902100  0.14538900  0.33004100  1
  O  O87  1  0.76158500  0.88181500  0.26158900  1
  O  O88  1  0.82708800  0.33978200  0.29174400  1
  O  O89  1  0.67060300  0.52317500  0.50730100  1
  O  O90  1  0.49995800  0.78277300  0.30153700  1
  O  O91  1  0.89908800  0.55884400  0.42109500  1
  O  O92  1  0.42536700  0.51487600  0.03673200  1
  O  O93  1  0.68821700  0.17686700  0.71868600  1
  O  O94  1  0.35898800  0.91056300  0.94453700  1
  O  O95  1  0.58467100  0.74986800  0.51276800  1
  O  O96  1  0.35566800  0.88168800  0.57084800  1
  O  O97  1  0.83776700  0.46484700  0.79004000  1
  O  O98  1  0.64133700  0.15512200  0.22505800  1
  O  O99  1  0.49059200  0.72405400  0.78173200  1
