# generated using pymatgen
data_Ti3O
_symmetry_space_group_name_H-M   'P 1'
_cell_length_a   10.82670573
_cell_length_b   12.24498778
_cell_length_c   10.82386967
_cell_angle_alpha   86.19971258
_cell_angle_beta   94.05355613
_cell_angle_gamma   89.10226350
_symmetry_Int_Tables_number   1
_chemical_formula_structural   Ti3O
_chemical_formula_sum   'Ti75 O25'
_cell_volume   1427.91589458
_cell_formula_units_Z   25
loop_
 _symmetry_equiv_pos_site_id
 _symmetry_equiv_pos_as_xyz
  1  'x, y, z'
loop_
 _atom_site_type_symbol
 _atom_site_label
 _atom_site_symmetry_multiplicity
 _atom_site_fract_x
 _atom_site_fract_y
 _atom_site_fract_z
 _atom_site_occupancy
  Ti  Ti0  1  0.53096541  -0.00105317  0.52945669  1
  Ti  Ti1  1  0.06778181  0.11805982  0.65293917  1
  Ti  Ti2  1  0.83545728  0.51246448  0.55073149  1
  Ti  Ti3  1  0.70569233  0.80349027  0.86880771  1
  Ti  Ti4  1  0.59663927  0.45959528  0.65496641  1
  Ti  Ti5  1  0.84760722  0.46367540  0.10658653  1
  Ti  Ti6  1  0.47898978  0.79702150  0.40686861  1
  Ti  Ti7  1  0.68107654  0.20316256  0.85079095  1
  Ti  Ti8  1  0.45021689  0.79020711  0.65365004  1
  Ti  Ti9  1  0.41042719  0.85332533  0.90871210  1
  Ti  Ti10  1  0.05862958  0.60466132  0.75288744  1
  Ti  Ti11  1  0.94087537  0.72250185  0.54181752  1
  Ti  Ti12  1  0.31652507  -0.00236838  0.66712375  1
  Ti  Ti13  1  0.27915717  0.29478867  0.22449274  1
  Ti  Ti14  1  0.04025587  0.42713504  0.94276285  1
  Ti  Ti15  1  0.90539946  0.38137233  0.35344746  1
  Ti  Ti16  1  0.88690930  0.61421827  0.30705476  1
  Ti  Ti17  1  0.06040580  0.05673566  0.08414910  1
  Ti  Ti18  1  0.52766796  0.46079626  0.16363493  1
  Ti  Ti19  1  0.12842665  0.29586143  0.43712283  1
  Ti  Ti20  1  0.21649041  0.72665090  0.48992968  1
  Ti  Ti21  1  0.82091802  0.38834545  0.79756079  1
  Ti  Ti22  1  0.31435605  0.56816900  0.28482824  1
  Ti  Ti23  1  0.76429735  0.85071125  0.32900228  1
  Ti  Ti24  1  0.97581293  0.20446608  0.83685733  1
  Ti  Ti25  1  0.20929198  0.79583958  0.74119528  1
  Ti  Ti26  1  0.09158567  0.45512098  0.21465412  1
  Ti  Ti27  1  0.67886330  0.69877843  0.57423292  1
  Ti  Ti28  1  0.93146276  0.81634442  0.76206089  1
  Ti  Ti29  1  0.27885129  0.24363536  0.66959617  1
  Ti  Ti30  1  0.37151470  0.38860183  0.47995903  1
  Ti  Ti31  1  0.78070436  0.91083431  0.56101369  1
  Ti  Ti32  1  0.04899358  0.38519393  0.67525440  1
  Ti  Ti33  1  0.60331379  0.39548737  0.94421470  1
  Ti  Ti34  1  0.87087049  0.83604677  0.11180207  1
  Ti  Ti35  1  0.84184345  0.01155096  0.92646113  1
  Ti  Ti36  1  0.26871905  0.83271376  0.20448047  1
  Ti  Ti37  1  0.60880920  0.06428946  0.03238473  1
  Ti  Ti38  1  0.80082422  0.09436365  0.67477210  1
  Ti  Ti39  1  0.66959731  0.42517304  0.38786238  1
  Ti  Ti40  1  0.45882896  0.70136414  0.14154946  1
  Ti  Ti41  1  0.86610413  0.25663198  0.01177927  1
  Ti  Ti42  1  0.70778835  0.12154288  0.41529821  1
  Ti  Ti43  1  0.51870159  0.00442223  0.26978306  1
  Ti  Ti44  1  0.81630258  0.29099460  0.56613877  1
  Ti  Ti45  1  0.29495905  0.92594077  0.43047830  1
  Ti  Ti46  1  0.58539970  0.00711517  0.78593406  1
  Ti  Ti47  1  0.41914763  0.17420836  0.87416782  1
  Ti  Ti48  1  0.80271701  0.61486302  0.78050178  1
  Ti  Ti49  1  0.20633209  0.02238595  0.88001527  1
  Ti  Ti50  1  0.14831140  0.08918075  0.39337686  1
  Ti  Ti51  1  0.36266971  0.15211928  0.44138426  1
  Ti  Ti52  1  0.93676963  0.66963555  0.97417472  1
  Ti  Ti53  1  0.11725429  0.84506417  0.00017289  1
  Ti  Ti54  1  0.56515008  0.22853279  0.61545645  1
  Ti  Ti55  1  0.53967396  0.62532466  0.84510292  1
  Ti  Ti56  1  0.05711567  0.92120387  0.55432175  1
  Ti  Ti57  1  0.62976404  0.85255900  0.09531818  1
  Ti  Ti58  1  0.09084854  0.68995799  0.24172320  1
  Ti  Ti59  1  0.69269221  0.63302275  0.07139174  1
  Ti  Ti60  1  0.19247308  0.23136327  -0.02985437  1
  Ti  Ti61  1  0.92074787  0.10058877  0.43625555  1
  Ti  Ti62  1  0.71842920  0.28386524  0.18869928  1
  Ti  Ti63  1  0.20897305  0.62855464  0.03174180  1
  Ti  Ti64  1  0.00973813  0.23504489  0.21239472  1
  Ti  Ti65  1  0.64285482  0.64811207  0.32683495  1
  Ti  Ti66  1  0.81651691  0.05294415  0.19315785  1
  Ti  Ti67  1  0.03301472  0.90730734  0.30548084  1
  Ti  Ti68  1  0.30490820  0.06735795  0.13651320  1
  Ti  Ti69  1  0.48352448  0.24025102  0.09892654  1
  Ti  Ti70  1  0.31429816  0.56915033  0.70138284  1
  Ti  Ti71  1  0.34245256  0.41363962  0.96338475  1
  Ti  Ti72  1  0.52986556  0.25967803  0.35095710  1
  Ti  Ti73  1  0.13133478  0.51860295  0.46815097  1
  Ti  Ti74  1  0.45335820  0.59931907  0.49409737  1
  O  O75  1  0.23415974  0.42216758  0.34253314  1
  O  O76  1  0.64191109  0.55260757  0.49788514  1
  O  O77  1  0.67478848  0.50041673  0.82123654  1
  O  O78  1  0.13913470  0.96226348  0.71634380  1
  O  O79  1  0.76881364  0.93533874  0.75707689  1
  O  O80  1  0.40684871  0.16638722  0.25425173  1
  O  O81  1  0.05112424  0.66083148  0.42309168  1
  O  O82  1  0.21455800  0.38913912  0.58528424  1
  O  O83  1  0.09657489  0.72107229  0.87574618  1
  O  O84  1  0.57745420  0.81981710  0.26237535  1
  O  O85  1  0.40450564  0.01275893  0.84804086  1
  O  O86  1  0.19226613  0.37935056  0.06527996  1
  O  O87  1  0.59984234  0.84878319  0.56524914  1
  O  O88  1  0.99673547  0.07087327  0.26085137  1
  O  O89  1  0.36790828  0.70896846  0.80149056  1
  O  O90  1  0.02973137  0.54556898  0.06497046  1
  O  O91  1  0.30214291  0.76913474  0.03463726  1
  O  O92  1  0.91579281  0.84421408  0.93997174  1
  O  O93  1  0.30007684  0.30353481  0.83874407  1
  O  O94  1  0.64125777  0.13223035  0.21185719  1
  O  O95  1  0.36884842  0.55127381  0.09804256  1
  O  O96  1  0.42916052  0.12236886  0.62854822  1
  O  O97  1  0.56051571  0.73847854  0.97384048  1
  O  O98  1  0.92469127  0.77778377  0.27956829  1
  O  O99  1  0.43919865  0.48774847  0.83131730  1
