# generated using pymatgen
data_Ti
_symmetry_space_group_name_H-M   'P 1'
_cell_length_a   12.41144429
_cell_length_b   11.97372803
_cell_length_c   12.07919302
_cell_angle_alpha   97.35043006
_cell_angle_beta   99.09477057
_cell_angle_gamma   83.93840267
_symmetry_Int_Tables_number   1
_chemical_formula_structural   Ti
_chemical_formula_sum   Ti100
_cell_volume   1751.27708593
_cell_formula_units_Z   100
loop_
 _symmetry_equiv_pos_site_id
 _symmetry_equiv_pos_as_xyz
  1  'x, y, z'
loop_
 _atom_site_type_symbol
 _atom_site_label
 _atom_site_symmetry_multiplicity
 _atom_site_fract_x
 _atom_site_fract_y
 _atom_site_fract_z
 _atom_site_occupancy
  Ti  Ti0  1  0.73294481  0.87839094  0.78279730  1
  Ti  Ti1  1  0.76699882  0.96686670  0.32104496  1
  Ti  Ti2  1  0.50969064  0.71726993  0.32212538  1
  Ti  Ti3  1  0.15503665  0.23951416  0.35396523  1
  Ti  Ti4  1  0.42602647  0.45382721  0.63759051  1
  Ti  Ti5  1  0.68522214  0.69860899  0.20103260  1
  Ti  Ti6  1  0.91101002  0.61233791  0.71455554  1
  Ti  Ti7  1  0.10788056  0.74298630  0.83737890  1
  Ti  Ti8  1  0.38319513  0.44189259  0.05320553  1
  Ti  Ti9  1  0.92170932  0.96180464  0.16405372  1
  Ti  Ti10  1  0.15185931  0.18756125  0.77495888  1
  Ti  Ti11  1  0.87573588  0.55968480  0.28228159  1
  Ti  Ti12  1  0.69903888  0.79172881  0.41762637  1
  Ti  Ti13  1  0.67878333  0.55697012  0.37891730  1
  Ti  Ti14  1  0.18511966  0.94684718  0.44773808  1
  Ti  Ti15  1  0.79641288  0.18701602  0.44609416  1
  Ti  Ti16  1  0.15431591  0.03475018  0.21321698  1
  Ti  Ti17  1  0.46640379  0.27780687  0.20977141  1
  Ti  Ti18  1  0.63819584  0.52739758  0.93470791  1
  Ti  Ti19  1  0.96758621  0.08672352  0.61498660  1
  Ti  Ti20  1  0.67141252  0.34260480  0.28353526  1
  Ti  Ti21  1  0.73800195  0.68176890  0.85479589  1
  Ti  Ti22  1  0.50873559  0.94003792  0.44751377  1
  Ti  Ti23  1  0.94679236  0.01166164  0.96322120  1
  Ti  Ti24  1  0.93383624  0.87005248  0.70590915  1
  Ti  Ti25  1  0.55777526  0.81929465  0.61764219  1
  Ti  Ti26  1  0.58521049  0.12730919  0.36365583  1
  Ti  Ti27  1  0.35961870  0.11792322  0.22520673  1
  Ti  Ti28  1  0.48861700  0.38911229  0.84955754  1
  Ti  Ti29  1  0.26876820  0.55081914  0.48219311  1
  Ti  Ti30  1  0.14224220  0.97643025  0.88728550  1
  Ti  Ti31  1  0.96521814  0.89342840  0.47245010  1
  Ti  Ti32  1  0.77197307  0.41370851  0.12465031  1
  Ti  Ti33  1  0.60279214  0.29129100  0.04490779  1
  Ti  Ti34  1  0.28995516  0.35380446  0.81693141  1
  Ti  Ti35  1  0.20705273  0.57226713  0.98445328  1
  Ti  Ti36  1  0.45453829  0.49545533  0.31191036  1
  Ti  Ti37  1  0.31685239  0.73463307  0.65107412  1
  Ti  Ti38  1  0.57158473  0.03574338  0.67690096  1
  Ti  Ti39  1  0.36579198  0.96037116  0.61878059  1
  Ti  Ti40  1  0.88719439  0.77353042  0.25408893  1
  Ti  Ti41  1  0.19948025  0.14080947  0.57257495  1
  Ti  Ti42  1  0.74960849  0.14174313  0.19606348  1
  Ti  Ti43  1  0.50397232  0.60660755  0.52287266  1
  Ti  Ti44  1  0.53664799  0.74688663  0.01843745  1
  Ti  Ti45  1  0.82936546  0.62676638  0.05855513  1
  Ti  Ti46  1  0.79109090  0.08689891  0.75806028  1
  Ti  Ti47  1  0.36525634  0.70667187  0.11721478  1
  Ti  Ti48  1  0.51758249  0.15555906  0.86955410  1
  Ti  Ti49  1  0.66294159  0.47205128  0.70202284  1
  Ti  Ti50  1  0.05190577  0.40719899  0.72814073  1
  Ti  Ti51  1  0.71769263  0.05763138  0.96276892  1
  Ti  Ti52  1  0.36205117  0.33709941  0.40665182  1
  Ti  Ti53  1  0.32845282  0.04043358  0.83090035  1
  Ti  Ti54  1  0.54656998  0.07025177  0.08164982  1
  Ti  Ti55  1  0.12192648  0.82948020  0.25706234  1
  Ti  Ti56  1  0.09851255  0.46620395  0.32129655  1
  Ti  Ti57  1  0.89986670  0.35442064  0.33815864  1
  Ti  Ti58  1  0.68289686  0.28848249  0.82764092  1
  Ti  Ti59  1  0.15449885  0.83446086  0.05412780  1
  Ti  Ti60  1  0.15415172  0.93459775  0.66798546  1
  Ti  Ti61  1  0.51881781  0.66198780  0.76016505  1
  Ti  Ti62  1  0.81953289  0.44349911  0.53898576  1
  Ti  Ti63  1  0.52995954  0.90857014  0.86533923  1
  Ti  Ti64  1  0.33236056  0.76293031  0.43527525  1
  Ti  Ti65  1  0.84924684  0.24551561  0.99125140  1
  Ti  Ti66  1  0.22316973  0.36439873  0.57918959  1
  Ti  Ti67  1  0.39384765  0.59886581  0.90531026  1
  Ti  Ti68  1  0.33633918  0.90074610  0.27037922  1
  Ti  Ti69  1  0.97426760  0.19584115  0.18449476  1
  Ti  Ti70  1  0.01019540  0.57727349  0.91350383  1
  Ti  Ti71  1  0.22707625  0.55636926  0.73023454  1
  Ti  Ti72  1  0.63365645  0.21457751  0.59978377  1
  Ti  Ti73  1  0.41296285  0.21975896  0.66341265  1
  Ti  Ti74  1  0.56884003  0.52222545  0.14073819  1
  Ti  Ti75  1  0.74498673  0.97802633  0.55489777  1
  Ti  Ti76  1  0.02380274  0.50215229  0.51442284  1
  Ti  Ti77  1  0.85402527  0.44827881  0.87356992  1
  Ti  Ti78  1  0.04839558  0.63533436  0.14008146  1
  Ti  Ti79  1  0.31651749  0.81447889  0.87200057  1
  Ti  Ti80  1  0.08355043  0.71521793  0.61447002  1
  Ti  Ti81  1  0.35084601  0.95661443  0.04885847  1
  Ti  Ti82  1  0.72310251  0.86293954  0.06031194  1
  Ti  Ti83  1  0.99447915  0.08175793  0.36890077  1
  Ti  Ti84  1  0.88888795  0.69491327  0.49698291  1
  Ti  Ti85  1  0.13062633  0.16166184  0.04142005  1
  Ti  Ti86  1  0.35672732  0.11242150  0.44628388  1
  Ti  Ti87  1  0.25382765  0.60688614  0.25198932  1
  Ti  Ti88  1  0.09703505  0.69574522  0.39705791  1
  Ti  Ti89  1  0.12198420  0.35841877  0.94891197  1
  Ti  Ti90  1  0.33836282  0.21574143  0.00129193  1
  Ti  Ti91  1  0.55261944  0.90265269  0.22117823  1
  Ti  Ti92  1  0.71900315  0.66933757  0.61470235  1
  Ti  Ti93  1  0.92793497  0.79353244  0.97701320  1
  Ti  Ti94  1  0.23802885  0.34944864  0.17937826  1
  Ti  Ti95  1  0.98676515  0.40806969  0.10884298  1
  Ti  Ti96  1  0.00757181  0.27747243  0.52079958  1
  Ti  Ti97  1  0.84380484  0.28825787  0.68580584  1
  Ti  Ti98  1  0.59548995  0.38107856  0.47387402  1
  Ti  Ti99  1  0.98053670  0.18065964  0.85030533  1
