# generated using pymatgen
data_CrFeO3
_symmetry_space_group_name_H-M   'P 1'
_cell_length_a   10.07227948
_cell_length_b   10.27269981
_cell_length_c   10.03446453
_cell_angle_alpha   90.90018279
_cell_angle_beta   97.93299624
_cell_angle_gamma   87.42766253
_symmetry_Int_Tables_number   1
_chemical_formula_structural   CrFeO3
_chemical_formula_sum   'Cr16 Fe16 O48'
_cell_volume   1027.24135322
_cell_formula_units_Z   16
loop_
 _symmetry_equiv_pos_site_id
 _symmetry_equiv_pos_as_xyz
  1  'x, y, z'
loop_
 _atom_site_type_symbol
 _atom_site_label
 _atom_site_symmetry_multiplicity
 _atom_site_fract_x
 _atom_site_fract_y
 _atom_site_fract_z
 _atom_site_occupancy
  Cr  Cr0  1  0.72936300  0.36448600  0.82071800  1
  Cr  Cr1  1  0.48287100  0.17383500  0.03613300  1
  Cr  Cr2  1  0.61305100  0.15226700  0.39026200  1
  Cr  Cr3  1  0.18243500  0.04229800  0.07630400  1
  Cr  Cr4  1  0.91078200  0.38300100  0.62750300  1
  Cr  Cr5  1  0.30921100  0.64373100  0.54028000  1
  Cr  Cr6  1  0.12937500  0.84433500  0.77817800  1
  Cr  Cr7  1  0.38187400  0.29956600  0.72256800  1
  Cr  Cr8  1  0.13312300  0.80945300  0.32801600  1
  Cr  Cr9  1  0.56453200  0.46507100  0.56331800  1
  Cr  Cr10  1  0.38843200  0.96857600  0.84667500  1
  Cr  Cr11  1  0.15572500  0.49951800  0.71996200  1
  Cr  Cr12  1  0.73053000  0.68357900  0.63674900  1
  Cr  Cr13  1  0.89664100  0.13086300  0.02070000  1
  Cr  Cr14  1  0.92501300  0.02719300  0.29295400  1
  Cr  Cr15  1  0.61570000  0.97601900  0.60894000  1
  Fe  Fe16  1  0.17369600  0.32216300  0.97063800  1
  Fe  Fe17  1  0.76847700  0.59294700  0.08469800  1
  Fe  Fe18  1  0.03748000  0.27619500  0.40034200  1
  Fe  Fe19  1  0.74804100  0.84478800  0.37235400  1
  Fe  Fe20  1  0.55896900  0.59437900  0.30622200  1
  Fe  Fe21  1  0.64682500  0.87914800  0.94617200  1
  Fe  Fe22  1  0.03163000  0.58589600  0.97660700  1
  Fe  Fe23  1  0.32307800  0.70642100  0.04137400  1
  Fe  Fe24  1  0.92649000  0.58674000  0.42030900  1
  Fe  Fe25  1  0.74590900  0.32074400  0.17546300  1
  Fe  Fe26  1  0.12396700  0.53538500  0.22700000  1
  Fe  Fe27  1  0.40320900  0.87693200  0.32724200  1
  Fe  Fe28  1  0.33851900  0.35136200  0.43699600  1
  Fe  Fe29  1  0.93032400  0.83136900  0.03218100  1
  Fe  Fe30  1  0.56234500  0.63700000  0.83159600  1
  Fe  Fe31  1  0.10236900  0.08373800  0.62205700  1
  O  O32  1  0.12944800  0.62907200  0.40334800  1
  O  O33  1  0.30241900  0.81018900  0.45392400  1
  O  O34  1  0.66735200  0.50760700  0.93534100  1
  O  O35  1  0.66245800  0.13137000  0.58372800  1
  O  O36  1  0.87822400  0.37821000  0.42785500  1
  O  O37  1  0.74409400  0.48692400  0.66311100  1
  O  O38  1  0.59615600  0.22453500  0.20045400  1
  O  O39  1  0.01147200  0.75259200  0.88434200  1
  O  O40  1  0.05257200  0.16474700  0.96016400  1
  O  O41  1  0.53178600  0.32087800  0.43286900  1
  O  O42  1  0.93702700  0.50433200  0.14012300  1
  O  O43  1  0.72101400  0.73529800  0.82912500  1
  O  O44  1  0.30049600  0.46065200  0.59875400  1
  O  O45  1  0.46234800  0.75770900  0.92150000  1
  O  O46  1  0.54503100  0.93973800  0.75684500  1
  O  O47  1  0.17175400  0.36277500  0.31796000  1
  O  O48  1  0.71778800  0.64619500  0.42948000  1
  O  O49  1  0.24419400  0.96484600  0.69436300  1
  O  O50  1  0.90872200  0.20534000  0.20398100  1
  O  O51  1  0.20865800  0.68685600  0.70803200  1
  O  O52  1  0.00220200  0.95451500  0.69976400  1
  O  O53  1  0.41668000  0.15866000  0.84215900  1
  O  O54  1  0.53865400  0.97585800  0.41956900  1
  O  O55  1  0.98476000  0.54880800  0.61291400  1
  O  O56  1  0.75289400  0.26174000  0.98636600  1
  O  O57  1  0.06380700  0.09075000  0.42733600  1
  O  O58  1  0.84447900  0.26333500  0.72758300  1
  O  O59  1  0.23131900  0.90841700  0.94284300  1
  O  O60  1  0.07151200  0.72693400  0.15184700  1
  O  O61  1  0.30369400  0.18625300  0.07751500  1
  O  O62  1  0.66783500  0.49440700  0.19996500  1
  O  O63  1  0.28833000  0.39191700  0.83721500  1
  O  O64  1  0.07492100  0.27850800  0.60807500  1
  O  O65  1  0.54710700  0.36893700  0.72601900  1
  O  O66  1  0.75213700  0.03625000  0.33126200  1
  O  O67  1  0.24449900  0.94675400  0.23848000  1
  O  O68  1  0.00792500  0.98776800  0.12086300  1
  O  O69  1  0.74592800  0.85617300  0.57889100  1
  O  O70  1  0.53035700  0.64389600  0.63719600  1
  O  O71  1  0.75997700  0.77809100  0.10217000  1
  O  O72  1  0.80295800  0.98716800  0.95223500  1
  O  O73  1  0.94727500  0.84526900  0.35306900  1
  O  O74  1  0.42171200  0.54228500  0.41251100  1
  O  O75  1  0.02936700  0.44263000  0.84597700  1
  O  O76  1  0.22479700  0.53507000  0.07456700  1
  O  O77  1  0.33489900  0.21279200  0.56514100  1
  O  O78  1  0.51573600  0.99163900  0.02022900  1
  O  O79  1  0.45746600  0.73340900  0.21809700  1
