# generated using pymatgen
data_ZnS
_symmetry_space_group_name_H-M   'P 1'
_cell_length_a   13.39121605
_cell_length_b   12.57320940
_cell_length_c   14.11238179
_cell_angle_alpha   89.77132324
_cell_angle_beta   96.19970607
_cell_angle_gamma   88.48180535
_symmetry_Int_Tables_number   1
_chemical_formula_structural   ZnS
_chemical_formula_sum   'Zn50 S50'
_cell_volume   2361.32767904
_cell_formula_units_Z   50
loop_
 _symmetry_equiv_pos_site_id
 _symmetry_equiv_pos_as_xyz
  1  'x, y, z'
loop_
 _atom_site_type_symbol
 _atom_site_label
 _atom_site_symmetry_multiplicity
 _atom_site_fract_x
 _atom_site_fract_y
 _atom_site_fract_z
 _atom_site_occupancy
  Zn  Zn0  1  0.27093170  0.79035978  0.06901586  1
  Zn  Zn1  1  0.10907711  0.00311565  0.94909813  1
  Zn  Zn2  1  0.46176665  0.93403451  0.78736522  1
  Zn  Zn3  1  0.08976412  0.39270451  0.37072898  1
  Zn  Zn4  1  0.03155998  0.72095547  0.09230379  1
  Zn  Zn5  1  0.46051415  0.33140745  0.40635481  1
  Zn  Zn6  1  0.06498989  0.31749394  0.79495890  1
  Zn  Zn7  1  0.91187269  0.85165031  0.86181722  1
  Zn  Zn8  1  0.93089580  0.53726912  0.89954099  1
  Zn  Zn9  1  0.14565093  0.30128495  0.62990504  1
  Zn  Zn10  1  0.78474364  0.20166589  0.75419187  1
  Zn  Zn11  1  0.95471551  0.69703670  0.37200347  1
  Zn  Zn12  1  0.34867182  0.36170997  0.68035109  1
  Zn  Zn13  1  0.26390481  0.77156100  0.61366291  1
  Zn  Zn14  1  0.88509433  0.57235293  0.48529713  1
  Zn  Zn15  1  0.66865228  0.19633748  0.60790526  1
  Zn  Zn16  1  0.22530536  0.21887717  0.27590388  1
  Zn  Zn17  1  0.05739445  0.01597225  0.44850114  1
  Zn  Zn18  1  0.34890093  0.01843686  0.90353943  1
  Zn  Zn19  1  0.00574688  0.26719831  0.06480303  1
  Zn  Zn20  1  0.15182584  0.73663211  0.83251616  1
  Zn  Zn21  1  0.63758202  0.92398943  0.42775177  1
  Zn  Zn22  1  0.89990107  0.29476860  0.58372034  1
  Zn  Zn23  1  0.83530559  0.01963902  0.35957970  1
  Zn  Zn24  1  0.26524023  0.20430378  0.52921546  1
  Zn  Zn25  1  0.68837339  0.02164780  0.69346280  1
  Zn  Zn26  1  0.51171700  0.74585601  0.25906431  1
  Zn  Zn27  1  0.62240350  0.79585788  0.68066743  1
  Zn  Zn28  1  0.32364610  0.07487094  0.72957205  1
  Zn  Zn29  1  0.70166796  0.19401908  0.13447384  1
  Zn  Zn30  1  0.70561968  0.43214865  0.92356598  1
  Zn  Zn31  1  0.82312888  0.55079731  0.73420746  1
  Zn  Zn32  1  0.41229686  0.09302474  0.06258598  1
  Zn  Zn33  1  0.90283197  0.11650090  0.04724078  1
  Zn  Zn34  1  0.47871608  0.17872322  0.30667706  1
  Zn  Zn35  1  0.25905602  0.19330684  0.96992287  1
  Zn  Zn36  1  0.86571355  0.49251766  0.15319661  1
  Zn  Zn37  1  0.50008155  0.61803605  0.78697331  1
  Zn  Zn38  1  0.22553325  0.45830745  0.76895398  1
  Zn  Zn39  1  0.63492970  0.49811069  0.56646211  1
  Zn  Zn40  1  0.03052032  0.52680797  0.73627602  1
  Zn  Zn41  1  0.77321360  0.38533525  0.38028744  1
  Zn  Zn42  1  0.17619437  0.46531281  0.04338609  1
  Zn  Zn43  1  0.73402550  0.85888501  0.16173850  1
  Zn  Zn44  1  0.91585132  0.20314184  0.26867490  1
  Zn  Zn45  1  0.46060566  0.38040577  0.11609119  1
  Zn  Zn46  1  0.39266151  0.58207199  0.44704449  1
  Zn  Zn47  1  0.54580860  0.72660277  0.05277572  1
  Zn  Zn48  1  0.19953050  0.72387860  0.30838800  1
  Zn  Zn49  1  0.96508275  0.73465611  0.55989270  1
  S  S50  1  0.40928944  0.19370818  0.64061986  1
  S  S51  1  0.21808099  0.95884584  0.62172437  1
  S  S52  1  0.66495262  0.81355201  0.30912518  1
  S  S53  1  0.83065607  0.63690956  0.25102302  1
  S  S54  1  0.28213443  0.60698741  0.87280433  1
  S  S55  1  0.25931803  0.32717965  0.40305456  1
  S  S56  1  0.81600367  0.05189111  0.18473726  1
  S  S57  1  0.53633361  0.53188833  0.04107605  1
  S  S58  1  0.67771620  0.81024503  0.01401668  1
  S  S59  1  0.95208670  0.19537674  0.71701346  1
  S  S60  1  0.77330898  0.26223229  0.90581257  1
  S  S61  1  0.67901222  0.23388553  0.44884815  1
  S  S62  1  0.52729871  0.20113091  0.15114462  1
  S  S63  1  0.27519470  0.60945830  0.02100958  1
  S  S64  1  0.11344841  0.69065297  0.66931778  1
  S  S65  1  0.66492253  0.09688675  0.36411066  1
  S  S66  1  0.46533601  0.44672953  0.53826194  1
  S  S67  1  0.79413263  0.34067538  0.22332868  1
  S  S68  1  0.58343505  0.93302973  0.56895583  1
  S  S69  1  0.94841544  0.87688061  0.43132493  1
  S  S70  1  0.93807028  0.15072962  0.43066996  1
  S  S71  1  0.95273756  0.95926180  0.98502064  1
  S  S72  1  0.15458615  0.82219342  0.17684685  1
  S  S73  1  0.15051975  0.12028049  0.07916497  1
  S  S74  1  0.75378276  0.37282674  0.64734286  1
  S  S75  1  0.22768642  0.02392021  0.48370787  1
  S  S76  1  0.27556594  0.08437231  0.18619873  1
  S  S77  1  0.96028730  0.40373850  0.47229885  1
  S  S78  1  0.64719154  0.61170184  0.70339818  1
  S  S79  1  0.50685355  0.44614346  0.27231674  1
  S  S80  1  0.64754196  0.21703255  0.97412323  1
  S  S81  1  0.82871344  0.76277077  0.64814442  1
  S  S82  1  0.86916929  0.90966359  0.71108420  1
  S  S83  1  0.42349238  0.58887747  0.28584057  1
  S  S84  1  0.28983557  0.72562087  0.45458626  1
  S  S85  1  0.31053793  0.35137576  0.02739257  1
  S  S86  1  0.80670176  0.55171461  0.00075614  1
  S  S87  1  0.04227883  0.39209960  0.94827884  1
  S  S88  1  0.06129341  0.28463529  0.23370907  1
  S  S89  1  0.89795375  0.76797824  0.18954043  1
  S  S90  1  0.09534560  0.57075224  0.30006535  1
  S  S91  1  0.22862770  0.87915310  0.91944766  1
  S  S92  1  0.41640291  0.76072237  0.71449926  1
  S  S93  1  0.43364445  0.83397961  0.12755237  1
  S  S94  1  0.71578082  0.54450724  0.43559990  1
  S  S95  1  0.18457610  0.14804401  0.82202494  1
  S  S96  1  0.05161467  0.53784122  0.15473988  1
  S  S97  1  0.01132521  0.70352675  0.92131066  1
  S  S98  1  0.53555827  0.48193172  0.89817032  1
  S  S99  1  0.63336389  0.91649428  0.81024756  1
