# generated using pymatgen
data_TiO
_symmetry_space_group_name_H-M   'P 1'
_cell_length_a   10.79911345
_cell_length_b   10.42797597
_cell_length_c   10.72396859
_cell_angle_alpha   90.05656214
_cell_angle_beta   90.14973448
_cell_angle_gamma   86.45157479
_symmetry_Int_Tables_number   1
_chemical_formula_structural   TiO
_chemical_formula_sum   'Ti50 O50'
_cell_volume   1205.33736066
_cell_formula_units_Z   50
loop_
 _symmetry_equiv_pos_site_id
 _symmetry_equiv_pos_as_xyz
  1  'x, y, z'
loop_
 _atom_site_type_symbol
 _atom_site_label
 _atom_site_symmetry_multiplicity
 _atom_site_fract_x
 _atom_site_fract_y
 _atom_site_fract_z
 _atom_site_occupancy
  Ti  Ti0  1  0.63649100  0.11090700  0.11625300  1
  Ti  Ti1  1  0.62812100  0.85960400  0.52159100  1
  Ti  Ti2  1  0.77809200  0.35584200  0.54777800  1
  Ti  Ti3  1  0.07645700  0.02134000  0.01182900  1
  Ti  Ti4  1  0.21623500  0.81649000  0.16169400  1
  Ti  Ti5  1  0.44262200  0.53866800  0.93167100  1
  Ti  Ti6  1  0.61645200  0.39713600  0.09148400  1
  Ti  Ti7  1  0.18499000  0.05091300  0.36248300  1
  Ti  Ti8  1  0.97451400  0.99076500  0.25134000  1
  Ti  Ti9  1  0.44546900  0.55919300  0.53419500  1
  Ti  Ti10  1  0.56893600  0.95875700  0.78977000  1
  Ti  Ti11  1  0.59691500  0.18738600  0.58664900  1
  Ti  Ti12  1  0.84308000  0.03227700  0.82113000  1
  Ti  Ti13  1  0.07356900  0.85692500  0.49349800  1
  Ti  Ti14  1  0.40075800  0.24754300  0.14111800  1
  Ti  Ti15  1  0.29926400  0.42762400  0.69470000  1
  Ti  Ti16  1  0.83754500  0.68214300  0.40179200  1
  Ti  Ti17  1  0.62395400  0.75569600  0.96157100  1
  Ti  Ti18  1  0.21852700  0.68421900  0.92496100  1
  Ti  Ti19  1  0.23238900  0.69258200  0.66969100  1
  Ti  Ti20  1  0.81564300  0.42668800  0.29286500  1
  Ti  Ti21  1  0.24426600  0.51073600  0.13973600  1
  Ti  Ti22  1  0.67402800  0.24237000  0.87940600  1
  Ti  Ti23  1  0.01471700  0.60650200  0.59223700  1
  Ti  Ti24  1  0.27777600  0.92948600  0.80146800  1
  Ti  Ti25  1  0.60226300  0.48101600  0.72691100  1
  Ti  Ti26  1  0.86554700  0.28464000  0.05319700  1
  Ti  Ti27  1  0.37813100  0.20588300  0.84123900  1
  Ti  Ti28  1  0.42225400  0.88168900  0.02150800  1
  Ti  Ti29  1  0.50120500  0.09686500  0.36301500  1
  Ti  Ti30  1  0.56820500  0.86521800  0.23377600  1
  Ti  Ti31  1  0.54869200  0.36725600  0.36716600  1
  Ti  Ti32  1  0.46904800  0.74417700  0.72423100  1
  Ti  Ti33  1  0.00827600  0.82113400  0.75478400  1
  Ti  Ti34  1  0.16696900  0.39297500  0.92019700  1
  Ti  Ti35  1  0.33087100  0.21991000  0.52926300  1
  Ti  Ti36  1  0.91112000  0.31625600  0.79056800  1
  Ti  Ti37  1  0.03791900  0.27128200  0.27143700  1
  Ti  Ti38  1  0.02006700  0.69486700  0.23324300  1
  Ti  Ti39  1  0.74076300  0.64593400  0.15993400  1
  Ti  Ti40  1  0.05245700  0.30871500  0.56259300  1
  Ti  Ti41  1  0.47005300  0.62463400  0.17929500  1
  Ti  Ti42  1  0.30120100  0.70790700  0.37371000  1
  Ti  Ti43  1  0.81743900  0.90024700  0.04836000  1
  Ti  Ti44  1  0.36510400  0.93889200  0.54842200  1
  Ti  Ti45  1  0.86484900  0.07215800  0.52992900  1
  Ti  Ti46  1  0.14834100  0.16454500  0.75504300  1
  Ti  Ti47  1  0.77477600  0.61551800  0.62612500  1
  Ti  Ti48  1  0.18188000  0.49787600  0.41230200  1
  Ti  Ti49  1  0.74760900  0.16554600  0.32832900  1
  O  O50  1  0.37514800  0.74468500  0.54992700  1
  O  O51  1  0.13937800  0.45888200  0.58893100  1
  O  O52  1  0.17765400  0.55596500  0.79983700  1
  O  O53  1  0.90486800  0.68667900  0.72546100  1
  O  O54  1  0.16496900  0.00064300  0.18800500  1
  O  O55  1  0.44600800  0.25611500  0.68315400  1
  O  O56  1  0.49356900  0.90946800  0.40703800  1
  O  O57  1  0.02090500  0.03638200  0.44166800  1
  O  O58  1  0.24760300  0.30118600  0.06135300  1
  O  O59  1  0.60599300  0.92929500  0.06436300  1
  O  O60  1  0.42643600  0.45181900  0.11147600  1
  O  O61  1  0.67844700  0.09691800  0.73949400  1
  O  O62  1  0.99761700  0.16357900  0.12593300  1
  O  O63  1  0.59383900  0.65744700  0.60086700  1
  O  O64  1  0.90805400  0.29273800  0.40395300  1
  O  O65  1  0.51750900  0.21810500  0.99971900  1
  O  O66  1  0.91087200  0.45383800  0.64255600  1
  O  O67  1  0.72946000  0.33289800  0.72973700  1
  O  O68  1  0.23050600  0.88187600  0.97759400  1
  O  O69  1  0.69012900  0.75746000  0.31808700  1
  O  O70  1  0.57405900  0.63509400  0.83795500  1
  O  O71  1  0.79490400  0.00955500  0.20810000  1
  O  O72  1  0.78715200  0.45924400  0.11229200  1
  O  O73  1  0.13080000  0.66067800  0.08356900  1
  O  O74  1  0.46414400  0.57193800  0.35148000  1
  O  O75  1  0.99405400  0.57019400  0.38758400  1
  O  O76  1  0.96475300  0.90550900  0.92437600  1
  O  O77  1  0.15153400  0.41065300  0.25634900  1
  O  O78  1  0.77932300  0.11273800  0.98874900  1
  O  O79  1  0.35269200  0.39091200  0.86996000  1
  O  O80  1  0.72915200  0.88598000  0.87007400  1
  O  O81  1  0.42061000  0.02227900  0.88274500  1
  O  O82  1  0.15675400  0.68240300  0.48852200  1
  O  O83  1  0.39876700  0.80715700  0.20628100  1
  O  O84  1  0.88446400  0.73366800  0.11439000  1
  O  O85  1  0.76523900  0.52109400  0.45391700  1
  O  O86  1  0.58644000  0.39154600  0.54812400  1
  O  O87  1  0.34515700  0.40805600  0.50479500  1
  O  O88  1  0.94530300  0.82398700  0.35362600  1
  O  O89  1  0.28343700  0.07729400  0.65631600  1
  O  O90  1  0.40693100  0.26775000  0.32122900  1
  O  O91  1  0.90714800  0.94807600  0.65911900  1
  O  O92  1  0.98571200  0.37906800  0.94088400  1
  O  O93  1  0.44759000  0.06788900  0.18377200  1
  O  O94  1  0.91205200  0.21251900  0.62790400  1
  O  O95  1  0.69040300  0.03528400  0.47848400  1
  O  O96  1  0.15646700  0.88324800  0.65593400  1
  O  O97  1  0.59826900  0.41568100  0.90574200  1
  O  O98  1  0.16509600  0.22793900  0.43601600  1
  O  O99  1  0.99615700  0.13764800  0.84787800  1
