# generated using pymatgen
data_Si3N4
_symmetry_space_group_name_H-M   'P 1'
_cell_length_a   10.26112018
_cell_length_b   10.19211129
_cell_length_c   11.14124337
_cell_angle_alpha   88.52537781
_cell_angle_beta   90.55860415
_cell_angle_gamma   90.00351062
_symmetry_Int_Tables_number   1
_chemical_formula_structural   Si3N4
_chemical_formula_sum   'Si45 N60'
_cell_volume   1164.73758716
_cell_formula_units_Z   15
loop_
 _symmetry_equiv_pos_site_id
 _symmetry_equiv_pos_as_xyz
  1  'x, y, z'
loop_
 _atom_site_type_symbol
 _atom_site_label
 _atom_site_symmetry_multiplicity
 _atom_site_fract_x
 _atom_site_fract_y
 _atom_site_fract_z
 _atom_site_occupancy
  Si  Si0  1  0.88746100  0.80062600  0.47268900  1
  Si  Si1  1  0.23536400  0.14933700  0.50906900  1
  Si  Si2  1  0.01013600  0.40246700  0.81502600  1
  Si  Si3  1  0.38188800  0.43048500  0.80513900  1
  Si  Si4  1  0.24943800  0.92014200  0.89606500  1
  Si  Si5  1  0.09707100  0.70543500  0.56215500  1
  Si  Si6  1  0.42915600  0.89658200  0.24648200  1
  Si  Si7  1  0.76504100  0.38101100  0.70168600  1
  Si  Si8  1  0.57854100  0.72848200  0.60795900  1
  Si  Si9  1  0.28860900  0.15494700  0.25924500  1
  Si  Si10  1  0.63031500  0.32513000  0.95941000  1
  Si  Si11  1  0.71737000  0.11475600  0.79873400  1
  Si  Si12  1  0.81816500  0.74741200  0.00893700  1
  Si  Si13  1  0.74147500  0.88505100  0.81272600  1
  Si  Si14  1  0.13538600  0.49321900  0.36825400  1
  Si  Si15  1  0.08578900  0.23590300  0.03237700  1
  Si  Si16  1  0.16830400  0.62683400  0.91079100  1
  Si  Si17  1  0.00589500  0.21389400  0.35743400  1
  Si  Si18  1  0.39753800  0.36769400  0.35771300  1
  Si  Si19  1  0.86167500  0.04678400  0.56963500  1
  Si  Si20  1  0.59780000  0.00673000  0.64237400  1
  Si  Si21  1  0.60072600  0.45889000  0.19779600  1
  Si  Si22  1  0.50371700  0.66915700  0.09885000  1
  Si  Si23  1  0.02003600  0.29581000  0.56943600  1
  Si  Si24  1  0.62663800  0.48996500  0.46740300  1
  Si  Si25  1  0.56242300  0.17626700  0.19309800  1
  Si  Si26  1  0.01636000  0.51408400  0.12352000  1
  Si  Si27  1  0.21224300  0.74731300  0.10960700  1
  Si  Si28  1  0.34481900  0.55202000  0.54575100  1
  Si  Si29  1  0.95223100  0.71442500  0.22592300  1
  Si  Si30  1  0.30643300  0.44399800  0.13406600  1
  Si  Si31  1  0.89573700  0.64885600  0.75251900  1
  Si  Si32  1  0.19683200  0.19094000  0.78245800  1
  Si  Si33  1  0.88056700  0.03080200  0.07977100  1
  Si  Si34  1  0.64371200  0.99282100  0.39726200  1
  Si  Si35  1  0.35492500  0.70741100  0.73833300  1
  Si  Si36  1  0.75391400  0.28229000  0.39392500  1
  Si  Si37  1  0.83341800  0.29476100  0.13231000  1
  Si  Si38  1  0.67068200  0.72287100  0.32866500  1
  Si  Si39  1  0.37123400  0.89605100  0.50270000  1
  Si  Si40  1  0.37594600  0.18361600  0.98486800  1
  Si  Si41  1  0.14469600  0.89735700  0.33765700  1
  Si  Si42  1  0.13206100  0.93830600  0.67209200  1
  Si  Si43  1  0.48511200  0.94361900  0.88251000  1
  Si  Si44  1  0.61811400  0.58057400  0.84054200  1
  N  N45  1  0.51773000  0.98398500  0.50952500  1
  N  N46  1  0.33584000  0.26476700  0.84884200  1
  N  N47  1  0.44904100  0.51332800  0.09076300  1
  N  N48  1  0.52415300  0.64780600  0.73313300  1
  N  N49  1  0.17750700  0.76732300  0.68580300  1
  N  N50  1  0.65303500  0.14950100  0.33895000  1
  N  N51  1  0.76524000  0.53711500  0.77106400  1
  N  N52  1  0.62088200  0.84858800  0.92439400  1
  N  N53  1  0.91213000  0.18861000  0.49010800  1
  N  N54  1  0.31208100  0.88090500  0.35793800  1
  N  N55  1  0.26683300  0.44643900  0.28314400  1
  N  N56  1  0.85401900  0.76756300  0.85472500  1
  N  N57  1  0.76576300  0.14618900  0.09751300  1
  N  N58  1  0.38058500  0.78059700  0.13843300  1
  N  N59  1  0.58667600  0.87176300  0.30176900  1
  N  N60  1  0.70593400  0.39934400  0.08589900  1
  N  N61  1  0.97600100  0.97060900  0.64608000  1
  N  N62  1  0.36231700  0.01574200  0.97200000  1
  N  N63  1  0.64837200  0.66113700  0.48111000  1
  N  N64  1  0.18766600  0.58634300  0.48854600  1
  N  N65  1  0.16765800  0.78780200  0.96358500  1
  N  N66  1  0.37324700  0.84782100  0.81661000  1
  N  N67  1  0.02829300  0.56464100  0.83479400  1
  N  N68  1  0.34050400  0.44838300  0.66094400  1
  N  N69  1  0.03245500  0.08614900  0.06599700  1
  N  N70  1  0.13341600  0.08815900  0.33142700  1
  N  N71  1  0.70461400  0.37350500  0.55677900  1
  N  N72  1  0.83800300  0.73796600  0.33461300  1
  N  N73  1  0.84139000  0.87429000  0.09730100  1
  N  N74  1  0.73026400  0.11274800  0.64227200  1
  N  N75  1  0.40379900  0.73931900  0.57073400  1
  N  N76  1  0.08143000  0.34570600  0.43111800  1
  N  N77  1  0.17800900  0.56138800  0.06874500  1
  N  N78  1  0.33447300  0.21730500  0.40272700  1
  N  N79  1  0.17026200  0.02585600  0.80145400  1
  N  N80  1  0.25639000  0.99494900  0.56822000  1
  N  N81  1  0.68812200  0.43009100  0.33727000  1
  N  N82  1  0.79293700  0.94410200  0.46326100  1
  N  N83  1  0.45660100  0.48410000  0.44921900  1
  N  N84  1  0.53928600  0.43667600  0.87335400  1
  N  N85  1  0.08883300  0.27553600  0.87646100  1
  N  N86  1  0.66788900  0.85379700  0.67186400  1
  N  N87  1  0.30944600  0.58326600  0.85002700  1
  N  N88  1  0.62882900  0.70912300  0.97292800  1
  N  N89  1  0.98124800  0.36138800  0.07295500  1
  N  N90  1  0.48741100  0.32515000  0.23634500  1
  N  N91  1  0.93707400  0.36786100  0.68226800  1
  N  N92  1  0.16066300  0.22509900  0.62940200  1
  N  N93  1  0.53117500  0.21040700  0.03113200  1
  N  N94  1  0.90797700  0.63615900  0.09009500  1
  N  N95  1  0.93028500  0.68712300  0.60029000  1
  N  N96  1  0.05541300  0.82464100  0.44913200  1
  N  N97  1  0.42390400  0.06442700  0.21466100  1
  N  N98  1  0.60869500  0.63194700  0.21549100  1
  N  N99  1  0.25492700  0.25770500  0.10024200  1
  N  N100  1  0.55095300  0.05997300  0.78480200  1
  N  N101  1  0.87864400  0.27623000  0.28022800  1
  N  N102  1  0.02418600  0.55827100  0.27119000  1
  N  N103  1  0.10388400  0.80886000  0.21171200  1
  N  N104  1  0.73739400  0.27609000  0.83832000  1
