# generated using pymatgen
data_Al2O3
_symmetry_space_group_name_H-M   'P 1'
_cell_length_a   10.14585779
_cell_length_b   10.99536699
_cell_length_c   10.43612980
_cell_angle_alpha   88.88291195
_cell_angle_beta   89.86006902
_cell_angle_gamma   89.29244227
_symmetry_Int_Tables_number   1
_chemical_formula_structural   Al2O3
_chemical_formula_sum   'Al40 O60'
_cell_volume   1163.91496909
_cell_formula_units_Z   20
loop_
 _symmetry_equiv_pos_site_id
 _symmetry_equiv_pos_as_xyz
  1  'x, y, z'
loop_
 _atom_site_type_symbol
 _atom_site_label
 _atom_site_symmetry_multiplicity
 _atom_site_fract_x
 _atom_site_fract_y
 _atom_site_fract_z
 _atom_site_occupancy
  Al  Al0  1  0.20145700  0.42813600  0.35831200  1
  Al  Al1  1  0.74222400  0.10695200  0.74365300  1
  Al  Al2  1  0.10345900  0.68708400  0.41323100  1
  Al  Al3  1  0.32410900  0.67342900  0.87297200  1
  Al  Al4  1  0.60698500  0.96236700  0.54686800  1
  Al  Al5  1  0.03024400  0.18865800  0.71437000  1
  Al  Al6  1  0.19236000  0.13528700  0.44266800  1
  Al  Al7  1  0.34592600  0.03768800  0.66772100  1
  Al  Al8  1  0.13711700  0.22544000  0.19985800  1
  Al  Al9  1  0.87922500  0.48141400  0.69774200  1
  Al  Al10  1  0.77010600  0.65992700  0.90553400  1
  Al  Al11  1  0.65899600  0.13199400  0.99339800  1
  Al  Al12  1  0.72426100  0.12049800  0.40433700  1
  Al  Al13  1  0.56819100  0.87135900  0.81758500  1
  Al  Al14  1  0.05891700  0.62031700  0.92902800  1
  Al  Al15  1  0.92167000  0.27908400  0.92366400  1
  Al  Al16  1  0.28791600  0.40492700  0.87615000  1
  Al  Al17  1  0.17702600  0.92067300  0.21549500  1
  Al  Al18  1  0.41690600  0.94376700  0.07773200  1
  Al  Al19  1  0.14721000  0.79064900  0.66262800  1
  Al  Al20  1  0.43071400  0.27421200  0.45586500  1
  Al  Al21  1  0.25331300  0.51102500  0.09919300  1
  Al  Al22  1  0.56922800  0.66532800  0.47713200  1
  Al  Al23  1  0.90985400  0.04491300  0.20645800  1
  Al  Al24  1  0.31885000  0.81772100  0.47181900  1
  Al  Al25  1  0.92740700  0.99430300  0.55476200  1
  Al  Al26  1  0.70452300  0.88757800  0.06379300  1
  Al  Al27  1  0.56795700  0.43896100  0.01276600  1
  Al  Al28  1  0.65270200  0.43415300  0.56757800  1
  Al  Al29  1  0.56343200  0.60547200  0.76319200  1
  Al  Al30  1  0.48962600  0.53137100  0.27990100  1
  Al  Al31  1  0.83272600  0.75054300  0.60787400  1
  Al  Al32  1  0.56333700  0.85259500  0.30652800  1
  Al  Al33  1  0.89097200  0.55647100  0.43726600  1
  Al  Al34  1  0.20482400  0.09868000  0.95563800  1
  Al  Al35  1  0.71063200  0.39706700  0.28283900  1
  Al  Al36  1  0.43627000  0.23078200  0.12197300  1
  Al  Al37  1  0.96296900  0.47298800  0.14734400  1
  Al  Al38  1  0.90055500  0.75965200  0.18662700  1
  Al  Al39  1  0.38178000  0.43030500  0.64059200  1
  O  O40  1  0.26168200  0.20788600  0.07358900  1
  O  O41  1  0.45494400  0.74531500  0.79535600  1
  O  O42  1  0.94273400  0.61500900  0.60593100  1
  O  O43  1  0.70182500  0.74267600  0.76469900  1
  O  O44  1  0.88290800  0.39101500  0.03220000  1
  O  O45  1  0.82641700  0.42369700  0.53118800  1
  O  O46  1  0.15286800  0.27286700  0.36343900  1
  O  O47  1  0.95585800  0.33811400  0.75353800  1
  O  O48  1  0.94230500  0.70910800  0.34825400  1
  O  O49  1  0.51715800  0.68203200  0.31689000  1
  O  O50  1  0.58500800  0.28007700  0.02684400  1
  O  O51  1  0.08377100  0.11365800  0.57046100  1
  O  O52  1  0.90397900  0.07405700  0.70301400  1
  O  O53  1  0.38555100  0.52714700  0.79858500  1
  O  O54  1  0.76658600  0.90037400  0.57678300  1
  O  O55  1  0.38603100  0.41256600  0.02356700  1
  O  O56  1  0.15861700  0.72005000  0.81831300  1
  O  O57  1  0.49596800  0.08482000  0.06403100  1
  O  O58  1  0.69761300  0.49045700  0.72309100  1
  O  O59  1  0.12536700  0.40907500  0.17899700  1
  O  O60  1  0.43505800  0.26185800  0.28759900  1
  O  O61  1  0.99585200  0.84523500  0.60177300  1
  O  O62  1  0.20182600  0.80625100  0.34043300  1
  O  O63  1  0.77094800  0.20578200  0.87750900  1
  O  O64  1  0.66796600  0.00563600  0.86036500  1
  O  O65  1  0.49871800  0.82227300  0.48756000  1
  O  O66  1  0.73719800  0.66454900  0.49367100  1
  O  O67  1  0.07874100  0.52845500  0.40889400  1
  O  O68  1  0.25907300  0.91032200  0.60179300  1
  O  O69  1  0.54338700  0.85789200  0.99590300  1
  O  O70  1  0.60890000  0.00053000  0.37961800  1
  O  O71  1  0.32039300  0.51533500  0.25906600  1
  O  O72  1  0.85322200  0.48662100  0.27952900  1
  O  O73  1  0.81808700  0.77393000  0.01260400  1
  O  O74  1  0.00060700  0.63047700  0.09722900  1
  O  O75  1  0.59825300  0.46306200  0.40147100  1
  O  O76  1  0.99801200  0.90078100  0.18081500  1
  O  O77  1  0.50235800  0.57115800  0.59836400  1
  O  O78  1  0.06252700  0.17341800  0.88585200  1
  O  O79  1  0.71818300  0.82295700  0.22293100  1
  O  O80  1  0.28835400  0.65842200  0.03492500  1
  O  O81  1  0.99207600  0.16837800  0.13760300  1
  O  O82  1  0.35134200  0.13618200  0.52218000  1
  O  O83  1  0.72370800  0.24389100  0.30572000  1
  O  O84  1  0.68158100  0.12054700  0.57660900  1
  O  O85  1  0.23983700  0.95930600  0.05433200  1
  O  O86  1  0.41243000  0.89733000  0.23667200  1
  O  O87  1  0.88469700  0.04755400  0.38612200  1
  O  O88  1  0.15345600  0.48307100  0.94231200  1
  O  O89  1  0.17803600  0.06034400  0.29605900  1
  O  O90  1  0.22296400  0.69385200  0.54564000  1
  O  O91  1  0.29441200  0.06350800  0.82091000  1
  O  O92  1  0.60413400  0.47556600  0.16908400  1
  O  O93  1  0.50466400  0.96651700  0.68408800  1
  O  O94  1  0.28003400  0.32827400  0.73576700  1
  O  O95  1  0.91155400  0.58570100  0.84712600  1
  O  O96  1  0.62062700  0.57372300  0.93237600  1
  O  O97  1  0.52349600  0.32664300  0.59647100  1
  O  O98  1  0.32082600  0.40482200  0.48400500  1
  O  O99  1  0.76359100  0.03710000  0.10159800  1
