# generated using pymatgen
data_CrFeO3
_symmetry_space_group_name_H-M   'P 1'
_cell_length_a   10.25263577
_cell_length_b   10.89455767
_cell_length_c   9.42668867
_cell_angle_alpha   92.83451381
_cell_angle_beta   94.62760904
_cell_angle_gamma   95.69280771
_symmetry_Int_Tables_number   1
_chemical_formula_structural   CrFeO3
_chemical_formula_sum   'Cr16 Fe16 O48'
_cell_volume   1042.57933023
_cell_formula_units_Z   16
loop_
 _symmetry_equiv_pos_site_id
 _symmetry_equiv_pos_as_xyz
  1  'x, y, z'
loop_
 _atom_site_type_symbol
 _atom_site_label
 _atom_site_symmetry_multiplicity
 _atom_site_fract_x
 _atom_site_fract_y
 _atom_site_fract_z
 _atom_site_occupancy
  Cr  Cr0  1  0.91909400  0.33388600  0.89223100  1
  Cr  Cr1  1  0.47058800  0.16995300  0.03458600  1
  Cr  Cr2  1  0.78214800  0.11045200  0.47051900  1
  Cr  Cr3  1  0.20953000  0.97439400  0.09730600  1
  Cr  Cr4  1  0.87449500  0.36507000  0.59040200  1
  Cr  Cr5  1  0.43526900  0.70833800  0.47655700  1
  Cr  Cr6  1  0.14177600  0.83333500  0.73523600  1
  Cr  Cr7  1  0.48752000  0.18421400  0.65101200  1
  Cr  Cr8  1  0.19411700  0.78522000  0.31796400  1
  Cr  Cr9  1  0.64704400  0.48765300  0.67200500  1
  Cr  Cr10  1  0.36275400  0.97029200  0.84707900  1
  Cr  Cr11  1  0.12229300  0.52551800  0.64164200  1
  Cr  Cr12  1  0.77507600  0.79247000  0.64184100  1
  Cr  Cr13  1  0.97128600  0.15368700  0.04618700  1
  Cr  Cr14  1  0.95580000  0.97848800  0.27632400  1
  Cr  Cr15  1  0.56865700  0.94545900  0.55367700  1
  Fe  Fe16  1  0.26377300  0.33848100  0.15167500  1
  Fe  Fe17  1  0.76501800  0.57843000  0.05062600  1
  Fe  Fe18  1  0.02208200  0.28117200  0.39154900  1
  Fe  Fe19  1  0.68718900  0.79593900  0.26934200  1
  Fe  Fe20  1  0.57019900  0.50656300  0.30356600  1
  Fe  Fe21  1  0.66291100  0.92719000  0.03724000  1
  Fe  Fe22  1  0.10187500  0.55115000  0.94511500  1
  Fe  Fe23  1  0.38318900  0.69076200  0.11555700  1
  Fe  Fe24  1  0.87232100  0.60622100  0.41508500  1
  Fe  Fe25  1  0.72514000  0.30096900  0.19942200  1
  Fe  Fe26  1  0.14221200  0.53109200  0.27491600  1
  Fe  Fe27  1  0.25953200  0.03105000  0.48183600  1
  Fe  Fe28  1  0.36412300  0.37765300  0.48270100  1
  Fe  Fe29  1  0.90577300  0.83901000  0.94937600  1
  Fe  Fe30  1  0.56765800  0.72641400  0.83410000  1
  Fe  Fe31  1  0.98832500  0.04460000  0.67882300  1
  O  O32  1  0.04780500  0.67509900  0.34539700  1
  O  O33  1  0.30169300  0.83815700  0.47419300  1
  O  O34  1  0.64954900  0.57572300  0.86454800  1
  O  O35  1  0.59212100  0.11521400  0.49734800  1
  O  O36  1  0.78308400  0.28685100  0.40752400  1
  O  O37  1  0.80441000  0.58940800  0.60693400  1
  O  O38  1  0.55084800  0.31777600  0.08467500  1
  O  O39  1  0.10969400  0.65299700  0.76849700  1
  O  O40  1  0.94751400  0.14815000  0.83921500  1
  O  O41  1  0.42552500  0.38467500  0.29335000  1
  O  O42  1  0.91346400  0.50298800  0.99123300  1
  O  O43  1  0.72699100  0.83892000  0.84979000  1
  O  O44  1  0.27898500  0.50718800  0.59716500  1
  O  O45  1  0.51089400  0.79067500  0.99888900  1
  O  O46  1  0.45792200  0.00630500  0.67505500  1
  O  O47  1  0.18673700  0.36390000  0.33731200  1
  O  O48  1  0.53337900  0.55641000  0.49474500  1
  O  O49  1  0.15455300  0.99117200  0.64309300  1
  O  O50  1  0.97424500  0.15100500  0.25141300  1
  O  O51  1  0.32798600  0.81500700  0.76921900  1
  O  O52  1  0.95209600  0.85979900  0.73656400  1
  O  O53  1  0.41132900  0.16212500  0.85067900  1
  O  O54  1  0.53901400  0.84443000  0.38606400  1
  O  O55  1  0.99349100  0.47137400  0.48514600  1
  O  O56  1  0.83049400  0.24531300  0.04097800  1
  O  O57  1  0.92885300  0.00840900  0.47230400  1
  O  O58  1  0.77252700  0.35963900  0.73891900  1
  O  O59  1  0.18351400  0.95700100  0.89339100  1
  O  O60  1  0.21791700  0.79433900  0.12650400  1
  O  O61  1  0.31167900  0.17376400  0.12118400  1
  O  O62  1  0.75957600  0.50401900  0.25520200  1
  O  O63  1  0.08730400  0.28967900  0.03534700  1
  O  O64  1  0.93820400  0.21212300  0.57733700  1
  O  O65  1  0.51231500  0.36008600  0.63203000  1
  O  O66  1  0.75696300  0.96433600  0.23970200  1
  O  O67  1  0.15003600  0.95962700  0.30356400  1
  O  O68  1  0.99998000  0.98291900  0.06819800  1
  O  O69  1  0.73997800  0.96701400  0.61062500  1
  O  O70  1  0.56685300  0.77236100  0.63544600  1
  O  O71  1  0.81880100  0.74661100  0.10897100  1
  O  O72  1  0.60983600  0.09545300  0.03562100  1
  O  O73  1  0.80157000  0.76086400  0.43096800  1
  O  O74  1  0.30747800  0.64912100  0.31760300  1
  O  O75  1  0.02981200  0.41046400  0.74416600  1
  O  O76  1  0.24226900  0.50717700  0.08128400  1
  O  O77  1  0.33124200  0.20342300  0.52744100  1
  O  O78  1  0.39067100  0.98262000  0.04386300  1
  O  O79  1  0.56663600  0.64584700  0.19627500  1
