# generated using pymatgen
data_ZnS
_symmetry_space_group_name_H-M   'P 1'
_cell_length_a   13.58893947
_cell_length_b   13.32231675
_cell_length_c   13.26325596
_cell_angle_alpha   92.55783038
_cell_angle_beta   86.09007230
_cell_angle_gamma   89.66619151
_symmetry_Int_Tables_number   1
_chemical_formula_structural   ZnS
_chemical_formula_sum   'Zn50 S50'
_cell_volume   2393.05873028
_cell_formula_units_Z   50
loop_
 _symmetry_equiv_pos_site_id
 _symmetry_equiv_pos_as_xyz
  1  'x, y, z'
loop_
 _atom_site_type_symbol
 _atom_site_label
 _atom_site_symmetry_multiplicity
 _atom_site_fract_x
 _atom_site_fract_y
 _atom_site_fract_z
 _atom_site_occupancy
  Zn  Zn0  1  0.39764450  0.01761319  0.07340565  1
  Zn  Zn1  1  0.48838144  0.30615232  0.47037080  1
  Zn  Zn2  1  0.73922973  0.00316591  0.74190015  1
  Zn  Zn3  1  0.62944656  0.06560092  0.98219759  1
  Zn  Zn4  1  0.30191079  0.29570330  0.45104584  1
  Zn  Zn5  1  0.67965330  0.69129911  0.18793379  1
  Zn  Zn6  1  0.75132254  0.11943807  0.25374934  1
  Zn  Zn7  1  0.04589770  0.12432215  0.36816684  1
  Zn  Zn8  1  0.85624321  0.64321789  0.75273450  1
  Zn  Zn9  1  0.07628522  0.95840658  0.17808582  1
  Zn  Zn10  1  0.76736050  0.22335279  0.88336347  1
  Zn  Zn11  1  0.76767127  0.54266718  0.99234336  1
  Zn  Zn12  1  0.27684583  0.62093654  0.61953496  1
  Zn  Zn13  1  0.81372651  0.87162860  0.98992287  1
  Zn  Zn14  1  0.62877363  0.78536333  0.60300776  1
  Zn  Zn15  1  0.74350617  0.33176716  0.10698487  1
  Zn  Zn16  1  0.42972270  0.58181006  0.09580859  1
  Zn  Zn17  1  0.07288396  0.96185116  0.73512230  1
  Zn  Zn18  1  0.00540658  0.38358655  0.99791339  1
  Zn  Zn19  1  0.03619603  0.67124131  0.71606142  1
  Zn  Zn20  1  0.11542484  0.69407940  0.12945482  1
  Zn  Zn21  1  0.23879768  0.85902467  0.97014819  1
  Zn  Zn22  1  0.60630107  0.27444289  0.66859336  1
  Zn  Zn23  1  0.19970381  0.99939100  0.55666434  1
  Zn  Zn24  1  0.81113323  0.56177622  0.50568645  1
  Zn  Zn25  1  0.94049990  0.78320728  0.11628667  1
  Zn  Zn26  1  0.57597740  0.34539379  0.86457598  1
  Zn  Zn27  1  0.13351060  0.34829650  0.62264605  1
  Zn  Zn28  1  0.89144634  0.20929943  0.60857759  1
  Zn  Zn29  1  0.43773060  0.26479765  0.78272304  1
  Zn  Zn30  1  0.78818065  0.31659677  0.39321814  1
  Zn  Zn31  1  0.31466225  0.01128768  0.80468410  1
  Zn  Zn32  1  0.87714878  0.04176735  0.14229379  1
  Zn  Zn33  1  0.22292270  0.14555431  0.12734764  1
  Zn  Zn34  1  0.44004587  0.65995316  0.78852985  1
  Zn  Zn35  1  0.50601777  0.88686977  0.86709443  1
  Zn  Zn36  1  0.75513250  0.97186018  0.46760042  1
  Zn  Zn37  1  0.14937867  0.53518395  0.41093505  1
  Zn  Zn38  1  0.23499325  0.52031980  0.89535250  1
  Zn  Zn39  1  0.31925142  0.03418626  0.32347528  1
  Zn  Zn40  1  0.99654807  0.65114532  0.98720200  1
  Zn  Zn41  1  0.55503103  0.93048609  0.38565562  1
  Zn  Zn42  1  0.27441477  0.34175438  0.71999268  1
  Zn  Zn43  1  0.04494758  0.79388153  0.35961589  1
  Zn  Zn44  1  0.17329846  0.82347245  0.57211913  1
  Zn  Zn45  1  0.92148770  0.52731336  0.24193340  1
  Zn  Zn46  1  0.97481875  0.49346736  0.73762453  1
  Zn  Zn47  1  0.20490158  0.45567412  0.12615496  1
  Zn  Zn48  1  0.38271398  0.21812351  0.61109587  1
  Zn  Zn49  1  0.41833312  0.71815547  0.35616230  1
  S  S50  1  0.53778978  0.93352413  0.03153367  1
  S  S51  1  0.69067649  0.28526701  0.25847594  1
  S  S52  1  0.88984670  0.45755357  0.40142295  1
  S  S53  1  0.26378566  0.03380441  0.97648253  1
  S  S54  1  0.30417199  0.58145226  0.33426583  1
  S  S55  1  0.78528469  0.02555739  0.91210423  1
  S  S56  1  0.20423000  0.84298359  0.14101527  1
  S  S57  1  0.05882568  0.63746464  0.29939842  1
  S  S58  1  0.46926279  0.08605785  0.78314448  1
  S  S59  1  0.97732562  0.32759368  0.69993990  1
  S  S60  1  0.06440282  0.51731261  0.89029853  1
  S  S61  1  0.83947790  0.69162307  0.92160931  1
  S  S62  1  0.10019164  0.80883139  0.79469808  1
  S  S63  1  0.32541171  0.35487935  0.91062041  1
  S  S64  1  0.76661030  0.67104648  0.62389796  1
  S  S65  1  0.04174875  0.41933033  0.16303212  1
  S  S66  1  0.97785466  0.93470074  0.03248354  1
  S  S67  1  0.62179965  0.24017361  0.99499505  1
  S  S68  1  0.35438278  0.82112636  0.83258014  1
  S  S69  1  0.09975801  0.24735030  0.93435491  1
  S  S70  1  0.67009915  0.81782131  0.43813514  1
  S  S71  1  0.83942816  0.36681033  0.96305906  1
  S  S72  1  0.37127791  0.13796369  0.20038716  1
  S  S73  1  0.98826436  0.94187137  0.34112598  1
  S  S74  1  0.21603103  0.29042868  0.01282586  1
  S  S75  1  0.20730754  0.11889646  0.43676367  1
  S  S76  1  0.51178326  0.68657950  0.20527787  1
  S  S77  1  0.63508541  0.35775592  0.52115089  1
  S  S78  1  0.39373840  0.45603596  0.30887238  1
  S  S79  1  0.12798078  0.65050960  0.55843592  1
  S  S80  1  0.76923545  0.54122250  0.16634986  1
  S  S81  1  0.63822776  0.86725031  0.75617702  1
  S  S82  1  0.51666842  0.65441450  0.62169446  1
  S  S83  1  0.19738135  0.08072868  0.71651623  1
  S  S84  1  0.85086989  0.94119220  0.60602714  1
  S  S85  1  0.88861129  0.17993039  0.43751535  1
  S  S86  1  0.96963283  0.03751899  0.62774892  1
  S  S87  1  0.77716432  0.82736744  0.15999534  1
  S  S88  1  0.14891564  0.36927326  0.44496158  1
  S  S89  1  0.40009187  0.71709107  0.54805856  1
  S  S90  1  0.52175740  0.61889247  0.93502981  1
  S  S91  1  0.39433196  0.89493238  0.37368932  1
  S  S92  1  0.74578447  0.18259667  0.71594293  1
  S  S93  1  0.25747738  0.60327333  0.04884964  1
  S  S94  1  0.38180081  0.41838348  0.15664624  1
  S  S95  1  0.64635368  0.07366647  0.39334140  1
  S  S96  1  0.50413069  0.09222852  0.62600796  1
  S  S97  1  0.63259799  0.51327101  0.89034612  1
  S  S98  1  0.32785056  0.53095045  0.74481134  1
  S  S99  1  0.06614907  0.13525854  0.19184722  1
