# generated using pymatgen
data_ZnS
_symmetry_space_group_name_H-M   'P 1'
_cell_length_a   14.00900036
_cell_length_b   13.32141684
_cell_length_c   13.22008150
_cell_angle_alpha   96.42474006
_cell_angle_beta   97.39088569
_cell_angle_gamma   89.84097124
_symmetry_Int_Tables_number   1
_chemical_formula_structural   ZnS
_chemical_formula_sum   'Zn50 S50'
_cell_volume   2431.09571798
_cell_formula_units_Z   50
loop_
 _symmetry_equiv_pos_site_id
 _symmetry_equiv_pos_as_xyz
  1  'x, y, z'
loop_
 _atom_site_type_symbol
 _atom_site_label
 _atom_site_symmetry_multiplicity
 _atom_site_fract_x
 _atom_site_fract_y
 _atom_site_fract_z
 _atom_site_occupancy
  Zn  Zn0  1  0.27577149  0.79446679  0.35022494  1
  Zn  Zn1  1  0.46032799  0.57994667  0.49468686  1
  Zn  Zn2  1  0.01886446  0.90870709  0.74315879  1
  Zn  Zn3  1  0.57589674  0.43849885  0.25547759  1
  Zn  Zn4  1  0.25431639  0.84664414  0.54857223  1
  Zn  Zn5  1  0.48861786  0.96920749  0.23190864  1
  Zn  Zn6  1  0.77574778  0.83580968  0.36949743  1
  Zn  Zn7  1  0.31201849  0.11627430  0.30269648  1
  Zn  Zn8  1  0.47148016  0.49093993  0.97095360  1
  Zn  Zn9  1  0.84707556  0.79044255  0.11042121  1
  Zn  Zn10  1  0.67262590  0.38952696  0.79447203  1
  Zn  Zn11  1  0.56564620  0.98754732  0.97859844  1
  Zn  Zn12  1  0.21343486  0.18814025  0.53011676  1
  Zn  Zn13  1  0.64673621  0.09586178  0.83070902  1
  Zn  Zn14  1  0.77355531  0.85105826  0.75008027  1
  Zn  Zn15  1  0.65974492  0.68519426  0.15788214  1
  Zn  Zn16  1  0.22024223  0.70283129  0.80407587  1
  Zn  Zn17  1  0.05652705  0.04911856  0.65879229  1
  Zn  Zn18  1  0.24442195  0.24664483  0.90518245  1
  Zn  Zn19  1  0.93026070  0.44468563  0.87796834  1
  Zn  Zn20  1  0.34679719  0.07583816  0.00277886  1
  Zn  Zn21  1  0.19746857  0.99481560  0.80238707  1
  Zn  Zn22  1  0.58168836  0.46128869  0.56279749  1
  Zn  Zn23  1  0.42375693  0.81250981  0.78241632  1
  Zn  Zn24  1  0.73394549  0.61611082  0.49398719  1
  Zn  Zn25  1  0.10571208  0.82176213  0.00887119  1
  Zn  Zn26  1  0.54981335  0.26224936  0.02617102  1
  Zn  Zn27  1  0.88970397  0.27017467  0.31170210  1
  Zn  Zn28  1  0.00272239  0.36063984  0.62348890  1
  Zn  Zn29  1  0.43713244  0.20262397  0.73287470  1
  Zn  Zn30  1  0.82192662  0.57849296  0.65933393  1
  Zn  Zn31  1  0.40050792  0.91074499  0.47703576  1
  Zn  Zn32  1  0.95087860  0.04730257  0.15544591  1
  Zn  Zn33  1  0.44526478  0.25488310  0.15993403  1
  Zn  Zn34  1  0.49995728  0.58906348  0.69544510  1
  Zn  Zn35  1  0.51593206  0.74068445  0.92583548  1
  Zn  Zn36  1  0.55323811  0.90857474  0.60624541  1
  Zn  Zn37  1  0.31819008  0.53026086  0.34971641  1
  Zn  Zn38  1  0.17133128  0.51849378  0.90928416  1
  Zn  Zn39  1  0.00256305  0.02452569  0.42131006  1
  Zn  Zn40  1  0.72186461  0.61520037  0.89786139  1
  Zn  Zn41  1  0.56945672  0.82970658  0.42034143  1
  Zn  Zn42  1  0.27989198  0.38873141  0.10494909  1
  Zn  Zn43  1  0.98158968  0.77588754  0.32487096  1
  Zn  Zn44  1  0.28605764  0.59890656  0.53224916  1
  Zn  Zn45  1  0.13025895  0.34491549  0.27726094  1
  Zn  Zn46  1  0.00127695  0.00693156  0.94071634  1
  Zn  Zn47  1  0.00577348  0.29891183  0.06879565  1
  Zn  Zn48  1  0.78313001  0.42225255  0.52579639  1
  Zn  Zn49  1  0.44163396  0.26958841  0.42735181  1
  S  S50  1  0.43966488  0.94652379  0.05320069  1
  S  S51  1  0.72020688  0.24756254  0.08263011  1
  S  S52  1  0.12999346  0.70069375  0.34442463  1
  S  S53  1  0.10711615  0.20202735  0.77388715  1
  S  S54  1  0.19872530  0.47766345  0.21764773  1
  S  S55  1  0.16504686  0.97764428  0.97092869  1
  S  S56  1  0.99556202  0.87078122  0.13296787  1
  S  S57  1  0.82709828  0.70007299  0.24668351  1
  S  S58  1  0.71140302  0.00376202  0.68755621  1
  S  S59  1  0.90910506  0.13828805  0.65334671  1
  S  S60  1  0.92494885  0.85823395  0.85512456  1
  S  S61  1  0.54102203  0.94576465  0.79127086  1
  S  S62  1  0.26129015  0.84532529  0.73350006  1
  S  S63  1  0.56187483  0.54026012  0.12412096  1
  S  S64  1  0.72189133  0.68720380  0.74697509  1
  S  S65  1  0.97239399  0.37150135  0.22145236  1
  S  S66  1  0.70754081  0.07050049  0.00042903  1
  S  S67  1  0.78429620  0.45786990  0.93129568  1
  S  S68  1  0.45683840  0.73101981  0.62338669  1
  S  S69  1  0.07139387  0.39106988  0.95659215  1
  S  S70  1  0.50420781  0.66803652  0.36281204  1
  S  S71  1  0.55878693  0.52659677  0.84146174  1
  S  S72  1  0.34063875  0.94398211  0.30112616  1
  S  S73  1  0.92946231  0.87926341  0.45305259  1
  S  S74  1  0.26842329  0.20848311  0.08908839  1
  S  S75  1  0.14849008  0.02558616  0.52400347  1
  S  S76  1  0.37264094  0.67314843  0.26896439  1
  S  S77  1  0.47691180  0.14633748  0.29172653  1
  S  S78  1  0.70437010  0.47954146  0.37398497  1
  S  S79  1  0.15355943  0.54284138  0.72842366  1
  S  S80  1  0.69585968  0.75834351  0.01317847  1
  S  S81  1  0.15302616  0.29215126  0.66843087  1
  S  S82  1  0.33734530  0.11591475  0.83062014  1
  S  S83  1  0.89783199  0.09623579  0.30570710  1
  S  S84  1  0.38435963  0.20997468  0.56518427  1
  S  S85  1  0.18777229  0.20832881  0.35380734  1
  S  S86  1  0.71420332  0.78554005  0.51632085  1
  S  S87  1  0.62230511  0.86614176  0.26614114  1
  S  S88  1  0.68097531  0.34049904  0.62151764  1
  S  S89  1  0.30506864  0.56689720  0.70544274  1
  S  S90  1  0.31788084  0.41948142  0.94528590  1
  S  S91  1  0.14634221  0.70147191  0.50584524  1
  S  S92  1  0.95831604  0.50167967  0.72987923  1
  S  S93  1  0.20393585  0.69017028  0.97440207  1
  S  S94  1  0.71260983  0.29011027  0.23130058  1
  S  S95  1  0.78757276  0.06657686  0.57925166  1
  S  S96  1  0.43323566  0.39015883  0.31206272  1
  S  S97  1  0.92249024  0.37014308  0.46912012  1
  S  S98  1  0.57328845  0.25353396  0.84063903  1
  S  S99  1  0.93687814  0.14114872  0.01963860  1
