# generated using pymatgen
data_AlF3
_symmetry_space_group_name_H-M   'P 1'
_cell_length_a   10.20704701
_cell_length_b   10.74507630
_cell_length_c   11.06849825
_cell_angle_alpha   91.01317139
_cell_angle_beta   88.36912297
_cell_angle_gamma   88.78775519
_symmetry_Int_Tables_number   1
_chemical_formula_structural   AlF3
_chemical_formula_sum   'Al25 F75'
_cell_volume   1212.97667272
_cell_formula_units_Z   25
loop_
 _symmetry_equiv_pos_site_id
 _symmetry_equiv_pos_as_xyz
  1  'x, y, z'
loop_
 _atom_site_type_symbol
 _atom_site_label
 _atom_site_symmetry_multiplicity
 _atom_site_fract_x
 _atom_site_fract_y
 _atom_site_fract_z
 _atom_site_occupancy
  Al  Al0  1  0.68575800  0.91921300  0.12864900  1
  Al  Al1  1  0.25619600  0.25609500  0.96404100  1
  Al  Al2  1  0.92246500  0.59262400  0.93910900  1
  Al  Al3  1  0.60944500  0.07176900  0.42570000  1
  Al  Al4  1  0.04926500  0.41521100  0.40749700  1
  Al  Al5  1  0.13133900  0.25664500  0.73861300  1
  Al  Al6  1  0.70238300  0.23489300  0.08022400  1
  Al  Al7  1  0.31157100  0.61774500  0.32649200  1
  Al  Al8  1  0.02237100  0.62066300  0.65046200  1
  Al  Al9  1  0.12508300  0.91704300  0.27680000  1
  Al  Al10  1  0.90069800  0.91361800  0.69305000  1
  Al  Al11  1  0.55379500  0.19891800  0.78505200  1
  Al  Al12  1  0.00820100  0.90569200  0.99187900  1
  Al  Al13  1  0.34679800  0.70675100  0.63339800  1
  Al  Al14  1  0.63221800  0.60747700  0.36071400  1
  Al  Al15  1  0.20416600  0.98481900  0.57813000  1
  Al  Al16  1  0.83003700  0.23022600  0.60477700  1
  Al  Al17  1  0.97662000  0.19812200  0.15331700  1
  Al  Al18  1  0.59453100  0.71657700  0.96879700  1
  Al  Al19  1  0.58156800  0.46876700  0.64815300  1
  Al  Al20  1  0.41236500  0.09179300  0.20009800  1
  Al  Al21  1  0.91399200  0.71627900  0.43945000  1
  Al  Al22  1  0.38767900  0.32319200  0.41572300  1
  Al  Al23  1  0.54974200  0.88037300  0.70359600  1
  Al  Al24  1  0.35796400  0.57083400  0.00902400  1
  F  F25  1  0.03226000  0.07085500  0.25708200  1
  F  F26  1  0.14736300  0.35653900  0.87586700  1
  F  F27  1  0.53490600  0.02110100  0.79014900  1
  F  F28  1  0.50978800  0.96260700  0.13753800  1
  F  F29  1  0.75137300  0.72169500  0.37395300  1
  F  F30  1  0.61683500  0.20397100  0.93609200  1
  F  F31  1  0.35639500  0.03492000  0.59540300  1
  F  F32  1  0.09738300  0.86070300  0.13037100  1
  F  F33  1  0.75244400  0.14520300  0.47683700  1
  F  F34  1  0.89508800  0.06986400  0.63407800  1
  F  F35  1  0.52346300  0.18658700  0.63278700  1
  F  F36  1  0.53851900  0.23017600  0.40893700  1
  F  F37  1  0.37383900  0.83270500  0.74381900  1
  F  F38  1  0.27111400  0.99468300  0.22406700  1
  F  F39  1  0.85604100  0.87576600  0.10257900  1
  F  F40  1  0.99243200  0.06364800  0.04475900  1
  F  F41  1  0.42275900  0.73918200  0.01158700  1
  F  F42  1  0.06214500  0.48098700  0.56360300  1
  F  F43  1  0.32741200  0.62001600  0.48801800  1
  F  F44  1  0.61067500  0.56249900  0.50734300  1
  F  F45  1  0.94888700  0.75420800  0.72953100  1
  F  F46  1  0.06850300  0.70449500  0.51083100  1
  F  F47  1  0.59859000  0.96794400  0.54336900  1
  F  F48  1  0.68872600  0.48641900  0.28298500  1
  F  F49  1  0.21207600  0.33317700  0.44174900  1
  F  F50  1  0.94359700  0.29848100  0.48649900  1
  F  F51  1  0.02361300  0.32607800  0.27158200  1
  F  F52  1  0.64123900  0.75008300  0.14061400  1
  F  F53  1  0.57561900  0.75198500  0.81272900  1
  F  F54  1  0.96132700  0.28492500  0.71260700  1
  F  F55  1  0.72089800  0.36260400  0.58505700  1
  F  F56  1  0.38811400  0.22398000  0.85409000  1
  F  F57  1  0.12849200  0.25042600  0.08204600  1
  F  F58  1  0.15140300  0.90814700  0.91206700  1
  F  F59  1  0.07898700  0.92477100  0.66909800  1
  F  F60  1  0.33906300  0.22202100  0.29001300  1
  F  F61  1  0.13643400  0.13851200  0.61703200  1
  F  F62  1  0.98597600  0.81679100  0.32693500  1
  F  F63  1  0.32411900  0.59316700  0.16499900  1
  F  F64  1  0.22754600  0.60139800  0.92687400  1
  F  F65  1  0.69356500  0.97807800  0.29562400  1
  F  F66  1  0.90834700  0.94764200  0.85503200  1
  F  F67  1  0.81329600  0.20939000  0.22273900  1
  F  F68  1  0.87538100  0.25981200  0.02819800  1
  F  F69  1  0.23598700  0.77025700  0.30874400  1
  F  F70  1  0.75739500  0.63899100  0.94851600  1
  F  F71  1  0.45437800  0.39631400  0.54411100  1
  F  F72  1  0.69096100  0.55111300  0.72842700  1
  F  F73  1  0.46319000  0.02951500  0.35098200  1
  F  F74  1  0.73153900  0.19539300  0.73821600  1
  F  F75  1  0.54689900  0.36893400  0.77083500  1
  F  F76  1  0.40633300  0.45874600  0.32886200  1
  F  F77  1  0.48466000  0.67933000  0.32246600  1
  F  F78  1  0.72816000  0.88882900  0.71020900  1
  F  F79  1  0.55438900  0.18951800  0.17682500  1
  F  F80  1  0.52727300  0.55524300  0.96626500  1
  F  F81  1  0.16676400  0.52752000  0.33476300  1
  F  F82  1  0.93760300  0.55150500  0.37224900  1
  F  F83  1  0.16790700  0.14574300  0.85243800  1
  F  F84  1  0.72917600  0.06644700  0.07145300  1
  F  F85  1  0.65996200  0.38636700  0.08075800  1
  F  F86  1  0.87957900  0.85759200  0.53226100  1
  F  F87  1  0.51295000  0.76764700  0.58484200  1
  F  F88  1  0.86390300  0.62530200  0.57110000  1
  F  F89  1  0.33477600  0.39992700  0.01939400  1
  F  F90  1  0.26760200  0.82888800  0.54981700  1
  F  F91  1  0.24547200  0.34130700  0.66899300  1
  F  F92  1  0.97223900  0.54125500  0.79230600  1
  F  F93  1  0.65497200  0.87309900  0.97187600  1
  F  F94  1  0.98738400  0.73668800  0.96055600  1
  F  F95  1  0.34395500  0.14695900  0.06112400  1
  F  F96  1  0.96347100  0.49995100  0.04920100  1
  F  F97  1  0.43525700  0.57593400  0.69192000  1
  F  F98  1  0.18925900  0.65056800  0.69304500  1
  F  F99  1  0.14391300  0.97997100  0.42931400  1
