# generated using pymatgen
data_BN
_symmetry_space_group_name_H-M   'P 1'
_cell_length_a   10.94820876
_cell_length_b   10.69649166
_cell_length_c   10.43193623
_cell_angle_alpha   89.99831764
_cell_angle_beta   91.68703074
_cell_angle_gamma   86.36191598
_symmetry_Int_Tables_number   1
_chemical_formula_structural   BN
_chemical_formula_sum   'B50 N50'
_cell_volume   1218.66459191
_cell_formula_units_Z   50
loop_
 _symmetry_equiv_pos_site_id
 _symmetry_equiv_pos_as_xyz
  1  'x, y, z'
loop_
 _atom_site_type_symbol
 _atom_site_label
 _atom_site_symmetry_multiplicity
 _atom_site_fract_x
 _atom_site_fract_y
 _atom_site_fract_z
 _atom_site_occupancy
  B  B0  1  0.66837000  0.87094000  0.44705100  1
  B  B1  1  0.88854800  0.60758700  0.95808500  1
  B  B2  1  0.33024100  0.53555600  0.65209200  1
  B  B3  1  0.34234500  0.48871800  0.16864800  1
  B  B4  1  0.67706900  0.72891900  0.36895400  1
  B  B5  1  0.56860900  0.35366900  0.47124000  1
  B  B6  1  0.73528300  0.17556600  0.21944900  1
  B  B7  1  0.64126900  0.24894800  0.68383400  1
  B  B8  1  0.95139300  0.38463600  0.62069300  1
  B  B9  1  0.86214800  0.94257500  0.69916500  1
  B  B10  1  0.47006400  0.18493200  0.83226100  1
  B  B11  1  0.50118100  0.87486000  0.59840200  1
  B  B12  1  0.91491800  0.76725000  0.54049000  1
  B  B13  1  0.39595700  0.28073500  0.06171100  1
  B  B14  1  0.41425700  0.30901900  0.30397300  1
  B  B15  1  0.05824700  0.57518100  0.63194300  1
  B  B16  1  0.17934000  0.39093700  0.53370700  1
  B  B17  1  0.28096900  0.86557400  0.91606800  1
  B  B18  1  0.34516800  0.70125500  0.27583200  1
  B  B19  1  0.31719600  0.48948600  0.92746600  1
  B  B20  1  0.18866400  0.67241900  0.83018400  1
  B  B21  1  0.98047700  0.08093900  0.86793900  1
  B  B22  1  0.33140900  0.50973400  0.41227900  1
  B  B23  1  0.14483300  0.28637100  0.41823800  1
  B  B24  1  0.35052600  0.77038300  0.72386000  1
  B  B25  1  0.27449100  0.68278300  0.05000500  1
  B  B26  1  0.73917700  0.41470600  0.18940600  1
  B  B27  1  0.04646400  0.22949300  0.04824000  1
  B  B28  1  0.36475200  0.06562400  0.99291900  1
  B  B29  1  0.98023100  0.73956500  0.77024700  1
  B  B30  1  0.81800800  0.81126400  0.41681900  1
  B  B31  1  0.93078100  0.77430600  0.02901900  1
  B  B32  1  0.40812200  0.90826200  0.37171100  1
  B  B33  1  0.80643300  0.64935600  0.19554100  1
  B  B34  1  0.91078800  0.54044400  0.48845100  1
  B  B35  1  0.70710700  0.96729000  0.33951800  1
  B  B36  1  0.09693600  0.31803700  0.26777900  1
  B  B37  1  0.45855600  0.38383500  0.78127900  1
  B  B38  1  0.72402400  0.41641200  0.50986200  1
  B  B39  1  0.53271400  0.08738000  0.61361700  1
  B  B40  1  0.40086700  0.09733900  0.22679600  1
  B  B41  1  0.01954900  0.90984000  0.20316200  1
  B  B42  1  0.88977500  0.40560800  0.82667300  1
  B  B43  1  0.47548900  0.13111400  0.45785000  1
  B  B44  1  0.71767200  0.99675500  0.64597200  1
  B  B45  1  0.37737600  0.71563900  0.50794100  1
  B  B46  1  0.32748100  0.89237600  0.14403600  1
  B  B47  1  0.40989200  0.97874800  0.78107800  1
  B  B48  1  0.09820300  0.05466500  0.36630600  1
  B  B49  1  0.65692900  0.56853500  0.33863900  1
  N  N50  1  0.42684700  0.83667200  0.48944900  1
  N  N51  1  0.18414000  0.18755700  0.71242200  1
  N  N52  1  0.29221300  0.46444100  0.53972100  1
  N  N53  1  0.60824600  0.83982800  0.01308900  1
  N  N54  1  0.42618100  0.04639000  0.35759200  1
  N  N55  1  0.62605100  0.46386700  0.41660700  1
  N  N56  1  0.35445600  0.43267100  0.29692800  1
  N  N57  1  0.08718400  0.64831200  0.73946700  1
  N  N58  1  0.27415100  0.81773000  0.04290600  1
  N  N59  1  0.85563800  0.43268800  0.50869400  1
  N  N60  1  0.25078900  0.78658400  0.80854100  1
  N  N61  1  0.36263700  0.66272300  0.63689100  1
  N  N62  1  0.33829300  0.97936400  0.89307700  1
  N  N63  1  0.65955600  0.91515200  0.97007000  1
  N  N64  1  0.07623700  0.43857800  0.60728000  1
  N  N65  1  0.65174900  0.34072600  0.58601200  1
  N  N66  1  0.03541200  0.15300700  0.95421100  1
  N  N67  1  0.06515200  0.94842100  0.31604500  1
  N  N68  1  0.48375300  0.26537100  0.41998900  1
  N  N69  1  0.90316300  0.33080400  0.72479500  1
  N  N70  1  0.13238600  0.15871500  0.41983400  1
  N  N71  1  0.54610900  0.28979900  0.78433200  1
  N  N72  1  0.21392000  0.10280700  0.65633700  1
  N  N73  1  0.35627900  0.02139800  0.12307700  1
  N  N74  1  0.93737800  0.72381900  0.89774700  1
  N  N75  1  0.46269200  0.08879800  0.73853500  1
  N  N76  1  0.86622200  0.66807500  0.08337500  1
  N  N77  1  0.91979100  0.81551300  0.66714300  1
  N  N78  1  0.40947300  0.22954300  0.19301500  1
  N  N79  1  0.87056400  0.48719700  0.91855400  1
  N  N80  1  0.32045100  0.62308900  0.16494400  1
  N  N81  1  0.36030800  0.41688100  0.04515000  1
  N  N82  1  0.06445600  0.30421400  0.14914500  1
  N  N83  1  0.24000800  0.60221200  0.94122700  1
  N  N84  1  0.41286800  0.18718100  0.95751300  1
  N  N85  1  0.35935700  0.83514000  0.26555600  1
  N  N86  1  0.92804000  0.01272100  0.78416000  1
  N  N87  1  0.73040400  0.53955500  0.22279800  1
  N  N88  1  0.98055600  0.87295300  0.09183000  1
  N  N89  1  0.79387200  0.73772800  0.30322000  1
  N  N90  1  0.61314200  0.60504000  0.82445600  1
  N  N91  1  0.62095200  0.91861900  0.57863800  1
  N  N92  1  0.66398800  0.11927200  0.65847000  1
  N  N93  1  0.43855500  0.86345300  0.71773900  1
  N  N94  1  0.97433000  0.63798900  0.52901100  1
  N  N95  1  0.73109100  0.06138800  0.26326400  1
  N  N96  1  0.73681600  0.29381400  0.18023300  1
  N  N97  1  0.64908300  0.64710500  0.73675300  1
  N  N98  1  0.34978800  0.64082100  0.39904500  1
  N  N99  1  0.35795000  0.46447500  0.78800100  1
