# generated using pymatgen
data_WO2
_symmetry_space_group_name_H-M   'P 1'
_cell_length_a   11.63924951
_cell_length_b   11.74423133
_cell_length_c   12.25176058
_cell_angle_alpha   86.47720676
_cell_angle_beta   97.11612352
_cell_angle_gamma   90.63723271
_symmetry_Int_Tables_number   1
_chemical_formula_structural   WO2
_chemical_formula_sum   'W34 O68'
_cell_volume   1658.69171146
_cell_formula_units_Z   34
loop_
 _symmetry_equiv_pos_site_id
 _symmetry_equiv_pos_as_xyz
  1  'x, y, z'
loop_
 _atom_site_type_symbol
 _atom_site_label
 _atom_site_symmetry_multiplicity
 _atom_site_fract_x
 _atom_site_fract_y
 _atom_site_fract_z
 _atom_site_occupancy
  W  W0  1  0.40272438  0.07997000  0.34303690  1
  W  W1  1  0.77182838  0.01919250  0.05908079  1
  W  W2  1  0.31174993  0.56922257  0.15413698  1
  W  W3  1  0.90850399  0.49720465  0.19927951  1
  W  W4  1  0.48704112  0.37130402  0.29394002  1
  W  W5  1  0.80336436  0.24679983  0.70378939  1
  W  W6  1  0.14373372  0.03476376  0.20866378  1
  W  W7  1  0.02818756  0.27404821  0.49996319  1
  W  W8  1  0.95661882  0.06959812  0.93076619  1
  W  W9  1  0.08137187  0.10803748  0.69787427  1
  W  W10  1  0.74539130  0.63357334  0.99388265  1
  W  W11  1  0.16886287  0.85336292  0.61286909  1
  W  W12  1  0.59256428  0.73176551  0.77138587  1
  W  W13  1  0.25038780  0.32740027  0.76679491  1
  W  W14  1  0.68733907  0.36987252  0.07578042  1
  W  W15  1  0.65839899  0.57601030  0.24996103  1
  W  W16  1  0.66047170  0.12025706  0.49362328  1
  W  W17  1  0.52278799  0.31676234  0.81346656  1
  W  W18  1  0.84349341  0.55838426  0.72394855  1
  W  W19  1  0.88979536  0.94683239  0.69238098  1
  W  W20  1  0.10993900  0.54708955  0.61280298  1
  W  W21  1  0.50100275  0.88133452  0.95176276  1
  W  W22  1  0.79448437  0.44451759  0.47225970  1
  W  W23  1  0.88727724  0.21839317  0.26901638  1
  W  W24  1  0.34198928  0.55660259  0.48415389  1
  W  W25  1  0.93194974  0.98383622  0.41706263  1
  W  W26  1  0.31055425  0.28550158  0.53116113  1
  W  W27  1  0.34371426  0.89017392  0.14802518  1
  W  W28  1  0.93359097  0.77911710  0.20143893  1
  W  W29  1  0.48616078  0.93327379  0.60228262  1
  W  W30  1  0.52250112  0.15838791  0.07166527  1
  W  W31  1  0.22400871  0.07707372  0.99381262  1
  W  W32  1  0.12684607  0.61158193  0.29307213  1
  W  W33  1  0.16437832  0.37782004  0.24682294  1
  O  O34  1  0.17529065  0.24656768  0.62069862  1
  O  O35  1  0.63559577  0.77248659  0.92826335  1
  O  O36  1  0.87391633  0.89141692  0.30696809  1
  O  O37  1  0.44882734  0.65283671  0.53194834  1
  O  O38  1  0.02079663  0.10040661  0.52461352  1
  O  O39  1  0.78503620  0.36405225  0.22815437  1
  O  O40  1  0.99729984  0.34169931  0.19393396  1
  O  O41  1  0.01508628  0.85232389  0.68265164  1
  O  O42  1  0.01049577  0.64083647  0.14639324  1
  O  O43  1  0.48331924  0.86932438  0.77878429  1
  O  O44  1  0.70867566  0.17889843  0.09311263  1
  O  O45  1  0.75482843  0.65373839  0.81707959  1
  O  O46  1  0.86869785  0.95348160  0.84721504  1
  O  O47  1  0.27559806  0.44932688  0.60026955  1
  O  O48  1  0.63618460  0.54106209  0.09087739  1
  O  O49  1  0.87065260  0.18997407  0.86008094  1
  O  O50  1  0.06628071  0.89429636  0.19159630  1
  O  O51  1  0.98307219  0.43223262  0.52906445  1
  O  O52  1  0.54499734  0.30835136  0.14690800  1
  O  O53  1  0.45646347  0.04255679  0.19787571  1
  O  O54  1  0.27282745  0.56274030  0.01191502  1
  O  O55  1  0.15360307  0.30700540  0.40475778  1
  O  O56  1  0.01404077  0.08110306  0.30137013  1
  O  O57  1  0.33265318  0.88207983  0.56599874  1
  O  O58  1  0.19826370  0.70294304  0.65694217  1
  O  O59  1  0.29108370  0.94363109  0.29089648  1
  O  O60  1  0.54775459  0.07670848  0.62562344  1
  O  O61  1  0.84898989  0.92437713  0.52533049  1
  O  O62  1  0.24972371  0.15721102  0.25292965  1
  O  O63  1  0.17007448  0.60059634  0.46761809  1
  O  O64  1  0.83577667  0.47614245  0.04297268  1
  O  O65  1  0.52254129  0.98392571  0.44343709  1
  O  O66  1  0.37944893  0.39133995  0.85196929  1
  O  O67  1  0.34195764  0.17818943  0.03190139  1
  O  O68  1  0.50942107  0.60717103  0.75925701  1
  O  O69  1  0.00021398  0.71007443  0.33870835  1
  O  O70  1  0.13434230  0.43559339  0.75064671  1
  O  O71  1  0.63537855  0.45896053  0.37225749  1
  O  O72  1  0.84959847  0.86864174  0.08269153  1
  O  O73  1  0.07886371  0.13135980  0.06266866  1
  O  O74  1  0.30237067  0.60153875  0.32579702  1
  O  O75  1  0.39958105  0.40189935  0.44256130  1
  O  O76  1  0.48303566  0.55126065  0.22934251  1
  O  O77  1  0.52869475  0.19646701  0.36176699  1
  O  O78  1  0.28044430  0.74553175  0.15637551  1
  O  O79  1  0.85509334  0.39937370  0.75890964  1
  O  O80  1  0.65249727  0.27647506  0.72810184  1
  O  O81  1  0.38229286  0.26027533  0.69326374  1
  O  O82  1  0.20083570  0.99107212  0.68700090  1
  O  O83  1  0.07378621  0.89875903  0.47257095  1
  O  O84  1  0.82837298  0.54181855  0.34044988  1
  O  O85  1  0.78103335  0.08110700  0.64957594  1
  O  O86  1  0.80768742  0.10200030  0.38344434  1
  O  O87  1  0.59132772  0.00509113  0.01630771  1
  O  O88  1  0.10062168  0.97886250  0.92707283  1
  O  O89  1  0.17852478  0.18426814  0.83284763  1
  O  O90  1  0.74971126  0.54533245  0.57713691  1
  O  O91  1  0.98031387  0.61895714  0.66673277  1
  O  O92  1  0.34062352  0.13659830  0.46627097  1
  O  O93  1  0.63126411  0.39893662  0.92082343  1
  O  O94  1  0.61622109  0.82423699  0.63458448  1
  O  O95  1  0.31854311  0.39229445  0.19986728  1
  O  O96  1  0.34280700  0.95386172  0.98621204  1
  O  O97  1  0.79160277  0.66465630  0.16921722  1
  O  O98  1  0.75806495  0.28281031  0.53547779  1
  O  O99  1  0.47960150  0.81436518  0.09903651  1
  O  O100  1  0.96392215  0.23699543  0.66140639  1
  O  O101  1  0.51621411  0.18369256  0.90980375  1
