# generated using pymatgen
data_SbN
_symmetry_space_group_name_H-M   'P 1'
_cell_length_a   16.08323688
_cell_length_b   15.75571302
_cell_length_c   15.93783668
_cell_angle_alpha   89.31665733
_cell_angle_beta   87.00568722
_cell_angle_gamma   87.06706614
_symmetry_Int_Tables_number   1
_chemical_formula_structural   SbN
_chemical_formula_sum   'Sb50 N50'
_cell_volume   4027.72314722
_cell_formula_units_Z   50
loop_
 _symmetry_equiv_pos_site_id
 _symmetry_equiv_pos_as_xyz
  1  'x, y, z'
loop_
 _atom_site_type_symbol
 _atom_site_label
 _atom_site_symmetry_multiplicity
 _atom_site_fract_x
 _atom_site_fract_y
 _atom_site_fract_z
 _atom_site_occupancy
  Sb  Sb0  1  0.51715328  0.22268301  0.70430925  1
  Sb  Sb1  1  0.48515355  0.45937150  0.46418107  1
  Sb  Sb2  1  0.57059066  0.54984963  0.27662260  1
  Sb  Sb3  1  0.62838912  0.74252428  0.42119861  1
  Sb  Sb4  1  0.30412563  0.02762911  0.35032755  1
  Sb  Sb5  1  0.88162022  0.28304045  0.31338547  1
  Sb  Sb6  1  0.16524466  0.89489720  0.71353126  1
  Sb  Sb7  1  0.83734487  0.08087537  0.45078566  1
  Sb  Sb8  1  0.68628580  0.15178368  0.36549167  1
  Sb  Sb9  1  0.18944031  0.27999686  0.60227517  1
  Sb  Sb10  1  0.39512487  0.42259968  0.29240639  1
  Sb  Sb11  1  0.53622776  0.73865324  0.27218286  1
  Sb  Sb12  1  0.52922480  0.35167167  0.13731148  1
  Sb  Sb13  1  0.61626834  0.95567022  0.37552050  1
  Sb  Sb14  1  0.25086899  0.76838515  0.60192236  1
  Sb  Sb15  1  0.35439257  0.29769693  0.82740665  1
  Sb  Sb16  1  0.84358004  0.52174631  0.49098463  1
  Sb  Sb17  1  0.67377344  0.14756783  0.63326213  1
  Sb  Sb18  1  0.31789715  0.16481661  0.66268479  1
  Sb  Sb19  1  0.22519323  0.95301437  0.51732011  1
  Sb  Sb20  1  0.97631686  0.80477244  0.35261430  1
  Sb  Sb21  1  0.20660167  0.50213988  0.53119781  1
  Sb  Sb22  1  0.30881056  0.17803825  0.21261671  1
  Sb  Sb23  1  0.11048308  0.14336203  0.43186633  1
  Sb  Sb24  1  0.73664163  0.26120267  0.22244608  1
  Sb  Sb25  1  0.08046196  0.76113772  0.48959892  1
  Sb  Sb26  1  0.66485552  0.52603725  0.07044902  1
  Sb  Sb27  1  0.73790176  0.31136222  0.60348793  1
  Sb  Sb28  1  0.72153448  0.35891836  0.37610468  1
  Sb  Sb29  1  0.73765555  0.94124647  0.49360789  1
  Sb  Sb30  1  0.08758799  0.07100238  0.20035191  1
  Sb  Sb31  1  0.06764969  0.58649001  0.43906415  1
  Sb  Sb32  1  0.93476246  0.98807885  0.32072073  1
  Sb  Sb33  1  0.30773234  0.26080403  0.41889572  1
  Sb  Sb34  1  0.25688339  0.62167393  0.40506927  1
  Sb  Sb35  1  0.59276662  0.40356804  0.67858148  1
  Sb  Sb36  1  0.65674351  0.56532927  0.47068409  1
  Sb  Sb37  1  0.37693277  0.38882280  0.65715168  1
  Sb  Sb38  1  0.44890829  0.72237354  0.43328548  1
  Sb  Sb39  1  0.49444418  0.29566632  0.38918764  1
  Sb  Sb40  1  0.56571486  0.34546758  0.91220224  1
  Sb  Sb41  1  0.72650488  0.34770483  0.01857979  1
  Sb  Sb42  1  0.49951900  0.51503646  0.03078572  1
  Sb  Sb43  1  0.72481827  0.26057616  0.78377658  1
  Sb  Sb44  1  0.76994370  0.52637420  0.32716181  1
  Sb  Sb45  1  0.14187668  0.23292018  0.26735862  1
  Sb  Sb46  1  0.90270332  0.73796971  0.51178874  1
  Sb  Sb47  1  0.43812728  0.89320980  0.51137636  1
  Sb  Sb48  1  0.33265231  0.94024223  0.69924886  1
  Sb  Sb49  1  0.21888925  0.45542221  0.35414557  1
  N  N50  1  0.91475989  0.47518567  0.71023179  1
  N  N51  1  0.07993723  0.40166692  0.07537365  1
  N  N52  1  0.60617483  0.30613820  0.04157228  1
  N  N53  1  0.55908981  0.48573942  0.15098383  1
  N  N54  1  0.37302520  0.88000488  0.98381314  1
  N  N55  1  0.98666688  0.58621900  0.88999496  1
  N  N56  1  0.92869712  0.87888604  0.03429250  1
  N  N57  1  0.12425939  0.69915330  0.12664850  1
  N  N58  1  0.92538885  0.41515735  0.74665974  1
  N  N59  1  0.70593037  0.99489043  0.07467527  1
  N  N60  1  0.76585553  0.52403996  0.84565857  1
  N  N61  1  0.16189049  0.61823055  0.70891866  1
  N  N62  1  0.67600811  0.61672327  0.68341825  1
  N  N63  1  0.01575681  0.40559465  0.05184953  1
  N  N64  1  0.19855111  0.04645924  0.42917198  1
  N  N65  1  0.78090864  0.55445527  0.90527900  1
  N  N66  1  0.32040819  0.92592394  0.97002339  1
  N  N67  1  0.82489854  0.98994911  0.75771715  1
  N  N68  1  0.63413308  0.05885167  0.30475445  1
  N  N69  1  0.30993374  0.58119232  0.14629506  1
  N  N70  1  0.04587939  0.05342985  0.31920844  1
  N  N71  1  0.90714634  0.39842359  0.24023117  1
  N  N72  1  0.96613268  0.44164331  0.25260081  1
  N  N73  1  0.89123678  0.85142442  0.08778559  1
  N  N74  1  0.32032659  0.29068763  0.60074371  1
  N  N75  1  0.69216258  0.83435671  0.82801110  1
  N  N76  1  0.30403601  0.19727309  0.78426369  1
  N  N77  1  0.33421517  0.15687716  0.33754104  1
  N  N78  1  0.10343868  0.67216659  0.18877213  1
  N  N79  1  0.88324075  0.00514879  0.72108482  1
  N  N80  1  0.14222791  0.54758514  0.71081562  1
  N  N81  1  0.34430141  0.97324745  0.46639482  1
  N  N82  1  0.91804301  0.23628306  0.97211043  1
  N  N83  1  0.74273738  0.62927303  0.69098981  1
  N  N84  1  0.01238552  0.61492566  0.94607338  1
  N  N85  1  0.17950001  0.69196898  0.70897624  1
  N  N86  1  0.49854168  0.33408320  0.63126021  1
  N  N87  1  0.35953851  0.84317776  0.61001496  1
  N  N88  1  0.93953171  0.19575468  0.02534240  1
  N  N89  1  0.71317900  0.76719961  0.84078680  1
  N  N90  1  0.46152777  0.51979845  0.34686015  1
  N  N91  1  0.20025120  0.22530775  0.48646601  1
  N  N92  1  0.92998093  0.60951170  0.49044722  1
  N  N93  1  0.59506916  0.30279337  0.77332738  1
  N  N94  1  0.69170594  0.34856177  0.89393217  1
  N  N95  1  0.20334087  0.10627036  0.23794224  1
  N  N96  1  0.31421329  0.64348079  0.17784265  1
  N  N97  1  0.22438280  0.99559086  0.64348698  1
  N  N98  1  0.74036769  0.05248406  0.05686886  1
  N  N99  1  0.01997928  0.48697604  0.25973816  1
