# generated using pymatgen
data_ZnO
_symmetry_space_group_name_H-M   'P 1'
_cell_length_a   10.08984392
_cell_length_b   10.78156587
_cell_length_c   9.99263761
_cell_angle_alpha   88.50685659
_cell_angle_beta   86.84139405
_cell_angle_gamma   89.67767685
_symmetry_Int_Tables_number   1
_chemical_formula_structural   ZnO
_chemical_formula_sum   'Zn40 O40'
_cell_volume   1085.01275386
_cell_formula_units_Z   40
loop_
 _symmetry_equiv_pos_site_id
 _symmetry_equiv_pos_as_xyz
  1  'x, y, z'
loop_
 _atom_site_type_symbol
 _atom_site_label
 _atom_site_symmetry_multiplicity
 _atom_site_fract_x
 _atom_site_fract_y
 _atom_site_fract_z
 _atom_site_occupancy
  Zn  Zn0  1  0.52758700  0.58387300  0.82014700  1
  Zn  Zn1  1  0.68717400  0.48334600  0.09310600  1
  Zn  Zn2  1  0.59861700  0.34956500  0.60092900  1
  Zn  Zn3  1  0.23186100  0.08194500  0.43308400  1
  Zn  Zn4  1  0.49873800  0.13669200  0.14825000  1
  Zn  Zn5  1  0.44780600  0.87840500  0.55733000  1
  Zn  Zn6  1  0.45903500  0.40571000  0.32228400  1
  Zn  Zn7  1  0.15188200  0.56056500  0.20068800  1
  Zn  Zn8  1  0.08368200  0.51834100  0.53674700  1
  Zn  Zn9  1  0.76406400  0.19025600  0.78204300  1
  Zn  Zn10  1  0.59955400  0.69173500  0.33694500  1
  Zn  Zn11  1  0.35438100  0.57749100  0.56911300  1
  Zn  Zn12  1  0.16811800  0.30784500  0.30267900  1
  Zn  Zn13  1  0.38903100  0.81299400  0.08531400  1
  Zn  Zn14  1  0.00077500  0.63709700  0.96750800  1
  Zn  Zn15  1  0.28548800  0.76865600  0.37719800  1
  Zn  Zn16  1  0.38155100  0.11913400  0.76963000  1
  Zn  Zn17  1  0.18680200  0.41159400  0.85519300  1
  Zn  Zn18  1  0.40363800  0.54672700  0.09122600  1
  Zn  Zn19  1  0.99141300  0.09407800  0.19710800  1
  Zn  Zn20  1  0.03600600  0.17781600  0.80929700  1
  Zn  Zn21  1  0.72448700  0.97020800  0.12031000  1
  Zn  Zn22  1  0.95492500  0.33486800  0.02910300  1
  Zn  Zn23  1  0.02695300  0.74684500  0.63779200  1
  Zn  Zn24  1  0.25157800  0.80666800  0.84421300  1
  Zn  Zn25  1  0.70441100  0.74311700  0.97536600  1
  Zn  Zn26  1  0.07634100  0.85441000  0.08236900  1
  Zn  Zn27  1  0.82591100  0.49280500  0.80238200  1
  Zn  Zn28  1  0.52457800  0.88806200  0.84522500  1
  Zn  Zn29  1  0.92478000  0.21240900  0.51874700  1
  Zn  Zn30  1  0.86993600  0.45455500  0.33128700  1
  Zn  Zn31  1  0.76123400  0.84585400  0.63489100  1
  Zn  Zn32  1  0.27075800  0.30481200  0.59716000  1
  Zn  Zn33  1  0.54819000  0.27289100  0.93326600  1
  Zn  Zn34  1  0.73024500  0.23742800  0.27994300  1
  Zn  Zn35  1  0.77958700  0.96616700  0.40614500  1
  Zn  Zn36  1  0.88378400  0.76069800  0.29692200  1
  Zn  Zn37  1  0.76607200  0.55790200  0.55120200  1
  Zn  Zn38  1  0.52450900  0.10640800  0.47274700  1
  Zn  Zn39  1  0.22591200  0.11207200  0.04251600  1
  O  O40  1  0.80465000  0.59671500  0.97250700  1
  O  O41  1  0.37713800  0.92466300  0.74353200  1
  O  O42  1  0.24243400  0.91815200  0.01673700  1
  O  O43  1  0.87370500  0.32617600  0.85216400  1
  O  O44  1  0.77453800  0.34270300  0.48431800  1
  O  O45  1  0.34200300  0.93773200  0.40341500  1
  O  O46  1  0.04175300  0.16962800  0.01262800  1
  O  O47  1  0.36463200  0.14331500  0.57231700  1
  O  O48  1  0.68171100  0.14109500  0.06577900  1
  O  O49  1  0.66973400  0.78079100  0.78529300  1
  O  O50  1  0.92835900  0.57700900  0.65085500  1
  O  O51  1  0.43808700  0.41072800  0.51532100  1
  O  O52  1  0.62817100  0.97154800  0.54778000  1
  O  O53  1  0.22024000  0.47356500  0.67272200  1
  O  O54  1  0.30372600  0.41548700  0.20831000  1
  O  O55  1  0.12206300  0.23313700  0.48985300  1
  O  O56  1  0.69992100  0.84863100  0.28090700  1
  O  O57  1  0.17953900  0.68543600  0.51954200  1
  O  O58  1  0.47037500  0.70703200  0.49358100  1
  O  O59  1  0.65061300  0.50339200  0.70210100  1
  O  O60  1  0.17925500  0.13296400  0.24194900  1
  O  O61  1  0.53515600  0.21754000  0.31308200  1
  O  O62  1  0.39271900  0.67570500  0.91658900  1
  O  O63  1  0.91653900  0.93657700  0.14234100  1
  O  O64  1  0.30286600  0.69050900  0.20320800  1
  O  O65  1  0.01698900  0.69457200  0.16185300  1
  O  O66  1  0.22036300  0.23883500  0.79730000  1
  O  O67  1  0.09189700  0.47624700  0.00746100  1
  O  O68  1  0.53855200  0.44565400  0.97095700  1
  O  O69  1  0.78113000  0.61352500  0.37099900  1
  O  O70  1  0.57462800  0.86718800  0.03323600  1
  O  O71  1  0.81764700  0.37120700  0.17071000  1
  O  O72  1  0.06913100  0.75997200  0.83090100  1
  O  O73  1  0.57963900  0.21558400  0.74741700  1
  O  O74  1  0.55450900  0.55039200  0.22356100  1
  O  O75  1  0.86311400  0.12297200  0.35251700  1
  O  O76  1  0.90471100  0.83814700  0.50535300  1
  O  O77  1  0.91099500  0.11141400  0.69055800  1
  O  O78  1  0.05974000  0.46221900  0.35303100  1
  O  O79  1  0.41000300  0.14076300  0.98204800  1
