# generated using pymatgen
data_Cr(FeO2)3
_symmetry_space_group_name_H-M   'P 1'
_cell_length_a   9.89420268
_cell_length_b   9.75812442
_cell_length_c   10.41023344
_cell_angle_alpha   97.09655927
_cell_angle_beta   92.28434856
_cell_angle_gamma   92.56407816
_symmetry_Int_Tables_number   1
_chemical_formula_structural   Cr(FeO2)3
_chemical_formula_sum   'Cr8 Fe24 O48'
_cell_volume   995.35315364
_cell_formula_units_Z   8
loop_
 _symmetry_equiv_pos_site_id
 _symmetry_equiv_pos_as_xyz
  1  'x, y, z'
loop_
 _atom_site_type_symbol
 _atom_site_label
 _atom_site_symmetry_multiplicity
 _atom_site_fract_x
 _atom_site_fract_y
 _atom_site_fract_z
 _atom_site_occupancy
  Cr  Cr0  1  0.67379200  0.84950200  0.59721200  1
  Cr  Cr1  1  0.33425200  0.08762400  0.94374900  1
  Cr  Cr2  1  0.86866900  0.13115900  0.30893700  1
  Cr  Cr3  1  0.39534800  0.28992900  0.70214700  1
  Cr  Cr4  1  0.59345600  0.44872000  0.57121800  1
  Cr  Cr5  1  0.20456000  0.38789800  0.10211100  1
  Cr  Cr6  1  0.10728000  0.19297900  0.60564400  1
  Cr  Cr7  1  0.07288600  0.16490600  0.87417900  1
  Fe  Fe8  1  0.96211800  0.78111100  0.34908000  1
  Fe  Fe9  1  0.15825800  0.54943500  0.62207000  1
  Fe  Fe10  1  0.61383400  0.04704600  0.83497800  1
  Fe  Fe11  1  0.85965400  0.55224500  0.78933800  1
  Fe  Fe12  1  0.75993200  0.61001300  0.42490700  1
  Fe  Fe13  1  0.40786700  0.64993200  0.43465100  1
  Fe  Fe14  1  0.48476900  0.11608500  0.43515700  1
  Fe  Fe15  1  0.12113100  0.75088500  0.86484700  1
  Fe  Fe16  1  0.73249800  0.80808000  0.87047500  1
  Fe  Fe17  1  0.86114100  0.33816300  0.05771700  1
  Fe  Fe18  1  0.60729300  0.38062600  0.28287100  1
  Fe  Fe19  1  0.24338600  0.94435500  0.45688200  1
  Fe  Fe20  1  0.28561700  0.35909200  0.44081700  1
  Fe  Fe21  1  0.61141600  0.83882300  0.30384900  1
  Fe  Fe22  1  0.44670100  0.60525400  0.93724300  1
  Fe  Fe23  1  0.78071900  0.21436000  0.63614600  1
  Fe  Fe24  1  0.18319000  0.98478800  0.17901100  1
  Fe  Fe25  1  0.24161200  0.68776300  0.18719300  1
  Fe  Fe26  1  0.04676900  0.44191700  0.33266400  1
  Fe  Fe27  1  0.51391900  0.34588800  0.97521700  1
  Fe  Fe28  1  0.89975400  0.91728700  0.08234000  1
  Fe  Fe29  1  0.75541700  0.61943600  0.09350500  1
  Fe  Fe30  1  0.34700700  0.82432300  0.72125700  1
  Fe  Fe31  1  0.62339200  0.09833800  0.12166300  1
  O  O32  1  0.55962400  0.25288000  0.58807900  1
  O  O33  1  0.79592400  0.81339400  0.44083700  1
  O  O34  1  0.09825200  0.53471300  0.18256500  1
  O  O35  1  0.15010200  0.81562200  0.32208200  1
  O  O36  1  0.74318000  0.99408900  0.21901800  1
  O  O37  1  0.56246700  0.18697600  0.28773000  1
  O  O38  1  0.00397500  0.02338600  0.24520900  1
  O  O39  1  0.95368300  0.59929000  0.41280900  1
  O  O40  1  0.33830000  0.26802900  0.02238900  1
  O  O41  1  0.75296000  0.03802100  0.97056500  1
  O  O42  1  0.46317300  0.43952600  0.40166700  1
  O  O43  1  0.08768600  0.34812900  0.50963300  1
  O  O44  1  0.42515000  0.72734300  0.27675200  1
  O  O45  1  0.47008200  0.16681300  0.82548700  1
  O  O46  1  0.36084700  0.82509600  0.53882800  1
  O  O47  1  0.96036600  0.20476200  0.72427400  1
  O  O48  1  0.30866200  0.18130300  0.53484600  1
  O  O49  1  0.20486400  0.32073900  0.25936700  1
  O  O50  1  0.77459000  0.70596700  0.71132000  1
  O  O51  1  0.18728500  0.80925900  0.06440000  1
  O  O52  1  0.75782200  0.41071200  0.68554500  1
  O  O53  1  0.32253800  0.70030200  0.85098800  1
  O  O54  1  0.67217200  0.57121000  0.24743100  1
  O  O55  1  0.20652400  0.23577500  0.76266400  1
  O  O56  1  0.49097100  0.44713600  0.82548100  1
  O  O57  1  0.81496600  0.49308200  0.95872600  1
  O  O58  1  0.15476500  0.74731700  0.67364700  1
  O  O59  1  0.90363800  0.29686500  0.24352200  1
  O  O60  1  0.84928500  0.15365800  0.47296800  1
  O  O61  1  0.59133500  0.65607000  0.52622700  1
  O  O62  1  0.05423900  0.32094800  0.99765800  1
  O  O63  1  0.25132300  0.96757200  0.81451800  1
  O  O64  1  0.72340000  0.41544500  0.43845500  1
  O  O65  1  0.92922600  0.80653800  0.91512800  1
  O  O66  1  0.22209700  0.55694300  0.43569400  1
  O  O67  1  0.57828700  0.96070800  0.46752100  1
  O  O68  1  0.32283700  0.03086300  0.31379100  1
  O  O69  1  0.15418100  0.07426400  0.02163400  1
  O  O70  1  0.05080600  0.55565000  0.78311200  1
  O  O71  1  0.55942000  0.85879700  0.76222000  1
  O  O72  1  0.47681900  0.01056200  0.01515400  1
  O  O73  1  0.88495700  0.74856900  0.17675100  1
  O  O74  1  0.72904300  0.03966000  0.69256600  1
  O  O75  1  0.33132900  0.45112300  0.62367800  1
  O  O76  1  0.65692500  0.30147600  0.09568500  1
  O  O77  1  0.08957400  0.01652100  0.54105200  1
  O  O78  1  0.32829900  0.53368200  0.07068500  1
  O  O79  1  0.62345900  0.70802200  0.98999600  1
