# generated using pymatgen
data_Li2O
_symmetry_space_group_name_H-M   'P 1'
_cell_length_a   10.11815425
_cell_length_b   9.71550927
_cell_length_c   10.05902595
_cell_angle_alpha   96.37024057
_cell_angle_beta   91.51237550
_cell_angle_gamma   91.25258599
_symmetry_Int_Tables_number   1
_chemical_formula_structural   Li2O
_chemical_formula_sum   'Li68 O34'
_cell_volume   982.07909826
_cell_formula_units_Z   34
loop_
 _symmetry_equiv_pos_site_id
 _symmetry_equiv_pos_as_xyz
  1  'x, y, z'
loop_
 _atom_site_type_symbol
 _atom_site_label
 _atom_site_symmetry_multiplicity
 _atom_site_fract_x
 _atom_site_fract_y
 _atom_site_fract_z
 _atom_site_occupancy
  Li  Li0  1  0.90376500  0.72030900  0.88544300  1
  Li  Li1  1  0.16859500  0.39748400  0.01327700  1
  Li  Li2  1  0.80289900  0.31902600  0.43608800  1
  Li  Li3  1  0.17676500  0.52008900  0.80957100  1
  Li  Li4  1  0.76202400  0.70803400  0.08755600  1
  Li  Li5  1  0.97809400  0.92649700  0.96040600  1
  Li  Li6  1  0.11587500  0.25079700  0.63095500  1
  Li  Li7  1  0.45268300  0.82924700  0.90016100  1
  Li  Li8  1  0.22914100  0.63838700  0.62654000  1
  Li  Li9  1  0.84740500  0.47926400  0.19084200  1
  Li  Li10  1  0.67926900  0.30849900  0.92448600  1
  Li  Li11  1  0.81135900  0.07508700  0.91639200  1
  Li  Li12  1  0.46090900  0.55592300  0.91367500  1
  Li  Li13  1  0.25260300  0.13909900  0.40785900  1
  Li  Li14  1  0.24876500  0.38336800  0.51996900  1
  Li  Li15  1  0.79887700  0.56149600  0.42216400  1
  Li  Li16  1  0.56102900  0.67157200  0.34832500  1
  Li  Li17  1  0.44604500  0.04907300  0.00566900  1
  Li  Li18  1  0.31860700  0.56840000  0.17195000  1
  Li  Li19  1  0.76522600  0.07986400  0.43813200  1
  Li  Li20  1  0.21675900  0.02409800  0.99068300  1
  Li  Li21  1  0.23481200  0.71153300  0.96489800  1
  Li  Li22  1  0.40870800  0.37203000  0.68348400  1
  Li  Li23  1  0.61516700  0.51409500  0.15621900  1
  Li  Li24  1  0.20617600  0.99916700  0.58456900  1
  Li  Li25  1  0.42053400  0.98924700  0.67615800  1
  Li  Li26  1  0.67479300  0.56196800  0.88876100  1
  Li  Li27  1  0.24352600  0.15244500  0.80306100  1
  Li  Li28  1  0.89859200  0.74885400  0.27308900  1
  Li  Li29  1  0.55005900  0.06033100  0.29095300  1
  Li  Li30  1  0.47398600  0.77777200  0.12205700  1
  Li  Li31  1  0.56469600  0.91031300  0.48529400  1
  Li  Li32  1  0.08283800  0.46855300  0.25618700  1
  Li  Li33  1  0.66896000  0.86045300  0.90492900  1
  Li  Li34  1  0.03576700  0.62405800  0.04029800  1
  Li  Li35  1  0.99075200  0.59950000  0.69831000  1
  Li  Li36  1  0.10274200  0.77991900  0.45910100  1
  Li  Li37  1  0.95479000  0.09110500  0.72132200  1
  Li  Li38  1  0.04788400  0.17116400  0.93205400  1
  Li  Li39  1  0.90972100  0.43134600  0.89223200  1
  Li  Li40  1  0.77339700  0.67716100  0.66201100  1
  Li  Li41  1  0.66670000  0.92744700  0.70111400  1
  Li  Li42  1  0.69037700  0.41711300  0.71383900  1
  Li  Li43  1  0.77627400  0.17265100  0.65924800  1
  Li  Li44  1  0.54905600  0.16454100  0.75906200  1
  Li  Li45  1  0.59476900  0.39642600  0.35759100  1
  Li  Li46  1  0.88119600  0.28981200  0.03281500  1
  Li  Li47  1  0.80513600  0.22468200  0.21232300  1
  Li  Li48  1  0.20252800  0.85399300  0.78143100  1
  Li  Li49  1  0.35518100  0.96655800  0.20592500  1
  Li  Li50  1  0.98432100  0.84305000  0.71749500  1
  Li  Li51  1  0.99314600  0.02304100  0.42607200  1
  Li  Li52  1  0.32536500  0.27537000  0.20261500  1
  Li  Li53  1  0.44329900  0.72315400  0.61217200  1
  Li  Li54  1  0.68368400  0.83950300  0.28083900  1
  Li  Li55  1  0.31590800  0.82545200  0.40367300  1
  Li  Li56  1  0.80537500  0.81504400  0.49006300  1
  Li  Li57  1  0.90480900  0.96500600  0.18181200  1
  Li  Li58  1  0.08784700  0.21634500  0.17289200  1
  Li  Li59  1  0.02907500  0.29938300  0.42322100  1
  Li  Li60  1  0.02731800  0.54341300  0.47435900  1
  Li  Li61  1  0.33255200  0.53572500  0.38923100  1
  Li  Li62  1  0.59283700  0.23363900  0.50428500  1
  Li  Li63  1  0.38320400  0.34278300  0.95488300  1
  Li  Li64  1  0.91899700  0.36928000  0.65496500  1
  Li  Li65  1  0.58153100  0.24887500  0.17330700  1
  Li  Li66  1  0.13273700  0.81609800  0.22924200  1
  Li  Li67  1  0.56035000  0.55341000  0.56125000  1
  O  O68  1  0.93829700  0.11204500  0.07840300  1
  O  O69  1  0.62467900  0.74903400  0.56203100  1
  O  O70  1  0.92231900  0.42408700  0.35125500  1
  O  O71  1  0.29678500  0.18914900  0.62758400  1
  O  O72  1  0.73572000  0.64764100  0.25867000  1
  O  O73  1  0.18755400  0.64967300  0.31617400  1
  O  O74  1  0.54054200  0.37955500  0.82906200  1
  O  O75  1  0.62412300  0.07694600  0.59289800  1
  O  O76  1  0.29347300  0.52831200  0.97457400  1
  O  O77  1  0.09539800  0.44569900  0.63036300  1
  O  O78  1  0.71543500  0.35189400  0.09877400  1
  O  O79  1  0.43706900  0.13168800  0.17622400  1
  O  O80  1  0.67397800  0.20267600  0.33567500  1
  O  O81  1  0.82747600  0.89245500  0.81821200  1
  O  O82  1  0.32330000  0.87317700  0.02882500  1
  O  O83  1  0.83995000  0.92710000  0.34987200  1
  O  O84  1  0.46734400  0.49941100  0.26483500  1
  O  O85  1  0.23216100  0.22118800  0.98919800  1
  O  O86  1  0.82569800  0.55145500  0.79071500  1
  O  O87  1  0.29878500  0.83580700  0.61705900  1
  O  O88  1  0.84773300  0.24088000  0.83022400  1
  O  O89  1  0.10231700  0.01708600  0.79943600  1
  O  O90  1  0.19001500  0.30097900  0.33275400  1
  O  O91  1  0.68277200  0.42020300  0.53406500  1
  O  O92  1  0.49544700  0.86416400  0.30720600  1
  O  O93  1  0.37887200  0.53012300  0.58197800  1
  O  O94  1  0.93540500  0.18093000  0.55036400  1
  O  O95  1  0.00254700  0.44107200  0.06152100  1
  O  O96  1  0.16671200  0.95616900  0.38548500  1
  O  O97  1  0.94533000  0.78587700  0.09092700  1
  O  O98  1  0.58945200  0.70747600  0.98023200  1
  O  O99  1  0.94551000  0.71089600  0.55127500  1
  O  O100  1  0.09756100  0.70284800  0.83206700  1
  O  O101  1  0.53248500  0.99053800  0.84338600  1
