# generated using pymatgen
data_Cr2O3
_symmetry_space_group_name_H-M   'P 1'
_cell_length_a   10.19248526
_cell_length_b   8.70885076
_cell_length_c   10.35139201
_cell_angle_alpha   90.51102048
_cell_angle_beta   89.27450208
_cell_angle_gamma   87.96596468
_symmetry_Int_Tables_number   1
_chemical_formula_structural   Cr2O3
_chemical_formula_sum   'Cr32 O48'
_cell_volume   918.14667722
_cell_formula_units_Z   16
loop_
 _symmetry_equiv_pos_site_id
 _symmetry_equiv_pos_as_xyz
  1  'x, y, z'
loop_
 _atom_site_type_symbol
 _atom_site_label
 _atom_site_symmetry_multiplicity
 _atom_site_fract_x
 _atom_site_fract_y
 _atom_site_fract_z
 _atom_site_occupancy
  Cr  Cr0  1  0.65448400  0.70209700  0.66749200  1
  Cr  Cr1  1  0.81289200  0.43090400  0.37906500  1
  Cr  Cr2  1  0.98443700  0.15543900  0.86294400  1
  Cr  Cr3  1  0.31591500  0.16217900  0.37517700  1
  Cr  Cr4  1  0.59404800  0.49342600  0.19042200  1
  Cr  Cr5  1  0.82737600  0.98489200  0.13230000  1
  Cr  Cr6  1  0.23743900  0.77259000  0.73275300  1
  Cr  Cr7  1  0.02366800  0.46652700  0.58896600  1
  Cr  Cr8  1  0.40638400  0.61353400  0.45254100  1
  Cr  Cr9  1  0.54578500  0.83799700  0.91583600  1
  Cr  Cr10  1  0.75766100  0.49505800  0.85705000  1
  Cr  Cr11  1  0.10518600  0.31349300  0.14993400  1
  Cr  Cr12  1  0.67876200  0.81978300  0.33332000  1
  Cr  Cr13  1  0.83875700  0.64603000  0.11123800  1
  Cr  Cr14  1  0.96961300  0.79521300  0.82452500  1
  Cr  Cr15  1  0.74050500  0.31034200  0.64253000  1
  Cr  Cr16  1  0.47718700  0.06133600  0.66709600  1
  Cr  Cr17  1  0.07837000  0.48233500  0.87488700  1
  Cr  Cr18  1  0.82616300  0.95587100  0.60612900  1
  Cr  Cr19  1  0.30709800  0.63583100  0.98123100  1
  Cr  Cr20  1  0.37376600  0.85783100  0.23578000  1
  Cr  Cr21  1  0.13135500  0.81270800  0.45673900  1
  Cr  Cr22  1  0.09619300  0.92692200  0.04890500  1
  Cr  Cr23  1  0.84119900  0.30674700  0.11003700  1
  Cr  Cr24  1  0.66068300  0.17091700  0.87112400  1
  Cr  Cr25  1  0.41874600  0.45790200  0.75120500  1
  Cr  Cr26  1  0.07882100  0.61225000  0.26262200  1
  Cr  Cr27  1  0.20672200  0.14334500  0.73533900  1
  Cr  Cr28  1  0.35041500  0.07606300  0.04902900  1
  Cr  Cr29  1  0.32233200  0.44738100  0.21023800  1
  Cr  Cr30  1  0.98242100  0.10016000  0.38544800  1
  Cr  Cr31  1  0.59921100  0.18813900  0.35697000  1
  O  O32  1  0.26846600  0.45575500  0.87161600  1
  O  O33  1  0.30674700  0.96778100  0.68610100  1
  O  O34  1  0.91244300  0.61269500  0.92546300  1
  O  O35  1  0.92792900  0.96268900  0.96166800  1
  O  O36  1  0.72838200  0.47846100  0.04695700  1
  O  O37  1  0.75079900  0.02828200  0.31824300  1
  O  O38  1  0.15120500  0.77274200  0.91930700  1
  O  O39  1  0.70806500  0.82123700  0.10637300  1
  O  O40  1  0.00971000  0.99852200  0.72402100  1
  O  O41  1  0.17897500  0.08443900  0.92147500  1
  O  O42  1  0.73319300  0.61107200  0.28362300  1
  O  O43  1  0.16862900  0.04747500  0.42661600  1
  O  O44  1  0.71129600  0.32213800  0.24985400  1
  O  O45  1  0.97148300  0.14661500  0.19322800  1
  O  O46  1  0.25534800  0.69583100  0.31201800  1
  O  O47  1  0.07974700  0.63063800  0.72324700  1
  O  O48  1  0.40188400  0.83702400  0.04695400  1
  O  O49  1  0.96437800  0.91779200  0.48158100  1
  O  O50  1  0.50282900  0.74819600  0.33838600  1
  O  O51  1  0.60024200  0.36402000  0.78491300  1
  O  O52  1  0.92308500  0.28824800  0.48549500  1
  O  O53  1  0.73251900  0.14656400  0.04301200  1
  O  O54  1  0.19416400  0.34157200  0.32253200  1
  O  O55  1  0.82383500  0.27233600  0.81928100  1
  O  O56  1  0.70316800  0.82233800  0.51373700  1
  O  O57  1  0.46517100  0.42324400  0.33193700  1
  O  O58  1  0.80765500  0.81343500  0.73477500  1
  O  O59  1  0.27109600  0.71265200  0.55632300  1
  O  O60  1  0.00044700  0.32148200  0.99358400  1
  O  O61  1  0.51140400  0.57103100  0.60465000  1
  O  O62  1  0.46920900  0.10193700  0.47705700  1
  O  O63  1  0.67885600  0.10286400  0.68023200  1
  O  O64  1  0.63635700  0.66023200  0.85593600  1
  O  O65  1  0.22512900  0.98046600  0.16934100  1
  O  O66  1  0.44660500  0.07452300  0.23538500  1
  O  O67  1  0.17022500  0.53547600  0.10687000  1
  O  O68  1  0.38764600  0.68258700  0.81779200  1
  O  O69  1  0.49768700  0.06683500  0.90776300  1
  O  O70  1  0.98197500  0.79064100  0.17337800  1
  O  O71  1  0.28828900  0.27615300  0.09697900  1
  O  O72  1  0.94248100  0.46243200  0.21752600  1
  O  O73  1  0.02877300  0.62182400  0.44230900  1
  O  O74  1  0.44527300  0.53504400  0.08887900  1
  O  O75  1  0.66921200  0.33880600  0.47758800  1
  O  O76  1  0.54915200  0.86634700  0.72333400  1
  O  O77  1  0.79016900  0.52266700  0.66453800  1
  O  O78  1  0.06930400  0.31604300  0.74526200  1
  O  O79  1  0.36021000  0.25466500  0.68627700  1
