# generated using pymatgen
data_FeO
_symmetry_space_group_name_H-M   'P 1'
_cell_length_a   10.50191222
_cell_length_b   11.03702151
_cell_length_c   9.92796715
_cell_angle_alpha   91.34188559
_cell_angle_beta   91.75438687
_cell_angle_gamma   89.83269059
_symmetry_Int_Tables_number   1
_chemical_formula_structural   FeO
_chemical_formula_sum   'Fe40 O40'
_cell_volume   1149.89134846
_cell_formula_units_Z   40
loop_
 _symmetry_equiv_pos_site_id
 _symmetry_equiv_pos_as_xyz
  1  'x, y, z'
loop_
 _atom_site_type_symbol
 _atom_site_label
 _atom_site_symmetry_multiplicity
 _atom_site_fract_x
 _atom_site_fract_y
 _atom_site_fract_z
 _atom_site_occupancy
  Fe  Fe0  1  0.18453900  0.62977700  0.71425700  1
  Fe  Fe1  1  0.20391500  0.82362000  0.03967600  1
  Fe  Fe2  1  0.77173100  0.09314500  0.64690100  1
  Fe  Fe3  1  0.04374400  0.91323400  0.78696300  1
  Fe  Fe4  1  0.00835100  0.90643700  0.21408900  1
  Fe  Fe5  1  0.01183100  0.05215000  0.54455100  1
  Fe  Fe6  1  0.12564100  0.62237000  0.21473200  1
  Fe  Fe7  1  0.78576000  0.90733500  0.41165000  1
  Fe  Fe8  1  0.21993500  0.40036400  0.09986100  1
  Fe  Fe9  1  0.32032500  0.39186800  0.68657900  1
  Fe  Fe10  1  0.71788600  0.56137900  0.94916900  1
  Fe  Fe11  1  0.53482600  0.53863300  0.64532600  1
  Fe  Fe12  1  0.32792500  0.90915700  0.80793700  1
  Fe  Fe13  1  0.53648200  0.07976600  0.42929300  1
  Fe  Fe14  1  0.90745600  0.26596600  0.43175400  1
  Fe  Fe15  1  0.95160000  0.34593000  0.04452700  1
  Fe  Fe16  1  0.80845900  0.38762300  0.71874900  1
  Fe  Fe17  1  0.48921000  0.94879300  0.03243800  1
  Fe  Fe18  1  0.49250500  0.18220200  0.77375200  1
  Fe  Fe19  1  0.37765500  0.59049300  0.35292100  1
  Fe  Fe20  1  0.70933600  0.79339800  0.13153700  1
  Fe  Fe21  1  0.50309300  0.83697800  0.56878000  1
  Fe  Fe22  1  0.75536100  0.82937900  0.79988300  1
  Fe  Fe23  1  0.07485900  0.28573100  0.75673700  1
  Fe  Fe24  1  0.96371300  0.49655700  0.52525900  1
  Fe  Fe25  1  0.97930600  0.74440700  0.44643300  1
  Fe  Fe26  1  0.75801300  0.65104800  0.59515300  1
  Fe  Fe27  1  0.24109000  0.14606300  0.94548300  1
  Fe  Fe28  1  0.44758700  0.66455400  0.07939400  1
  Fe  Fe29  1  0.77473800  0.11283200  0.24447300  1
  Fe  Fe30  1  0.98657500  0.67350600  0.98460200  1
  Fe  Fe31  1  0.48230300  0.33407900  0.46296300  1
  Fe  Fe32  1  0.71365900  0.23740700  0.96516100  1
  Fe  Fe33  1  0.18605700  0.37127800  0.44642800  1
  Fe  Fe34  1  0.47466800  0.40980200  0.93570800  1
  Fe  Fe35  1  0.70172400  0.54237300  0.31751600  1
  Fe  Fe36  1  0.20326300  0.11592400  0.28124400  1
  Fe  Fe37  1  0.36974800  0.87115300  0.28258500  1
  Fe  Fe38  1  0.46357500  0.19541800  0.18099200  1
  Fe  Fe39  1  0.27410200  0.09497200  0.60615600  1
  O  O40  1  0.12253700  0.41609100  0.62752400  1
  O  O41  1  0.51838100  0.37012800  0.75388800  1
  O  O42  1  0.07519600  0.63951200  0.54911600  1
  O  O43  1  0.79215400  0.70574700  0.41433200  1
  O  O44  1  0.54851700  0.86871200  0.18953100  1
  O  O45  1  0.42326100  0.06283000  0.90557500  1
  O  O46  1  0.99792200  0.91218600  0.42219200  1
  O  O47  1  0.61455700  0.75509200  0.69081100  1
  O  O48  1  0.63767700  0.61178000  0.12975900  1
  O  O49  1  0.82744900  0.09899500  0.44990200  1
  O  O50  1  0.53596200  0.49747400  0.43113600  1
  O  O51  1  0.87425500  0.93195600  0.70484700  1
  O  O52  1  0.09854200  0.19577100  0.42538000  1
  O  O53  1  0.38804900  0.80295200  0.96041800  1
  O  O54  1  0.36308000  0.93732000  0.62028800  1
  O  O55  1  0.23184400  0.46780000  0.29318800  1
  O  O56  1  0.84110600  0.42953900  0.39490100  1
  O  O57  1  0.61191600  0.19532300  0.31456100  1
  O  O58  1  0.90720000  0.24571700  0.65746800  1
  O  O59  1  0.68336500  0.14098400  0.80922300  1
  O  O60  1  0.80732300  0.73307000  0.96152900  1
  O  O61  1  0.18738000  0.94039700  0.20521400  1
  O  O62  1  0.84567300  0.20114200  0.09565600  1
  O  O63  1  0.27972400  0.23329700  0.14247300  1
  O  O64  1  0.35472500  0.49696200  0.03919200  1
  O  O65  1  0.63058500  0.95466500  0.51753500  1
  O  O66  1  0.43731500  0.74764100  0.42441200  1
  O  O67  1  0.45760800  0.18432700  0.55845600  1
  O  O68  1  0.39278600  0.05761800  0.31104600  1
  O  O69  1  0.82288900  0.92928400  0.20666800  1
  O  O70  1  0.11552300  0.29988400  0.95841900  1
  O  O71  1  0.35497300  0.56780500  0.70103200  1
  O  O72  1  0.10989600  0.73695800  0.85708100  1
  O  O73  1  0.72138700  0.54363500  0.74018700  1
  O  O74  1  0.26629300  0.22464700  0.74538300  1
  O  O75  1  0.17039500  0.97790700  0.91034500  1
  O  O76  1  0.55281800  0.27712200  0.03584000  1
  O  O77  1  0.04198200  0.51138900  0.08518400  1
  O  O78  1  0.79274000  0.39254900  0.93276200  1
  O  O79  1  0.28773400  0.70523300  0.20344100  1
