# generated using pymatgen
data_GaN
_symmetry_space_group_name_H-M   'P 1'
_cell_length_a   11.87224435
_cell_length_b   11.85982567
_cell_length_c   11.60243706
_cell_angle_alpha   96.53678982
_cell_angle_beta   90.81675848
_cell_angle_gamma   92.58298870
_symmetry_Int_Tables_number   1
_chemical_formula_structural   GaN
_chemical_formula_sum   'Ga50 N50'
_cell_volume   1621.07626034
_cell_formula_units_Z   50
loop_
 _symmetry_equiv_pos_site_id
 _symmetry_equiv_pos_as_xyz
  1  'x, y, z'
loop_
 _atom_site_type_symbol
 _atom_site_label
 _atom_site_symmetry_multiplicity
 _atom_site_fract_x
 _atom_site_fract_y
 _atom_site_fract_z
 _atom_site_occupancy
  Ga  Ga0  1  0.13673012  0.64834649  0.55605585  1
  Ga  Ga1  1  0.26162122  0.40152919  0.40115131  1
  Ga  Ga2  1  0.05189806  0.65460591  0.87020392  1
  Ga  Ga3  1  0.90673440  0.72812642  0.66148008  1
  Ga  Ga4  1  0.37910632  0.21147073  0.17990761  1
  Ga  Ga5  1  0.52467605  0.55760622  0.75505572  1
  Ga  Ga6  1  0.59673190  0.76907933  0.64531489  1
  Ga  Ga7  1  0.17557540  0.81935732  0.23290591  1
  Ga  Ga8  1  0.44425373  0.55688145  0.25620232  1
  Ga  Ga9  1  0.92985639  0.01474665  0.24805500  1
  Ga  Ga10  1  0.27482894  0.82632686  0.90372159  1
  Ga  Ga11  1  0.13753205  0.01139945  0.05890800  1
  Ga  Ga12  1  0.87008867  0.50662601  0.85449087  1
  Ga  Ga13  1  0.73951217  0.23487113  0.88063640  1
  Ga  Ga14  1  0.99795789  0.27139940  0.38948185  1
  Ga  Ga15  1  0.51538900  0.82770079  0.86423280  1
  Ga  Ga16  1  0.75803137  0.13971883  0.41804303  1
  Ga  Ga17  1  0.60944111  0.66985732  0.94905748  1
  Ga  Ga18  1  0.77376140  0.59821077  0.09491439  1
  Ga  Ga19  1  0.94450460  0.04862951  0.54188217  1
  Ga  Ga20  1  0.99270577  0.81909161  0.40916090  1
  Ga  Ga21  1  0.50469514  0.76894125  0.19718540  1
  Ga  Ga22  1  0.78708051  0.45518095  0.32585139  1
  Ga  Ga23  1  0.57831705  0.37930194  0.33331664  1
  Ga  Ga24  1  0.32898253  0.34889011  0.61194532  1
  Ga  Ga25  1  0.61035663  0.03130158  0.24959597  1
  Ga  Ga26  1  0.08892729  0.22116527  0.16632646  1
  Ga  Ga27  1  0.05196925  0.48327943  0.32461019  1
  Ga  Ga28  1  0.27007545  0.66483441  0.33342562  1
  Ga  Ga29  1  0.83596758  0.95921701  0.01717058  1
  Ga  Ga30  1  0.91032475  0.37899099  0.06352718  1
  Ga  Ga31  1  0.45187312  0.56874593  0.51851710  1
  Ga  Ga32  1  0.94105403  0.23138437  0.70738171  1
  Ga  Ga33  1  0.91161589  0.46233173  0.58180640  1
  Ga  Ga34  1  0.39699810  0.92803277  0.10789592  1
  Ga  Ga35  1  0.95143770  0.13093371  0.91982602  1
  Ga  Ga36  1  0.77760139  0.98770277  0.78795857  1
  Ga  Ga37  1  0.81207761  0.76863073  0.85826780  1
  Ga  Ga38  1  0.37001187  0.77916950  0.56709296  1
  Ga  Ga39  1  0.99894840  0.66669414  0.25004965  1
  Ga  Ga40  1  0.78600900  0.20061585  0.17918072  1
  Ga  Ga41  1  0.75195152  0.81420068  0.20424325  1
  Ga  Ga42  1  0.04540585  0.92865997  0.80130215  1
  Ga  Ga43  1  0.28496703  0.62852332  0.70840473  1
  Ga  Ga44  1  0.31520695  0.04213692  0.32117160  1
  Ga  Ga45  1  0.06428180  0.53811483  0.06039006  1
  Ga  Ga46  1  0.23235374  0.89226944  0.46569782  1
  Ga  Ga47  1  0.57501088  0.83150457  0.44624830  1
  Ga  Ga48  1  0.73453584  0.58193322  0.52027848  1
  Ga  Ga49  1  0.98829429  0.78592589  0.05080438  1
  N  N50  1  0.24697037  0.09147016  0.66051608  1
  N  N51  1  0.69841565  0.30830145  0.59777870  1
  N  N52  1  0.53167027  0.20730107  0.43478339  1
  N  N53  1  0.97501917  0.97478212  0.39425117  1
  N  N54  1  0.18375401  0.55515575  0.41347542  1
  N  N55  1  0.17034563  0.94413689  0.90503009  1
  N  N56  1  0.80368409  0.46331528  0.16331536  1
  N  N57  1  0.20649198  0.68240685  0.84212297  1
  N  N58  1  0.74262313  0.79586664  0.38448299  1
  N  N59  1  0.38216608  0.58189920  0.01359814  1
  N  N60  1  0.99695865  0.60402558  0.61352362  1
  N  N61  1  0.67142154  0.84920338  0.78274650  1
  N  N62  1  0.07021062  0.29783746  0.57234873  1
  N  N63  1  0.60457216  0.39054906  0.97591669  1
  N  N64  1  0.18697704  0.39533801  0.81121937  1
  N  N65  1  0.15665141  0.35533854  0.58377032  1
  N  N66  1  0.53776578  0.02849346  0.93164432  1
  N  N67  1  0.61573212  0.02410600  0.57846459  1
  N  N68  1  0.92269769  0.41488697  0.40795314  1
  N  N69  1  0.63922416  0.70181381  0.12144127  1
  N  N70  1  0.26950364  0.35959056  0.03179493  1
  N  N71  1  0.22433018  0.42997614  0.08213190  1
  N  N72  1  0.42886192  0.23890202  0.81240198  1
  N  N73  1  0.87988778  0.72129431  0.15777162  1
  N  N74  1  0.09342161  0.82359032  0.54996620  1
  N  N75  1  0.24307323  0.95326797  0.17379724  1
  N  N76  1  0.59943272  0.60194401  0.60528814  1
  N  N77  1  0.53859428  0.89988095  0.31616540  1
  N  N78  1  0.01375122  0.86664399  0.63158119  1
  N  N79  1  0.51651242  0.39935699  0.15948386  1
  N  N80  1  0.56012564  0.05956055  0.65058583  1
  N  N81  1  0.98860865  0.95039032  0.10110860  1
  N  N82  1  0.82014292  0.78548824  0.45149375  1
  N  N83  1  0.94188503  0.17854919  0.25127635  1
  N  N84  1  0.46607127  0.07587706  0.18817443  1
  N  N85  1  0.13257364  0.33281105  0.30426990  1
  N  N86  1  0.36891970  0.67594168  0.02629018  1
  N  N87  1  0.56358099  0.39371826  0.06680832  1
  N  N88  1  0.64204145  0.31222249  0.67542995  1
  N  N89  1  0.84478513  0.22501781  0.01930555  1
  N  N90  1  0.76206096  0.97381966  0.17903041  1
  N  N91  1  0.16726317  0.10413402  0.70991310  1
  N  N92  1  0.45810711  0.18628098  0.49141959  1
  N  N93  1  0.09825734  0.36883920  0.83282524  1
  N  N94  1  0.43522927  0.45333358  0.38120207  1
  N  N95  1  0.38581999  0.50586661  0.66032631  1
  N  N96  1  0.43495409  0.76332022  0.72069310  1
  N  N97  1  0.61334529  0.08278635  0.96849137  1
  N  N98  1  0.38404819  0.18708012  0.87488098  1
  N  N99  1  0.76546884  0.62214499  0.92344016  1
