data_image0
_chemical_formula_structural       C2I2Y2
_chemical_formula_sum              "C2 I2 Y2"
_cell_length_a       3.90291
_cell_length_b       4.13554
_cell_length_c       10.5377
_cell_angle_alpha    93.4283
_cell_angle_beta     90
_cell_angle_gamma    118.156

_space_group_name_H-M_alt    "P 1"
_space_group_IT_number       1

loop_
  _space_group_symop_operation_xyz
  'x, y, z'

loop_
  _atom_site_type_symbol
  _atom_site_label
  _atom_site_symmetry_multiplicity
  _atom_site_fract_x
  _atom_site_fract_y
  _atom_site_fract_z
  _atom_site_occupancy
  C   C1        1.0  0.42400  0.84700  0.03120  1.0000
  C   C2        1.0  0.57600  0.15300  0.96900  1.0000
  I   I1        1.0  0.82800  0.65700  0.33200  1.0000
  I   I2        1.0  0.17200  0.34300  0.66800  1.0000
  Y   Y1        1.0  0.14600  0.29300  0.13200  1.0000
  Y   Y2        1.0  0.85400  0.70700  0.86800  1.0000
