# generated using pymatgen
data_GaN
_symmetry_space_group_name_H-M   'P 1'
_cell_length_a   11.77069375
_cell_length_b   11.05365775
_cell_length_c   12.05557354
_cell_angle_alpha   92.33488026
_cell_angle_beta   92.94501163
_cell_angle_gamma   97.84997323
_symmetry_Int_Tables_number   1
_chemical_formula_structural   GaN
_chemical_formula_sum   'Ga50 N50'
_cell_volume   1549.98137484
_cell_formula_units_Z   50
loop_
 _symmetry_equiv_pos_site_id
 _symmetry_equiv_pos_as_xyz
  1  'x, y, z'
loop_
 _atom_site_type_symbol
 _atom_site_label
 _atom_site_symmetry_multiplicity
 _atom_site_fract_x
 _atom_site_fract_y
 _atom_site_fract_z
 _atom_site_occupancy
  Ga  Ga0  1  0.08037643  0.09110635  0.45754667  1
  Ga  Ga1  1  0.06531294  0.59061346  0.29633324  1
  Ga  Ga2  1  0.75298110  0.87756537  0.07791020  1
  Ga  Ga3  1  0.07271638  0.85000514  0.79004451  1
  Ga  Ga4  1  0.19324765  0.19440499  0.19913751  1
  Ga  Ga5  1  0.46310187  0.95713851  0.79269393  1
  Ga  Ga6  1  0.52483670  0.68527439  0.67511554  1
  Ga  Ga7  1  0.96553749  0.25691047  0.30304210  1
  Ga  Ga8  1  0.29079269  0.05937510  0.51328864  1
  Ga  Ga9  1  0.54580769  0.98451583  0.25532563  1
  Ga  Ga10  1  0.13087153  0.79319089  0.47541655  1
  Ga  Ga11  1  0.29624950  0.96658763  0.06656819  1
  Ga  Ga12  1  0.48417032  0.21793336  0.17879061  1
  Ga  Ga13  1  0.75008898  0.39056863  0.16959741  1
  Ga  Ga14  1  0.10175166  0.43882928  0.47697200  1
  Ga  Ga15  1  0.57648061  0.05138865  0.99634004  1
  Ga  Ga16  1  0.07122014  0.04626259  0.67686301  1
  Ga  Ga17  1  0.33840942  0.60363884  0.86750508  1
  Ga  Ga18  1  0.92623136  0.85526044  0.60068318  1
  Ga  Ga19  1  0.16484943  0.53084161  0.12664439  1
  Ga  Ga20  1  0.77327287  0.05401559  0.45757064  1
  Ga  Ga21  1  0.53980492  0.18469095  0.77657134  1
  Ga  Ga22  1  0.93329683  0.58455099  0.47084386  1
  Ga  Ga23  1  0.82534389  0.18649122  0.98437797  1
  Ga  Ga24  1  0.40970835  0.17219686  0.37393038  1
  Ga  Ga25  1  0.30131435  0.83341558  0.88481376  1
  Ga  Ga26  1  0.86882060  0.67567873  0.07086803  1
  Ga  Ga27  1  0.30852591  0.44575566  0.27481544  1
  Ga  Ga28  1  0.53404759  0.80230303  0.10497950  1
  Ga  Ga29  1  0.75424362  0.10379731  0.24024843  1
  Ga  Ga30  1  0.89128473  0.44608385  0.66974613  1
  Ga  Ga31  1  0.93854539  0.19421205  0.58060378  1
  Ga  Ga32  1  0.50326754  0.94037558  0.53900711  1
  Ga  Ga33  1  0.71487115  0.59593901  0.63438949  1
  Ga  Ga34  1  0.23300902  0.88130613  0.25308773  1
  Ga  Ga35  1  0.16044401  0.58099670  0.72815082  1
  Ga  Ga36  1  0.55215422  0.44745429  0.76768536  1
  Ga  Ga37  1  0.70340617  0.89849002  0.68579519  1
  Ga  Ga38  1  0.86589435  0.72810333  0.81806608  1
  Ga  Ga39  1  0.95443883  0.83004568  0.32268513  1
  Ga  Ga40  1  0.74077473  0.33076236  0.44717638  1
  Ga  Ga41  1  0.98592800  0.37210699  0.07407088  1
  Ga  Ga42  1  0.00123030  0.98806037  0.14995796  1
  Ga  Ga43  1  0.68708380  0.20818662  0.62464507  1
  Ga  Ga44  1  0.59831473  0.74434936  0.90629929  1
  Ga  Ga45  1  0.29277399  0.81475512  0.61400325  1
  Ga  Ga46  1  0.31881400  0.72624525  0.10555852  1
  Ga  Ga47  1  0.42955122  0.72278370  0.39207269  1
  Ga  Ga48  1  0.61918954  0.29292053  0.95454091  1
  Ga  Ga49  1  0.76325701  0.46977533  0.91229327  1
  N  N50  1  0.57605225  0.40884456  0.39715216  1
  N  N51  1  0.30735061  0.15531869  0.85477820  1
  N  N52  1  0.34186761  0.97320556  0.36453895  1
  N  N53  1  0.66370034  0.00705691  0.57346099  1
  N  N54  1  0.95727484  0.76247534  0.47306834  1
  N  N55  1  0.79716635  0.76975838  0.66975515  1
  N  N56  1  0.84954459  0.27339301  0.67672290  1
  N  N57  1  0.44097431  0.76134723  0.56032462  1
  N  N58  1  0.92398272  0.07382780  0.26507314  1
  N  N59  1  0.40785127  0.37190351  0.00427295  1
  N  N60  1  0.60548107  0.31357986  0.11176070  1
  N  N61  1  0.49382347  0.60095882  0.82112169  1
  N  N62  1  0.30223904  0.51797869  0.50909368  1
  N  N63  1  0.79890760  0.49599808  0.53075907  1
  N  N64  1  0.22143709  0.29732154  0.66172083  1
  N  N65  1  0.83246144  0.01585501  0.77002358  1
  N  N66  1  0.07704864  0.29600511  0.19436547  1
  N  N67  1  0.65716374  0.76352739  0.39216694  1
  N  N68  1  0.37640957  0.98277022  0.62651131  1
  N  N69  1  0.77344247  0.74969711  0.95144910  1
  N  N70  1  0.01132318  0.65785034  0.96228207  1
  N  N71  1  0.07503253  0.59004450  0.94431003  1
  N  N72  1  0.28932156  0.14721141  0.94496205  1
  N  N73  1  0.11005339  0.77997112  0.31557499  1
  N  N74  1  0.62461760  0.54924510  0.21339388  1
  N  N75  1  0.19936185  0.76348081  0.74561152  1
  N  N76  1  0.04267895  0.51654824  0.61489442  1
  N  N77  1  0.45710023  0.04712335  0.11413533  1
  N  N78  1  0.53569327  0.57614128  0.20203911  1
  N  N79  1  0.04285243  0.34834881  0.86551753  1
  N  N80  1  0.72756661  0.71817361  0.35569834  1
  N  N81  1  0.03182563  0.26230666  0.45623131  1
  N  N82  1  0.95049320  0.00324780  0.35990544  1
  N  N83  1  0.34318711  0.52911801  0.59748490  1
  N  N84  1  0.16900309  0.01893471  0.16645650  1
  N  N85  1  0.89684389  0.82809993  0.16172880  1
  N  N86  1  0.37799076  0.46471527  0.00720814  1
  N  N87  1  0.12628433  0.31106728  0.85921025  1
  N  N88  1  0.99093921  0.06755027  0.99456006  1
  N  N89  1  0.83866305  0.50063649  0.07095701  1
  N  N90  1  0.80413251  0.29817646  0.29025551  1
  N  N91  1  0.50841271  0.45915149  0.43470067  1
  N  N92  1  0.45081569  0.92673916  0.37910472  1
  N  N93  1  0.31242750  0.28287960  0.64903088  1
  N  N94  1  0.88582053  0.10085194  0.81354544  1
  N  N95  1  0.74103473  0.05474200  0.07304416  1
  N  N96  1  0.57991864  0.84131639  0.77138978  1
  N  N97  1  0.06006009  0.06057620  0.93047002  1
  N  N98  1  0.34425428  0.27425408  0.23928571  1
  N  N99  1  0.82392690  0.54856411  0.78206282  1
