# generated using pymatgen
data_Na2O
_symmetry_space_group_name_H-M   'P 1'
_cell_length_a   12.56994112
_cell_length_b   11.86770867
_cell_length_c   12.44660761
_cell_angle_alpha   85.30852657
_cell_angle_beta   91.82129866
_cell_angle_gamma   85.40233701
_symmetry_Int_Tables_number   1
_chemical_formula_structural   Na2O
_chemical_formula_sum   'Na68 O34'
_cell_volume   1843.19045857
_cell_formula_units_Z   34
loop_
 _symmetry_equiv_pos_site_id
 _symmetry_equiv_pos_as_xyz
  1  'x, y, z'
loop_
 _atom_site_type_symbol
 _atom_site_label
 _atom_site_symmetry_multiplicity
 _atom_site_fract_x
 _atom_site_fract_y
 _atom_site_fract_z
 _atom_site_occupancy
  Na  Na0  1  0.04974340  0.83754806  0.34519373  1
  Na  Na1  1  0.10736549  0.17121017  0.67189691  1
  Na  Na2  1  0.01140290  0.57496532  0.87499897  1
  Na  Na3  1  0.07011234  0.11198833  0.38062290  1
  Na  Na4  1  0.82341378  0.17629809  0.87924011  1
  Na  Na5  1  0.58911192  0.24022609  0.83697533  1
  Na  Na6  1  0.53088861  0.61572219  0.20802717  1
  Na  Na7  1  0.91516325  0.31632625  0.27855216  1
  Na  Na8  1  0.90270672  0.41848255  0.70553390  1
  Na  Na9  1  0.94468308  0.36997536  0.97651563  1
  Na  Na10  1  0.62970761  0.02595921  0.60833992  1
  Na  Na11  1  0.41037896  0.80512436  0.84604806  1
  Na  Na12  1  0.87910256  0.13327126  0.14155376  1
  Na  Na13  1  0.93918813  0.88583712  0.14125174  1
  Na  Na14  1  0.28426125  0.20824374  0.44829671  1
  Na  Na15  1  0.33423929  0.64769353  0.05438655  1
  Na  Na16  1  0.35043626  0.22171000  0.93982626  1
  Na  Na17  1  0.62608175  0.77891177  0.68617221  1
  Na  Na18  1  0.51084708  0.97740633  0.02355839  1
  Na  Na19  1  0.10891263  0.95617090  0.59608760  1
  Na  Na20  1  0.43381563  0.16022385  0.14430424  1
  Na  Na21  1  0.20869996  0.64628722  0.74916396  1
  Na  Na22  1  0.85966959  0.00904621  0.69988321  1
  Na  Na23  1  0.80947615  0.80131440  0.54863107  1
  Na  Na24  1  0.64235356  0.91401520  0.34806933  1
  Na  Na25  1  0.10328920  0.29963125  0.11271569  1
  Na  Na26  1  0.97542825  0.81123260  0.70610769  1
  Na  Na27  1  0.13850636  0.17833936  0.91631467  1
  Na  Na28  1  0.71220966  0.43759691  0.24662081  1
  Na  Na29  1  0.09497575  0.04614094  0.12748643  1
  Na  Na30  1  0.36925580  0.90850480  0.57290311  1
  Na  Na31  1  0.25795131  0.40061643  0.25775776  1
  Na  Na32  1  0.04613565  0.68676070  0.06372890  1
  Na  Na33  1  0.97590666  0.01114680  0.92990710  1
  Na  Na34  1  0.16336681  0.89161928  0.86223054  1
  Na  Na35  1  0.00542530  0.55346469  0.23874075  1
  Na  Na36  1  0.46633005  0.40464421  0.37788626  1
  Na  Na37  1  0.24984565  0.64128546  0.30892585  1
  Na  Na38  1  0.82314694  0.23334027  0.58012318  1
  Na  Na39  1  0.35820648  0.07168416  0.71084838  1
  Na  Na40  1  0.51825515  0.10683598  0.35535059  1
  Na  Na41  1  0.95080380  0.55551113  0.48210321  1
  Na  Na42  1  0.86873075  0.99523430  0.40490494  1
  Na  Na43  1  0.78756724  0.57521250  0.05265154  1
  Na  Na44  1  0.11198339  0.41538140  0.68088880  1
  Na  Na45  1  0.81428058  0.82764887  0.93631605  1
  Na  Na46  1  0.09255102  0.69317971  0.53727619  1
  Na  Na47  1  0.25820912  0.15526737  0.24247149  1
  Na  Na48  1  0.58668299  0.66436452  0.45185792  1
  Na  Na49  1  0.28021376  0.91974168  0.07529894  1
  Na  Na50  1  0.47266437  0.84267068  0.21790258  1
  Na  Na51  1  0.58773518  0.27076985  0.60951167  1
  Na  Na52  1  0.82178812  0.64740051  0.73155851  1
  Na  Na53  1  0.35217899  0.35398152  0.70533317  1
  Na  Na54  1  0.69404468  0.84873010  0.14264138  1
  Na  Na55  1  0.69438405  0.22411069  0.36487160  1
  Na  Na56  1  0.43786629  0.57753959  0.71460228  1
  Na  Na57  1  0.65785173  0.97700729  0.81119752  1
  Na  Na58  1  0.64360771  0.47493947  0.64675934  1
  Na  Na59  1  0.75607118  0.49019247  0.46246031  1
  Na  Na60  1  0.49525021  0.45083266  0.91253192  1
  Na  Na61  1  0.22635575  0.45391071  0.92415608  1
  Na  Na62  1  0.67541774  0.34461662  0.04759693  1
  Na  Na63  1  0.07143664  0.38742022  0.42644335  1
  Na  Na64  1  0.79636781  0.66853457  0.27070968  1
  Na  Na65  1  0.47411470  0.39295027  0.14603147  1
  Na  Na66  1  0.65872031  0.11980106  0.11716103  1
  Na  Na67  1  0.55997400  0.68053535  0.98938990  1
  O  O68  1  0.25943473  0.11801483  0.06784047  1
  O  O69  1  0.97896933  0.85823281  0.51763834  1
  O  O70  1  0.51418478  0.39582799  0.73221995  1
  O  O71  1  0.98322098  0.18484677  0.00017205  1
  O  O72  1  0.63198146  0.37401828  0.46330115  1
  O  O73  1  0.98058142  0.01109663  0.26590292  1
  O  O74  1  0.22342115  0.29694166  0.80246826  1
  O  O75  1  0.49586789  0.92722142  0.71506222  1
  O  O76  1  0.12141536  0.27368600  0.29814384  1
  O  O77  1  0.07568988  0.48890414  0.03190594  1
  O  O78  1  0.69029242  0.96830169  0.98985739  1
  O  O79  1  0.54465923  0.00730960  0.20526172  1
  O  O80  1  0.78956082  0.83751436  0.74591056  1
  O  O81  1  0.13917330  0.82018422  0.14275536  1
  O  O82  1  0.62640616  0.73976375  0.29171608  1
  O  O83  1  0.69652630  0.04543384  0.44959163  1
  O  O84  1  0.43186434  0.81137748  0.03411048  1
  O  O85  1  0.10107887  0.59641439  0.38911443  1
  O  O86  1  0.24486071  0.06843006  0.56605277  1
  O  O87  1  0.37539239  0.53673209  0.22745544  1
  O  O88  1  0.34816719  0.60173528  0.86867109  1
  O  O89  1  0.03234643  0.60117309  0.69977142  1
  O  O90  1  0.61762116  0.51913339  0.08121779  1
  O  O91  1  0.03817692  0.99253297  0.76166025  1
  O  O92  1  0.51588343  0.26277294  0.00509648  1
  O  O93  1  0.98534282  0.32449315  0.58280675  1
  O  O94  1  0.75835918  0.26040120  0.19876403  1
  O  O95  1  0.79913478  0.01644127  0.00618837  1
  O  O96  1  0.09803039  0.87429748  0.03047522  1
  O  O97  1  0.86160513  0.72805694  0.10457342  1
  O  O98  1  0.71742669  0.15111948  0.72269835  1
  O  O99  1  0.86665466  0.49278941  0.32815426  1
  O  O100  1  0.71741557  0.63352721  0.58329038  1
  O  O101  1  0.39443312  0.25172972  0.30650392  1
