# generated using pymatgen
data_Al2O3
_symmetry_space_group_name_H-M   'P 1'
_cell_length_a   10.23889095
_cell_length_b   10.16428070
_cell_length_c   10.71694457
_cell_angle_alpha   91.48482686
_cell_angle_beta   88.91262897
_cell_angle_gamma   89.00883965
_symmetry_Int_Tables_number   1
_chemical_formula_structural   Al2O3
_chemical_formula_sum   'Al40 O60'
_cell_volume   1114.57085213
_cell_formula_units_Z   20
loop_
 _symmetry_equiv_pos_site_id
 _symmetry_equiv_pos_as_xyz
  1  'x, y, z'
loop_
 _atom_site_type_symbol
 _atom_site_label
 _atom_site_symmetry_multiplicity
 _atom_site_fract_x
 _atom_site_fract_y
 _atom_site_fract_z
 _atom_site_occupancy
  Al  Al0  1  0.77576300  0.53020500  0.58852000  1
  Al  Al1  1  0.85578500  0.69035600  0.34805000  1
  Al  Al2  1  0.51636600  0.89977400  0.78080900  1
  Al  Al3  1  0.79350400  0.71308400  0.01281200  1
  Al  Al4  1  0.81863300  0.49307700  0.18258900  1
  Al  Al5  1  0.28451700  0.80638100  0.53324500  1
  Al  Al6  1  0.20393200  0.49747300  0.60178200  1
  Al  Al7  1  0.95730700  0.25031400  0.51560000  1
  Al  Al8  1  0.32271700  0.43425800  0.36712400  1
  Al  Al9  1  0.81462800  0.25252400  0.95966800  1
  Al  Al10  1  0.61234700  0.75361800  0.54047300  1
  Al  Al11  1  0.31272900  0.70981500  0.78834400  1
  Al  Al12  1  0.56094300  0.21741200  0.40501600  1
  Al  Al13  1  0.85242100  0.94236300  0.47921800  1
  Al  Al14  1  0.69790000  0.00301700  0.99637400  1
  Al  Al15  1  0.02277900  0.63598000  0.80382900  1
  Al  Al16  1  0.32352200  0.20793600  0.17066900  1
  Al  Al17  1  0.06292900  0.02642100  0.67343500  1
  Al  Al18  1  0.63202900  0.61185900  0.80299400  1
  Al  Al19  1  0.52974800  0.03188700  0.56284200  1
  Al  Al20  1  0.65266300  0.20972900  0.72184600  1
  Al  Al21  1  0.09892500  0.38090400  0.03692500  1
  Al  Al22  1  0.91120900  0.39380600  0.76196200  1
  Al  Al23  1  0.11930500  0.84215100  0.29545900  1
  Al  Al24  1  0.28484000  0.61363700  0.13061200  1
  Al  Al25  1  0.45312800  0.45451700  0.67638400  1
  Al  Al26  1  0.01362800  0.06119300  0.07666300  1
  Al  Al27  1  0.59515800  0.34585300  0.18776300  1
  Al  Al28  1  0.82322000  0.85128800  0.75743200  1
  Al  Al29  1  0.23709500  0.09178800  0.49051100  1
  Al  Al30  1  0.82455900  0.12615200  0.29649600  1
  Al  Al31  1  0.51724400  0.64562400  0.24276600  1
  Al  Al32  1  0.61893100  0.92645300  0.31856000  1
  Al  Al33  1  0.49396500  0.25120400  0.92788500  1
  Al  Al34  1  0.25681800  0.02467400  0.92460300  1
  Al  Al35  1  0.46335800  0.89953000  0.07643400  1
  Al  Al36  1  0.09775800  0.17933400  0.26418700  1
  Al  Al37  1  0.27903700  0.20683200  0.73162600  1
  Al  Al38  1  0.08899600  0.76629000  0.00740000  1
  Al  Al39  1  0.05179200  0.44560700  0.31568500  1
  O  O40  1  0.07225800  0.99171000  0.22636100  1
  O  O41  1  0.15213700  0.19947800  0.07670700  1
  O  O42  1  0.64531000  0.16657100  0.94231900  1
  O  O43  1  0.97061400  0.81257800  0.39547700  1
  O  O44  1  0.36386800  0.12700200  0.59542500  1
  O  O45  1  0.80755800  0.25146800  0.78274800  1
  O  O46  1  0.02340200  0.29032700  0.37671000  1
  O  O47  1  0.09898500  0.17940600  0.58495100  1
  O  O48  1  0.74587000  0.36300400  0.08232500  1
  O  O49  1  0.15722400  0.50168200  0.43839600  1
  O  O50  1  0.46075200  0.29031700  0.08794100  1
  O  O51  1  0.89678700  0.97819100  0.65672500  1
  O  O52  1  0.87683300  0.11397800  0.45633700  1
  O  O53  1  0.63238600  0.51238500  0.23432100  1
  O  O54  1  0.17167600  0.69295600  0.87608700  1
  O  O55  1  0.68054900  0.91861700  0.51794100  1
  O  O56  1  0.68653400  0.23187200  0.29013500  1
  O  O57  1  0.97163000  0.34948800  0.92002800  1
  O  O58  1  0.79357300  0.53262700  0.75946700  1
  O  O59  1  0.17590000  0.94482000  0.56693400  1
  O  O60  1  0.51239200  0.04832000  0.39401600  1
  O  O61  1  0.86130300  0.08567500  0.99769500  1
  O  O62  1  0.42663800  0.73277700  0.11644600  1
  O  O63  1  0.79807800  0.86518300  0.92611000  1
  O  O64  1  0.60070200  0.55162200  0.61469700  1
  O  O65  1  0.34428800  0.03002800  0.08126800  1
  O  O66  1  0.94743800  0.74538900  0.71180500  1
  O  O67  1  0.05635100  0.49010100  0.71335500  1
  O  O68  1  0.14613500  0.72873300  0.15822100  1
  O  O69  1  0.15531200  0.09180200  0.79624700  1
  O  O70  1  0.60779900  0.95372300  0.15274900  1
  O  O71  1  0.37631000  0.46184900  0.52506900  1
  O  O72  1  0.45730800  0.31618700  0.31994500  1
  O  O73  1  0.88788500  0.51906000  0.34548900  1
  O  O74  1  0.61434900  0.21211800  0.55843600  1
  O  O75  1  0.93807500  0.18094100  0.19047200  1
  O  O76  1  0.10501300  0.93754900  0.98234000  1
  O  O77  1  0.26254300  0.81135900  0.37487400  1
  O  O78  1  0.36792900  0.56302500  0.26630600  1
  O  O79  1  0.25156700  0.12673200  0.33246600  1
  O  O80  1  0.57145500  0.76107500  0.35736300  1
  O  O81  1  0.36139000  0.16351300  0.87142100  1
  O  O82  1  0.23104800  0.49014400  0.02849200  1
  O  O83  1  0.54011700  0.33864400  0.78466300  1
  O  O84  1  0.45332000  0.84976800  0.58990000  1
  O  O85  1  0.44920300  0.60127100  0.79248500  1
  O  O86  1  0.24819300  0.67429400  0.63571200  1
  O  O87  1  0.81580200  0.68357400  0.17881800  1
  O  O88  1  0.66014300  0.62886500  0.96250300  1
  O  O89  1  0.77116500  0.67720400  0.49820600  1
  O  O90  1  0.34457000  0.87966800  0.82628300  1
  O  O91  1  0.58371900  0.04575800  0.72249900  1
  O  O92  1  0.86979900  0.38077500  0.58457600  1
  O  O93  1  0.65449900  0.78106800  0.72730800  1
  O  O94  1  0.28584700  0.37948400  0.71440900  1
  O  O95  1  0.99538300  0.45217600  0.15545700  1
  O  O96  1  0.55419500  0.91838600  0.93740500  1
  O  O97  1  0.95483900  0.66491400  0.96255800  1
  O  O98  1  0.21873700  0.34879400  0.24843500  1
  O  O99  1  0.78776300  0.95661800  0.30939300  1
