# generated using pymatgen
data_Al2O3
_symmetry_space_group_name_H-M   'P 1'
_cell_length_a   9.88322072
_cell_length_b   9.97501478
_cell_length_c   11.32433137
_cell_angle_alpha   91.24755559
_cell_angle_beta   94.38257828
_cell_angle_gamma   86.93746292
_symmetry_Int_Tables_number   1
_chemical_formula_structural   Al2O3
_chemical_formula_sum   'Al40 O60'
_cell_volume   1111.38271313
_cell_formula_units_Z   20
loop_
 _symmetry_equiv_pos_site_id
 _symmetry_equiv_pos_as_xyz
  1  'x, y, z'
loop_
 _atom_site_type_symbol
 _atom_site_label
 _atom_site_symmetry_multiplicity
 _atom_site_fract_x
 _atom_site_fract_y
 _atom_site_fract_z
 _atom_site_occupancy
  Al  Al0  1  0.27381900  0.62085100  0.34115900  1
  Al  Al1  1  0.61036400  0.96141700  0.96096400  1
  Al  Al2  1  0.93220400  0.68083700  0.67225100  1
  Al  Al3  1  0.17102100  0.36912000  0.92269300  1
  Al  Al4  1  0.31887800  0.93317000  0.91645100  1
  Al  Al5  1  0.84678100  0.17290200  0.61370800  1
  Al  Al6  1  0.28190100  0.24973500  0.64191400  1
  Al  Al7  1  0.85709900  0.03986800  0.08060000  1
  Al  Al8  1  0.32082000  0.88739900  0.20535000  1
  Al  Al9  1  0.01285900  0.41495600  0.55693900  1
  Al  Al10  1  0.88972400  0.53367400  0.02719100  1
  Al  Al11  1  0.67099300  0.29402800  0.96250700  1
  Al  Al12  1  0.76882800  0.30999400  0.38742400  1
  Al  Al13  1  0.48618300  0.80333200  0.65312100  1
  Al  Al14  1  0.03946100  0.92404500  0.76041000  1
  Al  Al15  1  0.91581000  0.30956200  0.15329800  1
  Al  Al16  1  0.87867600  0.40976500  0.78529800  1
  Al  Al17  1  0.97835900  0.10391400  0.33990200  1
  Al  Al18  1  0.54597000  0.00110600  0.30413800  1
  Al  Al19  1  0.39796700  0.18470000  0.06085600  1
  Al  Al20  1  0.49681500  0.27247800  0.28913400  1
  Al  Al21  1  0.86880400  0.79796700  0.93921200  1
  Al  Al22  1  0.71436100  0.80015800  0.47658400  1
  Al  Al23  1  0.02716600  0.81097600  0.46068600  1
  Al  Al24  1  0.21681500  0.69631200  0.60888700  1
  Al  Al25  1  0.27559200  0.96829300  0.48253500  1
  Al  Al26  1  0.72111200  0.98479600  0.70516800  1
  Al  Al27  1  0.41559900  0.45284400  0.07438100  1
  Al  Al28  1  0.60017100  0.57326900  0.28508000  1
  Al  Al29  1  0.66590600  0.56343900  0.80526500  1
  Al  Al30  1  0.17534900  0.67413300  0.04973600  1
  Al  Al31  1  0.57428400  0.53826700  0.51594600  1
  Al  Al32  1  0.39884900  0.69943900  0.86181100  1
  Al  Al33  1  0.21659000  0.31466700  0.37827500  1
  Al  Al34  1  0.10650500  0.07175900  0.00228200  1
  Al  Al35  1  0.99143300  0.54511100  0.31666700  1
  Al  Al36  1  0.38835700  0.45234100  0.75854600  1
  Al  Al37  1  0.81799000  0.82521900  0.23858000  1
  Al  Al38  1  0.58589100  0.73857100  0.10484600  1
  Al  Al39  1  0.54126000  0.23933000  0.53424600  1
  O  O40  1  0.49837800  0.85809800  0.19587900  1
  O  O41  1  0.21996000  0.21941000  0.99700200  1
  O  O42  1  0.87896800  0.78249300  0.54461000  1
  O  O43  1  0.56115500  0.62662500  0.65891400  1
  O  O44  1  0.99565100  0.42706700  0.90966100  1
  O  O45  1  0.93941200  0.31368800  0.66762100  1
  O  O46  1  0.32656100  0.09204400  0.58775300  1
  O  O47  1  0.71301300  0.37604600  0.82610100  1
  O  O48  1  0.91199400  0.97768000  0.22906000  1
  O  O49  1  0.49749700  0.58830500  0.14004200  1
  O  O50  1  0.44675700  0.05130300  0.95302400  1
  O  O51  1  0.09249300  0.96911700  0.42894400  1
  O  O52  1  0.67116300  0.14502800  0.64104000  1
  O  O53  1  0.65938300  0.37465400  0.51917700  1
  O  O54  1  0.62997900  0.87753900  0.59882600  1
  O  O55  1  0.49937900  0.54108800  0.86609600  1
  O  O56  1  0.99511700  0.68250300  0.03335000  1
  O  O57  1  0.70829900  0.11976300  0.99579100  1
  O  O58  1  0.81707500  0.56198400  0.71515800  1
  O  O59  1  0.37105300  0.33843100  0.17786800  1
  O  O60  1  0.78389300  0.38875100  0.05223200  1
  O  O61  1  0.89792600  0.02946500  0.70023600  1
  O  O62  1  0.24362900  0.72203200  0.20428100  1
  O  O63  1  0.49469100  0.31890500  0.98893500  1
  O  O64  1  0.70614000  0.90751800  0.83913200  1
  O  O65  1  0.40211800  0.85335000  0.77958100  1
  O  O66  1  0.67438600  0.63777900  0.43237400  1
  O  O67  1  0.16947900  0.48173200  0.32907900  1
  O  O68  1  0.16498100  0.32389400  0.53274200  1
  O  O69  1  0.25949700  0.76099600  0.94343700  1
  O  O70  1  0.50365600  0.12332600  0.18956000  1
  O  O71  1  0.25051300  0.50767400  0.00391500  1
  O  O72  1  0.91137700  0.44329400  0.42047700  1
  O  O73  1  0.06133100  0.56884900  0.62442100  1
  O  O74  1  0.95174600  0.78106300  0.80095600  1
  O  O75  1  0.16886200  0.68930400  0.45221800  1
  O  O76  1  0.84090900  0.22677000  0.26153400  1
  O  O77  1  0.44360000  0.57499500  0.38927900  1
  O  O78  1  0.24606300  0.97667700  0.08163200  1
  O  O79  1  0.76618900  0.63762300  0.93245200  1
  O  O80  1  0.94950600  0.72492200  0.32530600  1
  O  O81  1  0.11042600  0.20475700  0.30356800  1
  O  O82  1  0.16032100  0.01118300  0.85198600  1
  O  O83  1  0.44154700  0.33598800  0.64850400  1
  O  O84  1  0.88257300  0.17407300  0.46736800  1
  O  O85  1  0.36373900  0.96784200  0.34831400  1
  O  O86  1  0.70289800  0.89962600  0.35034700  1
  O  O87  1  0.63098700  0.39501000  0.29153400  1
  O  O88  1  0.30748500  0.61165000  0.72687000  1
  O  O89  1  0.34990000  0.81161700  0.54835300  1
  O  O90  1  0.10597600  0.83540500  0.63730600  1
  O  O91  1  0.96217500  0.95009700  0.97879000  1
  O  O92  1  0.97006500  0.47706800  0.17142600  1
  O  O93  1  0.52041300  0.79244900  0.96590600  1
  O  O94  1  0.24967600  0.34413500  0.78304200  1
  O  O95  1  0.97650900  0.17434800  0.06749400  1
  O  O96  1  0.72120200  0.67163100  0.20465300  1
  O  O97  1  0.59925300  0.15140100  0.39852600  1
  O  O98  1  0.39337400  0.29283300  0.41558800  1
  O  O99  1  0.74458200  0.87532100  0.07424400  1
