# generated using pymatgen
data_GaN
_symmetry_space_group_name_H-M   'P 1'
_cell_length_a   10.86371707
_cell_length_b   11.65991746
_cell_length_c   12.02469796
_cell_angle_alpha   94.64888961
_cell_angle_beta   91.43129015
_cell_angle_gamma   90.44092764
_symmetry_Int_Tables_number   1
_chemical_formula_structural   GaN
_chemical_formula_sum   'Ga50 N50'
_cell_volume   1517.61204028
_cell_formula_units_Z   50
loop_
 _symmetry_equiv_pos_site_id
 _symmetry_equiv_pos_as_xyz
  1  'x, y, z'
loop_
 _atom_site_type_symbol
 _atom_site_label
 _atom_site_symmetry_multiplicity
 _atom_site_fract_x
 _atom_site_fract_y
 _atom_site_fract_z
 _atom_site_occupancy
  Ga  Ga0  1  0.05363444  0.66941203  0.49793732  1
  Ga  Ga1  1  0.20755763  0.43631592  0.38552809  1
  Ga  Ga2  1  0.08238394  0.67184358  0.78970477  1
  Ga  Ga3  1  0.79583927  0.79655390  0.68298335  1
  Ga  Ga4  1  0.23497962  0.25921350  0.18306140  1
  Ga  Ga5  1  0.40966130  0.55837661  0.78168941  1
  Ga  Ga6  1  0.59573554  0.75252002  0.81442214  1
  Ga  Ga7  1  0.20872716  0.94123074  0.18172550  1
  Ga  Ga8  1  0.53568983  0.50873622  0.50698849  1
  Ga  Ga9  1  0.92942183  0.02163634  0.19308085  1
  Ga  Ga10  1  0.28211561  0.75708660  0.03503138  1
  Ga  Ga11  1  0.13396759  0.00958419  0.97427745  1
  Ga  Ga12  1  0.68112642  0.51783046  0.86666841  1
  Ga  Ga13  1  0.82443852  0.19838591  0.86778481  1
  Ga  Ga14  1  0.99233130  0.21925888  0.33028220  1
  Ga  Ga15  1  0.50364118  0.94605849  0.71358736  1
  Ga  Ga16  1  0.70857235  0.27781955  0.41269287  1
  Ga  Ga17  1  0.50828950  0.70351673  0.02959370  1
  Ga  Ga18  1  0.63189521  0.50191446  0.17583089  1
  Ga  Ga19  1  0.86944186  0.03221884  0.46546129  1
  Ga  Ga20  1  0.08140123  0.68150407  0.27594204  1
  Ga  Ga21  1  0.49119445  0.78640836  0.26825924  1
  Ga  Ga22  1  0.91224761  0.42007295  0.56486076  1
  Ga  Ga23  1  0.50057365  0.35562341  0.26119042  1
  Ga  Ga24  1  0.41888829  0.24209186  0.46780085  1
  Ga  Ga25  1  0.64697765  0.02119723  0.23430152  1
  Ga  Ga26  1  0.11284193  0.45108101  0.12243399  1
  Ga  Ga27  1  0.91200857  0.47462147  0.33632934  1
  Ga  Ga28  1  0.27796452  0.80240742  0.43369576  1
  Ga  Ga29  1  0.74153448  0.89984145  0.00007947  1
  Ga  Ga30  1  0.97255828  0.45513224  0.90042378  1
  Ga  Ga31  1  0.69600050  0.45552943  0.67077551  1
  Ga  Ga32  1  0.87405248  0.05274883  0.67832381  1
  Ga  Ga33  1  0.14791253  0.46055239  0.60223737  1
  Ga  Ga34  1  0.45604215  0.95337698  0.04259133  1
  Ga  Ga35  1  0.05108951  0.20755900  0.04645581  1
  Ga  Ga36  1  0.71919668  0.99778868  0.81915909  1
  Ga  Ga37  1  0.83438050  0.72417258  0.89969162  1
  Ga  Ga38  1  0.32565569  0.68785726  0.62687604  1
  Ga  Ga39  1  0.89573231  0.55758611  0.09999352  1
  Ga  Ga40  1  0.82082701  0.30950092  0.10918021  1
  Ga  Ga41  1  0.76938919  0.77071998  0.21151024  1
  Ga  Ga42  1  0.99215744  0.92988124  0.81504011  1
  Ga  Ga43  1  0.35637577  0.37207660  0.62235969  1
  Ga  Ga44  1  0.38897414  0.08093720  0.27624497  1
  Ga  Ga45  1  0.20259087  0.52729765  0.92409071  1
  Ga  Ga46  1  0.17266165  0.01706916  0.38936108  1
  Ga  Ga47  1  0.51567853  0.72728911  0.49353755  1
  Ga  Ga48  1  0.75016038  0.63944268  0.52255651  1
  Ga  Ga49  1  0.00413187  0.78559668  0.04778362  1
  N  N50  1  0.29284245  0.14996495  0.68210662  1
  N  N51  1  0.55307754  0.17691502  0.64277182  1
  N  N52  1  0.63080952  0.12667252  0.36675429  1
  N  N53  1  0.99203426  0.05384650  0.35358133  1
  N  N54  1  0.90581989  0.57027616  0.47775405  1
  N  N55  1  0.13322469  0.70271466  0.95124766  1
  N  N56  1  0.81185248  0.46443096  0.20203170  1
  N  N57  1  0.14703171  0.63858239  0.63972565  1
  N  N58  1  0.77793924  0.78142852  0.38753718  1
  N  N59  1  0.22335971  0.76469616  0.20698171  1
  N  N60  1  0.94285176  0.76684202  0.78110598  1
  N  N61  1  0.56870182  0.85031510  0.96571076  1
  N  N62  1  0.24607356  0.17822328  0.40318939  1
  N  N63  1  0.67591616  0.28284568  0.86886094  1
  N  N64  1  0.11569260  0.26660308  0.80164221  1
  N  N65  1  0.17392125  0.25455025  0.34397976  1
  N  N66  1  0.56107643  0.10645649  0.02639659  1
  N  N67  1  0.55957558  0.96350944  0.52847925  1
  N  N68  1  0.87859612  0.32572461  0.40946091  1
  N  N69  1  0.61342701  0.68090931  0.17057788  1
  N  N70  1  0.39907481  0.51915953  0.11198867  1
  N  N71  1  0.31673048  0.50328324  0.16589674  1
  N  N72  1  0.39488868  0.31692336  0.89875017  1
  N  N73  1  0.93544906  0.70757884  0.17502579  1
  N  N74  1  0.17594757  0.93100391  0.60495283  1
  N  N75  1  0.28345396  0.93311685  0.02818248  1
  N  N76  1  0.53911681  0.61362923  0.88903012  1
  N  N77  1  0.49016962  0.94636676  0.20627731  1
  N  N78  1  0.08230928  0.89624991  0.62719781  1
  N  N79  1  0.66545445  0.37501067  0.04621678  1
  N  N80  1  0.66504537  0.96562356  0.53561599  1
  N  N81  1  0.04717723  0.94007713  0.10207078  1
  N  N82  1  0.83258096  0.85812793  0.44101996  1
  N  N83  1  0.92737366  0.19217964  0.17236748  1
  N  N84  1  0.40237700  0.22707028  0.20353357  1
  N  N85  1  0.08315006  0.50594520  0.28349662  1
  N  N86  1  0.32033623  0.74095667  0.28409156  1
  N  N87  1  0.65170877  0.36762220  0.93882326  1
  N  N88  1  0.65110039  0.20519992  0.63019957  1
  N  N89  1  0.92870711  0.30348955  0.96960110  1
  N  N90  1  0.77575327  0.93193092  0.16707243  1
  N  N91  1  0.30923394  0.08051784  0.74003710  1
  N  N92  1  0.51426616  0.11225005  0.40259581  1
  N  N93  1  0.05874017  0.23204132  0.72691302  1
  N  N94  1  0.55539382  0.35916505  0.41975818  1
  N  N95  1  0.50643982  0.46292247  0.66272741  1
  N  N96  1  0.48408960  0.77913078  0.67563857  1
  N  N97  1  0.63683775  0.13215853  0.09532889  1
  N  N98  1  0.36338814  0.23999238  0.93913320  1
  N  N99  1  0.83585611  0.56561326  0.94609450  1
