# generated using pymatgen
data_Ta2O5
_symmetry_space_group_name_H-M   'P 1'
_cell_length_a   11.31564436
_cell_length_b   12.05351361
_cell_length_c   12.05633063
_cell_angle_alpha   96.25038659
_cell_angle_beta   89.61631644
_cell_angle_gamma   92.18336102
_symmetry_Int_Tables_number   1
_chemical_formula_structural   Ta2O5
_chemical_formula_sum   'Ta30 O75'
_cell_volume   1633.43534042
_cell_formula_units_Z   15
loop_
 _symmetry_equiv_pos_site_id
 _symmetry_equiv_pos_as_xyz
  1  'x, y, z'
loop_
 _atom_site_type_symbol
 _atom_site_label
 _atom_site_symmetry_multiplicity
 _atom_site_fract_x
 _atom_site_fract_y
 _atom_site_fract_z
 _atom_site_occupancy
  Ta  Ta0  1  0.19037380  0.64744418  0.36609853  1
  Ta  Ta1  1  0.90867783  0.40894198  0.83264343  1
  Ta  Ta2  1  0.57943525  0.93427948  0.66646795  1
  Ta  Ta3  1  0.01619902  0.42256173  0.33959940  1
  Ta  Ta4  1  0.05831649  0.77204672  0.11766231  1
  Ta  Ta5  1  0.35141748  0.71290037  0.65030934  1
  Ta  Ta6  1  0.79029260  0.83658473  0.06169607  1
  Ta  Ta7  1  0.99194087  0.24021919  0.56619449  1
  Ta  Ta8  1  0.26504667  0.69329596  0.93410450  1
  Ta  Ta9  1  0.44008873  0.02669853  0.42087863  1
  Ta  Ta10  1  0.80985349  0.63083437  0.90406910  1
  Ta  Ta11  1  0.61572532  0.63492660  0.66112534  1
  Ta  Ta12  1  0.21640571  0.39425050  0.94864790  1
  Ta  Ta13  1  0.26875313  0.97994624  0.88364665  1
  Ta  Ta14  1  0.48491961  0.15575307  0.07574496  1
  Ta  Ta15  1  0.38638811  0.86290405  0.15396134  1
  Ta  Ta16  1  0.48513745  0.50922624  0.86548501  1
  Ta  Ta17  1  0.32272860  0.24294431  0.52244023  1
  Ta  Ta18  1  0.28024436  0.35363798  0.23719705  1
  Ta  Ta19  1  0.04107002  0.14475705  0.03236978  1
  Ta  Ta20  1  0.86647374  0.69132622  0.46005570  1
  Ta  Ta21  1  0.44230706  0.57644844  0.14986024  1
  Ta  Ta22  1  0.72065147  0.48140567  0.25004979  1
  Ta  Ta23  1  0.96669885  0.90487521  0.85218659  1
  Ta  Ta24  1  0.89144581  0.93575095  0.54849859  1
  Ta  Ta25  1  0.58410803  0.34800845  0.49495842  1
  Ta  Ta26  1  0.73441341  0.25198845  0.00634804  1
  Ta  Ta27  1  0.98301388  0.99292607  0.26785490  1
  Ta  Ta28  1  0.66877019  0.05854353  0.21856479  1
  Ta  Ta29  1  0.43496223  0.18743297  0.80882032  1
  O  O30  1  0.31443167  0.28175581  0.89200285  1
  O  O31  1  0.41405430  0.37985613  0.53463068  1
  O  O32  1  0.41719286  0.07701921  0.93859015  1
  O  O33  1  0.91731034  0.91966660  0.70568331  1
  O  O34  1  0.98521714  0.79716557  0.53020863  1
  O  O35  1  0.48210824  0.19111785  0.44823424  1
  O  O36  1  0.48423765  0.74936358  0.17351433  1
  O  O37  1  0.18943045  0.48873013  0.35490063  1
  O  O38  1  0.24457335  0.69351884  0.77507371  1
  O  O39  1  0.89871617  0.74833521  0.84493688  1
  O  O40  1  0.98868423  0.06722637  0.89486650  1
  O  O41  1  0.76764875  0.65688355  0.57654919  1
  O  O42  1  0.84962418  0.49625581  0.96695246  1
  O  O43  1  0.45215655  0.61364310  0.74171517  1
  O  O44  1  0.93599839  0.33480086  0.68048551  1
  O  O45  1  0.69027915  0.72653580  0.98119387  1
  O  O46  1  0.08087108  0.69420963  0.26165092  1
  O  O47  1  0.79220356  0.29165247  0.86576620  1
  O  O48  1  0.80150492  0.83237260  0.43599160  1
  O  O49  1  0.92956938  0.10271591  0.59440197  1
  O  O50  1  0.39532072  0.21424228  0.66180196  1
  O  O51  1  0.46584673  0.00014425  0.12154521  1
  O  O52  1  0.07089343  0.41868198  0.86806422  1
  O  O53  1  0.89346208  0.69885971  0.05578015  1
  O  O54  1  0.04363352  0.10934794  0.18398019  1
  O  O55  1  0.50152754  0.47887696  0.01695009  1
  O  O56  1  0.99875806  0.57379281  0.42525249  1
  O  O57  1  0.86814212  0.53609331  0.76703848  1
  O  O58  1  0.40389768  0.64868686  0.00066727  1
  O  O59  1  0.55391689  0.06995239  0.75634485  1
  O  O60  1  0.65096799  0.40314804  0.35881001  1
  O  O61  1  0.96764758  0.31048916  0.43209436  1
  O  O62  1  0.11765402  0.65104249  -0.00550851  1
  O  O63  1  0.88711700  0.43362393  0.24920993  1
  O  O64  1  0.90117935  0.86032415  0.19602072  1
  O  O65  1  0.26681984  0.46003509  0.09274348  1
  O  O66  1  0.11387825  0.90651967  0.22428035  1
  O  O67  1  0.18970182  0.05754907  0.00091331  1
  O  O68  1  0.98829618  0.99415958  0.42245921  1
  O  O69  1  0.82516005  0.07692702  0.26389040  1
  O  O70  1  0.61768957  0.48541484  0.59026481  1
  O  O71  1  0.64691683  0.57943421  0.81989694  1
  O  O72  1  0.56549890  0.18762081  0.22188417  1
  O  O73  1  0.33792470  0.85097829  0.94416916  1
  O  O74  1  0.48782306  0.94483135  0.53320154  1
  O  O75  1  0.41215697  0.45801330  0.24971506  1
  O  O76  1  0.28083257  0.28150742  0.36584889  1
  O  O77  1  0.36539291  0.92246138  0.30386310  1
  O  O78  1  0.30185331  0.50874898  0.87033697  1
  O  O79  1  0.13396241  0.89866651  0.81484031  1
  O  O80  1  0.24232286  0.78195492  0.10691431  1
  O  O81  1  0.30059924  0.07739797  0.77243195  1
  O  O82  1  0.11442469  0.27905552  0.00993050  1
  O  O83  1  0.66900576  0.10967138  0.05481986  1
  O  O84  1  0.10572526  0.34123735  0.22547900  1
  O  O85  1  0.82398824  0.93642992  0.95888845  1
  O  O86  1  0.78829168  0.61564483  0.32754305  1
  O  O87  1  0.31951248  0.65030999  0.27363817  1
  O  O88  1  0.59410060  0.01768733  0.34786241  1
  O  O89  1  0.35239270  0.23975738  0.13557023  1
  O  O90  1  0.88358667  0.20996259  0.05251604  1
  O  O91  1  0.70951481  0.37275895  0.11405529  1
  O  O92  1  0.55528836  0.24210266  0.95805604  1
  O  O93  1  0.72532674  0.96659891  0.59923197  1
  O  O94  1  0.60110068  0.57165545  0.19646996  1
  O  O95  1  0.69189655  0.26835821  0.55189632  1
  O  O96  1  0.40203916  0.85609093  0.70153762  1
  O  O97  1  0.63113892  0.80042776  0.72046149  1
  O  O98  1  0.15637265  0.25656906  0.57990028  1
  O  O99  1  0.29033819  0.08223786  0.47008005  1
  O  O100  1  0.03553553  0.86831016  0.00668809  1
  O  O101  1  0.49714064  0.67949276  0.56270494  1
  O  O102  1  0.24984686  0.70084953  0.51686110  1
  O  O103  1  0.67316533  0.90607215  0.15216285  1
  O  O104  1  0.49923576  0.36690939  0.80118571  1
