# generated using pymatgen
data_V2O5
_symmetry_space_group_name_H-M   'P 1'
_cell_length_a   11.70537975
_cell_length_b   11.83347261
_cell_length_c   12.85289306
_cell_angle_alpha   81.35203394
_cell_angle_beta   93.99302071
_cell_angle_gamma   96.13677658
_symmetry_Int_Tables_number   1
_chemical_formula_structural   V2O5
_chemical_formula_sum   'V30 O75'
_cell_volume   1747.39552975
_cell_formula_units_Z   15
loop_
 _symmetry_equiv_pos_site_id
 _symmetry_equiv_pos_as_xyz
  1  'x, y, z'
loop_
 _atom_site_type_symbol
 _atom_site_label
 _atom_site_symmetry_multiplicity
 _atom_site_fract_x
 _atom_site_fract_y
 _atom_site_fract_z
 _atom_site_occupancy
  V  V0  1  0.95297300  0.94258774  0.27248686  1
  V  V1  1  0.04852751  0.83359721  0.71052379  1
  V  V2  1  0.16874156  0.15372492  0.19232343  1
  V  V3  1  0.82617889  0.15432349  0.38593179  1
  V  V4  1  0.83812932  0.09090894  0.80477508  1
  V  V5  1  0.97710861  0.86523371  0.90380330  1
  V  V6  1  0.03596219  0.61478799  0.06603017  1
  V  V7  1  0.49380883  0.73933026  0.22840949  1
  V  V8  1  0.67620976  0.47224741  0.61213833  1
  V  V9  1  0.33685270  0.60437795  0.10843264  1
  V  V10  1  0.55849514  0.03549541  0.48147846  1
  V  V11  1  0.35280996  0.92868644  0.32096181  1
  V  V12  1  0.33168834  0.85183359  0.79677126  1
  V  V13  1  0.43405147  0.11120336  0.84788429  1
  V  V14  1  0.91644627  0.64212905  0.56861480  1
  V  V15  1  0.02327443  0.20049982  0.60063782  1
  V  V16  1  0.11692816  0.71626486  0.36982933  1
  V  V17  1  0.24866590  0.24363894  0.94210132  1
  V  V18  1  0.38420470  0.56502670  0.42469433  1
  V  V19  1  0.70318086  0.25455687  0.85073251  1
  V  V20  1  0.28360362  0.48880967  0.66931913  1
  V  V21  1  0.30824840  0.85381913  0.54987984  1
  V  V22  1  0.46920293  0.31061411  0.46876763  1
  V  V23  1  0.85927046  0.43595005  0.25286704  1
  V  V24  1  0.73261095  0.52186210  0.87661146  1
  V  V25  1  0.19835080  0.19467871  0.47138202  1
  V  V26  1  0.64686894  0.75197550  0.47205954  1
  V  V27  1  0.51331746  0.66774785  0.91099183  1
  V  V28  1  0.66756989  0.59591670  0.09563092  1
  V  V29  1  0.41297590  0.32410812  0.13625478  1
  O  O30  1  0.10037592  0.29122084  0.46334078  1
  O  O31  1  0.19346546  0.14923690  0.05084250  1
  O  O32  1  0.62863031  0.60355173  0.56954145  1
  O  O33  1  0.86353817  0.87851255  0.19262626  1
  O  O34  1  0.59343089  0.36173689  0.54663580  1
  O  O35  1  0.83797437  0.57330497  0.80395300  1
  O  O36  1  0.37943938  0.31158031  0.99993593  1
  O  O37  1  0.01452136  0.69262023  0.67029226  1
  O  O38  1  0.70188942  0.78090244  0.35839271  1
  O  O39  1  0.09905736  0.26553862  0.18753627  1
  O  O40  1  0.91584892  0.79746692  0.80144811  1
  O  O41  1  0.24541503  0.77037409  0.90142095  1
  O  O42  1  0.55797165  0.51407056  0.05236434  1
  O  O43  1  0.35032822  0.46051029  0.14784913  1
  O  O44  1  0.40542422  0.99448649  0.76861363  1
  O  O45  1  0.55525895  0.21575193  0.81091172  1
  O  O46  1  0.39128800  0.51034426  0.55731002  1
  O  O47  1  0.59558670  0.59287013  0.84132461  1
  O  O48  1  0.61791794  0.68278734  0.19500553  1
  O  O49  1  0.29887482  0.88027302  0.92568400  1
  O  O50  1  0.96146486  0.50588785  0.16001195  1
  O  O51  1  0.15072855  0.32809708  0.89836306  1
  O  O52  1  0.24872453  0.82640817  0.41218756  1
  O  O53  1  0.24777112  0.60193660  0.41125096  1
  O  O54  1  0.38215643  0.60977907  0.97459714  1
  O  O55  1  0.05199485  0.03788613  0.19603669  1
  O  O56  1  0.34378184  0.40936160  0.76911161  1
  O  O57  1  0.83706771  0.27812255  0.28819705  1
  O  O58  1  0.81182610  0.73367213  0.53590992  1
  O  O59  1  0.26590975  0.61606796  0.70125832  1
  O  O60  1  0.75222614  0.13430251  0.92257064  1
  O  O61  1  0.99845920  0.76086205  0.02194509  1
  O  O62  1  0.45550357  0.77432084  0.81264379  1
  O  O63  1  0.13560785  0.42624278  0.62420746  1
  O  O64  1  0.09199028  0.68821380  0.24915462  1
  O  O65  1  0.40343597  0.98038723  0.45826378  1
  O  O66  1  0.27152080  0.99711180  0.22841320  1
  O  O67  1  0.73164846  0.49544648  0.19752523  1
  O  O68  1  0.50165825  0.68212183  0.40831587  1
  O  O69  1  0.82751901  0.50483519  0.59039550  1
  O  O70  1  0.77101853  0.59224800  0.99595712  1
  O  O71  1  0.78922358  0.24681293  0.74884044  1
  O  O72  1  0.88610040  0.48423848  0.36343082  1
  O  O73  1  0.09126882  0.31706743  0.66709833  1
  O  O74  1  0.74563694  0.00769958  0.74677908  1
  O  O75  1  0.42374902  0.75632016  0.10389161  1
  O  O76  1  0.88725536  0.04381959  0.34591386  1
  O  O77  1  0.32649213  0.22091039  0.21180437  1
  O  O78  1  0.99468297  0.91848980  0.61554594  1
  O  O79  1  0.19246862  0.62092724  0.09675988  1
  O  O80  1  0.38219677  0.62251912  0.25428523  1
  O  O81  1  0.34038694  0.25415107  0.52799812  1
  O  O82  1  0.47752858  0.87397789  0.27002881  1
  O  O83  1  0.50617433  0.19921244  0.41434144  1
  O  O84  1  0.02539974  0.84569143  0.36051719  1
  O  O85  1  0.29831593  0.16776126  0.84158985  1
  O  O86  1  0.95633949  0.12183379  0.72097241  1
  O  O87  1  0.00888136  0.63788979  0.47273092  1
  O  O88  1  0.89050423  0.18403858  0.50525474  1
  O  O89  1  0.54581103  0.30619734  0.17503956  1
  O  O90  1  0.22169231  0.85607631  0.67941198  1
  O  O91  1  0.57448371  0.06635483  0.59889340  1
  O  O92  1  0.66044676  0.43794297  0.74313585  1
  O  O93  1  0.13850634  0.10456791  0.57946786  1
  O  O94  1  0.46386235  0.05548581  0.96788758  1
  O  O95  1  0.19125026  0.13165551  0.36016540  1
  O  O96  1  0.90631356  0.98409894  0.91402561  1
  O  O97  1  0.68331370  0.09969233  0.40430411  1
  O  O98  1  0.41324580  0.77778251  0.59100489  1
  O  O99  1  0.42627815  0.42860641  0.37876868  1
  O  O100  1  0.60988900  0.88508621  0.50006599  1
  O  O101  1  0.61158795  0.73369647  0.99037283  1
  O  O102  1  0.02756701  0.55705775  0.96025062  1
  O  O103  1  0.73903894  0.37016429  0.92876773  1
  O  O104  1  0.09626104  0.91468567  0.83029230  1
