# generated using pymatgen
data_Al2O3
_symmetry_space_group_name_H-M   'P 1'
_cell_length_a   10.21921827
_cell_length_b   10.31527327
_cell_length_c   10.68568544
_cell_angle_alpha   88.90924955
_cell_angle_beta   96.30387809
_cell_angle_gamma   85.61786937
_symmetry_Int_Tables_number   1
_chemical_formula_structural   Al2O3
_chemical_formula_sum   'Al40 O60'
_cell_volume   1115.90970468
_cell_formula_units_Z   20
loop_
 _symmetry_equiv_pos_site_id
 _symmetry_equiv_pos_as_xyz
  1  'x, y, z'
loop_
 _atom_site_type_symbol
 _atom_site_label
 _atom_site_symmetry_multiplicity
 _atom_site_fract_x
 _atom_site_fract_y
 _atom_site_fract_z
 _atom_site_occupancy
  Al  Al0  1  0.35026900  0.57143300  0.38195000  1
  Al  Al1  1  0.43395800  0.00766900  0.63556600  1
  Al  Al2  1  0.92063400  0.70797000  0.55525600  1
  Al  Al3  1  0.97245000  0.63085800  0.94360600  1
  Al  Al4  1  0.37318200  0.86441400  0.87411800  1
  Al  Al5  1  0.94500100  0.13506300  0.66060300  1
  Al  Al6  1  0.33718300  0.29647500  0.53807700  1
  Al  Al7  1  0.94216000  0.97130500  0.96970100  1
  Al  Al8  1  0.19166300  0.76392000  0.05430100  1
  Al  Al9  1  0.07046400  0.39392900  0.68812200  1
  Al  Al10  1  0.78541600  0.67026100  0.19983200  1
  Al  Al11  1  0.70085100  0.22861500  0.08518400  1
  Al  Al12  1  0.71800900  0.96747200  0.22996500  1
  Al  Al13  1  0.45318600  0.70846600  0.62563500  1
  Al  Al14  1  0.09321900  0.86350600  0.77151800  1
  Al  Al15  1  0.97575800  0.18012400  0.10512100  1
  Al  Al16  1  0.86356200  0.37181600  0.88647600  1
  Al  Al17  1  0.84529600  0.20563000  0.38226900  1
  Al  Al18  1  0.46321700  0.04306700  0.36150200  1
  Al  Al19  1  0.41516500  0.30926700  0.01433400  1
  Al  Al20  1  0.48013600  0.30277100  0.29174500  1
  Al  Al21  1  0.78794800  0.83082000  0.76976700  1
  Al  Al22  1  0.49742000  0.77406400  0.32337600  1
  Al  Al23  1  0.22525000  0.91507700  0.24262100  1
  Al  Al24  1  0.17901100  0.59381900  0.61404200  1
  Al  Al25  1  0.14262500  0.12551400  0.44094900  1
  Al  Al26  1  0.72331900  0.98865500  0.52231900  1
  Al  Al27  1  0.47362200  0.53698800  0.16348200  1
  Al  Al28  1  0.71970400  0.51873300  0.38751200  1
  Al  Al29  1  0.67281800  0.61088100  0.94353300  1
  Al  Al30  1  0.12815600  0.44828200  0.09847500  1
  Al  Al31  1  0.77840600  0.54624000  0.70067600  1
  Al  Al32  1  0.30821000  0.55689800  0.84049800  1
  Al  Al33  1  0.20350800  0.29310600  0.29140000  1
  Al  Al34  1  0.17605800  0.12717500  0.87241300  1
  Al  Al35  1  0.04082500  0.57321300  0.37573900  1
  Al  Al36  1  0.47595000  0.26162100  0.79542800  1
  Al  Al37  1  0.98699700  0.87173300  0.27891500  1
  Al  Al38  1  0.60850000  0.03339600  0.92798600  1
  Al  Al39  1  0.64335500  0.25862000  0.54282200  1
  O  O40  1  0.57335100  0.92686500  0.28720800  1
  O  O41  1  0.31982800  0.20397300  0.91846400  1
  O  O42  1  0.79596800  0.84405600  0.60149800  1
  O  O43  1  0.62295100  0.66827400  0.69526100  1
  O  O44  1  0.98648500  0.45262400  0.96979300  1
  O  O45  1  0.07817900  0.21936200  0.74050900  1
  O  O46  1  0.30800400  0.11864500  0.54666600  1
  O  O47  1  0.58781300  0.22021200  0.93185100  1
  O  O48  1  0.95342100  0.00722600  0.13626400  1
  O  O49  1  0.37840000  0.66056900  0.23682900  1
  O  O50  1  0.50503800  0.08794500  0.76418600  1
  O  O51  1  0.10809000  0.98685700  0.34887800  1
  O  O52  1  0.76315200  0.13461000  0.61442600  1
  O  O53  1  0.75483700  0.34190600  0.45433100  1
  O  O54  1  0.55030000  0.97881900  0.52563200  1
  O  O55  1  0.56475400  0.58019400  0.04693000  1
  O  O56  1  0.82457700  0.83201900  0.20966600  1
  O  O57  1  0.83521300  0.24916500  0.99050400  1
  O  O58  1  0.71839800  0.48082600  0.84669200  1
  O  O59  1  0.35870200  0.17581400  0.26724800  1
  O  O60  1  0.82080900  0.65259000  0.03462100  1
  O  O61  1  0.22433200  0.96584200  0.81872300  1
  O  O62  1  0.12958100  0.60993900  0.03907900  1
  O  O63  1  0.55058000  0.29508200  0.14274200  1
  O  O64  1  0.40324900  0.85450000  0.69586700  1
  O  O65  1  0.34763300  0.60551100  0.68721900  1
  O  O66  1  0.77127900  0.59220900  0.53832500  1
  O  O67  1  0.12447900  0.46838200  0.26759100  1
  O  O68  1  0.22138500  0.38109200  0.61399800  1
  O  O69  1  0.30149900  0.71565500  0.91481300  1
  O  O70  1  0.67979700  0.05976200  0.09317200  1
  O  O71  1  0.33146100  0.42652400  0.11311400  1
  O  O72  1  0.01728100  0.53427000  0.55009800  1
  O  O73  1  0.89194800  0.39421900  0.72151300  1
  O  O74  1  0.63559300  0.74309200  0.81733800  1
  O  O75  1  0.20815500  0.61586500  0.45122200  1
  O  O76  1  0.84471300  0.23554800  0.21989700  1
  O  O77  1  0.46855800  0.67369400  0.46808100  1
  O  O78  1  0.26881200  0.90930600  0.08720700  1
  O  O79  1  0.64686900  0.67392400  0.29072100  1
  O  O80  1  0.11650500  0.78592900  0.20793100  1
  O  O81  1  0.11614200  0.27365900  0.13519200  1
  O  O82  1  0.03325900  0.81762900  0.92911100  1
  O  O83  1  0.50466000  0.30786200  0.62953300  1
  O  O84  1  0.98573800  0.16438700  0.50245300  1
  O  O85  1  0.36277900  0.90336000  0.35569300  1
  O  O86  1  0.79080300  0.03612500  0.37870000  1
  O  O87  1  0.55408400  0.46040200  0.31240800  1
  O  O88  1  0.14408800  0.52208100  0.78268100  1
  O  O89  1  0.08252100  0.75072200  0.65067200  1
  O  O90  1  0.87901200  0.66954400  0.78496000  1
  O  O91  1  0.96298700  0.98162100  0.73419500  1
  O  O92  1  0.86623300  0.53926800  0.30002500  1
  O  O93  1  0.51586300  0.90436100  0.95651400  1
  O  O94  1  0.41864900  0.41470600  0.87252600  1
  O  O95  1  0.04189500  0.10541000  0.95839200  1
  O  O96  1  0.97017800  0.74624600  0.40412700  1
  O  O97  1  0.56371100  0.18806200  0.40781700  1
  O  O98  1  0.35412000  0.38652900  0.39349000  1
  O  O99  1  0.77578500  0.95306400  0.88596700  1
