# generated using pymatgen
data_Al2O3
_symmetry_space_group_name_H-M   'P 1'
_cell_length_a   10.49774145
_cell_length_b   10.06989568
_cell_length_c   10.97976935
_cell_angle_alpha   77.14738019
_cell_angle_beta   86.23373303
_cell_angle_gamma   86.90811107
_symmetry_Int_Tables_number   1
_chemical_formula_structural   Al2O3
_chemical_formula_sum   'Al40 O60'
_cell_volume   1128.23692077
_cell_formula_units_Z   20
loop_
 _symmetry_equiv_pos_site_id
 _symmetry_equiv_pos_as_xyz
  1  'x, y, z'
loop_
 _atom_site_type_symbol
 _atom_site_label
 _atom_site_symmetry_multiplicity
 _atom_site_fract_x
 _atom_site_fract_y
 _atom_site_fract_z
 _atom_site_occupancy
  Al  Al0  1  0.25194600  0.53103900  0.40788800  1
  Al  Al1  1  0.41325900  0.05286200  0.87211300  1
  Al  Al2  1  0.99308100  0.75251100  0.32177500  1
  Al  Al3  1  0.29021600  0.61093900  0.84041900  1
  Al  Al4  1  0.40181800  0.05661900  0.59762000  1
  Al  Al5  1  0.82295100  0.33302900  0.79170300  1
  Al  Al6  1  0.13081000  0.25605100  0.58071600  1
  Al  Al7  1  0.53184200  0.21171500  0.05277100  1
  Al  Al8  1  0.26749900  0.86394700  0.28872600  1
  Al  Al9  1  0.97293600  0.49997500  0.55276900  1
  Al  Al10  1  0.84241100  0.58167500  0.87111300  1
  Al  Al11  1  0.79940600  0.06183800  0.00504100  1
  Al  Al12  1  0.84973800  0.22921300  0.50552800  1
  Al  Al13  1  0.51832000  0.79834800  0.76627800  1
  Al  Al14  1  0.03836000  0.80552600  0.72684800  1
  Al  Al15  1  0.84745200  0.25440800  0.23630500  1
  Al  Al16  1  0.08004400  0.42661300  0.78783700  1
  Al  Al17  1  0.04096600  0.10705700  0.12570300  1
  Al  Al18  1  0.51996500  0.02367800  0.33054400  1
  Al  Al19  1  0.19840600  0.92004900  0.04572900  1
  Al  Al20  1  0.41778900  0.27699300  0.34654400  1
  Al  Al21  1  0.98100400  0.84436600  0.95351500  1
  Al  Al22  1  0.57862800  0.76849200  0.32234000  1
  Al  Al23  1  0.81786100  0.99006900  0.32022600  1
  Al  Al24  1  0.29808900  0.78028000  0.57113700  1
  Al  Al25  1  0.15985100  0.08000000  0.44725800  1
  Al  Al26  1  0.78826200  0.94819800  0.66127100  1
  Al  Al27  1  0.65098600  0.48511900  0.10362600  1
  Al  Al28  1  0.65226800  0.44871400  0.36077800  1
  Al  Al29  1  0.56978000  0.45859500  0.81373300  1
  Al  Al30  1  0.39295400  0.48229900  0.09862100  1
  Al  Al31  1  0.47006800  0.48781200  0.53327300  1
  Al  Al32  1  0.48167200  0.78065800  0.06279400  1
  Al  Al33  1  0.15385600  0.33897400  0.22630700  1
  Al  Al34  1  0.06447600  0.10969800  0.86293500  1
  Al  Al35  1  0.89697400  0.53828200  0.27501100  1
  Al  Al36  1  0.26098700  0.29015200  0.96523800  1
  Al  Al37  1  0.17676300  0.62411300  0.14048900  1
  Al  Al38  1  0.76223700  0.73501000  0.10294000  1
  Al  Al39  1  0.60197000  0.24731500  0.66876600  1
  O  O40  1  0.47909100  0.16556500  0.21504500  1
  O  O41  1  0.24989900  0.01741000  0.89535600  1
  O  O42  1  0.92885700  0.87449400  0.61571100  1
  O  O43  1  0.46017400  0.62898400  0.80189900  1
  O  O44  1  0.93163300  0.42198800  0.87336500  1
  O  O45  1  0.87872700  0.35465000  0.61792900  1
  O  O46  1  0.24214200  0.22327100  0.34420700  1
  O  O47  1  0.88624800  0.16414800  0.87286800  1
  O  O48  1  0.96090700  0.90711500  0.35408700  1
  O  O49  1  0.72986800  0.56437700  0.22750900  1
  O  O50  1  0.40432800  0.18894900  0.95295200  1
  O  O51  1  0.02092700  0.17020700  0.50392800  1
  O  O52  1  0.65940700  0.28729300  0.80378400  1
  O  O53  1  0.48227200  0.41782900  0.69236000  1
  O  O54  1  0.67074400  0.83953400  0.71692200  1
  O  O55  1  0.52738000  0.39905500  0.99690600  1
  O  O56  1  0.11307500  0.76957600  0.04510200  1
  O  O57  1  0.63708000  0.08602000  0.02494300  1
  O  O58  1  0.72707000  0.52332100  0.78526100  1
  O  O59  1  0.28002300  0.34371200  0.10455100  1
  O  O60  1  0.53977600  0.39382900  0.26266500  1
  O  O61  1  0.03935900  0.94938000  0.80392200  1
  O  O62  1  0.43282800  0.87124000  0.33600100  1
  O  O63  1  0.75557600  0.34173800  0.11872900  1
  O  O64  1  0.48090900  0.87674000  0.90302600  1
  O  O65  1  0.41686600  0.87367900  0.63277300  1
  O  O66  1  0.57563700  0.60192800  0.41663700  1
  O  O67  1  0.28698900  0.50893200  0.24316100  1
  O  O68  1  0.12070600  0.42793200  0.48841400  1
  O  O69  1  0.28172600  0.60120400  0.00304600  1
  O  O70  1  0.66513000  0.91374800  0.34856700  1
  O  O71  1  0.50995700  0.60582200  0.08574300  1
  O  O72  1  0.90393500  0.72366500  0.19496100  1
  O  O73  1  0.03627800  0.56679700  0.66647300  1
  O  O74  1  0.96137900  0.70556900  0.86561200  1
  O  O75  1  0.92028600  0.60501900  0.41559900  1
  O  O76  1  0.85887800  0.08583100  0.15880100  1
  O  O77  1  0.33107700  0.62818400  0.51030300  1
  O  O78  1  0.11286500  0.21758400  0.98218200  1
  O  O79  1  0.74853900  0.61945800  0.99946000  1
  O  O80  1  0.16431900  0.70607800  0.31365300  1
  O  O81  1  0.02222300  0.23378100  0.22003100  1
  O  O82  1  0.24065000  0.11125200  0.58296000  1
  O  O83  1  0.47621600  0.11518700  0.44904300  1
  O  O84  1  0.74704600  0.12476800  0.62915200  1
  O  O85  1  0.17828300  0.99726000  0.18767100  1
  O  O86  1  0.60944900  0.80212800  0.15705800  1
  O  O87  1  0.79848700  0.13613900  0.38177600  1
  O  O88  1  0.23183000  0.44498500  0.84552400  1
  O  O89  1  0.21722600  0.90717100  0.45014500  1
  O  O90  1  0.20665000  0.73664300  0.72045400  1
  O  O91  1  0.02838100  0.99425500  0.01853000  1
  O  O92  1  0.83578500  0.37299700  0.36064000  1
  O  O93  1  0.33287700  0.82364200  0.13182100  1
  O  O94  1  0.47572300  0.11887600  0.71366800  1
  O  O95  1  0.10854300  0.26362100  0.73874200  1
  O  O96  1  0.05294200  0.49746200  0.20269300  1
  O  O97  1  0.61556000  0.34908600  0.51284400  1
  O  O98  1  0.37107600  0.39125000  0.45808700  1
  O  O99  1  0.81674300  0.88478400  0.99217200  1
