# generated using pymatgen
data_BN
_symmetry_space_group_name_H-M   'P 1'
_cell_length_a   11.33781958
_cell_length_b   10.12541027
_cell_length_c   10.88894963
_cell_angle_alpha   87.44317983
_cell_angle_beta   91.23247888
_cell_angle_gamma   86.59197960
_symmetry_Int_Tables_number   1
_chemical_formula_structural   BN
_chemical_formula_sum   'B50 N50'
_cell_volume   1246.23334775
_cell_formula_units_Z   50
loop_
 _symmetry_equiv_pos_site_id
 _symmetry_equiv_pos_as_xyz
  1  'x, y, z'
loop_
 _atom_site_type_symbol
 _atom_site_label
 _atom_site_symmetry_multiplicity
 _atom_site_fract_x
 _atom_site_fract_y
 _atom_site_fract_z
 _atom_site_occupancy
  B  B0  1  0.62018000  0.34425200  0.43903600  1
  B  B1  1  0.77878600  0.79874400  0.53982700  1
  B  B2  1  0.40051700  0.29092300  0.70433700  1
  B  B3  1  0.79502500  0.87094300  0.18330200  1
  B  B4  1  0.91512800  0.67014500  0.93212600  1
  B  B5  1  0.55350700  0.19444800  0.24032700  1
  B  B6  1  0.87617900  0.23354600  0.37347800  1
  B  B7  1  0.60944300  0.49239500  0.75147600  1
  B  B8  1  0.96869600  0.94295400  0.62367400  1
  B  B9  1  0.54749700  0.42498500  0.88156600  1
  B  B10  1  0.49469700  0.68909700  0.60770000  1
  B  B11  1  0.81616600  0.87428800  0.96679900  1
  B  B12  1  0.25208900  0.67647100  0.91167100  1
  B  B13  1  0.28151000  0.78467700  0.69254600  1
  B  B14  1  0.77498800  0.33223400  0.75557400  1
  B  B15  1  0.39427000  0.76690400  0.03313200  1
  B  B16  1  0.64710000  0.98203400  0.84137100  1
  B  B17  1  0.95385800  0.93534900  0.17801300  1
  B  B18  1  0.41789100  0.00306600  0.28266400  1
  B  B19  1  0.00769000  0.50252700  0.27066000  1
  B  B20  1  0.59325900  0.88995500  0.44691800  1
  B  B21  1  0.90708800  0.19219200  0.02614400  1
  B  B22  1  0.79291300  0.18521800  0.83207100  1
  B  B23  1  0.57426400  0.12305800  0.73008900  1
  B  B24  1  0.45686900  0.29565400  0.95773500  1
  B  B25  1  0.31269200  0.45217200  0.84041300  1
  B  B26  1  0.74360100  0.46837900  0.35440200  1
  B  B27  1  0.25887100  0.90061300  0.38348900  1
  B  B28  1  0.93122700  0.09274000  0.83483700  1
  B  B29  1  0.08734400  0.04319100  0.03158700  1
  B  B30  1  0.31740100  0.81688800  0.51570300  1
  B  B31  1  0.72074900  0.22812600  0.28740100  1
  B  B32  1  0.89555000  0.36147100  0.18966100  1
  B  B33  1  0.68172100  0.24372100  0.03568800  1
  B  B34  1  0.90023700  0.85816800  0.75834000  1
  B  B35  1  0.20089400  0.98851300  0.17216700  1
  B  B36  1  0.94490700  0.56515600  0.04238500  1
  B  B37  1  0.15818800  0.93000500  0.49717600  1
  B  B38  1  0.06289100  0.36146600  0.45967700  1
  B  B39  1  0.69529900  0.53998700  0.58745200  1
  B  B40  1  0.89648200  0.66268100  0.61272100  1
  B  B41  1  0.54530800  0.89616100  0.66128000  1
  B  B42  1  0.19019800  0.37411000  0.66685200  1
  B  B43  1  0.61490900  0.84402200  0.04520100  1
  B  B44  1  0.68656700  0.69485100  0.23162400  1
  B  B45  1  0.30844800  0.11521500  0.99677400  1
  B  B46  1  0.06128600  0.48308200  0.69515600  1
  B  B47  1  0.02302400  0.12109100  0.48501100  1
  B  B48  1  0.09881200  0.51480000  0.84927300  1
  B  B49  1  0.80359500  0.98116700  0.37188700  1
  N  N50  1  0.49994100  0.81227500  0.03366800  1
  N  N51  1  0.98509100  0.56929400  0.64328500  1
  N  N52  1  0.17931900  0.33743800  0.07914300  1
  N  N53  1  0.71736300  0.58365200  0.28571600  1
  N  N54  1  0.36940600  0.71596800  0.60474200  1
  N  N55  1  0.68830000  0.90141900  0.94676300  1
  N  N56  1  0.81333000  0.35077200  0.30204200  1
  N  N57  1  0.07047900  0.97360400  0.15312400  1
  N  N58  1  0.28874900  0.71534400  0.02902700  1
  N  N59  1  0.03770900  0.99391500  0.52237000  1
  N  N60  1  0.24868300  0.76011700  0.80713900  1
  N  N61  1  0.42794300  0.51107500  0.25171500  1
  N  N62  1  0.86770100  0.90198000  0.08171600  1
  N  N63  1  0.78943600  0.21459800  0.97088600  1
  N  N64  1  0.99774600  0.55653200  0.92308300  1
  N  N65  1  0.13448600  0.34202400  0.56731300  1
  N  N66  1  0.68615500  0.44486300  0.47675100  1
  N  N67  1  0.55722800  0.81481900  0.56806300  1
  N  N68  1  0.93446300  0.25254000  0.13294100  1
  N  N69  1  0.54044000  0.97643700  0.75424000  1
  N  N70  1  0.99218500  0.10371000  0.95051400  1
  N  N71  1  0.50033300  0.93093500  0.36770900  1
  N  N72  1  0.36476400  0.57183300  0.30480100  1
  N  N73  1  0.73128100  0.44766700  0.70849000  1
  N  N74  1  0.68935800  0.10369700  0.78936700  1
  N  N75  1  0.87856400  0.79388800  0.87215500  1
  N  N76  1  0.45818700  0.11561700  0.22581800  1
  N  N77  1  0.89677600  0.81834100  0.62285900  1
  N  N78  1  0.28882600  0.96066700  0.26989200  1
  N  N79  1  0.94664300  0.49834100  0.16214300  1
  N  N80  1  0.99048200  0.24166700  0.43746900  1
  N  N81  1  0.21693200  0.04802900  0.04595700  1
  N  N82  1  0.57320600  0.57864300  0.64726200  1
  N  N83  1  0.38955200  0.18460600  0.95240400  1
  N  N84  1  0.49887600  0.22786000  0.68032100  1
  N  N85  1  0.21570800  0.53620900  0.88027400  1
  N  N86  1  0.58309000  0.31240200  0.96819000  1
  N  N87  1  0.59690200  0.25564000  0.35746100  1
  N  N88  1  0.77598100  0.65769200  0.56950000  1
  N  N89  1  0.23222800  0.88586500  0.59596400  1
  N  N90  1  0.72469500  0.90022600  0.45336000  1
  N  N91  1  0.42194800  0.43359700  0.90752000  1
  N  N92  1  0.68209200  0.81517600  0.16692800  1
  N  N93  1  0.87353200  0.90832100  0.28518900  1
  N  N94  1  0.05169300  0.47244500  0.37987900  1
  N  N95  1  0.22607200  0.35370900  0.16685100  1
  N  N96  1  0.94720700  0.98840800  0.74201500  1
  N  N97  1  0.80417100  0.12702800  0.36511300  1
  N  N98  1  0.29915100  0.36814600  0.73340100  1
  N  N99  1  0.65987400  0.21059800  0.16691300  1
