# generated using pymatgen
data_Al2O3
_symmetry_space_group_name_H-M   'P 1'
_cell_length_a   10.37837606
_cell_length_b   10.48744904
_cell_length_c   10.62521615
_cell_angle_alpha   97.18970491
_cell_angle_beta   96.39884141
_cell_angle_gamma   88.45060315
_symmetry_Int_Tables_number   1
_chemical_formula_structural   Al2O3
_chemical_formula_sum   'Al40 O60'
_cell_volume   1140.13546047
_cell_formula_units_Z   20
loop_
 _symmetry_equiv_pos_site_id
 _symmetry_equiv_pos_as_xyz
  1  'x, y, z'
loop_
 _atom_site_type_symbol
 _atom_site_label
 _atom_site_symmetry_multiplicity
 _atom_site_fract_x
 _atom_site_fract_y
 _atom_site_fract_z
 _atom_site_occupancy
  Al  Al0  1  0.67577600  0.39038500  0.68185400  1
  Al  Al1  1  0.73140600  0.69723400  0.66403400  1
  Al  Al2  1  0.20911500  0.66580700  0.66217400  1
  Al  Al3  1  0.61971100  0.46207700  0.96387900  1
  Al  Al4  1  0.82085700  0.74141700  0.38820800  1
  Al  Al5  1  0.23410600  0.42422600  0.47596300  1
  Al  Al6  1  0.43169200  0.43192500  0.25056700  1
  Al  Al7  1  0.88772100  0.16649200  0.14562900  1
  Al  Al8  1  0.39340700  0.63662700  0.05249800  1
  Al  Al9  1  0.91314100  0.08934900  0.83381800  1
  Al  Al10  1  0.49945800  0.56451800  0.47681900  1
  Al  Al11  1  0.38403800  0.90023700  0.81809900  1
  Al  Al12  1  0.56574400  0.19919700  0.22310200  1
  Al  Al13  1  0.95260200  0.84391900  0.67668100  1
  Al  Al14  1  0.66433200  0.86325200  0.88056300  1
  Al  Al15  1  0.13071500  0.81879900  0.90539100  1
  Al  Al16  1  0.16545900  0.18517500  0.45478800  1
  Al  Al17  1  0.08457400  0.35981000  0.78430200  1
  Al  Al18  1  0.19949300  0.92720300  0.55251900  1
  Al  Al19  1  0.50353100  0.87359100  0.56234000  1
  Al  Al20  1  0.61963400  0.09351000  0.70306000  1
  Al  Al21  1  0.11219600  0.67533400  0.10281100  1
  Al  Al22  1  0.88394200  0.43049900  0.54756800  1
  Al  Al23  1  0.97794700  0.98906900  0.39346600  1
  Al  Al24  1  0.29423700  0.89155300  0.29744200  1
  Al  Al25  1  0.86628600  0.15421100  0.56385700  1
  Al  Al26  1  0.90553100  0.92385800  0.07136900  1
  Al  Al27  1  0.74781400  0.44276300  0.25392700  1
  Al  Al28  1  0.60933200  0.16833800  0.98815300  1
  Al  Al29  1  0.48527700  0.61601900  0.75530200  1
  Al  Al30  1  0.65906300  0.98516100  0.39303200  1
  Al  Al31  1  0.48069100  0.93350700  0.11510300  1
  Al  Al32  1  0.59749600  0.68847000  0.23240500  1
  Al  Al33  1  0.38819500  0.36235300  0.69148900  1
  Al  Al34  1  0.32276600  0.13551400  0.10901600  1
  Al  Al35  1  0.17282700  0.07461400  0.83430500  1
  Al  Al36  1  0.34585200  0.34861800  0.96195500  1
  Al  Al37  1  0.03127500  0.41653700  0.28914800  1
  Al  Al38  1  0.92754300  0.43798700  0.03959500  1
  Al  Al39  1  0.10582600  0.69938800  0.37436400  1
  O  O40  1  0.16950200  0.00741400  0.39878500  1
  O  O41  1  0.37047800  0.46124400  0.40329500  1
  O  O42  1  0.03395600  0.41531600  0.63593800  1
  O  O43  1  0.79982300  0.84350900  0.75937500  1
  O  O44  1  0.77855400  0.30044900  0.56837500  1
  O  O45  1  0.80252000  0.10447000  0.69812700  1
  O  O46  1  0.88299900  0.41289000  0.37114300  1
  O  O47  1  0.00943200  0.16456300  0.49117200  1
  O  O48  1  0.39465900  0.26052100  0.21771300  1
  O  O49  1  0.11101800  0.53840400  0.40366500  1
  O  O50  1  0.26467300  0.34816200  0.80525400  1
  O  O51  1  0.02173100  0.93976300  0.56624100  1
  O  O52  1  0.59672100  0.00705200  0.53965100  1
  O  O53  1  0.02201700  0.44246700  0.91739200  1
  O  O54  1  0.28214600  0.51547600  0.62974100  1
  O  O55  1  0.66791500  0.06737900  0.86927900  1
  O  O56  1  0.36330900  0.88520700  0.45832700  1
  O  O57  1  0.25210900  0.19796500  0.97303900  1
  O  O58  1  0.72314500  0.41526100  0.84575900  1
  O  O59  1  0.18652100  0.75337400  0.52769200  1
  O  O60  1  0.56270800  0.04152200  0.26872300  1
  O  O61  1  0.04253600  0.19100100  0.79377300  1
  O  O62  1  0.02700200  0.80705800  0.03121800  1
  O  O63  1  0.02826200  0.95700800  0.81932900  1
  O  O64  1  0.54449200  0.25485700  0.69423400  1
  O  O65  1  0.67351900  0.82313800  0.33829600  1
  O  O66  1  0.56914300  0.71421900  0.55474800  1
  O  O67  1  0.76900500  0.53096900  0.62730700  1
  O  O68  1  0.19517300  0.74938700  0.25388400  1
  O  O69  1  0.31394900  0.99367100  0.17944100  1
  O  O70  1  0.75082800  0.86931800  0.03443200  1
  O  O71  1  0.50781700  0.59062900  0.31491900  1
  O  O72  1  0.60542200  0.36416600  0.28448400  1
  O  O73  1  0.08127300  0.73024100  0.74913300  1
  O  O74  1  0.85279700  0.73619500  0.55215600  1
  O  O75  1  0.97106100  0.31109900  0.14715500  1
  O  O76  1  0.96456100  0.80141400  0.34166200  1
  O  O77  1  0.52460500  0.48474900  0.62461600  1
  O  O78  1  0.34648400  0.47793300  0.09745900  1
  O  O79  1  0.75349000  0.61015300  0.28693500  1
  O  O80  1  0.50116800  0.86638400  0.95202900  1
  O  O81  1  0.76455400  0.43883100  0.08614600  1
  O  O82  1  0.56643700  0.60382200  0.06966400  1
  O  O83  1  0.91333100  0.07717900  0.99814100  1
  O  O84  1  0.26504400  0.00420900  0.70479800  1
  O  O85  1  0.23286100  0.68697700  0.99235500  1
  O  O86  1  0.44531400  0.78541500  0.18020800  1
  O  O87  1  0.81378700  0.03962800  0.42926600  1
  O  O88  1  0.52229600  0.31593300  0.98319000  1
  O  O89  1  0.71518800  0.18630500  0.13711300  1
  O  O90  1  0.25345800  0.94089700  0.92059000  1
  O  O91  1  0.35586200  0.73538900  0.74653000  1
  O  O92  1  0.45784900  0.50051000  0.85647700  1
  O  O93  1  0.51197600  0.93746700  0.72521000  1
  O  O94  1  0.28927500  0.27425500  0.55337600  1
  O  O95  1  0.02362600  0.55299000  0.16096200  1
  O  O96  1  0.48535000  0.09526600  0.05903800  1
  O  O97  1  0.63144300  0.69766000  0.79884200  1
  O  O98  1  0.14858300  0.30481900  0.35078800  1
  O  O99  1  0.94388500  0.02815100  0.22346400  1
