# generated using pymatgen
data_CaO
_symmetry_space_group_name_H-M   'P 1'
_cell_length_a   11.30528316
_cell_length_b   12.13049363
_cell_length_c   12.39780361
_cell_angle_alpha   98.17917486
_cell_angle_beta   83.34033848
_cell_angle_gamma   89.41064481
_symmetry_Int_Tables_number   1
_chemical_formula_structural   CaO
_chemical_formula_sum   'Ca50 O50'
_cell_volume   1670.94770254
_cell_formula_units_Z   50
loop_
 _symmetry_equiv_pos_site_id
 _symmetry_equiv_pos_as_xyz
  1  'x, y, z'
loop_
 _atom_site_type_symbol
 _atom_site_label
 _atom_site_symmetry_multiplicity
 _atom_site_fract_x
 _atom_site_fract_y
 _atom_site_fract_z
 _atom_site_occupancy
  Ca  Ca0  1  0.38779111  0.26900102  0.53120212  1
  Ca  Ca1  1  0.29171294  0.01202929  0.56686431  1
  Ca  Ca2  1  0.21648432  0.97256522  0.84671956  1
  Ca  Ca3  1  0.15489654  0.20970353  0.06017642  1
  Ca  Ca4  1  0.51665869  0.68522279  0.21454583  1
  Ca  Ca5  1  0.67488681  0.86462680  0.40309251  1
  Ca  Ca6  1  0.26863914  0.47647956  0.40263867  1
  Ca  Ca7  1  0.49390742  0.03042800  0.33514117  1
  Ca  Ca8  1  0.35282519  0.20460717  0.82561531  1
  Ca  Ca9  1  0.03487023  0.87910221  0.00720747  1
  Ca  Ca10  1  0.59598718  0.47182658  0.01481556  1
  Ca  Ca11  1  0.32203123  0.75953235  0.46102356  1
  Ca  Ca12  1  0.19578440  0.47021855  0.64331048  1
  Ca  Ca13  1  0.66269661  0.36418970  0.50054664  1
  Ca  Ca14  1  0.62722251  0.10369837  0.54706808  1
  Ca  Ca15  1  0.03323037  0.45099666  0.98860260  1
  Ca  Ca16  1  0.04730728  0.89567117  0.66561254  1
  Ca  Ca17  1  0.89835145  0.16506505  0.98665530  1
  Ca  Ca18  1  0.64840668  0.64253622  0.71862645  1
  Ca  Ca19  1  0.92292477  0.00414397  0.46726410  1
  Ca  Ca20  1  0.99087379  0.06991088  0.21303850  1
  Ca  Ca21  1  0.91932260  0.53919605  0.55602184  1
  Ca  Ca22  1  0.72410574  0.58486193  0.38213529  1
  Ca  Ca23  1  0.98697785  0.66533379  0.79117252  1
  Ca  Ca24  1  0.22920274  0.68859895  0.12575068  1
  Ca  Ca25  1  0.83934740  0.40581074  0.78440085  1
  Ca  Ca26  1  0.57711954  0.15598147  0.02518662  1
  Ca  Ca27  1  0.53065468  0.42747674  0.29237338  1
  Ca  Ca28  1  0.54306060  0.32139321  0.73289191  1
  Ca  Ca29  1  0.32954872  0.48696013  0.85880629  1
  Ca  Ca30  1  0.46626351  0.75073381  0.91727208  1
  Ca  Ca31  1  0.04997767  0.46624579  0.24966096  1
  Ca  Ca32  1  0.51201182  0.89350157  0.66520779  1
  Ca  Ca33  1  0.17509725  0.93674385  0.31905057  1
  Ca  Ca34  1  0.78211514  0.64479909  0.00392843  1
  Ca  Ca35  1  0.92049637  0.73717860  0.23020916  1
  Ca  Ca36  1  0.71858986  0.18407027  0.29942432  1
  Ca  Ca37  1  0.02748284  0.30775743  0.49641296  1
  Ca  Ca38  1  0.04794547  0.71862137  0.43380306  1
  Ca  Ca39  1  0.77785997  0.90352723  0.85275973  1
  Ca  Ca40  1  0.78835442  0.40152636  0.14920504  1
  Ca  Ca41  1  0.78644262  0.14202913  0.75224313  1
  Ca  Ca42  1  0.47498752  0.59562097  0.55076263  1
  Ca  Ca43  1  0.35132305  0.00861770  0.08154632  1
  Ca  Ca44  1  0.11194581  0.26733103  0.76790279  1
  Ca  Ca45  1  0.26202668  0.71743666  0.74708980  1
  Ca  Ca46  1  0.79938477  0.80169051  0.58902191  1
  Ca  Ca47  1  0.36987943  0.34309323  0.06764007  1
  Ca  Ca48  1  0.22442423  0.20050663  0.32519427  1
  Ca  Ca49  1  0.71734021  0.94502416  0.12571119  1
  O  O50  1  0.30842509  0.05968933  0.39174044  1
  O  O51  1  0.15577919  0.57055922  0.81769621  1
  O  O52  1  0.21894034  0.31958526  0.49106658  1
  O  O53  1  0.72030398  0.53280148  0.55798302  1
  O  O54  1  0.33716842  0.35077360  0.70948359  1
  O  O55  1  0.79326139  0.60434282  0.81846995  1
  O  O56  1  0.02723505  0.13943966  0.38867279  1
  O  O57  1  0.48302461  0.37489121  0.90370005  1
  O  O58  1  0.84156068  0.82068374  0.99646086  1
  O  O59  1  0.20378154  0.33920380  0.93545485  1
  O  O60  1  0.50434778  0.95712537  0.49718475  1
  O  O61  1  0.25834322  0.37067042  0.23277043  1
  O  O62  1  0.19148724  0.08509230  0.18129275  1
  O  O63  1  0.44475764  0.62372081  0.76447033  1
  O  O64  1  0.00110577  0.41886796  0.66432879  1
  O  O65  1  0.61916755  0.74759285  0.54654032  1
  O  O66  1  0.73712768  0.07977418  0.91337929  1
  O  O67  1  0.30436170  0.85853661  0.95851026  1
  O  O68  1  0.85610753  0.97312635  0.66032510  1
  O  O69  1  0.61803548  0.82367890  0.79885129  1
  O  O70  1  0.75573806  0.04009057  0.39562294  1
  O  O71  1  0.55688070  0.19601919  0.42771884  1
  O  O72  1  0.36865820  0.15719244  0.99491713  1
  O  O73  1  0.51664269  0.13589493  0.71202641  1
  O  O74  1  0.87507558  0.82349305  0.42047830  1
  O  O75  1  0.20919342  0.10497937  0.73231808  1
  O  O76  1  0.06345658  0.05854164  0.98211546  1
  O  O77  1  0.64480473  0.82349190  0.23309135  1
  O  O78  1  0.45661889  0.61204312  0.36772695  1
  O  O79  1  0.92536348  0.24683464  0.82639170  1
  O  O80  1  0.13088269  0.89853588  0.49604564  1
  O  O81  1  0.08155459  0.83004277  0.81945330  1
  O  O82  1  0.26804152  0.62176124  0.56379560  1
  O  O83  1  0.72772118  0.28101124  0.64981883  1
  O  O84  1  0.43442277  0.62795521  0.04888881  1
  O  O85  1  0.47288314  0.42069143  0.47951148  1
  O  O86  1  0.03215991  0.88209343  0.19495976  1
  O  O87  1  0.81781567  0.45914524  0.97805905  1
  O  O88  1  0.66950180  0.56262904  0.17758442  1
  O  O89  1  0.96515787  0.71579123  0.62042742  1
  O  O90  1  0.06863521  0.47553483  0.43148715  1
  O  O91  1  0.23038195  0.74483643  0.30323310  1
  O  O92  1  0.72023485  0.38113498  0.32634538  1
  O  O93  1  0.56701456  0.33396099  0.11779586  1
  O  O94  1  0.31672424  0.86865889  0.66767513  1
  O  O95  1  0.81711460  0.10678580  0.14652745  1
  O  O96  1  0.91221275  0.60071258  0.33798788  1
  O  O97  1  0.98346513  0.32959614  0.11573817  1
  O  O98  1  0.53386455  0.03595892  0.14698442  1
  O  O99  1  0.05844966  0.59850453  0.11714657  1
