# generated using pymatgen
data_ZnS
_symmetry_space_group_name_H-M   'P 1'
_cell_length_a   13.69479673
_cell_length_b   13.56537756
_cell_length_c   12.54349761
_cell_angle_alpha   91.10557324
_cell_angle_beta   92.74119376
_cell_angle_gamma   90.96705161
_symmetry_Int_Tables_number   1
_chemical_formula_structural   ZnS
_chemical_formula_sum   'Zn50 S50'
_cell_volume   2326.79996497
_cell_formula_units_Z   50
loop_
 _symmetry_equiv_pos_site_id
 _symmetry_equiv_pos_as_xyz
  1  'x, y, z'
loop_
 _atom_site_type_symbol
 _atom_site_label
 _atom_site_symmetry_multiplicity
 _atom_site_fract_x
 _atom_site_fract_y
 _atom_site_fract_z
 _atom_site_occupancy
  Zn  Zn0  1  0.70649675  0.04677971  0.57680440  1
  Zn  Zn1  1  0.08057998  0.53288867  0.68561368  1
  Zn  Zn2  1  0.92712715  0.20886539  0.98253498  1
  Zn  Zn3  1  0.60448538  0.43825580  0.59662166  1
  Zn  Zn4  1  0.01761501  0.05344023  0.54622242  1
  Zn  Zn5  1  0.54976637  0.01147970  0.44291407  1
  Zn  Zn6  1  0.77299368  0.54206251  0.29470629  1
  Zn  Zn7  1  0.49630610  0.82075096  0.29315114  1
  Zn  Zn8  1  0.50397444  0.26456762  0.68311848  1
  Zn  Zn9  1  0.86897347  0.00119417  0.16328731  1
  Zn  Zn10  1  0.96714186  0.47076174  0.52665604  1
  Zn  Zn11  1  0.46730086  0.94788907  0.11103094  1
  Zn  Zn12  1  0.00389367  0.52099400  0.27908840  1
  Zn  Zn13  1  0.91135585  0.23079587  0.70093652  1
  Zn  Zn14  1  0.43180295  0.72112400  0.53931671  1
  Zn  Zn15  1  0.62651590  0.59531814  0.01272690  1
  Zn  Zn16  1  0.18499665  0.95532833  0.80484447  1
  Zn  Zn17  1  0.21839167  0.00710267  0.21188038  1
  Zn  Zn18  1  0.20256211  0.15930291  0.09248824  1
  Zn  Zn19  1  0.25990516  0.51267877  0.20742363  1
  Zn  Zn20  1  0.03907588  0.46631989  0.87779772  1
  Zn  Zn21  1  0.39651853  0.11987966  0.90141218  1
  Zn  Zn22  1  0.66410313  0.31969111  0.35715281  1
  Zn  Zn23  1  0.73803085  0.00018292  0.86913783  1
  Zn  Zn24  1  0.48059741  0.85355346  0.93286453  1
  Zn  Zn25  1  0.10495245  0.73881512  0.03886977  1
  Zn  Zn26  1  0.51442982  0.96811064  0.69873923  1
  Zn  Zn27  1  0.49327348  0.52459924  0.33018470  1
  Zn  Zn28  1  0.88906849  0.26995439  0.28568444  1
  Zn  Zn29  1  0.28165891  0.31848511  0.88807844  1
  Zn  Zn30  1  0.02510968  0.86648529  0.39261260  1
  Zn  Zn31  1  0.83285200  0.83134974  0.66106048  1
  Zn  Zn32  1  0.10779870  0.14204498  0.27007898  1
  Zn  Zn33  1  0.44454880  0.37726295  0.10860353  1
  Zn  Zn34  1  0.75675299  0.29995756  0.88160404  1
  Zn  Zn35  1  0.31571315  0.87417922  0.02879444  1
  Zn  Zn36  1  0.70557241  0.95554206  0.36769629  1
  Zn  Zn37  1  0.94663847  0.40616478  0.70908172  1
  Zn  Zn38  1  0.27253133  0.81923758  0.70479331  1
  Zn  Zn39  1  0.88000034  0.38908937  0.01771250  1
  Zn  Zn40  1  0.68745613  0.65204116  0.78079735  1
  Zn  Zn41  1  0.69529716  0.81536982  0.06773148  1
  Zn  Zn42  1  0.35743767  0.45589815  0.61347038  1
  Zn  Zn43  1  0.11368948  0.73220598  0.28482405  1
  Zn  Zn44  1  0.15539009  0.26595807  0.59305421  1
  Zn  Zn45  1  0.36529050  0.61311909  0.94060947  1
  Zn  Zn46  1  0.85447492  0.74469068  0.21186977  1
  Zn  Zn47  1  0.92717697  0.66585295  0.84520755  1
  Zn  Zn48  1  0.05595379  0.69846170  0.46860736  1
  Zn  Zn49  1  0.08520153  0.81989047  0.71322701  1
  S  S50  1  0.61358028  0.90288082  0.20043256  1
  S  S51  1  0.35623751  0.22002385  0.75883367  1
  S  S52  1  0.40375502  0.95638155  0.36016430  1
  S  S53  1  0.62645293  0.21781738  0.21603932  1
  S  S54  1  0.21003880  0.41419364  0.67291617  1
  S  S55  1  0.25100872  0.02616214  0.95721885  1
  S  S56  1  0.85868903  0.56946646  0.97378783  1
  S  S57  1  0.72851323  0.51531886  0.89386097  1
  S  S58  1  0.83570489  0.13903184  0.83969350  1
  S  S59  1  0.15264454  0.68210758  0.62694961  1
  S  S60  1  0.02869155  0.79520277  0.88621696  1
  S  S61  1  0.61288823  0.74763328  0.91675501  1
  S  S62  1  0.06816735  0.38469829  0.04515661  1
  S  S63  1  0.47575216  0.53953204  0.04810391  1
  S  S64  1  0.90967881  0.59916602  0.41855809  1
  S  S65  1  0.86031312  0.89566704  0.30803398  1
  S  S66  1  0.53224644  0.01143565  0.87895310  1
  S  S67  1  0.21527389  0.58257073  0.04259098  1
  S  S68  1  0.42811748  0.60637574  0.67882105  1
  S  S69  1  0.60386105  0.27079649  0.95426944  1
  S  S70  1  0.64912271  0.47940942  0.40009590  1
  S  S71  1  0.57673450  0.60796156  0.63690775  1
  S  S72  1  0.07157380  0.15274487  0.68568566  1
  S  S73  1  0.86294573  0.42373485  0.20627795  1
  S  S74  1  0.35285478  0.24105881  0.04091985  1
  S  S75  1  0.97202679  0.88805692  0.58887945  1
  S  S76  1  0.43679807  0.68222119  0.36257090  1
  S  S77  1  0.77437075  0.18803903  0.38953180  1
  S  S78  1  0.61269115  0.33193318  0.10340856  1
  S  S79  1  0.82986067  0.66788153  0.69149057  1
  S  S80  1  0.23270483  0.49524997  0.89495524  1
  S  S81  1  0.10030240  0.25225565  0.96383439  1
  S  S82  1  0.39222609  0.05616721  0.23252468  1
  S  S83  1  0.94692029  0.15159140  0.16584283  1
  S  S84  1  0.84561686  0.13643869  0.53609185  1
  S  S85  1  0.15274137  0.27654266  0.40169519  1
  S  S86  1  0.39574063  0.87378591  0.60085396  1
  S  S87  1  0.70428971  0.66369251  0.18357735  1
  S  S88  1  0.66984566  0.31924775  0.70344423  1
  S  S89  1  0.10977491  0.01573932  0.39829998  1
  S  S90  1  0.37800223  0.41164218  0.27062025  1
  S  S91  1  0.20667712  0.83633270  0.16595555  1
  S  S92  1  0.16427392  0.57274453  0.33662984  1
  S  S93  1  0.33427473  0.76650952  0.87582199  1
  S  S94  1  0.70067391  0.92181191  0.70159989  1
  S  S95  1  0.99055309  0.67035269  0.15373695  1
  S  S96  1  0.46039451  0.36042040  0.52967789  1
  S  S97  1  0.02055351  0.35200232  0.38410461  1
  S  S98  1  0.54649915  0.10589001  0.59456117  1
  S  S99  1  0.81562803  0.91891576  0.01138701  1
