# generated using pymatgen
data_Ba4Ir3N7
_symmetry_space_group_name_H-M   'P 1'
_cell_length_a   15.66102977
_cell_length_b   6.43196800
_cell_length_c   10.79400982
_cell_angle_alpha   90.00000000
_cell_angle_beta   93.96346623
_cell_angle_gamma   90.00000000
_symmetry_Int_Tables_number   1
_chemical_formula_structural   Ba4Ir3N7
_chemical_formula_sum   'Ba16 Ir12 N28'
_cell_volume   1084.69356685
_cell_formula_units_Z   4
loop_
 _symmetry_equiv_pos_site_id
 _symmetry_equiv_pos_as_xyz
  1  'x, y, z'
loop_
 _atom_site_type_symbol
 _atom_site_label
 _atom_site_symmetry_multiplicity
 _atom_site_fract_x
 _atom_site_fract_y
 _atom_site_fract_z
 _atom_site_occupancy
  Ba  Ba0  1  0.42391300  0.23586700  0.55702400  1
  Ba  Ba1  1  0.57608700  0.76413300  0.44297600  1
  Ba  Ba2  1  0.07608700  0.23586700  0.94297600  1
  Ba  Ba3  1  0.92391300  0.76413300  0.05702400  1
  Ba  Ba4  1  0.47407500  0.72232300  0.75949800  1
  Ba  Ba5  1  0.52592500  0.27767700  0.24050200  1
  Ba  Ba6  1  0.02592500  0.72232300  0.74050200  1
  Ba  Ba7  1  0.97407500  0.27767700  0.25949800  1
  Ba  Ba8  1  0.62079600  0.17053500  0.90430300  1
  Ba  Ba9  1  0.37920400  0.82946500  0.09569700  1
  Ba  Ba10  1  0.87920400  0.17053500  0.59569700  1
  Ba  Ba11  1  0.12079600  0.82946500  0.40430300  1
  Ba  Ba12  1  0.25000000  0.32918500  0.25000000  1
  Ba  Ba13  1  0.75000000  0.67081500  0.75000000  1
  Ba  Ba14  1  0.25000000  0.09228100  0.75000000  1
  Ba  Ba15  1  0.75000000  0.90771900  0.25000000  1
  Ir  Ir16  1  0.25915300  0.58964800  0.60999300  1
  Ir  Ir17  1  0.74084700  0.41035200  0.39000700  1
  Ir  Ir18  1  0.24084700  0.58964800  0.89000700  1
  Ir  Ir19  1  0.75915300  0.41035200  0.10999300  1
  Ir  Ir20  1  0.41359100  0.30780000  0.96177100  1
  Ir  Ir21  1  0.58640900  0.69220000  0.03822900  1
  Ir  Ir22  1  0.08640900  0.30780000  0.53822900  1
  Ir  Ir23  1  0.91359100  0.69220000  0.46177100  1
  Ir  Ir24  1  0.64886400  0.22909600  0.60364200  1
  Ir  Ir25  1  0.35113600  0.77090400  0.39635800  1
  Ir  Ir26  1  0.85113600  0.22909600  0.89635800  1
  Ir  Ir27  1  0.14886400  0.77090400  0.10364200  1
  N  N28  1  0.59073900  0.98724600  0.65948300  1
  N  N29  1  0.40926100  0.01275400  0.34051700  1
  N  N30  1  0.90926100  0.98724600  0.84051700  1
  N  N31  1  0.09073900  0.01275400  0.15948300  1
  N  N32  1  0.08279300  0.07143600  0.63105300  1
  N  N33  1  0.91720700  0.92856400  0.36894700  1
  N  N34  1  0.41720700  0.07143600  0.86894700  1
  N  N35  1  0.58279300  0.92856400  0.13105300  1
  N  N36  1  0.75000000  0.24534400  0.75000000  1
  N  N37  1  0.25000000  0.75465600  0.25000000  1
  N  N38  1  0.08320600  0.53709000  0.12926100  1
  N  N39  1  0.91679400  0.46291000  0.87073900  1
  N  N40  1  0.41679400  0.53709000  0.37073900  1
  N  N41  1  0.58320600  0.46291000  0.62926100  1
  N  N42  1  0.32682800  0.49940800  0.75492500  1
  N  N43  1  0.67317200  0.50059200  0.24507500  1
  N  N44  1  0.17317200  0.49940800  0.74507500  1
  N  N45  1  0.82682800  0.50059200  0.25492500  1
  N  N46  1  0.20224400  0.85386100  0.95402500  1
  N  N47  1  0.79775600  0.14613900  0.04597500  1
  N  N48  1  0.29775600  0.85386100  0.54597500  1
  N  N49  1  0.70224400  0.14613900  0.45402500  1
  N  N50  1  0.00000000  0.50000000  0.50000000  1
  N  N51  1  0.50000000  0.50000000  0.00000000  1
  N  N52  1  0.19750700  0.39337400  0.49679800  1
  N  N53  1  0.80249300  0.60662600  0.50320200  1
  N  N54  1  0.30249300  0.39337400  0.00320200  1
  N  N55  1  0.69750700  0.60662600  0.99679800  1
