# generated using pymatgen
data_CaVN2
_symmetry_space_group_name_H-M   'P 1'
_cell_length_a   5.54184600
_cell_length_b   10.79741500
_cell_length_c   14.88560200
_cell_angle_alpha   90.00000000
_cell_angle_beta   90.00000000
_cell_angle_gamma   90.00000000
_symmetry_Int_Tables_number   1
_chemical_formula_structural   CaVN2
_chemical_formula_sum   'Ca16 V16 N32'
_cell_volume   890.71886388
_cell_formula_units_Z   16
loop_
 _symmetry_equiv_pos_site_id
 _symmetry_equiv_pos_as_xyz
  1  'x, y, z'
loop_
 _atom_site_type_symbol
 _atom_site_label
 _atom_site_symmetry_multiplicity
 _atom_site_fract_x
 _atom_site_fract_y
 _atom_site_fract_z
 _atom_site_occupancy
  Ca  Ca0  1  0.73198700  0.99893500  0.43410300  1
  Ca  Ca1  1  0.23198700  0.50106500  0.56589700  1
  Ca  Ca2  1  0.26801300  0.49893500  0.06589700  1
  Ca  Ca3  1  0.76801300  0.00106500  0.93410300  1
  Ca  Ca4  1  0.26801300  0.00106500  0.56589700  1
  Ca  Ca5  1  0.76801300  0.49893500  0.43410300  1
  Ca  Ca6  1  0.73198700  0.50106500  0.93410300  1
  Ca  Ca7  1  0.23198700  0.99893500  0.06589700  1
  Ca  Ca8  1  0.88496400  0.28086000  0.30910600  1
  Ca  Ca9  1  0.38496400  0.21914000  0.69089400  1
  Ca  Ca10  1  0.11503600  0.78086000  0.19089400  1
  Ca  Ca11  1  0.61503600  0.71914000  0.80910600  1
  Ca  Ca12  1  0.11503600  0.71914000  0.69089400  1
  Ca  Ca13  1  0.61503600  0.78086000  0.30910600  1
  Ca  Ca14  1  0.88496400  0.21914000  0.80910600  1
  Ca  Ca15  1  0.38496400  0.28086000  0.19089400  1
  V  V16  1  0.71873000  0.01553600  0.18688700  1
  V  V17  1  0.21873000  0.48446400  0.81311300  1
  V  V18  1  0.28127000  0.51553600  0.31311300  1
  V  V19  1  0.78127000  0.98446400  0.68688700  1
  V  V20  1  0.28127000  0.98446400  0.81311300  1
  V  V21  1  0.78127000  0.51553600  0.18688700  1
  V  V22  1  0.71873000  0.48446400  0.68688700  1
  V  V23  1  0.21873000  0.01553600  0.31311300  1
  V  V24  1  0.83734600  0.27152400  0.06094400  1
  V  V25  1  0.33734600  0.22847600  0.93905600  1
  V  V26  1  0.16265400  0.77152400  0.43905600  1
  V  V27  1  0.66265400  0.72847600  0.56094400  1
  V  V28  1  0.16265400  0.72847600  0.93905600  1
  V  V29  1  0.66265400  0.77152400  0.06094400  1
  V  V30  1  0.83734600  0.22847600  0.56094400  1
  V  V31  1  0.33734600  0.27152400  0.43905600  1
  N  N32  1  0.59597200  0.46283900  0.28433200  1
  N  N33  1  0.09597200  0.03716100  0.71566800  1
  N  N34  1  0.40402800  0.96283900  0.21566800  1
  N  N35  1  0.90402800  0.53716100  0.78433200  1
  N  N36  1  0.40402800  0.53716100  0.71566800  1
  N  N37  1  0.90402800  0.96283900  0.28433200  1
  N  N38  1  0.59597200  0.03716100  0.78433200  1
  N  N39  1  0.09597200  0.46283900  0.21566800  1
  N  N40  1  0.67714500  0.27830300  0.45657600  1
  N  N41  1  0.17714500  0.22169700  0.54342400  1
  N  N42  1  0.32285500  0.77830300  0.04342400  1
  N  N43  1  0.82285500  0.72169700  0.95657600  1
  N  N44  1  0.32285500  0.72169700  0.54342400  1
  N  N45  1  0.82285500  0.77830300  0.45657600  1
  N  N46  1  0.67714500  0.22169700  0.95657600  1
  N  N47  1  0.17714500  0.27830300  0.04342400  1
  N  N48  1  0.68969200  0.42936200  0.08427000  1
  N  N49  1  0.18969200  0.07063800  0.91573000  1
  N  N50  1  0.31030800  0.92936200  0.41573000  1
  N  N51  1  0.81030800  0.57063800  0.58427000  1
  N  N52  1  0.31030800  0.57063800  0.91573000  1
  N  N53  1  0.81030800  0.92936200  0.08427000  1
  N  N54  1  0.68969200  0.07063800  0.58427000  1
  N  N55  1  0.18969200  0.42936200  0.41573000  1
  N  N56  1  0.76210600  0.18209000  0.16728700  1
  N  N57  1  0.26210600  0.31791000  0.83271300  1
  N  N58  1  0.23789400  0.68209000  0.33271300  1
  N  N59  1  0.73789400  0.81791000  0.66728700  1
  N  N60  1  0.23789400  0.81791000  0.83271300  1
  N  N61  1  0.73789400  0.68209000  0.16728700  1
  N  N62  1  0.76210600  0.31791000  0.66728700  1
  N  N63  1  0.26210600  0.18209000  0.33271300  1
