# generated using pymatgen
data_Nb5(GeN3)3
_symmetry_space_group_name_H-M   'P 1'
_cell_length_a   6.82887845
_cell_length_b   10.49162943
_cell_length_c   20.80048800
_cell_angle_alpha   90.00000000
_cell_angle_beta   90.00000000
_cell_angle_gamma   140.19082465
_symmetry_Int_Tables_number   1
_chemical_formula_structural   Nb5(GeN3)3
_chemical_formula_sum   'Nb20 Ge12 N36'
_cell_volume   954.12157795
_cell_formula_units_Z   4
loop_
 _symmetry_equiv_pos_site_id
 _symmetry_equiv_pos_as_xyz
  1  'x, y, z'
loop_
 _atom_site_type_symbol
 _atom_site_label
 _atom_site_symmetry_multiplicity
 _atom_site_fract_x
 _atom_site_fract_y
 _atom_site_fract_z
 _atom_site_occupancy
  Nb  Nb0  1  0.00000000  0.45645900  0.86091300  1
  Nb  Nb1  1  0.00000000  0.54354100  0.13908700  1
  Nb  Nb2  1  0.00000000  0.04354100  0.36091300  1
  Nb  Nb3  1  0.00000000  0.95645900  0.63908700  1
  Nb  Nb4  1  0.32508400  0.85453600  0.89236600  1
  Nb  Nb5  1  0.32508400  0.47054800  0.10763400  1
  Nb  Nb6  1  0.32508400  0.97054800  0.39236600  1
  Nb  Nb7  1  0.32508400  0.35453600  0.60763400  1
  Nb  Nb8  1  0.67491600  0.14546400  0.10763400  1
  Nb  Nb9  1  0.67491600  0.52945200  0.89236600  1
  Nb  Nb10  1  0.67491600  0.02945200  0.60763400  1
  Nb  Nb11  1  0.67491600  0.64546400  0.39236600  1
  Nb  Nb12  1  0.00000000  0.44105500  0.59267100  1
  Nb  Nb13  1  0.00000000  0.55894500  0.40732900  1
  Nb  Nb14  1  0.00000000  0.05894500  0.09267100  1
  Nb  Nb15  1  0.00000000  0.94105500  0.90732900  1
  Nb  Nb16  1  0.58939000  0.29469400  0.00000000  1
  Nb  Nb17  1  0.58939000  0.79469400  0.50000000  1
  Nb  Nb18  1  0.41061000  0.70530600  0.00000000  1
  Nb  Nb19  1  0.41061000  0.20530600  0.50000000  1
  Ge  Ge20  1  0.00000000  0.76778600  0.06784700  1
  Ge  Ge21  1  0.00000000  0.23221400  0.93215300  1
  Ge  Ge22  1  0.00000000  0.73221400  0.56784700  1
  Ge  Ge23  1  0.00000000  0.26778600  0.43215300  1
  Ge  Ge24  1  0.00000000  0.18649300  0.74397200  1
  Ge  Ge25  1  0.00000000  0.81350700  0.25602800  1
  Ge  Ge26  1  0.00000000  0.31350700  0.24397200  1
  Ge  Ge27  1  0.00000000  0.68649300  0.75602800  1
  Ge  Ge28  1  0.50000000  0.69413200  0.75000000  1
  Ge  Ge29  1  0.50000000  0.80586800  0.25000000  1
  Ge  Ge30  1  0.50000000  0.30586800  0.25000000  1
  Ge  Ge31  1  0.50000000  0.19413200  0.75000000  1
  N  N32  1  0.00000000  0.31145300  0.66590600  1
  N  N33  1  0.00000000  0.68854700  0.33409400  1
  N  N34  1  0.00000000  0.18854700  0.16590600  1
  N  N35  1  0.00000000  0.81145300  0.83409400  1
  N  N36  1  0.00000000  0.27806100  0.83666400  1
  N  N37  1  0.00000000  0.72193900  0.16333600  1
  N  N38  1  0.00000000  0.22193900  0.33666400  1
  N  N39  1  0.00000000  0.77806100  0.66333600  1
  N  N40  1  0.67843900  0.40067700  0.81071600  1
  N  N41  1  0.67843900  0.27776200  0.18928400  1
  N  N42  1  0.67843900  0.77776200  0.31071600  1
  N  N43  1  0.67843900  0.90067700  0.68928400  1
  N  N44  1  0.32156100  0.59932300  0.18928400  1
  N  N45  1  0.32156100  0.72223800  0.81071600  1
  N  N46  1  0.32156100  0.22223800  0.68928400  1
  N  N47  1  0.32156100  0.09932300  0.31071600  1
  N  N48  1  0.39530900  0.05481400  0.94179200  1
  N  N49  1  0.39530900  0.34049500  0.05820800  1
  N  N50  1  0.39530900  0.84049500  0.44179200  1
  N  N51  1  0.39530900  0.55481400  0.55820800  1
  N  N52  1  0.60469100  0.94518600  0.05820800  1
  N  N53  1  0.60469100  0.65950500  0.94179200  1
  N  N54  1  0.60469100  0.15950500  0.55820800  1
  N  N55  1  0.60469100  0.44518600  0.44179200  1
  N  N56  1  0.30135000  0.05177700  0.07259600  1
  N  N57  1  0.30135000  0.24957200  0.92740400  1
  N  N58  1  0.30135000  0.74957200  0.57259600  1
  N  N59  1  0.30135000  0.55177800  0.42740400  1
  N  N60  1  0.69865000  0.94822200  0.92740400  1
  N  N61  1  0.69865000  0.75042800  0.07259600  1
  N  N62  1  0.69865000  0.25042800  0.42740400  1
  N  N63  1  0.69865000  0.44822300  0.57259600  1
  N  N64  1  0.00000000  0.58902300  0.94625700  1
  N  N65  1  0.00000000  0.41097700  0.05374300  1
  N  N66  1  0.00000000  0.91097700  0.44625700  1
  N  N67  1  0.00000000  0.08902300  0.55374300  1
