# generated using pymatgen
data_Ga3C3N7
_symmetry_space_group_name_H-M   'P 1'
_cell_length_a   6.58405886
_cell_length_b   13.10652807
_cell_length_c   14.46323544
_cell_angle_alpha   90.00000000
_cell_angle_beta   90.00000000
_cell_angle_gamma   90.00000000
_symmetry_Int_Tables_number   1
_chemical_formula_structural   Ga3C3N7
_chemical_formula_sum   'Ga24 C24 N56'
_cell_volume   1248.09264128
_cell_formula_units_Z   8
loop_
 _symmetry_equiv_pos_site_id
 _symmetry_equiv_pos_as_xyz
  1  'x, y, z'
loop_
 _atom_site_type_symbol
 _atom_site_label
 _atom_site_symmetry_multiplicity
 _atom_site_fract_x
 _atom_site_fract_y
 _atom_site_fract_z
 _atom_site_occupancy
  Ga  Ga0  1  0.15706615  0.53094761  0.11429383  1
  Ga  Ga1  1  0.34293385  0.46905239  0.61429383  1
  Ga  Ga2  1  0.65706615  0.96905239  0.88570617  1
  Ga  Ga3  1  0.84293385  0.03094761  0.38570617  1
  Ga  Ga4  1  0.34838482  0.66349253  0.29248697  1
  Ga  Ga5  1  0.15161518  0.33650747  0.79248697  1
  Ga  Ga6  1  0.84838482  0.83650747  0.70751303  1
  Ga  Ga7  1  0.65161518  0.16349253  0.20751303  1
  Ga  Ga8  1  0.48123357  0.40631923  0.21779631  1
  Ga  Ga9  1  0.01876643  0.59368077  0.71779631  1
  Ga  Ga10  1  0.98123357  0.09368077  0.78220369  1
  Ga  Ga11  1  0.51876643  0.90631923  0.28220369  1
  Ga  Ga12  1  0.62087621  0.65548071  0.14672475  1
  Ga  Ga13  1  0.87912379  0.34451929  0.64672475  1
  Ga  Ga14  1  0.12087621  0.84451929  0.85327525  1
  Ga  Ga15  1  0.37912379  0.15548071  0.35327525  1
  Ga  Ga16  1  0.46925939  0.59610347  0.93482534  1
  Ga  Ga17  1  0.03074061  0.40389653  0.43482534  1
  Ga  Ga18  1  0.96925939  0.90389653  0.06517466  1
  Ga  Ga19  1  0.53074061  0.09610347  0.56517466  1
  Ga  Ga20  1  0.81355993  0.73859352  0.35559064  1
  Ga  Ga21  1  0.68644007  0.26140648  0.85559064  1
  Ga  Ga22  1  0.31355993  0.76140648  0.64440936  1
  Ga  Ga23  1  0.18644007  0.23859352  0.14440936  1
  C  C24  1  0.82763243  0.86570355  0.49836643  1
  C  C25  1  0.67236757  0.13429645  0.99836643  1
  C  C26  1  0.32763243  0.63429645  0.50163357  1
  C  C27  1  0.17236757  0.36570355  0.00163357  1
  C  C28  1  0.33329804  0.86319852  0.46225140  1
  C  C29  1  0.16670196  0.13680148  0.96225140  1
  C  C30  1  0.83329804  0.63680148  0.53774860  1
  C  C31  1  0.66670196  0.36319852  0.03774860  1
  C  C32  1  0.41610012  0.43762417  0.41531060  1
  C  C33  1  0.08389988  0.56237583  0.91531060  1
  C  C34  1  0.91610012  0.06237583  0.58468940  1
  C  C35  1  0.58389988  0.93762417  0.08468940  1
  C  C36  1  0.79504616  0.69671057  0.96783984  1
  C  C37  1  0.70495384  0.30328943  0.46783984  1
  C  C38  1  0.29504616  0.80328943  0.03216016  1
  C  C39  1  0.20495384  0.19671057  0.53216016  1
  C  C40  1  0.01179730  0.75736382  0.20120919  1
  C  C41  1  0.48820270  0.24263618  0.70120919  1
  C  C42  1  0.51179730  0.74263618  0.79879081  1
  C  C43  1  0.98820270  0.25736382  0.29879081  1
  C  C44  1  0.93697268  0.52205354  0.25978212  1
  C  C45  1  0.56302732  0.47794646  0.75978212  1
  C  C46  1  0.43697268  0.97794646  0.74021788  1
  C  C47  1  0.06302732  0.02205354  0.24021788  1
  N  N48  1  0.32208388  0.64321064  0.42025604  1
  N  N49  1  0.17791612  0.35678936  0.92025604  1
  N  N50  1  0.82208388  0.85678936  0.57974396  1
  N  N51  1  0.67791612  0.14321064  0.07974396  1
  N  N52  1  0.83195981  0.87844157  0.41109870  1
  N  N53  1  0.66804019  0.12155843  0.91109870  1
  N  N54  1  0.33195981  0.62155843  0.58890130  1
  N  N55  1  0.16804019  0.37844157  0.08890130  1
  N  N56  1  0.30724073  0.85060345  0.54523623  1
  N  N57  1  0.19275927  0.14939655  0.04523623  1
  N  N58  1  0.80724073  0.64939655  0.45476377  1
  N  N59  1  0.69275927  0.35060345  0.95476377  1
  N  N60  1  0.34143804  0.88164318  0.37949079  1
  N  N61  1  0.15856196  0.11835682  0.87949079  1
  N  N62  1  0.84143804  0.61835682  0.62050921  1
  N  N63  1  0.65856196  0.38164318  0.12050921  1
  N  N64  1  0.51628556  0.44321987  0.34672854  1
  N  N65  1  0.98371444  0.55678013  0.84672854  1
  N  N66  1  0.01628556  0.05678013  0.65327146  1
  N  N67  1  0.48371444  0.94321987  0.15327146  1
  N  N68  1  0.30020084  0.43020242  0.48522033  1
  N  N69  1  0.19979916  0.56979758  0.98522033  1
  N  N70  1  0.80020084  0.06979758  0.51477967  1
  N  N71  1  0.69979916  0.93020242  0.01477967  1
  N  N72  1  0.38268371  0.74452924  0.08043153  1
  N  N73  1  0.11731629  0.25547076  0.58043153  1
  N  N74  1  0.88268371  0.75547076  0.91956847  1
  N  N75  1  0.61731629  0.24452924  0.41956847  1
  N  N76  1  0.69348512  0.62963673  0.01368230  1
  N  N77  1  0.80651488  0.37036327  0.51368230  1
  N  N78  1  0.19348512  0.87036327  0.98631770  1
  N  N79  1  0.30651488  0.12963673  0.48631770  1
  N  N80  1  0.92224622  0.77796159  0.13049789  1
  N  N81  1  0.57775378  0.22203841  0.63049789  1
  N  N82  1  0.42224622  0.72203841  0.86950211  1
  N  N83  1  0.07775378  0.27796159  0.36950211  1
  N  N84  1  0.07685545  0.73193835  0.27866838  1
  N  N85  1  0.42314455  0.26806165  0.77866838  1
  N  N86  1  0.57685545  0.76806165  0.72133162  1
  N  N87  1  0.92314455  0.23193835  0.22133162  1
  N  N88  1  0.89979736  0.55680116  0.18037186  1
  N  N89  1  0.60020264  0.44319884  0.68037186  1
  N  N90  1  0.39979736  0.94319884  0.81962814  1
  N  N91  1  0.10020264  0.05680116  0.31962814  1
  N  N92  1  0.51526734  0.50557792  0.83584404  1
  N  N93  1  0.98473266  0.49442208  0.33584404  1
  N  N94  1  0.01526734  0.99442208  0.16415596  1
  N  N95  1  0.48473266  0.00557792  0.66415596  1
  N  N96  1  0.59416152  0.74483912  0.26489871  1
  N  N97  1  0.90583848  0.25516088  0.76489871  1
  N  N98  1  0.09416152  0.75516088  0.73510129  1
  N  N99  1  0.40583848  0.24483912  0.23510129  1
  N  N100  1  0.39070189  0.55694120  0.19279710  1
  N  N101  1  0.10929811  0.44305880  0.69279710  1
  N  N102  1  0.89070189  0.94305880  0.80720290  1
  N  N103  1  0.60929811  0.05694120  0.30720290  1
