# generated using pymatgen
data_Ba(C4N3)2
_symmetry_space_group_name_H-M   'P 1'
_cell_length_a   14.78061327
_cell_length_b   14.77580709
_cell_length_c   4.48720501
_cell_angle_alpha   90.00726216
_cell_angle_beta   89.99636826
_cell_angle_gamma   119.98924511
_symmetry_Int_Tables_number   1
_chemical_formula_structural   Ba(C4N3)2
_chemical_formula_sum   'Ba3 C24 N18'
_cell_volume   848.78415178
_cell_formula_units_Z   3
loop_
 _symmetry_equiv_pos_site_id
 _symmetry_equiv_pos_as_xyz
  1  'x, y, z'
loop_
 _atom_site_type_symbol
 _atom_site_label
 _atom_site_symmetry_multiplicity
 _atom_site_fract_x
 _atom_site_fract_y
 _atom_site_fract_z
 _atom_site_occupancy
  Ba  Ba0  1  0.00000000  0.00000000  0.41972000  1
  Ba  Ba1  1  0.33334700  0.66664400  0.65615200  1
  Ba  Ba2  1  0.66665300  0.33329600  0.65615200  1
  C  C3  1  0.00000000  0.62861000  0.22581400  1
  C  C4  1  0.62859600  0.99999200  0.22583400  1
  C  C5  1  0.37140400  0.37139500  0.22583400  1
  C  C6  1  0.00000000  0.72072100  0.31087400  1
  C  C7  1  0.72067000  0.99998200  0.31085200  1
  C  C8  1  0.27933000  0.27931200  0.31085200  1
  C  C9  1  0.09547400  0.63124800  0.18417700  1
  C  C10  1  0.53577300  0.90450600  0.18418800  1
  C  C11  1  0.36875100  0.46424900  0.18417000  1
  C  C12  1  0.90452600  0.53577400  0.18417700  1
  C  C13  1  0.63124900  0.09549700  0.18417000  1
  C  C14  1  0.46422700  0.36873200  0.18418800  1
  C  C15  1  0.70937100  0.70938500  0.74549400  1
  C  C16  1  0.00000000  0.29063800  0.74547800  1
  C  C17  1  0.29062900  0.00001300  0.74549400  1
  C  C18  1  0.79794500  0.79796500  0.85107800  1
  C  C19  1  0.00000000  0.20204500  0.85107700  1
  C  C20  1  0.20205500  0.00002000  0.85107800  1
  C  C21  1  0.61721300  0.71173200  0.69075900  1
  C  C22  1  0.09450100  0.38279300  0.69074200  1
  C  C23  1  0.28827800  0.90547500  0.69073900  1
  C  C24  1  0.38278700  0.09451800  0.69075900  1
  C  C25  1  0.71172200  0.61719700  0.69073900  1
  C  C26  1  0.90549900  0.28829300  0.69074200  1
  N  N27  1  0.00000000  0.79699500  0.38302300  1
  N  N28  1  0.79692400  0.99999400  0.38295700  1
  N  N29  1  0.20307600  0.20307000  0.38295700  1
  N  N30  1  0.17646200  0.63551000  0.15089500  1
  N  N31  1  0.45904400  0.82351900  0.15087600  1
  N  N32  1  0.36448500  0.54100400  0.15085800  1
  N  N33  1  0.82353800  0.45904800  0.15089500  1
  N  N34  1  0.63551500  0.17651800  0.15085800  1
  N  N35  1  0.54095600  0.36447400  0.15087600  1
  N  N36  1  0.87323700  0.87323700  0.93525400  1
  N  N37  1  0.00000000  0.12674300  0.93526500  1
  N  N38  1  0.12676300  0.99999900  0.93525400  1
  N  N39  1  0.53951800  0.71205100  0.64354100  1
  N  N40  1  0.17254300  0.46045800  0.64356800  1
  N  N41  1  0.28792700  0.82741400  0.64352200  1
  N  N42  1  0.46048200  0.17253300  0.64354100  1
  N  N43  1  0.71207300  0.53948700  0.64352200  1
  N  N44  1  0.82745700  0.28791700  0.64356800  1
