# generated using pymatgen
data_Sr4IrN4
_symmetry_space_group_name_H-M   'P 1'
_cell_length_a   6.33157136
_cell_length_b   6.35610681
_cell_length_c   9.17457147
_cell_angle_alpha   69.84371356
_cell_angle_beta   80.38649785
_cell_angle_gamma   74.53648625
_symmetry_Int_Tables_number   1
_chemical_formula_structural   Sr4IrN4
_chemical_formula_sum   'Sr8 Ir2 N8'
_cell_volume   332.90941290
_cell_formula_units_Z   2
loop_
 _symmetry_equiv_pos_site_id
 _symmetry_equiv_pos_as_xyz
  1  'x, y, z'
loop_
 _atom_site_type_symbol
 _atom_site_label
 _atom_site_symmetry_multiplicity
 _atom_site_fract_x
 _atom_site_fract_y
 _atom_site_fract_z
 _atom_site_occupancy
  Sr  Sr0  1  0.79371400  0.56628000  0.14878400  1
  Sr  Sr1  1  0.20628600  0.43372000  0.85121700  1
  Sr  Sr2  1  0.70885900  0.16411600  0.98503600  1
  Sr  Sr3  1  0.29114100  0.83588400  0.01496400  1
  Sr  Sr4  1  0.74890200  0.43206000  0.59516700  1
  Sr  Sr5  1  0.25109800  0.56794000  0.40483300  1
  Sr  Sr6  1  0.22263600  0.97170400  0.62202700  1
  Sr  Sr7  1  0.77736400  0.02829600  0.37797300  1
  Ir  Ir8  1  0.72700700  0.82706600  0.76371800  1
  Ir  Ir9  1  0.27299300  0.17293400  0.23628200  1
  N  N10  1  0.98213200  0.68832500  0.61684800  1
  N  N11  1  0.01786800  0.31167500  0.38315200  1
  N  N12  1  0.96970300  0.84739500  0.87558800  1
  N  N13  1  0.03029700  0.15260500  0.12441200  1
  N  N14  1  0.53089100  0.62931900  0.78735700  1
  N  N15  1  0.46910900  0.37068100  0.21264300  1
  N  N16  1  0.49449800  0.89250300  0.22990100  1
  N  N17  1  0.50550200  0.10749700  0.77009900  1
