# generated using pymatgen
data_NaPdN
_symmetry_space_group_name_H-M   'P 1'
_cell_length_a   4.36734000
_cell_length_b   4.36765873
_cell_length_c   3.74231400
_cell_angle_alpha   90.00000000
_cell_angle_beta   90.00000000
_cell_angle_gamma   119.99757087
_symmetry_Int_Tables_number   1
_chemical_formula_structural   NaPdN
_chemical_formula_sum   'Na1 Pd1 N1'
_cell_volume   61.82258874
_cell_formula_units_Z   1
loop_
 _symmetry_equiv_pos_site_id
 _symmetry_equiv_pos_as_xyz
  1  'x, y, z'
loop_
 _atom_site_type_symbol
 _atom_site_label
 _atom_site_symmetry_multiplicity
 _atom_site_fract_x
 _atom_site_fract_y
 _atom_site_fract_z
 _atom_site_occupancy
  Na  Na0  1  0.00001200  0.00002300  0.50000000  1
  Pd  Pd1  1  0.66669600  0.33339300  0.00000000  1
  N  N2  1  0.66669300  0.33338500  0.50000000  1
