# generated using pymatgen
data_Cr2PbN4
_symmetry_space_group_name_H-M   'P 1'
_cell_length_a   10.59992607
_cell_length_b   10.59992607
_cell_length_c   10.59992607
_cell_angle_alpha   90.00000000
_cell_angle_beta   90.00000000
_cell_angle_gamma   90.00000000
_symmetry_Int_Tables_number   1
_chemical_formula_structural   Cr2PbN4
_chemical_formula_sum   'Cr24 Pb12 N48'
_cell_volume   1190.99107985
_cell_formula_units_Z   12
loop_
 _symmetry_equiv_pos_site_id
 _symmetry_equiv_pos_as_xyz
  1  'x, y, z'
loop_
 _atom_site_type_symbol
 _atom_site_label
 _atom_site_symmetry_multiplicity
 _atom_site_fract_x
 _atom_site_fract_y
 _atom_site_fract_z
 _atom_site_occupancy
  Cr  Cr0  1  0.36852234  0.69853494  0.36337047  1
  Cr  Cr1  1  0.63147766  0.19853494  0.13662953  1
  Cr  Cr2  1  0.13147766  0.30146506  0.86337047  1
  Cr  Cr3  1  0.86852234  0.80146506  0.63662953  1
  Cr  Cr4  1  0.36337047  0.36852234  0.69853494  1
  Cr  Cr5  1  0.13662953  0.63147766  0.19853494  1
  Cr  Cr6  1  0.86337047  0.13147766  0.30146506  1
  Cr  Cr7  1  0.63662953  0.86852234  0.80146506  1
  Cr  Cr8  1  0.69853494  0.36337047  0.36852234  1
  Cr  Cr9  1  0.19853494  0.13662953  0.63147766  1
  Cr  Cr10  1  0.30146506  0.86337047  0.13147766  1
  Cr  Cr11  1  0.80146506  0.63662953  0.86852234  1
  Cr  Cr12  1  0.63147766  0.30146506  0.63662953  1
  Cr  Cr13  1  0.36852234  0.80146506  0.86337047  1
  Cr  Cr14  1  0.86852234  0.69853494  0.13662953  1
  Cr  Cr15  1  0.13147766  0.19853494  0.36337047  1
  Cr  Cr16  1  0.63662953  0.63147766  0.30146506  1
  Cr  Cr17  1  0.86337047  0.36852234  0.80146506  1
  Cr  Cr18  1  0.13662953  0.86852234  0.69853494  1
  Cr  Cr19  1  0.36337047  0.13147766  0.19853494  1
  Cr  Cr20  1  0.30146506  0.63662953  0.63147766  1
  Cr  Cr21  1  0.80146506  0.86337047  0.36852234  1
  Cr  Cr22  1  0.69853494  0.13662953  0.86852234  1
  Cr  Cr23  1  0.19853494  0.36337047  0.13147766  1
  Pb  Pb24  1  0.50000000  0.50000000  0.00000000  1
  Pb  Pb25  1  0.50000000  -0.00000000  0.50000000  1
  Pb  Pb26  1  0.00000000  0.50000000  0.50000000  1
  Pb  Pb27  1  0.00000000  -0.00000000  0.00000000  1
  Pb  Pb28  1  0.12133336  0.87866664  0.37866664  1
  Pb  Pb29  1  0.87866664  0.37866664  0.12133336  1
  Pb  Pb30  1  0.37866664  0.12133336  0.87866664  1
  Pb  Pb31  1  0.62133336  0.62133336  0.62133336  1
  Pb  Pb32  1  0.87866664  0.12133336  0.62133336  1
  Pb  Pb33  1  0.12133336  0.62133336  0.87866664  1
  Pb  Pb34  1  0.62133336  0.87866664  0.12133336  1
  Pb  Pb35  1  0.37866664  0.37866664  0.37866664  1
  N  N36  1  0.36269923  0.84990405  0.28686430  1
  N  N37  1  0.63730077  0.34990405  0.21313570  1
  N  N38  1  0.13730077  0.15009595  0.78686430  1
  N  N39  1  0.86269923  0.65009595  0.71313570  1
  N  N40  1  0.28686430  0.36269923  0.84990405  1
  N  N41  1  0.21313570  0.63730077  0.34990405  1
  N  N42  1  0.78686430  0.13730077  0.15009595  1
  N  N43  1  0.71313570  0.86269923  0.65009595  1
  N  N44  1  0.84990405  0.28686430  0.36269923  1
  N  N45  1  0.34990405  0.21313570  0.63730077  1
  N  N46  1  0.15009595  0.78686430  0.13730077  1
  N  N47  1  0.65009595  0.71313570  0.86269923  1
  N  N48  1  0.63730077  0.15009595  0.71313570  1
  N  N49  1  0.36269923  0.65009595  0.78686430  1
  N  N50  1  0.86269923  0.84990405  0.21313570  1
  N  N51  1  0.13730077  0.34990405  0.28686430  1
  N  N52  1  0.71313570  0.63730077  0.15009595  1
  N  N53  1  0.78686430  0.36269923  0.65009595  1
  N  N54  1  0.21313570  0.86269923  0.84990405  1
  N  N55  1  0.28686430  0.13730077  0.34990405  1
  N  N56  1  0.15009595  0.71313570  0.63730077  1
  N  N57  1  0.65009595  0.78686430  0.36269923  1
  N  N58  1  0.84990405  0.21313570  0.86269923  1
  N  N59  1  0.34990405  0.28686430  0.13730077  1
  N  N60  1  0.40814107  0.71693891  0.52466710  1
  N  N61  1  0.59185893  0.21693891  0.97533290  1
  N  N62  1  0.09185893  0.28306109  0.02466710  1
  N  N63  1  0.90814107  0.78306109  0.47533290  1
  N  N64  1  0.52466710  0.40814107  0.71693891  1
  N  N65  1  0.97533290  0.59185893  0.21693891  1
  N  N66  1  0.02466710  0.09185893  0.28306109  1
  N  N67  1  0.47533290  0.90814107  0.78306109  1
  N  N68  1  0.71693891  0.52466710  0.40814107  1
  N  N69  1  0.21693891  0.97533290  0.59185893  1
  N  N70  1  0.28306109  0.02466710  0.09185893  1
  N  N71  1  0.78306109  0.47533290  0.90814107  1
  N  N72  1  0.59185893  0.28306109  0.47533290  1
  N  N73  1  0.40814107  0.78306109  0.02466710  1
  N  N74  1  0.90814107  0.71693891  0.97533290  1
  N  N75  1  0.09185893  0.21693891  0.52466710  1
  N  N76  1  0.47533290  0.59185893  0.28306109  1
  N  N77  1  0.02466710  0.40814107  0.78306109  1
  N  N78  1  0.97533290  0.90814107  0.71693891  1
  N  N79  1  0.52466710  0.09185893  0.21693891  1
  N  N80  1  0.28306109  0.47533290  0.59185893  1
  N  N81  1  0.78306109  0.02466710  0.40814107  1
  N  N82  1  0.71693891  0.97533290  0.90814107  1
  N  N83  1  0.21693891  0.52466710  0.09185893  1
