# generated using pymatgen
data_Ca3Sc2N4
_symmetry_space_group_name_H-M   'P 1'
_cell_length_a   6.90826445
_cell_length_b   8.48706620
_cell_length_c   6.17373791
_cell_angle_alpha   89.99999683
_cell_angle_beta   90.41858502
_cell_angle_gamma   127.89883063
_symmetry_Int_Tables_number   1
_chemical_formula_structural   Ca3Sc2N4
_chemical_formula_sum   'Ca6 Sc4 N8'
_cell_volume   285.61848013
_cell_formula_units_Z   2
loop_
 _symmetry_equiv_pos_site_id
 _symmetry_equiv_pos_as_xyz
  1  'x, y, z'
loop_
 _atom_site_type_symbol
 _atom_site_label
 _atom_site_symmetry_multiplicity
 _atom_site_fract_x
 _atom_site_fract_y
 _atom_site_fract_z
 _atom_site_occupancy
  Ca  Ca0  1  0.22512200  0.98339800  0.98520400  1
  Ca  Ca1  1  0.77487800  0.75827600  0.51479600  1
  Ca  Ca2  1  0.77487800  0.01660200  0.01479600  1
  Ca  Ca3  1  0.22512200  0.24172400  0.48520400  1
  Ca  Ca4  1  0.00000000  0.60394100  0.75000000  1
  Ca  Ca5  1  0.00000000  0.39605900  0.25000000  1
  Sc  Sc6  1  0.62063500  0.18619000  0.60609000  1
  Sc  Sc7  1  0.37936500  0.56555600  0.89391000  1
  Sc  Sc8  1  0.37936500  0.81381000  0.39391000  1
  Sc  Sc9  1  0.62063500  0.43444400  0.10609000  1
  N  N10  1  0.24045700  0.95341900  0.56857000  1
  N  N11  1  0.75954300  0.71296200  0.93143000  1
  N  N12  1  0.75954300  0.04658100  0.43143000  1
  N  N13  1  0.24045700  0.28703800  0.06857000  1
  N  N14  1  0.70547600  0.26882300  0.93556000  1
  N  N15  1  0.29452400  0.56334600  0.56444000  1
  N  N16  1  0.29452400  0.73117700  0.06444000  1
  N  N17  1  0.70547600  0.43665400  0.43556000  1
