# generated using pymatgen
data_Os2(CN2)3
_symmetry_space_group_name_H-M   'P 1'
_cell_length_a   9.89930620
_cell_length_b   3.33183580
_cell_length_c   5.09787466
_cell_angle_alpha   90.00000918
_cell_angle_beta   61.10992881
_cell_angle_gamma   80.31181559
_symmetry_Int_Tables_number   1
_chemical_formula_structural   Os2(CN2)3
_chemical_formula_sum   'Os2 C3 N6'
_cell_volume   144.47193861
_cell_formula_units_Z   1
loop_
 _symmetry_equiv_pos_site_id
 _symmetry_equiv_pos_as_xyz
  1  'x, y, z'
loop_
 _atom_site_type_symbol
 _atom_site_label
 _atom_site_symmetry_multiplicity
 _atom_site_fract_x
 _atom_site_fract_y
 _atom_site_fract_z
 _atom_site_occupancy
  Os  Os0  1  0.35930700  0.82034600  0.05649400  1
  Os  Os1  1  0.64069300  0.17965400  0.94350600  1
  C  C2  1  0.63752000  0.68124000  0.43456900  1
  C  C3  1  0.36248000  0.31876000  0.56543100  1
  C  C4  1  0.00000000  0.00000000  0.50000000  1
  N  N5  1  0.33845100  0.33077400  0.82598800  1
  N  N6  1  0.66154900  0.66922600  0.17401200  1
  N  N7  1  0.39808700  0.30095700  0.29316400  1
  N  N8  1  0.60191300  0.69904300  0.70683600  1
  N  N9  1  0.14240800  0.92879600  0.33777800  1
  N  N10  1  0.85759200  0.07120400  0.66222200  1
