# generated using pymatgen
data_Ba3Y2N4
_symmetry_space_group_name_H-M   'P 1'
_cell_length_a   6.58433800
_cell_length_b   12.52162900
_cell_length_c   10.84391200
_cell_angle_alpha   90.00000000
_cell_angle_beta   90.00000000
_cell_angle_gamma   90.00000000
_symmetry_Int_Tables_number   1
_chemical_formula_structural   Ba3Y2N4
_chemical_formula_sum   'Ba12 Y8 N16'
_cell_volume   894.04408334
_cell_formula_units_Z   4
loop_
 _symmetry_equiv_pos_site_id
 _symmetry_equiv_pos_as_xyz
  1  'x, y, z'
loop_
 _atom_site_type_symbol
 _atom_site_label
 _atom_site_symmetry_multiplicity
 _atom_site_fract_x
 _atom_site_fract_y
 _atom_site_fract_z
 _atom_site_occupancy
  Ba  Ba0  1  0.66591500  0.16602700  0.40111000  1
  Ba  Ba1  1  0.83408500  0.83397300  0.40111000  1
  Ba  Ba2  1  0.66591500  0.33397300  0.09889000  1
  Ba  Ba3  1  0.83408500  0.66602700  0.09889000  1
  Ba  Ba4  1  0.33408500  0.83397300  0.59889000  1
  Ba  Ba5  1  0.16591500  0.16602700  0.59889000  1
  Ba  Ba6  1  0.33408500  0.66602700  0.90111000  1
  Ba  Ba7  1  0.16591500  0.33397300  0.90111000  1
  Ba  Ba8  1  0.75000000  0.50000000  0.43692800  1
  Ba  Ba9  1  0.75000000  0.00000000  0.06307200  1
  Ba  Ba10  1  0.25000000  0.50000000  0.56307200  1
  Ba  Ba11  1  0.25000000  0.00000000  0.93692800  1
  Y  Y12  1  0.75000000  0.50000000  0.77510300  1
  Y  Y13  1  0.75000000  0.00000000  0.72489700  1
  Y  Y14  1  0.25000000  0.50000000  0.22489700  1
  Y  Y15  1  0.25000000  0.00000000  0.27510300  1
  Y  Y16  1  0.71645700  0.25000000  0.75000000  1
  Y  Y17  1  0.78354300  0.75000000  0.75000000  1
  Y  Y18  1  0.28354300  0.75000000  0.25000000  1
  Y  Y19  1  0.21645700  0.25000000  0.25000000  1
  N  N20  1  0.92820500  0.37886200  0.65806400  1
  N  N21  1  0.57179500  0.62113800  0.65806400  1
  N  N22  1  0.92820500  0.12113800  0.84193600  1
  N  N23  1  0.57179500  0.87886200  0.84193600  1
  N  N24  1  0.07179500  0.62113800  0.34193600  1
  N  N25  1  0.42820500  0.37886200  0.34193600  1
  N  N26  1  0.07179500  0.87886200  0.15806400  1
  N  N27  1  0.42820500  0.12113800  0.15806400  1
  N  N28  1  0.55628800  0.37203500  0.86866900  1
  N  N29  1  0.94371200  0.62796500  0.86866900  1
  N  N30  1  0.55628800  0.12796500  0.63133100  1
  N  N31  1  0.94371200  0.87203500  0.63133100  1
  N  N32  1  0.44371200  0.62796500  0.13133100  1
  N  N33  1  0.05628800  0.37203500  0.13133100  1
  N  N34  1  0.44371200  0.87203500  0.36866900  1
  N  N35  1  0.05628800  0.12796500  0.36866900  1
