# generated using pymatgen
data_NaMoN2
_symmetry_space_group_name_H-M   'P 1'
_cell_length_a   5.65609900
_cell_length_b   11.24483200
_cell_length_c   15.51968800
_cell_angle_alpha   90.00000000
_cell_angle_beta   90.00000000
_cell_angle_gamma   90.00000000
_symmetry_Int_Tables_number   1
_chemical_formula_structural   NaMoN2
_chemical_formula_sum   'Na16 Mo16 N32'
_cell_volume   987.08138084
_cell_formula_units_Z   16
loop_
 _symmetry_equiv_pos_site_id
 _symmetry_equiv_pos_as_xyz
  1  'x, y, z'
loop_
 _atom_site_type_symbol
 _atom_site_label
 _atom_site_symmetry_multiplicity
 _atom_site_fract_x
 _atom_site_fract_y
 _atom_site_fract_z
 _atom_site_occupancy
  Na  Na0  1  0.27927400  0.99949900  0.44373100  1
  Na  Na1  1  0.77927400  0.50050100  0.55626900  1
  Na  Na2  1  0.72072600  0.49949900  0.05626900  1
  Na  Na3  1  0.22072600  0.00050100  0.94373100  1
  Na  Na4  1  0.72072600  0.00050100  0.55626900  1
  Na  Na5  1  0.22072600  0.49949900  0.44373100  1
  Na  Na6  1  0.27927400  0.50050100  0.94373100  1
  Na  Na7  1  0.77927400  0.99949900  0.05626900  1
  Na  Na8  1  0.23455100  0.27724500  0.31422600  1
  Na  Na9  1  0.73455100  0.22275500  0.68577400  1
  Na  Na10  1  0.76544900  0.77724500  0.18577400  1
  Na  Na11  1  0.26544900  0.72275500  0.81422600  1
  Na  Na12  1  0.76544900  0.72275500  0.68577400  1
  Na  Na13  1  0.26544900  0.77724500  0.31422600  1
  Na  Na14  1  0.23455100  0.22275500  0.81422600  1
  Na  Na15  1  0.73455100  0.27724500  0.18577400  1
  Mo  Mo16  1  0.78778200  0.02069000  0.30848800  1
  Mo  Mo17  1  0.28778200  0.47931000  0.69151200  1
  Mo  Mo18  1  0.21221800  0.52069000  0.19151200  1
  Mo  Mo19  1  0.71221800  0.97931000  0.80848800  1
  Mo  Mo20  1  0.21221800  0.97931000  0.69151200  1
  Mo  Mo21  1  0.71221800  0.52069000  0.30848800  1
  Mo  Mo22  1  0.78778200  0.47931000  0.80848800  1
  Mo  Mo23  1  0.28778200  0.02069000  0.19151200  1
  Mo  Mo24  1  0.72732400  0.27161200  0.43213600  1
  Mo  Mo25  1  0.22732400  0.22838800  0.56786400  1
  Mo  Mo26  1  0.27267600  0.77161200  0.06786400  1
  Mo  Mo27  1  0.77267600  0.72838800  0.93213600  1
  Mo  Mo28  1  0.27267600  0.72838800  0.56786400  1
  Mo  Mo29  1  0.77267600  0.77161200  0.43213600  1
  Mo  Mo30  1  0.72732400  0.22838800  0.93213600  1
  Mo  Mo31  1  0.22732400  0.27161200  0.06786400  1
  N  N32  1  0.99754700  0.31138500  0.50334900  1
  N  N33  1  0.49754700  0.18861500  0.49665100  1
  N  N34  1  0.00245300  0.81138500  0.99665100  1
  N  N35  1  0.50245300  0.68861500  0.00334900  1
  N  N36  1  0.00245300  0.68861500  0.49665100  1
  N  N37  1  0.50245300  0.81138500  0.50334900  1
  N  N38  1  0.99754700  0.18861500  0.00334900  1
  N  N39  1  0.49754700  0.31138500  0.99665100  1
  N  N40  1  0.59298800  0.41839900  0.39722600  1
  N  N41  1  0.09298800  0.08160100  0.60277400  1
  N  N42  1  0.40701200  0.91839900  0.10277400  1
  N  N43  1  0.90701200  0.58160100  0.89722600  1
  N  N44  1  0.40701200  0.58160100  0.60277400  1
  N  N45  1  0.90701200  0.91839900  0.39722600  1
  N  N46  1  0.59298800  0.08160100  0.89722600  1
  N  N47  1  0.09298800  0.41839900  0.10277400  1
  N  N48  1  0.83463300  0.18560200  0.33340800  1
  N  N49  1  0.33463300  0.31439800  0.66659200  1
  N  N50  1  0.16536700  0.68560200  0.16659200  1
  N  N51  1  0.66536700  0.81439800  0.83340800  1
  N  N52  1  0.16536700  0.81439800  0.66659200  1
  N  N53  1  0.66536700  0.68560200  0.33340800  1
  N  N54  1  0.83463300  0.31439800  0.83340800  1
  N  N55  1  0.33463300  0.18560200  0.16659200  1
  N  N56  1  0.54154700  0.48890300  0.20475300  1
  N  N57  1  0.04154700  0.01109700  0.79524700  1
  N  N58  1  0.45845300  0.98890300  0.29524700  1
  N  N59  1  0.95845300  0.51109700  0.70475300  1
  N  N60  1  0.45845300  0.51109700  0.79524700  1
  N  N61  1  0.95845300  0.98890300  0.20475300  1
  N  N62  1  0.54154700  0.01109700  0.70475300  1
  N  N63  1  0.04154700  0.48890300  0.29524700  1
