# generated using pymatgen
data_Zr2GaN3
_symmetry_space_group_name_H-M   'P 1'
_cell_length_a   6.17836567
_cell_length_b   10.67217817
_cell_length_c   10.34272488
_cell_angle_alpha   89.99999736
_cell_angle_beta   96.26513422
_cell_angle_gamma   149.73154969
_symmetry_Int_Tables_number   1
_chemical_formula_structural   Zr2GaN3
_chemical_formula_sum   'Zr8 Ga4 N12'
_cell_volume   335.59249339
_cell_formula_units_Z   4
loop_
 _symmetry_equiv_pos_site_id
 _symmetry_equiv_pos_as_xyz
  1  'x, y, z'
loop_
 _atom_site_type_symbol
 _atom_site_label
 _atom_site_symmetry_multiplicity
 _atom_site_fract_x
 _atom_site_fract_y
 _atom_site_fract_z
 _atom_site_occupancy
  Zr  Zr0  1  0.52327700  0.14290200  0.79627900  1
  Zr  Zr1  1  0.47672300  0.61962600  0.70372100  1
  Zr  Zr2  1  0.47672300  0.85709800  0.20372100  1
  Zr  Zr3  1  0.52327700  0.38037400  0.29627900  1
  Zr  Zr4  1  0.79808700  0.02325000  0.56116700  1
  Zr  Zr5  1  0.20191300  0.22516300  0.93883300  1
  Zr  Zr6  1  0.20191300  0.97675000  0.43883300  1
  Zr  Zr7  1  0.79808700  0.77483700  0.06116700  1
  Ga  Ga8  1  0.92059600  0.56541900  0.61765600  1
  Ga  Ga9  1  0.07940400  0.64482400  0.88234400  1
  Ga  Ga10  1  0.07940400  0.43458100  0.38234400  1
  Ga  Ga11  1  0.92059600  0.35517600  0.11765600  1
  N  N12  1  0.00000000  0.75062000  0.75000000  1
  N  N13  1  0.00000000  0.24938000  0.25000000  1
  N  N14  1  0.77557000  0.21210500  0.60707100  1
  N  N15  1  0.22443000  0.43653500  0.89292900  1
  N  N16  1  0.22443000  0.78789500  0.39292900  1
  N  N17  1  0.77557000  0.56346500  0.10707100  1
  N  N18  1  0.37312400  0.09742400  0.99466900  1
  N  N19  1  0.62687600  0.72430000  0.50533100  1
  N  N20  1  0.62687600  0.90257600  0.00533100  1
  N  N21  1  0.37312400  0.27570000  0.49466900  1
  N  N22  1  0.00000000  0.02850100  0.75000000  1
  N  N23  1  0.00000000  0.97149900  0.25000000  1
