# generated using pymatgen
data_Y2GaN3
_symmetry_space_group_name_H-M   'P 1'
_cell_length_a   6.52862678
_cell_length_b   6.39855377
_cell_length_c   5.13644200
_cell_angle_alpha   90.00000000
_cell_angle_beta   90.00000000
_cell_angle_gamma   119.34309201
_symmetry_Int_Tables_number   1
_chemical_formula_structural   Y2GaN3
_chemical_formula_sum   'Y4 Ga2 N6'
_cell_volume   187.03960639
_cell_formula_units_Z   2
loop_
 _symmetry_equiv_pos_site_id
 _symmetry_equiv_pos_as_xyz
  1  'x, y, z'
loop_
 _atom_site_type_symbol
 _atom_site_label
 _atom_site_symmetry_multiplicity
 _atom_site_fract_x
 _atom_site_fract_y
 _atom_site_fract_z
 _atom_site_occupancy
  Y  Y0  1  0.31888500  0.34114000  0.45293400  1
  Y  Y1  1  0.68111500  0.02225500  0.45293400  1
  Y  Y2  1  0.68111500  0.65886000  0.95293400  1
  Y  Y3  1  0.31888500  0.97774500  0.95293400  1
  Ga  Ga4  1  0.00000000  0.66174300  0.47858100  1
  Ga  Ga5  1  0.00000000  0.33825700  0.97858100  1
  N  N6  1  0.30582600  0.33080300  0.91436100  1
  N  N7  1  0.69417400  0.02497800  0.91436100  1
  N  N8  1  0.69417400  0.66919700  0.41436100  1
  N  N9  1  0.30582600  0.97502200  0.41436100  1
  N  N10  1  0.00000000  0.62689500  0.85882900  1
  N  N11  1  0.00000000  0.37310500  0.35882900  1
