# generated using pymatgen
data_GePbN2
_symmetry_space_group_name_H-M   'P 1'
_cell_length_a   5.50713800
_cell_length_b   10.97832500
_cell_length_c   15.99254500
_cell_angle_alpha   90.00000000
_cell_angle_beta   90.00000000
_cell_angle_gamma   90.00000000
_symmetry_Int_Tables_number   1
_chemical_formula_structural   GePbN2
_chemical_formula_sum   'Ge16 Pb16 N32'
_cell_volume   966.89568957
_cell_formula_units_Z   16
loop_
 _symmetry_equiv_pos_site_id
 _symmetry_equiv_pos_as_xyz
  1  'x, y, z'
loop_
 _atom_site_type_symbol
 _atom_site_label
 _atom_site_symmetry_multiplicity
 _atom_site_fract_x
 _atom_site_fract_y
 _atom_site_fract_z
 _atom_site_occupancy
  Ge  Ge0  1  0.76524000  0.99953000  0.18858800  1
  Ge  Ge1  1  0.26524000  0.50047000  0.81141200  1
  Ge  Ge2  1  0.23476000  0.49953000  0.31141200  1
  Ge  Ge3  1  0.73476000  0.00047000  0.68858800  1
  Ge  Ge4  1  0.23476000  0.00047000  0.81141200  1
  Ge  Ge5  1  0.73476000  0.49953000  0.18858800  1
  Ge  Ge6  1  0.76524000  0.50047000  0.68858800  1
  Ge  Ge7  1  0.26524000  0.99953000  0.31141200  1
  Ge  Ge8  1  0.76414200  0.26150400  0.06250500  1
  Ge  Ge9  1  0.26414200  0.23849500  0.93749500  1
  Ge  Ge10  1  0.23585800  0.76150500  0.43749500  1
  Ge  Ge11  1  0.73585800  0.73849500  0.56250500  1
  Ge  Ge12  1  0.23585800  0.73849500  0.93749500  1
  Ge  Ge13  1  0.73585800  0.76150500  0.06250500  1
  Ge  Ge14  1  0.76414200  0.23849500  0.56250500  1
  Ge  Ge15  1  0.26414200  0.26150400  0.43749500  1
  Pb  Pb16  1  0.75881800  0.99618700  0.43514400  1
  Pb  Pb17  1  0.25881800  0.50381300  0.56485600  1
  Pb  Pb18  1  0.24118200  0.49618700  0.06485600  1
  Pb  Pb19  1  0.74118200  0.00381300  0.93514400  1
  Pb  Pb20  1  0.24118200  0.00381300  0.56485600  1
  Pb  Pb21  1  0.74118200  0.49618700  0.43514400  1
  Pb  Pb22  1  0.75881800  0.50381300  0.93514400  1
  Pb  Pb23  1  0.25881800  0.99618700  0.06485600  1
  Pb  Pb24  1  0.73151100  0.24972200  0.31532200  1
  Pb  Pb25  1  0.23151100  0.25027800  0.68467800  1
  Pb  Pb26  1  0.26848900  0.74972200  0.18467800  1
  Pb  Pb27  1  0.76848900  0.75027800  0.81532200  1
  Pb  Pb28  1  0.26848900  0.75027800  0.68467800  1
  Pb  Pb29  1  0.76848900  0.74972200  0.31532200  1
  Pb  Pb30  1  0.73151100  0.25027800  0.81532200  1
  Pb  Pb31  1  0.23151100  0.24972200  0.18467800  1
  N  N32  1  0.55955100  0.45594300  0.28636300  1
  N  N33  1  0.05955100  0.04405700  0.71363700  1
  N  N34  1  0.44044900  0.95594300  0.21363700  1
  N  N35  1  0.94044900  0.54405700  0.78636300  1
  N  N36  1  0.44044900  0.54405700  0.71363700  1
  N  N37  1  0.94044900  0.95594300  0.28636300  1
  N  N38  1  0.55955100  0.04405700  0.78636300  1
  N  N39  1  0.05955100  0.45594300  0.21363700  1
  N  N40  1  0.58674100  0.30063900  0.47286700  1
  N  N41  1  0.08674100  0.19936100  0.52713300  1
  N  N42  1  0.41325900  0.80063900  0.02713300  1
  N  N43  1  0.91325900  0.69936100  0.97286700  1
  N  N44  1  0.41325900  0.69936100  0.52713300  1
  N  N45  1  0.91325900  0.80063900  0.47286700  1
  N  N46  1  0.58674100  0.19936100  0.97286700  1
  N  N47  1  0.08674100  0.30063900  0.02713300  1
  N  N48  1  0.63022500  0.41049300  0.09560600  1
  N  N49  1  0.13022500  0.08950700  0.90439400  1
  N  N50  1  0.36977500  0.91049300  0.40439400  1
  N  N51  1  0.86977500  0.58950700  0.59560600  1
  N  N52  1  0.36977500  0.58950700  0.90439400  1
  N  N53  1  0.86977500  0.91049300  0.09560600  1
  N  N54  1  0.63022500  0.08950700  0.59560600  1
  N  N55  1  0.13022500  0.41049300  0.40439400  1
  N  N56  1  0.81554600  0.16552600  0.16061600  1
  N  N57  1  0.31554600  0.33447400  0.83938400  1
  N  N58  1  0.18445400  0.66552600  0.33938400  1
  N  N59  1  0.68445400  0.83447400  0.66061600  1
  N  N60  1  0.18445400  0.83447400  0.83938400  1
  N  N61  1  0.68445400  0.66552600  0.16061600  1
  N  N62  1  0.81554600  0.33447400  0.66061600  1
  N  N63  1  0.31554600  0.16552600  0.33938400  1
