# generated using pymatgen
data_NaSrN
_symmetry_space_group_name_H-M   'P 1'
_cell_length_a   9.05090300
_cell_length_b   4.26737500
_cell_length_c   6.21796000
_cell_angle_alpha   90.00000000
_cell_angle_beta   90.00000000
_cell_angle_gamma   90.00000000
_symmetry_Int_Tables_number   1
_chemical_formula_structural   NaSrN
_chemical_formula_sum   'Na4 Sr4 N4'
_cell_volume   240.15998238
_cell_formula_units_Z   4
loop_
 _symmetry_equiv_pos_site_id
 _symmetry_equiv_pos_as_xyz
  1  'x, y, z'
loop_
 _atom_site_type_symbol
 _atom_site_label
 _atom_site_symmetry_multiplicity
 _atom_site_fract_x
 _atom_site_fract_y
 _atom_site_fract_z
 _atom_site_occupancy
  Na  Na0  1  0.58733100  0.25000000  0.95630300  1
  Na  Na1  1  0.08733100  0.25000000  0.54369700  1
  Na  Na2  1  0.41266900  0.75000000  0.04369700  1
  Na  Na3  1  0.91266900  0.75000000  0.45630300  1
  Sr  Sr4  1  0.64681300  0.25000000  0.47263800  1
  Sr  Sr5  1  0.14681300  0.25000000  0.02736200  1
  Sr  Sr6  1  0.35318700  0.75000000  0.52736200  1
  Sr  Sr7  1  0.85318700  0.75000000  0.97263800  1
  N  N8  1  0.88226500  0.25000000  0.22352200  1
  N  N9  1  0.38226500  0.25000000  0.27647800  1
  N  N10  1  0.11773500  0.75000000  0.77647800  1
  N  N11  1  0.61773500  0.75000000  0.72352200  1
