# generated using pymatgen
data_Sr7CN6
_symmetry_space_group_name_H-M   'P 1'
_cell_length_a   11.40716400
_cell_length_b   6.63189800
_cell_length_c   13.30079300
_cell_angle_alpha   90.00000000
_cell_angle_beta   90.00000000
_cell_angle_gamma   90.00000000
_symmetry_Int_Tables_number   1
_chemical_formula_structural   Sr7CN6
_chemical_formula_sum   'Sr28 C4 N24'
_cell_volume   1006.22026132
_cell_formula_units_Z   4
loop_
 _symmetry_equiv_pos_site_id
 _symmetry_equiv_pos_as_xyz
  1  'x, y, z'
loop_
 _atom_site_type_symbol
 _atom_site_label
 _atom_site_symmetry_multiplicity
 _atom_site_fract_x
 _atom_site_fract_y
 _atom_site_fract_z
 _atom_site_occupancy
  Sr  Sr0  1  0.04456700  0.74426600  0.98764300  1
  Sr  Sr1  1  0.45543300  0.75573400  0.48764300  1
  Sr  Sr2  1  0.54456700  0.75573400  0.01235700  1
  Sr  Sr3  1  0.95543300  0.74426600  0.51235700  1
  Sr  Sr4  1  0.95543300  0.25573400  0.01235700  1
  Sr  Sr5  1  0.54456700  0.24426600  0.51235700  1
  Sr  Sr6  1  0.45543300  0.24426600  0.98764300  1
  Sr  Sr7  1  0.04456700  0.25573400  0.48764300  1
  Sr  Sr8  1  0.20977200  0.86285300  0.62244600  1
  Sr  Sr9  1  0.29022800  0.63714700  0.12244600  1
  Sr  Sr10  1  0.70977200  0.63714700  0.37755400  1
  Sr  Sr11  1  0.79022800  0.86285300  0.87755400  1
  Sr  Sr12  1  0.79022800  0.13714700  0.37755400  1
  Sr  Sr13  1  0.70977200  0.36285300  0.87755400  1
  Sr  Sr14  1  0.29022800  0.36285300  0.62244600  1
  Sr  Sr15  1  0.20977200  0.13714700  0.12244600  1
  Sr  Sr16  1  0.29583500  0.62816200  0.86115900  1
  Sr  Sr17  1  0.20416500  0.87183800  0.36115900  1
  Sr  Sr18  1  0.79583500  0.87183800  0.13884100  1
  Sr  Sr19  1  0.70416500  0.62816200  0.63884100  1
  Sr  Sr20  1  0.70416500  0.37183800  0.13884100  1
  Sr  Sr21  1  0.79583500  0.12816200  0.63884100  1
  Sr  Sr22  1  0.20416500  0.12816200  0.86115900  1
  Sr  Sr23  1  0.29583500  0.37183800  0.36115900  1
  Sr  Sr24  1  0.00000000  0.46631800  0.75000000  1
  Sr  Sr25  1  0.50000000  0.03368200  0.25000000  1
  Sr  Sr26  1  0.00000000  0.53368200  0.25000000  1
  Sr  Sr27  1  0.50000000  0.96631800  0.75000000  1
  C  C28  1  0.00000000  0.93649100  0.75000000  1
  C  C29  1  0.50000000  0.56350900  0.25000000  1
  C  C30  1  0.00000000  0.06350900  0.25000000  1
  C  C31  1  0.50000000  0.43649100  0.75000000  1
  N  N32  1  0.10530100  0.79635100  0.78797900  1
  N  N33  1  0.39469900  0.70364900  0.28797900  1
  N  N34  1  0.60530100  0.70364900  0.21202100  1
  N  N35  1  0.89469900  0.79635100  0.71202100  1
  N  N36  1  0.89469900  0.20364900  0.21202100  1
  N  N37  1  0.60530100  0.29635100  0.71202100  1
  N  N38  1  0.39469900  0.29635100  0.78797900  1
  N  N39  1  0.10530100  0.20364900  0.28797900  1
  N  N40  1  0.16515200  0.59028600  0.49541000  1
  N  N41  1  0.33484800  0.90971400  0.99541000  1
  N  N42  1  0.66515200  0.90971400  0.50459000  1
  N  N43  1  0.83484800  0.59028600  0.00459000  1
  N  N44  1  0.83484800  0.40971400  0.50459000  1
  N  N45  1  0.66515200  0.09028600  0.00459000  1
  N  N46  1  0.33484800  0.09028600  0.49541000  1
  N  N47  1  0.16515200  0.40971400  0.99541000  1
  N  N48  1  0.46785000  0.57101200  0.65942500  1
  N  N49  1  0.03215000  0.92898800  0.15942500  1
  N  N50  1  0.96785000  0.92898800  0.34057500  1
  N  N51  1  0.53215000  0.57101200  0.84057500  1
  N  N52  1  0.53215000  0.42898800  0.34057500  1
  N  N53  1  0.96785000  0.07101200  0.84057500  1
  N  N54  1  0.03215000  0.07101200  0.65942500  1
  N  N55  1  0.46785000  0.42898800  0.15942500  1
