# generated using pymatgen
data_Y5(SiN3)3
_symmetry_space_group_name_H-M   'P 1'
_cell_length_a   7.55293862
_cell_length_b   10.98972971
_cell_length_c   15.42243800
_cell_angle_alpha   90.00000000
_cell_angle_beta   90.00000000
_cell_angle_gamma   136.67833929
_symmetry_Int_Tables_number   1
_chemical_formula_structural   Y5(SiN3)3
_chemical_formula_sum   'Y20 Si12 N36'
_cell_volume   878.29268552
_cell_formula_units_Z   4
loop_
 _symmetry_equiv_pos_site_id
 _symmetry_equiv_pos_as_xyz
  1  'x, y, z'
loop_
 _atom_site_type_symbol
 _atom_site_label
 _atom_site_symmetry_multiplicity
 _atom_site_fract_x
 _atom_site_fract_y
 _atom_site_fract_z
 _atom_site_occupancy
  Y  Y0  1  0.00000000  0.49677600  0.83122700  1
  Y  Y1  1  0.00000000  0.50322400  0.16877300  1
  Y  Y2  1  0.00000000  0.00322400  0.33122700  1
  Y  Y3  1  0.00000000  0.99677600  0.66877300  1
  Y  Y4  1  0.41137200  0.96953800  0.86917900  1
  Y  Y5  1  0.41137200  0.44183400  0.13082100  1
  Y  Y6  1  0.41137200  0.94183400  0.36917900  1
  Y  Y7  1  0.41137200  0.46953800  0.63082100  1
  Y  Y8  1  0.58862800  0.03046200  0.13082100  1
  Y  Y9  1  0.58862800  0.55816600  0.86917900  1
  Y  Y10  1  0.58862800  0.05816600  0.63082100  1
  Y  Y11  1  0.58862800  0.53046200  0.36917900  1
  Y  Y12  1  0.00000000  0.51026900  0.60942600  1
  Y  Y13  1  0.00000000  0.48973100  0.39057400  1
  Y  Y14  1  0.00000000  0.98973100  0.10942600  1
  Y  Y15  1  0.00000000  0.01026900  0.89057400  1
  Y  Y16  1  0.58622400  0.29311200  0.00000000  1
  Y  Y17  1  0.58622400  0.79311200  0.50000000  1
  Y  Y18  1  0.41377600  0.70688800  0.00000000  1
  Y  Y19  1  0.41377600  0.20688800  0.50000000  1
  Si  Si20  1  0.00000000  0.75667300  0.01561100  1
  Si  Si21  1  0.00000000  0.24332700  0.98438900  1
  Si  Si22  1  0.00000000  0.74332700  0.51561100  1
  Si  Si23  1  0.00000000  0.25667300  0.48438900  1
  Si  Si24  1  0.00000000  0.23748700  0.77595900  1
  Si  Si25  1  0.00000000  0.76251300  0.22404100  1
  Si  Si26  1  0.00000000  0.26251300  0.27595900  1
  Si  Si27  1  0.00000000  0.73748700  0.72404100  1
  Si  Si28  1  0.50000000  0.78749000  0.75000000  1
  Si  Si29  1  0.50000000  0.71251000  0.25000000  1
  Si  Si30  1  0.50000000  0.21251000  0.25000000  1
  Si  Si31  1  0.50000000  0.28749000  0.75000000  1
  N  N32  1  0.00000000  0.35193900  0.70027800  1
  N  N33  1  0.00000000  0.64806100  0.29972200  1
  N  N34  1  0.00000000  0.14806100  0.20027800  1
  N  N35  1  0.00000000  0.85193900  0.79972200  1
  N  N36  1  0.00000000  0.29395100  0.87902700  1
  N  N37  1  0.00000000  0.70604900  0.12097300  1
  N  N38  1  0.00000000  0.20604900  0.37902700  1
  N  N39  1  0.00000000  0.79395100  0.62097300  1
  N  N40  1  0.00000000  0.63384700  0.94422800  1
  N  N41  1  0.00000000  0.36615300  0.05577200  1
  N  N42  1  0.00000000  0.86615300  0.44422800  1
  N  N43  1  0.00000000  0.13384700  0.55577200  1
  N  N44  1  0.74723200  0.51412800  0.73822500  1
  N  N45  1  0.74723200  0.23310400  0.26177500  1
  N  N46  1  0.74723200  0.73310400  0.23822500  1
  N  N47  1  0.74723200  0.01412800  0.76177500  1
  N  N48  1  0.25276800  0.48587200  0.26177500  1
  N  N49  1  0.25276800  0.76689600  0.73822500  1
  N  N50  1  0.25276800  0.26689600  0.76177500  1
  N  N51  1  0.25276800  0.98587200  0.23822500  1
  N  N52  1  0.53803800  0.23252600  0.84810500  1
  N  N53  1  0.53803800  0.30551200  0.15189500  1
  N  N54  1  0.53803800  0.80551200  0.34810500  1
  N  N55  1  0.53803800  0.73252600  0.65189500  1
  N  N56  1  0.46196200  0.76747400  0.15189500  1
  N  N57  1  0.46196200  0.69448800  0.84810500  1
  N  N58  1  0.46196200  0.19448800  0.65189500  1
  N  N59  1  0.46196200  0.26747400  0.34810500  1
  N  N60  1  0.26828700  0.98922400  0.00230800  1
  N  N61  1  0.26828700  0.27906300  0.99769200  1
  N  N62  1  0.26828700  0.77906300  0.50230800  1
  N  N63  1  0.26828700  0.48922400  0.49769200  1
  N  N64  1  0.73171300  0.01077600  0.99769200  1
  N  N65  1  0.73171300  0.72093700  0.00230800  1
  N  N66  1  0.73171300  0.22093700  0.49769200  1
  N  N67  1  0.73171300  0.51077600  0.50230800  1
