# generated using pymatgen
data_Rb6MoN4
_symmetry_space_group_name_H-M   'P 1'
_cell_length_a   8.54813800
_cell_length_b   8.54813800
_cell_length_c   7.22196100
_cell_angle_alpha   90.00000000
_cell_angle_beta   90.00000000
_cell_angle_gamma   90.00000000
_symmetry_Int_Tables_number   1
_chemical_formula_structural   Rb6MoN4
_chemical_formula_sum   'Rb12 Mo2 N8'
_cell_volume   527.71348036
_cell_formula_units_Z   2
loop_
 _symmetry_equiv_pos_site_id
 _symmetry_equiv_pos_as_xyz
  1  'x, y, z'
loop_
 _atom_site_type_symbol
 _atom_site_label
 _atom_site_symmetry_multiplicity
 _atom_site_fract_x
 _atom_site_fract_y
 _atom_site_fract_z
 _atom_site_occupancy
  Rb  Rb0  1  0.00000000  0.50000000  0.70238900  1
  Rb  Rb1  1  0.50000000  0.00000000  0.79761100  1
  Rb  Rb2  1  0.50000000  0.00000000  0.29761100  1
  Rb  Rb3  1  0.00000000  0.50000000  0.20238900  1
  Rb  Rb4  1  0.20488000  0.20488000  0.50000000  1
  Rb  Rb5  1  0.79512000  0.79512000  0.50000000  1
  Rb  Rb6  1  0.70488000  0.70488000  0.00000000  1
  Rb  Rb7  1  0.29512000  0.29512000  0.00000000  1
  Rb  Rb8  1  0.79512000  0.20488000  0.50000000  1
  Rb  Rb9  1  0.20488000  0.79512000  0.50000000  1
  Rb  Rb10  1  0.29512000  0.70488000  0.00000000  1
  Rb  Rb11  1  0.70488000  0.29512000  0.00000000  1
  Mo  Mo12  1  0.50000000  0.50000000  0.50000000  1
  Mo  Mo13  1  0.00000000  0.00000000  0.00000000  1
  N  N14  1  0.31039300  0.50000000  0.35652100  1
  N  N15  1  0.68960700  0.50000000  0.35652100  1
  N  N16  1  0.81039300  0.00000000  0.14347900  1
  N  N17  1  0.18960700  0.00000000  0.14347900  1
  N  N18  1  0.50000000  0.31039300  0.64347900  1
  N  N19  1  0.50000000  0.68960700  0.64347900  1
  N  N20  1  0.00000000  0.81039300  0.85652100  1
  N  N21  1  0.00000000  0.18960700  0.85652100  1
