# generated using pymatgen
data_BaC7N10
_symmetry_space_group_name_H-M   'P 1'
_cell_length_a   5.91618257
_cell_length_b   5.73133404
_cell_length_c   8.28649308
_cell_angle_alpha   90.00000000
_cell_angle_beta   106.64904493
_cell_angle_gamma   90.00000000
_symmetry_Int_Tables_number   1
_chemical_formula_structural   BaC7N10
_chemical_formula_sum   'Ba2 C14 N20'
_cell_volume   269.19611096
_cell_formula_units_Z   2
loop_
 _symmetry_equiv_pos_site_id
 _symmetry_equiv_pos_as_xyz
  1  'x, y, z'
loop_
 _atom_site_type_symbol
 _atom_site_label
 _atom_site_symmetry_multiplicity
 _atom_site_fract_x
 _atom_site_fract_y
 _atom_site_fract_z
 _atom_site_occupancy
  Ba  Ba0  1  0.95666005  0.12367044  0.67245013  1
  Ba  Ba1  1  0.95666005  0.87632956  0.17245013  1
  C  C2  1  0.53726216  0.97396140  0.82783728  1
  C  C3  1  0.53726216  0.02603860  0.32783728  1
  C  C4  1  0.36193348  0.03099144  0.02066733  1
  C  C5  1  0.36193348  0.96900856  0.52066733  1
  C  C6  1  0.11361646  0.38595461  0.07302102  1
  C  C7  1  0.11361646  0.61404539  0.57302102  1
  C  C8  1  0.66276052  0.36639463  0.98869447  1
  C  C9  1  0.66276052  0.63360537  0.48869447  1
  C  C10  1  0.83704341  0.63260472  0.81254649  1
  C  C11  1  0.83704341  0.36739528  0.31254649  1
  C  C12  1  0.29717493  0.62266900  0.88646587  1
  C  C13  1  0.29717493  0.37733100  0.38646587  1
  C  C14  1  0.48268120  0.37945336  0.68674073  1
  C  C15  1  0.48268120  0.62054664  0.18674073  1
  N  N16  1  0.74210711  0.84030384  0.83691536  1
  N  N17  1  0.74210711  0.15969616  0.33691536  1
  N  N18  1  0.57031193  0.12905918  0.97489306  1
  N  N19  1  0.57031193  0.87094082  0.47489306  1
  N  N20  1  0.32231479  0.87307416  0.86979071  1
  N  N21  1  0.32231479  0.12692584  0.36979071  1
  N  N22  1  0.16551297  0.17185214  0.01360794  1
  N  N23  1  0.16551297  0.82814786  0.51360794  1
  N  N24  1  0.28539951  0.50570499  0.72546816  1
  N  N25  1  0.28539951  0.49429501  0.22546816  1
  N  N26  1  0.44747198  0.11576110  0.67517241  1
  N  N27  1  0.44747198  0.88423890  0.17517241  1
  N  N28  1  0.88289205  0.39464537  0.12159355  1
  N  N29  1  0.88289205  0.60535463  0.62159355  1
  N  N30  1  0.07993595  0.58767731  0.93798353  1
  N  N31  1  0.07993595  0.41232269  0.43798353  1
  N  N32  1  0.70027754  0.41556014  0.82252629  1
  N  N33  1  0.70027754  0.58443986  0.32252629  1
  N  N34  1  0.49694395  0.53883525  0.02292467  1
  N  N35  1  0.49694395  0.46116475  0.52292467  1
