# generated using pymatgen
data_CrBiN2
_symmetry_space_group_name_H-M   'P 1'
_cell_length_a   3.66003100
_cell_length_b   3.66003100
_cell_length_c   10.10113000
_cell_angle_alpha   90.00000000
_cell_angle_beta   90.00000000
_cell_angle_gamma   90.00000000
_symmetry_Int_Tables_number   1
_chemical_formula_structural   CrBiN2
_chemical_formula_sum   'Cr2 Bi2 N4'
_cell_volume   135.31298919
_cell_formula_units_Z   2
loop_
 _symmetry_equiv_pos_site_id
 _symmetry_equiv_pos_as_xyz
  1  'x, y, z'
loop_
 _atom_site_type_symbol
 _atom_site_label
 _atom_site_symmetry_multiplicity
 _atom_site_fract_x
 _atom_site_fract_y
 _atom_site_fract_z
 _atom_site_occupancy
  Cr  Cr0  1  0.75000000  0.75000000  0.56262800  1
  Cr  Cr1  1  0.25000000  0.25000000  0.43737200  1
  Bi  Bi2  1  0.75000000  0.75000000  0.10121600  1
  Bi  Bi3  1  0.25000000  0.25000000  0.89878400  1
  N  N4  1  0.75000000  0.25000000  0.50000000  1
  N  N5  1  0.25000000  0.75000000  0.50000000  1
  N  N6  1  0.75000000  0.75000000  0.72040200  1
  N  N7  1  0.25000000  0.25000000  0.27959800  1
