# generated using pymatgen
data_NbAgN2
_symmetry_space_group_name_H-M   'P 1'
_cell_length_a   5.92532688
_cell_length_b   11.89018789
_cell_length_c   14.47552089
_cell_angle_alpha   90.00000000
_cell_angle_beta   90.00000000
_cell_angle_gamma   90.00000000
_symmetry_Int_Tables_number   1
_chemical_formula_structural   NbAgN2
_chemical_formula_sum   'Nb16 Ag16 N32'
_cell_volume   1019.84749088
_cell_formula_units_Z   16
loop_
 _symmetry_equiv_pos_site_id
 _symmetry_equiv_pos_as_xyz
  1  'x, y, z'
loop_
 _atom_site_type_symbol
 _atom_site_label
 _atom_site_symmetry_multiplicity
 _atom_site_fract_x
 _atom_site_fract_y
 _atom_site_fract_z
 _atom_site_occupancy
  Nb  Nb0  1  0.66348194  0.03102750  0.31522213  1
  Nb  Nb1  1  0.16348194  0.46897250  0.68477787  1
  Nb  Nb2  1  0.33651806  0.53102750  0.18477787  1
  Nb  Nb3  1  0.83651806  0.96897250  0.81522213  1
  Nb  Nb4  1  0.33651806  0.96897250  0.68477787  1
  Nb  Nb5  1  0.83651806  0.53102750  0.31522213  1
  Nb  Nb6  1  0.66348194  0.46897250  0.81522213  1
  Nb  Nb7  1  0.16348194  0.03102750  0.18477787  1
  Nb  Nb8  1  0.77112518  0.28436923  0.44004346  1
  Nb  Nb9  1  0.27112518  0.21563077  0.55995654  1
  Nb  Nb10  1  0.22887482  0.78436923  0.05995654  1
  Nb  Nb11  1  0.72887482  0.71563077  0.94004346  1
  Nb  Nb12  1  0.22887482  0.71563077  0.55995654  1
  Nb  Nb13  1  0.72887482  0.78436923  0.44004346  1
  Nb  Nb14  1  0.77112518  0.21563077  0.94004346  1
  Nb  Nb15  1  0.27112518  0.28436923  0.05995654  1
  Ag  Ag16  1  0.20989111  0.99786277  0.43400326  1
  Ag  Ag17  1  0.70989111  0.50213723  0.56599674  1
  Ag  Ag18  1  0.79010889  0.49786277  0.06599674  1
  Ag  Ag19  1  0.29010889  0.00213723  0.93400326  1
  Ag  Ag20  1  0.79010889  0.00213723  0.56599674  1
  Ag  Ag21  1  0.29010889  0.49786277  0.43400326  1
  Ag  Ag22  1  0.20989111  0.50213723  0.93400326  1
  Ag  Ag23  1  0.70989111  0.99786277  0.06599674  1
  Ag  Ag24  1  0.19062701  0.27485548  0.30265426  1
  Ag  Ag25  1  0.69062701  0.22514452  0.69734574  1
  Ag  Ag26  1  0.80937299  0.77485548  0.19734574  1
  Ag  Ag27  1  0.30937299  0.72514452  0.80265426  1
  Ag  Ag28  1  0.80937299  0.72514452  0.69734574  1
  Ag  Ag29  1  0.30937299  0.77485548  0.30265426  1
  Ag  Ag30  1  0.19062701  0.22514452  0.80265426  1
  Ag  Ag31  1  0.69062701  0.27485548  0.19734574  1
  N  N32  1  0.09945939  0.26750365  0.45318984  1
  N  N33  1  0.59945939  0.23249635  0.54681016  1
  N  N34  1  0.90054061  0.76750365  0.04681016  1
  N  N35  1  0.40054061  0.73249635  0.95318984  1
  N  N36  1  0.90054061  0.73249635  0.54681016  1
  N  N37  1  0.40054061  0.76750365  0.45318984  1
  N  N38  1  0.09945939  0.23249635  0.95318984  1
  N  N39  1  0.59945939  0.26750365  0.04681016  1
  N  N40  1  0.71043695  0.44688601  0.41984246  1
  N  N41  1  0.21043695  0.05311399  0.58015754  1
  N  N42  1  0.28956305  0.94688601  0.08015754  1
  N  N43  1  0.78956305  0.55311399  0.91984246  1
  N  N44  1  0.28956305  0.55311399  0.58015754  1
  N  N45  1  0.78956305  0.94688601  0.41984246  1
  N  N46  1  0.71043695  0.05311399  0.91984246  1
  N  N47  1  0.21043695  0.44688601  0.08015754  1
  N  N48  1  0.67564811  0.19408257  0.33362574  1
  N  N49  1  0.17564811  0.30591743  0.66637426  1
  N  N50  1  0.32435189  0.69408257  0.16637426  1
  N  N51  1  0.82435189  0.80591743  0.83362574  1
  N  N52  1  0.32435189  0.80591743  0.66637426  1
  N  N53  1  0.82435189  0.69408257  0.33362574  1
  N  N54  1  0.67564811  0.30591743  0.83362574  1
  N  N55  1  0.17564811  0.19408257  0.16637426  1
  N  N56  1  0.65449946  0.48823878  0.20680891  1
  N  N57  1  0.15449946  0.01176122  0.79319109  1
  N  N58  1  0.34550054  0.98823878  0.29319109  1
  N  N59  1  0.84550054  0.51176122  0.70680891  1
  N  N60  1  0.34550054  0.51176122  0.79319109  1
  N  N61  1  0.84550054  0.98823878  0.20680891  1
  N  N62  1  0.65449946  0.01176122  0.70680891  1
  N  N63  1  0.15449946  0.48823878  0.29319109  1
