# generated using pymatgen
data_Mn3(FeN2)2
_symmetry_space_group_name_H-M   'P 1'
_cell_length_a   6.22290876
_cell_length_b   6.25906418
_cell_length_c   5.23799280
_cell_angle_alpha   89.99999789
_cell_angle_beta   93.55846646
_cell_angle_gamma   120.19238292
_symmetry_Int_Tables_number   1
_chemical_formula_structural   Mn3(FeN2)2
_chemical_formula_sum   'Mn6 Fe4 N8'
_cell_volume   175.88571903
_cell_formula_units_Z   2
loop_
 _symmetry_equiv_pos_site_id
 _symmetry_equiv_pos_as_xyz
  1  'x, y, z'
loop_
 _atom_site_type_symbol
 _atom_site_label
 _atom_site_symmetry_multiplicity
 _atom_site_fract_x
 _atom_site_fract_y
 _atom_site_fract_z
 _atom_site_occupancy
  Mn  Mn0  1  0.36057500  0.08612100  0.94400100  1
  Mn  Mn1  1  0.63942500  0.72554600  0.55599900  1
  Mn  Mn2  1  0.63942500  0.91387900  0.05599900  1
  Mn  Mn3  1  0.36057500  0.27445400  0.44400100  1
  Mn  Mn4  1  0.00000000  0.67304900  0.75000000  1
  Mn  Mn5  1  0.00000000  0.32695100  0.25000000  1
  Fe  Fe6  1  0.68582900  0.18612900  0.62634200  1
  Fe  Fe7  1  0.31417100  0.50030000  0.87365800  1
  Fe  Fe8  1  0.31417100  0.81387100  0.37365800  1
  Fe  Fe9  1  0.68582900  0.49970000  0.12634200  1
  N  N10  1  0.23052600  0.97587800  0.60610500  1
  N  N11  1  0.76947400  0.74535200  0.89389500  1
  N  N12  1  0.76947400  0.02412200  0.39389500  1
  N  N13  1  0.23052600  0.25464800  0.10610500  1
  N  N14  1  0.72145800  0.24747700  0.97723700  1
  N  N15  1  0.27854200  0.52601900  0.52276300  1
  N  N16  1  0.27854200  0.75252300  0.02276300  1
  N  N17  1  0.72145800  0.47398100  0.47723700  1
