# generated using pymatgen
data_Zn(PbN)2
_symmetry_space_group_name_H-M   'P 1'
_cell_length_a   3.67330728
_cell_length_b   3.67398582
_cell_length_c   11.23904152
_cell_angle_alpha   90.00000052
_cell_angle_beta   119.33775658
_cell_angle_gamma   120.00611275
_symmetry_Int_Tables_number   1
_chemical_formula_structural   Zn(PbN)2
_chemical_formula_sum   'Zn1 Pb2 N2'
_cell_volume   108.30415060
_cell_formula_units_Z   1
loop_
 _symmetry_equiv_pos_site_id
 _symmetry_equiv_pos_as_xyz
  1  'x, y, z'
loop_
 _atom_site_type_symbol
 _atom_site_label
 _atom_site_symmetry_multiplicity
 _atom_site_fract_x
 _atom_site_fract_y
 _atom_site_fract_z
 _atom_site_occupancy
  Zn  Zn0  1  0.00000000  0.00000000  0.50000000  1
  Pb  Pb1  1  0.70672900  0.35336500  0.18693300  1
  Pb  Pb2  1  0.29327100  0.64663500  0.81306700  1
  N  N3  1  0.39718000  0.19859000  0.69831900  1
  N  N4  1  0.60282000  0.80141000  0.30168100  1
