# generated using pymatgen
data_YAlN2
_symmetry_space_group_name_H-M   'P 1'
_cell_length_a   5.11796300
_cell_length_b   10.13063800
_cell_length_c   16.12095600
_cell_angle_alpha   90.00000000
_cell_angle_beta   90.00000000
_cell_angle_gamma   90.00000000
_symmetry_Int_Tables_number   1
_chemical_formula_structural   YAlN2
_chemical_formula_sum   'Y16 Al16 N32'
_cell_volume   835.84304177
_cell_formula_units_Z   16
loop_
 _symmetry_equiv_pos_site_id
 _symmetry_equiv_pos_as_xyz
  1  'x, y, z'
loop_
 _atom_site_type_symbol
 _atom_site_label
 _atom_site_symmetry_multiplicity
 _atom_site_fract_x
 _atom_site_fract_y
 _atom_site_fract_z
 _atom_site_occupancy
  Y  Y0  1  0.73720900  0.99599700  0.43684600  1
  Y  Y1  1  0.23720900  0.50400300  0.56315400  1
  Y  Y2  1  0.26279100  0.49599700  0.06315400  1
  Y  Y3  1  0.76279100  0.00400300  0.93684600  1
  Y  Y4  1  0.26279100  0.00400300  0.56315400  1
  Y  Y5  1  0.76279100  0.49599700  0.43684600  1
  Y  Y6  1  0.73720900  0.50400300  0.93684600  1
  Y  Y7  1  0.23720900  0.99599700  0.06315400  1
  Y  Y8  1  0.79749600  0.25740000  0.31200600  1
  Y  Y9  1  0.29749600  0.24260000  0.68799400  1
  Y  Y10  1  0.20250400  0.75740000  0.18799400  1
  Y  Y11  1  0.70250400  0.74260000  0.81200600  1
  Y  Y12  1  0.20250400  0.74260000  0.68799400  1
  Y  Y13  1  0.70250400  0.75740000  0.31200600  1
  Y  Y14  1  0.79749600  0.24260000  0.81200600  1
  Y  Y15  1  0.29749600  0.25740000  0.18799400  1
  Al  Al16  1  0.70248900  0.02164500  0.18789100  1
  Al  Al17  1  0.20248900  0.47835500  0.81210900  1
  Al  Al18  1  0.29751100  0.52164500  0.31210900  1
  Al  Al19  1  0.79751100  0.97835500  0.68789100  1
  Al  Al20  1  0.29751100  0.97835500  0.81210900  1
  Al  Al21  1  0.79751100  0.52164500  0.18789100  1
  Al  Al22  1  0.70248900  0.47835500  0.68789100  1
  Al  Al23  1  0.20248900  0.02164500  0.31210900  1
  Al  Al24  1  0.80587500  0.27509300  0.06272800  1
  Al  Al25  1  0.30587500  0.22490700  0.93727200  1
  Al  Al26  1  0.19412500  0.77509300  0.43727200  1
  Al  Al27  1  0.69412500  0.72490700  0.56272800  1
  Al  Al28  1  0.19412500  0.72490700  0.93727200  1
  Al  Al29  1  0.69412500  0.77509300  0.06272800  1
  Al  Al30  1  0.80587500  0.22490700  0.56272800  1
  Al  Al31  1  0.30587500  0.27509300  0.43727200  1
  N  N32  1  0.66569400  0.48577000  0.29714600  1
  N  N33  1  0.16569400  0.01423000  0.70285400  1
  N  N34  1  0.33430600  0.98577000  0.20285400  1
  N  N35  1  0.83430600  0.51423000  0.79714600  1
  N  N36  1  0.33430600  0.51423000  0.70285400  1
  N  N37  1  0.83430600  0.98577000  0.29714600  1
  N  N38  1  0.66569400  0.01423000  0.79714600  1
  N  N39  1  0.16569400  0.48577000  0.20285400  1
  N  N40  1  0.67877400  0.26243600  0.45164900  1
  N  N41  1  0.17877400  0.23756400  0.54835100  1
  N  N42  1  0.32122600  0.76243600  0.04835100  1
  N  N43  1  0.82122600  0.73756400  0.95164900  1
  N  N44  1  0.32122600  0.73756400  0.54835100  1
  N  N45  1  0.82122600  0.76243600  0.45164900  1
  N  N46  1  0.67877400  0.23756400  0.95164900  1
  N  N47  1  0.17877400  0.26243600  0.04835100  1
  N  N48  1  0.71369300  0.45907100  0.07826500  1
  N  N49  1  0.21369300  0.04092900  0.92173500  1
  N  N50  1  0.28630700  0.95907100  0.42173500  1
  N  N51  1  0.78630700  0.54092900  0.57826500  1
  N  N52  1  0.28630700  0.54092900  0.92173500  1
  N  N53  1  0.78630700  0.95907100  0.07826500  1
  N  N54  1  0.71369300  0.04092900  0.57826500  1
  N  N55  1  0.21369300  0.45907100  0.42173500  1
  N  N56  1  0.73904200  0.20888200  0.17294900  1
  N  N57  1  0.23904200  0.29111800  0.82705100  1
  N  N58  1  0.26095800  0.70888200  0.32705100  1
  N  N59  1  0.76095800  0.79111800  0.67294900  1
  N  N60  1  0.26095800  0.79111800  0.82705100  1
  N  N61  1  0.76095800  0.70888200  0.17294900  1
  N  N62  1  0.73904200  0.29111800  0.67294900  1
  N  N63  1  0.23904200  0.20888200  0.32705100  1
