# generated using pymatgen
data_YCrN2
_symmetry_space_group_name_H-M   'P 1'
_cell_length_a   6.50415646
_cell_length_b   11.16668532
_cell_length_c   13.03657005
_cell_angle_alpha   90.00000000
_cell_angle_beta   90.00000000
_cell_angle_gamma   90.00000000
_symmetry_Int_Tables_number   1
_chemical_formula_structural   YCrN2
_chemical_formula_sum   'Y16 Cr16 N32'
_cell_volume   946.84436791
_cell_formula_units_Z   16
loop_
 _symmetry_equiv_pos_site_id
 _symmetry_equiv_pos_as_xyz
  1  'x, y, z'
loop_
 _atom_site_type_symbol
 _atom_site_label
 _atom_site_symmetry_multiplicity
 _atom_site_fract_x
 _atom_site_fract_y
 _atom_site_fract_z
 _atom_site_occupancy
  Y  Y0  1  0.53558894  0.08779184  0.29618312  1
  Y  Y1  1  0.03558894  0.41220816  0.70381688  1
  Y  Y2  1  0.46441106  0.58779184  0.20381688  1
  Y  Y3  1  0.96441106  0.91220816  0.79618312  1
  Y  Y4  1  0.46441106  0.91220816  0.70381688  1
  Y  Y5  1  0.96441106  0.58779184  0.29618312  1
  Y  Y6  1  0.53558894  0.41220816  0.79618312  1
  Y  Y7  1  0.03558894  0.08779184  0.20381688  1
  Y  Y8  1  0.89954301  0.28607672  0.45464889  1
  Y  Y9  1  0.39954301  0.21392328  0.54535111  1
  Y  Y10  1  0.10045699  0.78607672  0.04535111  1
  Y  Y11  1  0.60045699  0.71392328  0.95464889  1
  Y  Y12  1  0.10045699  0.71392328  0.54535111  1
  Y  Y13  1  0.60045699  0.78607672  0.45464889  1
  Y  Y14  1  0.89954301  0.21392328  0.95464889  1
  Y  Y15  1  0.39954301  0.28607672  0.04535111  1
  Cr  Cr16  1  0.15874352  0.95946317  0.46542573  1
  Cr  Cr17  1  0.65874352  0.54053683  0.53457427  1
  Cr  Cr18  1  0.84125648  0.45946317  0.03457427  1
  Cr  Cr19  1  0.34125648  0.04053683  0.96542573  1
  Cr  Cr20  1  0.84125648  0.04053683  0.53457427  1
  Cr  Cr21  1  0.34125648  0.45946317  0.46542573  1
  Cr  Cr22  1  0.15874352  0.54053683  0.96542573  1
  Cr  Cr23  1  0.65874352  0.95946317  0.03457427  1
  Cr  Cr24  1  0.26436667  0.33926275  0.28853994  1
  Cr  Cr25  1  0.76436667  0.16073725  0.71146006  1
  Cr  Cr26  1  0.73563333  0.83926275  0.21146006  1
  Cr  Cr27  1  0.23563333  0.66073725  0.78853994  1
  Cr  Cr28  1  0.73563333  0.66073725  0.71146006  1
  Cr  Cr29  1  0.23563333  0.83926275  0.28853994  1
  Cr  Cr30  1  0.26436667  0.16073725  0.78853994  1
  Cr  Cr31  1  0.76436667  0.33926275  0.21146006  1
  N  N32  1  0.16450494  0.38411243  0.54677104  1
  N  N33  1  0.66450494  0.11588757  0.45322896  1
  N  N34  1  0.83549506  0.88411243  0.95322896  1
  N  N35  1  0.33549506  0.61588757  0.04677104  1
  N  N36  1  0.83549506  0.61588757  0.45322896  1
  N  N37  1  0.33549506  0.88411243  0.54677104  1
  N  N38  1  0.16450494  0.11588757  0.04677104  1
  N  N39  1  0.66450494  0.38411243  0.95322896  1
  N  N40  1  0.58844214  0.38559602  0.48700728  1
  N  N41  1  0.08844214  0.11440398  0.51299272  1
  N  N42  1  0.41155786  0.88559602  0.01299272  1
  N  N43  1  0.91155786  0.61440398  0.98700728  1
  N  N44  1  0.41155786  0.61440398  0.51299272  1
  N  N45  1  0.91155786  0.88559602  0.48700728  1
  N  N46  1  0.58844214  0.11440398  0.98700728  1
  N  N47  1  0.08844214  0.38559602  0.01299272  1
  N  N48  1  0.99672165  0.28140345  0.27617229  1
  N  N49  1  0.49672165  0.21859655  0.72382771  1
  N  N50  1  0.00327835  0.78140345  0.22382771  1
  N  N51  1  0.50327835  0.71859655  0.77617229  1
  N  N52  1  0.00327835  0.71859655  0.72382771  1
  N  N53  1  0.50327835  0.78140345  0.27617229  1
  N  N54  1  0.99672165  0.21859655  0.77617229  1
  N  N55  1  0.49672165  0.28140345  0.22382771  1
  N  N56  1  0.76605890  0.49711577  0.17172522  1
  N  N57  1  0.26605890  0.00288423  0.82827478  1
  N  N58  1  0.23394110  0.99711577  0.32827478  1
  N  N59  1  0.73394110  0.50288423  0.67172522  1
  N  N60  1  0.23394110  0.50288423  0.82827478  1
  N  N61  1  0.73394110  0.99711577  0.17172522  1
  N  N62  1  0.76605890  0.00288423  0.67172522  1
  N  N63  1  0.26605890  0.49711577  0.32827478  1
