# generated using pymatgen
data_MgMnN2
_symmetry_space_group_name_H-M   'P 1'
_cell_length_a   5.55933800
_cell_length_b   6.41464300
_cell_length_c   5.14326300
_cell_angle_alpha   90.00000000
_cell_angle_beta   90.00000000
_cell_angle_gamma   90.00000000
_symmetry_Int_Tables_number   1
_chemical_formula_structural   MgMnN2
_chemical_formula_sum   'Mg4 Mn4 N8'
_cell_volume   183.41476893
_cell_formula_units_Z   4
loop_
 _symmetry_equiv_pos_site_id
 _symmetry_equiv_pos_as_xyz
  1  'x, y, z'
loop_
 _atom_site_type_symbol
 _atom_site_label
 _atom_site_symmetry_multiplicity
 _atom_site_fract_x
 _atom_site_fract_y
 _atom_site_fract_z
 _atom_site_occupancy
  Mg  Mg0  1  0.59501700  0.87884500  0.99748200  1
  Mg  Mg1  1  0.40498300  0.12115500  0.49748200  1
  Mg  Mg2  1  0.90498300  0.37884500  0.49748200  1
  Mg  Mg3  1  0.09501700  0.62115500  0.99748200  1
  Mn  Mn4  1  0.57406700  0.37170700  0.00682900  1
  Mn  Mn5  1  0.42593300  0.62829300  0.50682900  1
  Mn  Mn6  1  0.92593300  0.87170700  0.50682900  1
  Mn  Mn7  1  0.07406700  0.12829300  0.00682900  1
  N  N8  1  0.55405800  0.39868500  0.35483600  1
  N  N9  1  0.44594200  0.60131500  0.85483600  1
  N  N10  1  0.94594200  0.89868500  0.85483600  1
  N  N11  1  0.05405800  0.10131500  0.35483600  1
  N  N12  1  0.60917500  0.85265800  0.41085400  1
  N  N13  1  0.39082500  0.14734200  0.91085400  1
  N  N14  1  0.89082500  0.35265800  0.91085400  1
  N  N15  1  0.10917500  0.64734200  0.41085400  1
