# generated using pymatgen
data_Sr7ZrN6
_symmetry_space_group_name_H-M   'P 1'
_cell_length_a   12.38352100
_cell_length_b   6.81959300
_cell_length_c   13.87955200
_cell_angle_alpha   90.00000000
_cell_angle_beta   90.00000000
_cell_angle_gamma   90.00000000
_symmetry_Int_Tables_number   1
_chemical_formula_structural   Sr7ZrN6
_chemical_formula_sum   'Sr28 Zr4 N24'
_cell_volume   1172.13612115
_cell_formula_units_Z   4
loop_
 _symmetry_equiv_pos_site_id
 _symmetry_equiv_pos_as_xyz
  1  'x, y, z'
loop_
 _atom_site_type_symbol
 _atom_site_label
 _atom_site_symmetry_multiplicity
 _atom_site_fract_x
 _atom_site_fract_y
 _atom_site_fract_z
 _atom_site_occupancy
  Sr  Sr0  1  0.04211800  0.72418500  0.99543000  1
  Sr  Sr1  1  0.45788200  0.77581500  0.49543000  1
  Sr  Sr2  1  0.54211800  0.77581500  0.00457000  1
  Sr  Sr3  1  0.95788200  0.72418500  0.50457000  1
  Sr  Sr4  1  0.95788200  0.27581500  0.00457000  1
  Sr  Sr5  1  0.54211800  0.22418500  0.50457000  1
  Sr  Sr6  1  0.45788200  0.22418500  0.99543000  1
  Sr  Sr7  1  0.04211800  0.27581500  0.49543000  1
  Sr  Sr8  1  0.22575600  0.85661900  0.62869300  1
  Sr  Sr9  1  0.27424400  0.64338100  0.12869300  1
  Sr  Sr10  1  0.72575600  0.64338100  0.37130700  1
  Sr  Sr11  1  0.77424400  0.85661900  0.87130700  1
  Sr  Sr12  1  0.77424400  0.14338100  0.37130700  1
  Sr  Sr13  1  0.72575600  0.35661900  0.87130700  1
  Sr  Sr14  1  0.27424400  0.35661900  0.62869300  1
  Sr  Sr15  1  0.22575600  0.14338100  0.12869300  1
  Sr  Sr16  1  0.27807600  0.61930000  0.87997600  1
  Sr  Sr17  1  0.22192400  0.88070000  0.37997600  1
  Sr  Sr18  1  0.77807600  0.88070000  0.12002400  1
  Sr  Sr19  1  0.72192400  0.61930000  0.62002400  1
  Sr  Sr20  1  0.72192400  0.38070000  0.12002400  1
  Sr  Sr21  1  0.77807600  0.11930000  0.62002400  1
  Sr  Sr22  1  0.22192400  0.11930000  0.87997600  1
  Sr  Sr23  1  0.27807600  0.38070000  0.37997600  1
  Sr  Sr24  1  0.00000000  0.48517800  0.75000000  1
  Sr  Sr25  1  0.50000000  0.01482200  0.25000000  1
  Sr  Sr26  1  0.00000000  0.51482200  0.25000000  1
  Sr  Sr27  1  0.50000000  0.98517800  0.75000000  1
  Zr  Zr28  1  0.00000000  0.98521900  0.75000000  1
  Zr  Zr29  1  0.50000000  0.51478100  0.25000000  1
  Zr  Zr30  1  0.00000000  0.01478100  0.25000000  1
  Zr  Zr31  1  0.50000000  0.48521900  0.75000000  1
  N  N32  1  0.11237800  0.79569800  0.81772000  1
  N  N33  1  0.38762200  0.70430200  0.31772000  1
  N  N34  1  0.61237800  0.70430200  0.18228000  1
  N  N35  1  0.88762200  0.79569800  0.68228000  1
  N  N36  1  0.88762200  0.20430200  0.18228000  1
  N  N37  1  0.61237800  0.29569800  0.68228000  1
  N  N38  1  0.38762200  0.29569800  0.81772000  1
  N  N39  1  0.11237800  0.20430200  0.31772000  1
  N  N40  1  0.15855200  0.60548600  0.50224200  1
  N  N41  1  0.34144800  0.89451400  0.00224200  1
  N  N42  1  0.65855200  0.89451400  0.49775800  1
  N  N43  1  0.84144800  0.60548600  0.99775800  1
  N  N44  1  0.84144800  0.39451400  0.49775800  1
  N  N45  1  0.65855200  0.10548600  0.99775800  1
  N  N46  1  0.34144800  0.10548600  0.50224200  1
  N  N47  1  0.15855200  0.39451400  0.00224200  1
  N  N48  1  0.40432900  0.67387400  0.66634800  1
  N  N49  1  0.09567100  0.82612600  0.16634800  1
  N  N50  1  0.90432900  0.82612600  0.33365200  1
  N  N51  1  0.59567100  0.67387400  0.83365200  1
  N  N52  1  0.59567100  0.32612600  0.33365200  1
  N  N53  1  0.90432900  0.17387400  0.83365200  1
  N  N54  1  0.09567100  0.17387400  0.66634800  1
  N  N55  1  0.40432900  0.32612600  0.16634800  1
