# generated using pymatgen
data_Bi4S3N2
_symmetry_space_group_name_H-M   'P 1'
_cell_length_a   6.89113458
_cell_length_b   11.09095480
_cell_length_c   10.88065083
_cell_angle_alpha   90.00000000
_cell_angle_beta   90.00000000
_cell_angle_gamma   90.00000000
_symmetry_Int_Tables_number   1
_chemical_formula_structural   Bi4S3N2
_chemical_formula_sum   'Bi16 S12 N8'
_cell_volume   831.60011462
_cell_formula_units_Z   4
loop_
 _symmetry_equiv_pos_site_id
 _symmetry_equiv_pos_as_xyz
  1  'x, y, z'
loop_
 _atom_site_type_symbol
 _atom_site_label
 _atom_site_symmetry_multiplicity
 _atom_site_fract_x
 _atom_site_fract_y
 _atom_site_fract_z
 _atom_site_occupancy
  Bi  Bi0  1  0.59549365  0.25000000  0.81472879  1
  Bi  Bi1  1  0.09549365  0.25000000  0.68527121  1
  Bi  Bi2  1  0.40450635  0.75000000  0.18527121  1
  Bi  Bi3  1  0.90450635  0.75000000  0.31472879  1
  Bi  Bi4  1  0.73364771  0.25000000  0.45673886  1
  Bi  Bi5  1  0.23364771  0.25000000  0.04326114  1
  Bi  Bi6  1  0.26635229  0.75000000  0.54326114  1
  Bi  Bi7  1  0.76635229  0.75000000  0.95673886  1
  Bi  Bi8  1  0.69141274  0.44178406  0.09234541  1
  Bi  Bi9  1  0.19141274  0.05821594  0.40765459  1
  Bi  Bi10  1  0.30858726  0.94178406  0.90765459  1
  Bi  Bi11  1  0.80858726  0.55821594  0.59234541  1
  Bi  Bi12  1  0.30858726  0.55821594  0.90765459  1
  Bi  Bi13  1  0.80858726  0.94178406  0.59234541  1
  Bi  Bi14  1  0.69141274  0.05821594  0.09234541  1
  Bi  Bi15  1  0.19141274  0.44178406  0.40765459  1
  S  S16  1  0.96311233  0.25000000  0.27141112  1
  S  S17  1  0.46311233  0.25000000  0.22858888  1
  S  S18  1  0.03688767  0.75000000  0.72858888  1
  S  S19  1  0.53688767  0.75000000  0.77141112  1
  S  S20  1  0.61017498  0.57399065  0.37003479  1
  S  S21  1  0.11017498  0.92600935  0.12996521  1
  S  S22  1  0.38982502  0.07399065  0.62996521  1
  S  S23  1  0.88982502  0.42600935  0.87003479  1
  S  S24  1  0.38982502  0.42600935  0.62996521  1
  S  S25  1  0.88982502  0.07399065  0.87003479  1
  S  S26  1  0.61017498  0.92600935  0.37003479  1
  S  S27  1  0.11017498  0.57399065  0.12996521  1
  N  N28  1  0.55395739  0.62138978  0.04514596  1
  N  N29  1  0.05395739  0.87861022  0.45485404  1
  N  N30  1  0.44604261  0.12138978  0.95485404  1
  N  N31  1  0.94604261  0.37861022  0.54514596  1
  N  N32  1  0.44604261  0.37861022  0.95485404  1
  N  N33  1  0.94604261  0.12138978  0.54514596  1
  N  N34  1  0.55395739  0.87861022  0.04514596  1
  N  N35  1  0.05395739  0.62138978  0.45485404  1
