# generated using pymatgen
data_Pb3W3N5
_symmetry_space_group_name_H-M   'P 1'
_cell_length_a   6.19251478
_cell_length_b   7.96964268
_cell_length_c   8.68498454
_cell_angle_alpha   107.60394517
_cell_angle_beta   99.04582473
_cell_angle_gamma   98.49121598
_symmetry_Int_Tables_number   1
_chemical_formula_structural   Pb3W3N5
_chemical_formula_sum   'Pb6 W6 N10'
_cell_volume   394.69780529
_cell_formula_units_Z   2
loop_
 _symmetry_equiv_pos_site_id
 _symmetry_equiv_pos_as_xyz
  1  'x, y, z'
loop_
 _atom_site_type_symbol
 _atom_site_label
 _atom_site_symmetry_multiplicity
 _atom_site_fract_x
 _atom_site_fract_y
 _atom_site_fract_z
 _atom_site_occupancy
  Pb  Pb0  1  0.74781200  0.45244200  0.52181100  1
  Pb  Pb1  1  0.25218800  0.54755800  0.47818900  1
  Pb  Pb2  1  0.53670500  0.79669000  0.89009800  1
  Pb  Pb3  1  0.46329500  0.20331000  0.10990200  1
  Pb  Pb4  1  0.56792300  0.65155600  0.22268200  1
  Pb  Pb5  1  0.43207700  0.34844400  0.77731800  1
  W  W6  1  0.91146400  0.31122800  0.95576300  1
  W  W7  1  0.08853600  0.68877200  0.04423700  1
  W  W8  1  0.68674600  0.00947200  0.61769100  1
  W  W9  1  0.31325400  0.99052800  0.38230900  1
  W  W10  1  0.09423900  0.89988800  0.70692700  1
  W  W11  1  0.90576100  0.10011200  0.29307300  1
  N  N12  1  0.99696600  0.12378800  0.78189400  1
  N  N13  1  0.00303400  0.87621200  0.21810600  1
  N  N14  1  0.81022100  0.78996200  0.55850100  1
  N  N15  1  0.18977900  0.21003800  0.44149900  1
  N  N16  1  0.78979000  0.53919800  0.98257800  1
  N  N17  1  0.21021000  0.46080200  0.01742200  1
  N  N18  1  0.35064100  0.94214500  0.59603600  1
  N  N19  1  0.64935900  0.05785500  0.40396400  1
  N  N20  1  0.11572000  0.79254300  0.87741900  1
  N  N21  1  0.88428000  0.20745700  0.12258100  1
