# generated using pymatgen
data_Ru(CN)2
_symmetry_space_group_name_H-M   'P 1'
_cell_length_a   2.90334198
_cell_length_b   6.71920908
_cell_length_c   6.71920985
_cell_angle_alpha   90.00000507
_cell_angle_beta   90.00000136
_cell_angle_gamma   90.00000237
_symmetry_Int_Tables_number   1
_chemical_formula_structural   Ru(CN)2
_chemical_formula_sum   'Ru2 C4 N4'
_cell_volume   131.07943313
_cell_formula_units_Z   2
loop_
 _symmetry_equiv_pos_site_id
 _symmetry_equiv_pos_as_xyz
  1  'x, y, z'
loop_
 _atom_site_type_symbol
 _atom_site_label
 _atom_site_symmetry_multiplicity
 _atom_site_fract_x
 _atom_site_fract_y
 _atom_site_fract_z
 _atom_site_occupancy
  Ru  Ru0  1  0.25000000  0.50000000  0.00000000  1
  Ru  Ru1  1  0.75000000  0.00000000  0.50000000  1
  C  C2  1  0.25000000  0.70963600  0.20963600  1
  C  C3  1  0.25000000  0.29036400  0.79036400  1
  C  C4  1  0.75000000  0.79036400  0.70963600  1
  C  C5  1  0.75000000  0.20963600  0.29036400  1
  N  N6  1  0.25000000  0.83543300  0.33543300  1
  N  N7  1  0.25000000  0.16456700  0.66456700  1
  N  N8  1  0.75000000  0.66456700  0.83543300  1
  N  N9  1  0.75000000  0.33543300  0.16456700  1
