# generated using pymatgen
data_FeGe7N10
_symmetry_space_group_name_H-M   'P 1'
_cell_length_a   6.84869142
_cell_length_b   7.46439800
_cell_length_c   10.29233492
_cell_angle_alpha   90.00000000
_cell_angle_beta   103.13993009
_cell_angle_gamma   90.00000000
_symmetry_Int_Tables_number   1
_chemical_formula_structural   FeGe7N10
_chemical_formula_sum   'Fe2 Ge14 N20'
_cell_volume   512.38215259
_cell_formula_units_Z   2
loop_
 _symmetry_equiv_pos_site_id
 _symmetry_equiv_pos_as_xyz
  1  'x, y, z'
loop_
 _atom_site_type_symbol
 _atom_site_label
 _atom_site_symmetry_multiplicity
 _atom_site_fract_x
 _atom_site_fract_y
 _atom_site_fract_z
 _atom_site_occupancy
  Fe  Fe0  1  0.99497500  0.87544400  0.70509500  1
  Fe  Fe1  1  0.99497500  0.12455600  0.20509500  1
  Ge  Ge2  1  0.54155900  0.98320400  0.81700900  1
  Ge  Ge3  1  0.54155900  0.01679600  0.31700900  1
  Ge  Ge4  1  0.33033100  0.01537500  0.01879700  1
  Ge  Ge5  1  0.33033100  0.98462500  0.51879700  1
  Ge  Ge6  1  0.11709400  0.39698900  0.07451700  1
  Ge  Ge7  1  0.11709400  0.60301100  0.57451700  1
  Ge  Ge8  1  0.65577300  0.35170700  0.98931600  1
  Ge  Ge9  1  0.65577300  0.64829300  0.48931600  1
  Ge  Ge10  1  0.84264600  0.61781900  0.81610800  1
  Ge  Ge11  1  0.84264600  0.38218100  0.31610800  1
  Ge  Ge12  1  0.30396900  0.62693300  0.87961300  1
  Ge  Ge13  1  0.30396900  0.37306700  0.37961300  1
  Ge  Ge14  1  0.49478500  0.36230000  0.68297400  1
  Ge  Ge15  1  0.49478500  0.63770000  0.18297400  1
  N  N16  1  0.76769800  0.85641400  0.80452600  1
  N  N17  1  0.76769800  0.14358600  0.30452600  1
  N  N18  1  0.53229200  0.13629300  0.96041100  1
  N  N19  1  0.53229200  0.86370700  0.46041100  1
  N  N20  1  0.29537400  0.87622100  0.85629800  1
  N  N21  1  0.29537400  0.12377900  0.35629800  1
  N  N22  1  0.13018400  0.14957300  0.06007700  1
  N  N23  1  0.13018400  0.85042700  0.56007800  1
  N  N24  1  0.30140000  0.51466100  0.72051300  1
  N  N25  1  0.30140000  0.48533900  0.22051300  1
  N  N26  1  0.44353700  0.12208100  0.66672100  1
  N  N27  1  0.44353700  0.87791900  0.16672100  1
  N  N28  1  0.87974600  0.36141900  0.13485100  1
  N  N29  1  0.87974600  0.63858100  0.63485100  1
  N  N30  1  0.07991000  0.57247100  0.94281400  1
  N  N31  1  0.07991000  0.42752900  0.44281400  1
  N  N32  1  0.71452700  0.40004200  0.82340600  1
  N  N33  1  0.71452700  0.59995800  0.32340600  1
  N  N34  1  0.51650100  0.55568800  0.01625300  1
  N  N35  1  0.51650100  0.44431200  0.51625300  1
