# generated using pymatgen
data_Cr3(GaN2)2
_symmetry_space_group_name_H-M   'P 1'
_cell_length_a   6.34551600
_cell_length_b   8.79607100
_cell_length_c   7.61438100
_cell_angle_alpha   90.00000000
_cell_angle_beta   90.00000000
_cell_angle_gamma   90.00000000
_symmetry_Int_Tables_number   1
_chemical_formula_structural   Cr3(GaN2)2
_chemical_formula_sum   'Cr12 Ga8 N16'
_cell_volume   425.00131471
_cell_formula_units_Z   4
loop_
 _symmetry_equiv_pos_site_id
 _symmetry_equiv_pos_as_xyz
  1  'x, y, z'
loop_
 _atom_site_type_symbol
 _atom_site_label
 _atom_site_symmetry_multiplicity
 _atom_site_fract_x
 _atom_site_fract_y
 _atom_site_fract_z
 _atom_site_occupancy
  Cr  Cr0  1  0.56755700  0.23867300  0.41479900  1
  Cr  Cr1  1  0.93244300  0.76132700  0.41479900  1
  Cr  Cr2  1  0.56755700  0.26132700  0.08520100  1
  Cr  Cr3  1  0.93244300  0.73867300  0.08520100  1
  Cr  Cr4  1  0.43244300  0.76132700  0.58520100  1
  Cr  Cr5  1  0.06755700  0.23867300  0.58520100  1
  Cr  Cr6  1  0.43244300  0.73867300  0.91479900  1
  Cr  Cr7  1  0.06755700  0.26132700  0.91479900  1
  Cr  Cr8  1  0.75000000  0.50000000  0.19259600  1
  Cr  Cr9  1  0.75000000  0.00000000  0.30740400  1
  Cr  Cr10  1  0.25000000  0.50000000  0.80740400  1
  Cr  Cr11  1  0.25000000  0.00000000  0.69259600  1
  Ga  Ga12  1  0.75000000  0.50000000  0.59788600  1
  Ga  Ga13  1  0.75000000  0.00000000  0.90211400  1
  Ga  Ga14  1  0.25000000  0.50000000  0.40211400  1
  Ga  Ga15  1  0.25000000  0.00000000  0.09788600  1
  Ga  Ga16  1  0.55174200  0.25000000  0.75000000  1
  Ga  Ga17  1  0.94825800  0.75000000  0.75000000  1
  Ga  Ga18  1  0.44825800  0.75000000  0.25000000  1
  Ga  Ga19  1  0.05174200  0.25000000  0.25000000  1
  N  N20  1  0.00304900  0.40639700  0.72738800  1
  N  N21  1  0.49695100  0.59360300  0.72738800  1
  N  N22  1  0.00304900  0.09360300  0.77261200  1
  N  N23  1  0.49695100  0.90639700  0.77261200  1
  N  N24  1  0.99695100  0.59360300  0.27261200  1
  N  N25  1  0.50304900  0.40639700  0.27261200  1
  N  N26  1  0.99695100  0.90639700  0.22738800  1
  N  N27  1  0.50304900  0.09360300  0.22738800  1
  N  N28  1  0.34787500  0.34498700  0.94370300  1
  N  N29  1  0.15212500  0.65501300  0.94370300  1
  N  N30  1  0.34787500  0.15501300  0.55629700  1
  N  N31  1  0.15212500  0.84498700  0.55629700  1
  N  N32  1  0.65212500  0.65501300  0.05629700  1
  N  N33  1  0.84787500  0.34498700  0.05629700  1
  N  N34  1  0.65212500  0.84498700  0.44370300  1
  N  N35  1  0.84787500  0.15501300  0.44370300  1
