# generated using pymatgen
data_Sn2Pb5N6
_symmetry_space_group_name_H-M   'P 1'
_cell_length_a   6.38990675
_cell_length_b   7.19622092
_cell_length_c   14.52640478
_cell_angle_alpha   90.00000128
_cell_angle_beta   96.67378922
_cell_angle_gamma   124.26995984
_symmetry_Int_Tables_number   1
_chemical_formula_structural   Sn2Pb5N6
_chemical_formula_sum   'Sn4 Pb10 N12'
_cell_volume   546.52062204
_cell_formula_units_Z   2
loop_
 _symmetry_equiv_pos_site_id
 _symmetry_equiv_pos_as_xyz
  1  'x, y, z'
loop_
 _atom_site_type_symbol
 _atom_site_label
 _atom_site_symmetry_multiplicity
 _atom_site_fract_x
 _atom_site_fract_y
 _atom_site_fract_z
 _atom_site_occupancy
  Sn  Sn0  1  0.52081400  0.89271500  0.58636200  1
  Sn  Sn1  1  0.47918600  0.37190100  0.91363800  1
  Sn  Sn2  1  0.47918600  0.10728500  0.41363800  1
  Sn  Sn3  1  0.52081400  0.62809900  0.08636200  1
  Pb  Pb4  1  0.15424400  0.78677900  0.96082500  1
  Pb  Pb5  1  0.84575600  0.63253500  0.53917500  1
  Pb  Pb6  1  0.84575600  0.21322100  0.03917500  1
  Pb  Pb7  1  0.15424400  0.36746500  0.46082500  1
  Pb  Pb8  1  0.24065400  0.11429600  0.68612600  1
  Pb  Pb9  1  0.75934600  0.87364300  0.81387400  1
  Pb  Pb10  1  0.75934600  0.88570400  0.31387400  1
  Pb  Pb11  1  0.24065400  0.12635700  0.18612600  1
  Pb  Pb12  1  0.00000000  0.47433800  0.75000000  1
  Pb  Pb13  1  0.00000000  0.52566200  0.25000000  1
  N  N14  1  0.77964100  0.83367400  0.64985000  1
  N  N15  1  0.22035900  0.05403400  0.85015000  1
  N  N16  1  0.22035900  0.16632600  0.35015000  1
  N  N17  1  0.77964100  0.94596600  0.14985000  1
  N  N18  1  0.20257500  0.77442200  0.65737000  1
  N  N19  1  0.79742500  0.57184800  0.84263000  1
  N  N20  1  0.79742500  0.22557800  0.34263000  1
  N  N21  1  0.20257500  0.42815200  0.15737000  1
  N  N22  1  0.62966200  0.22538100  0.55654300  1
  N  N23  1  0.37033800  0.59571900  0.94345700  1
  N  N24  1  0.37033800  0.77461900  0.44345700  1
  N  N25  1  0.62966200  0.40428100  0.05654300  1
