# generated using pymatgen
data_Mg3FeN3
_symmetry_space_group_name_H-M   'P 1'
_cell_length_a   6.31737310
_cell_length_b   6.13336319
_cell_length_c   4.33643800
_cell_angle_alpha   90.00000000
_cell_angle_beta   90.00000000
_cell_angle_gamma   101.09276915
_symmetry_Int_Tables_number   1
_chemical_formula_structural   Mg3FeN3
_chemical_formula_sum   'Mg6 Fe2 N6'
_cell_volume   164.88367257
_cell_formula_units_Z   2
loop_
 _symmetry_equiv_pos_site_id
 _symmetry_equiv_pos_as_xyz
  1  'x, y, z'
loop_
 _atom_site_type_symbol
 _atom_site_label
 _atom_site_symmetry_multiplicity
 _atom_site_fract_x
 _atom_site_fract_y
 _atom_site_fract_z
 _atom_site_occupancy
  Mg  Mg0  1  0.86671600  0.60463000  0.25000000  1
  Mg  Mg1  1  0.88503100  0.09465400  0.25000000  1
  Mg  Mg2  1  0.37100100  0.18878400  0.25000000  1
  Mg  Mg3  1  0.13328400  0.39537000  0.75000000  1
  Mg  Mg4  1  0.11496900  0.90534600  0.75000000  1
  Mg  Mg5  1  0.62899900  0.81121600  0.75000000  1
  Fe  Fe6  1  0.68210300  0.30195900  0.75000000  1
  Fe  Fe7  1  0.31789700  0.69804100  0.25000000  1
  N  N8  1  0.85056500  0.57977900  0.75000000  1
  N  N9  1  0.87094800  0.11137100  0.75000000  1
  N  N10  1  0.39912800  0.19334400  0.75000000  1
  N  N11  1  0.14943500  0.42022100  0.25000000  1
  N  N12  1  0.12905200  0.88862900  0.25000000  1
  N  N13  1  0.60087200  0.80665600  0.25000000  1
