# generated using pymatgen
data_Sr3(OsN2)2
_symmetry_space_group_name_H-M   'P 1'
_cell_length_a   6.31188000
_cell_length_b   10.42346100
_cell_length_c   9.17939000
_cell_angle_alpha   90.00000000
_cell_angle_beta   90.00000000
_cell_angle_gamma   90.00000000
_symmetry_Int_Tables_number   1
_chemical_formula_structural   Sr3(OsN2)2
_chemical_formula_sum   'Sr12 Os8 N16'
_cell_volume   603.92707656
_cell_formula_units_Z   4
loop_
 _symmetry_equiv_pos_site_id
 _symmetry_equiv_pos_as_xyz
  1  'x, y, z'
loop_
 _atom_site_type_symbol
 _atom_site_label
 _atom_site_symmetry_multiplicity
 _atom_site_fract_x
 _atom_site_fract_y
 _atom_site_fract_z
 _atom_site_occupancy
  Sr  Sr0  1  0.62976200  0.15506600  0.42296600  1
  Sr  Sr1  1  0.87023800  0.84493400  0.42296600  1
  Sr  Sr2  1  0.62976200  0.34493400  0.07703400  1
  Sr  Sr3  1  0.87023800  0.65506600  0.07703400  1
  Sr  Sr4  1  0.37023800  0.84493400  0.57703400  1
  Sr  Sr5  1  0.12976200  0.15506600  0.57703400  1
  Sr  Sr6  1  0.37023800  0.65506600  0.92296600  1
  Sr  Sr7  1  0.12976200  0.34493400  0.92296600  1
  Sr  Sr8  1  0.75000000  0.50000000  0.40706500  1
  Sr  Sr9  1  0.75000000  0.00000000  0.09293500  1
  Sr  Sr10  1  0.25000000  0.50000000  0.59293500  1
  Sr  Sr11  1  0.25000000  0.00000000  0.90706500  1
  Os  Os12  1  0.75000000  0.50000000  0.74667400  1
  Os  Os13  1  0.75000000  0.00000000  0.75332600  1
  Os  Os14  1  0.25000000  0.50000000  0.25332600  1
  Os  Os15  1  0.25000000  0.00000000  0.24667400  1
  Os  Os16  1  0.69611300  0.25000000  0.75000000  1
  Os  Os17  1  0.80388700  0.75000000  0.75000000  1
  Os  Os18  1  0.30388700  0.75000000  0.25000000  1
  Os  Os19  1  0.19611300  0.25000000  0.25000000  1
  N  N20  1  0.92149100  0.35818600  0.65610400  1
  N  N21  1  0.57850900  0.64181400  0.65610400  1
  N  N22  1  0.92149100  0.14181400  0.84389600  1
  N  N23  1  0.57850900  0.85818600  0.84389600  1
  N  N24  1  0.07850900  0.64181400  0.34389600  1
  N  N25  1  0.42149100  0.35818600  0.34389600  1
  N  N26  1  0.07850900  0.85818600  0.15610400  1
  N  N27  1  0.42149100  0.14181400  0.15610400  1
  N  N28  1  0.48446900  0.39843500  0.80825400  1
  N  N29  1  0.01553100  0.60156500  0.80825400  1
  N  N30  1  0.48446900  0.10156500  0.69174600  1
  N  N31  1  0.01553100  0.89843500  0.69174600  1
  N  N32  1  0.51553100  0.60156500  0.19174600  1
  N  N33  1  0.98446900  0.39843500  0.19174600  1
  N  N34  1  0.51553100  0.89843500  0.30825400  1
  N  N35  1  0.98446900  0.10156500  0.30825400  1
