# generated using pymatgen
data_Ta4Te3N2
_symmetry_space_group_name_H-M   'P 1'
_cell_length_a   5.53019700
_cell_length_b   10.74746700
_cell_length_c   15.00584000
_cell_angle_alpha   90.00000000
_cell_angle_beta   90.00000000
_cell_angle_gamma   90.00000000
_symmetry_Int_Tables_number   1
_chemical_formula_structural   Ta4Te3N2
_chemical_formula_sum   'Ta16 Te12 N8'
_cell_volume   891.88125038
_cell_formula_units_Z   4
loop_
 _symmetry_equiv_pos_site_id
 _symmetry_equiv_pos_as_xyz
  1  'x, y, z'
loop_
 _atom_site_type_symbol
 _atom_site_label
 _atom_site_symmetry_multiplicity
 _atom_site_fract_x
 _atom_site_fract_y
 _atom_site_fract_z
 _atom_site_occupancy
  Ta  Ta0  1  0.63053100  0.25000000  0.90393700  1
  Ta  Ta1  1  0.13053100  0.25000000  0.59606300  1
  Ta  Ta2  1  0.36946900  0.75000000  0.09606300  1
  Ta  Ta3  1  0.86946900  0.75000000  0.40393700  1
  Ta  Ta4  1  0.62517900  0.25000000  0.53417800  1
  Ta  Ta5  1  0.12517900  0.25000000  0.96582200  1
  Ta  Ta6  1  0.37482100  0.75000000  0.46582200  1
  Ta  Ta7  1  0.87482100  0.75000000  0.03417800  1
  Ta  Ta8  1  0.75657600  0.46071300  0.01833900  1
  Ta  Ta9  1  0.25657600  0.03928700  0.48166100  1
  Ta  Ta10  1  0.24342400  0.96071300  0.98166100  1
  Ta  Ta11  1  0.74342400  0.53928700  0.51833900  1
  Ta  Ta12  1  0.24342400  0.53928700  0.98166100  1
  Ta  Ta13  1  0.74342400  0.96071300  0.51833900  1
  Ta  Ta14  1  0.75657600  0.03928700  0.01833900  1
  Ta  Ta15  1  0.25657600  0.46071300  0.48166100  1
  Te  Te16  1  0.87046000  0.25000000  0.12805900  1
  Te  Te17  1  0.37046000  0.25000000  0.37194100  1
  Te  Te18  1  0.12954000  0.75000000  0.87194100  1
  Te  Te19  1  0.62954000  0.75000000  0.62805900  1
  Te  Te20  1  0.54675800  0.56408300  0.34028400  1
  Te  Te21  1  0.04675800  0.93591700  0.15971600  1
  Te  Te22  1  0.45324200  0.06408300  0.65971600  1
  Te  Te23  1  0.95324200  0.43591700  0.84028400  1
  Te  Te24  1  0.45324200  0.43591700  0.65971600  1
  Te  Te25  1  0.95324200  0.06408300  0.84028400  1
  Te  Te26  1  0.54675800  0.93591700  0.34028400  1
  Te  Te27  1  0.04675800  0.56408300  0.15971600  1
  N  N28  1  0.57051000  0.62110000  0.03163600  1
  N  N29  1  0.07051000  0.87890000  0.46836400  1
  N  N30  1  0.42949000  0.12110000  0.96836400  1
  N  N31  1  0.92949000  0.37890000  0.53163600  1
  N  N32  1  0.42949000  0.37890000  0.96836400  1
  N  N33  1  0.92949000  0.12110000  0.53163600  1
  N  N34  1  0.57051000  0.87890000  0.03163600  1
  N  N35  1  0.07051000  0.62110000  0.46836400  1
