# generated using pymatgen
data_Ca3(OsN2)2
_symmetry_space_group_name_H-M   'P 1'
_cell_length_a   6.06093900
_cell_length_b   10.13874700
_cell_length_c   8.65415900
_cell_angle_alpha   90.00000000
_cell_angle_beta   90.00000000
_cell_angle_gamma   90.00000000
_symmetry_Int_Tables_number   1
_chemical_formula_structural   Ca3(OsN2)2
_chemical_formula_sum   'Ca12 Os8 N16'
_cell_volume   531.80090136
_cell_formula_units_Z   4
loop_
 _symmetry_equiv_pos_site_id
 _symmetry_equiv_pos_as_xyz
  1  'x, y, z'
loop_
 _atom_site_type_symbol
 _atom_site_label
 _atom_site_symmetry_multiplicity
 _atom_site_fract_x
 _atom_site_fract_y
 _atom_site_fract_z
 _atom_site_occupancy
  Ca  Ca0  1  0.62637600  0.15330900  0.42251900  1
  Ca  Ca1  1  0.87362400  0.84669100  0.42251900  1
  Ca  Ca2  1  0.62637600  0.34669100  0.07748100  1
  Ca  Ca3  1  0.87362400  0.65330900  0.07748100  1
  Ca  Ca4  1  0.37362400  0.84669100  0.57748100  1
  Ca  Ca5  1  0.12637600  0.15330900  0.57748100  1
  Ca  Ca6  1  0.37362400  0.65330900  0.92251900  1
  Ca  Ca7  1  0.12637600  0.34669100  0.92251900  1
  Ca  Ca8  1  0.75000000  0.50000000  0.40232200  1
  Ca  Ca9  1  0.75000000  0.00000000  0.09767800  1
  Ca  Ca10  1  0.25000000  0.50000000  0.59767800  1
  Ca  Ca11  1  0.25000000  0.00000000  0.90232200  1
  Os  Os12  1  0.75000000  0.50000000  0.74784500  1
  Os  Os13  1  0.75000000  0.00000000  0.75215500  1
  Os  Os14  1  0.25000000  0.50000000  0.25215500  1
  Os  Os15  1  0.25000000  0.00000000  0.24784500  1
  Os  Os16  1  0.69657500  0.25000000  0.75000000  1
  Os  Os17  1  0.80342500  0.75000000  0.75000000  1
  Os  Os18  1  0.30342500  0.75000000  0.25000000  1
  Os  Os19  1  0.19657500  0.25000000  0.25000000  1
  N  N20  1  0.93566300  0.35751000  0.65032500  1
  N  N21  1  0.56433700  0.64249000  0.65032500  1
  N  N22  1  0.93566300  0.14249000  0.84967500  1
  N  N23  1  0.56433700  0.85751000  0.84967500  1
  N  N24  1  0.06433700  0.64249000  0.34967500  1
  N  N25  1  0.43566300  0.35751000  0.34967500  1
  N  N26  1  0.06433700  0.85751000  0.15032500  1
  N  N27  1  0.43566300  0.14249000  0.15032500  1
  N  N28  1  0.47301300  0.39948400  0.81551500  1
  N  N29  1  0.02698700  0.60051600  0.81551500  1
  N  N30  1  0.47301300  0.10051600  0.68448500  1
  N  N31  1  0.02698700  0.89948400  0.68448500  1
  N  N32  1  0.52698700  0.60051600  0.18448500  1
  N  N33  1  0.97301300  0.39948400  0.18448500  1
  N  N34  1  0.52698700  0.89948400  0.31551500  1
  N  N35  1  0.97301300  0.10051600  0.31551500  1
