# generated using pymatgen
data_KPbN
_symmetry_space_group_name_H-M   'P 1'
_cell_length_a   5.15154367
_cell_length_b   7.40914803
_cell_length_c   3.47246740
_cell_angle_alpha   89.99999657
_cell_angle_beta   78.49628506
_cell_angle_gamma   44.01819243
_symmetry_Int_Tables_number   1
_chemical_formula_structural   KPbN
_chemical_formula_sum   'K1 Pb1 N1'
_cell_volume   88.22508907
_cell_formula_units_Z   1
loop_
 _symmetry_equiv_pos_site_id
 _symmetry_equiv_pos_as_xyz
  1  'x, y, z'
loop_
 _atom_site_type_symbol
 _atom_site_label
 _atom_site_symmetry_multiplicity
 _atom_site_fract_x
 _atom_site_fract_y
 _atom_site_fract_z
 _atom_site_occupancy
  K  K0  1  0.87566600  0.06216600  0.96958400  1
  Pb  Pb1  1  0.86898400  0.56550800  0.28062700  1
  N  N2  1  0.27335000  0.36332500  0.65878800  1
