# generated using pymatgen
data_Sb(C2N3)3
_symmetry_space_group_name_H-M   'P 1'
_cell_length_a   7.09094793
_cell_length_b   11.87563035
_cell_length_c   11.54200000
_cell_angle_alpha   90.00000000
_cell_angle_beta   90.00000000
_cell_angle_gamma   33.13557070
_symmetry_Int_Tables_number   1
_chemical_formula_structural   Sb(C2N3)3
_chemical_formula_sum   'Sb2 C12 N18'
_cell_volume   531.28688002
_cell_formula_units_Z   2
loop_
 _symmetry_equiv_pos_site_id
 _symmetry_equiv_pos_as_xyz
  1  'x, y, z'
loop_
 _atom_site_type_symbol
 _atom_site_label
 _atom_site_symmetry_multiplicity
 _atom_site_fract_x
 _atom_site_fract_y
 _atom_site_fract_z
 _atom_site_occupancy
  Sb  Sb0  1  0.00000000  0.33917400  0.25000000  1
  Sb  Sb1  1  0.00000000  0.66082600  0.75000000  1
  C  C2  1  0.70862200  0.73777300  0.25000000  1
  C  C3  1  0.70862200  0.55360500  0.75000000  1
  C  C4  1  0.29137800  0.26222700  0.75000000  1
  C  C5  1  0.29137800  0.44639500  0.25000000  1
  C  C6  1  0.69984100  0.28884700  0.91344200  1
  C  C7  1  0.69984100  0.01131300  0.08655800  1
  C  C8  1  0.69984100  0.28884700  0.58655800  1
  C  C9  1  0.69984100  0.01131300  0.41344200  1
  C  C10  1  0.30015900  0.71115300  0.08655800  1
  C  C11  1  0.30015900  0.98868700  0.91344200  1
  C  C12  1  0.30015900  0.71115300  0.41344200  1
  C  C13  1  0.30015900  0.98868700  0.58655800  1
  N  N14  1  0.00000000  0.53352300  0.25000000  1
  N  N15  1  0.00000000  0.46647700  0.75000000  1
  N  N16  1  0.44821900  0.91842300  0.25000000  1
  N  N17  1  0.44821900  0.63335800  0.75000000  1
  N  N18  1  0.55178100  0.08157700  0.75000000  1
  N  N19  1  0.55178100  0.36664200  0.25000000  1
  N  N20  1  0.00000000  0.16619900  0.94996300  1
  N  N21  1  0.00000000  0.83380100  0.05003700  1
  N  N22  1  0.00000000  0.16619900  0.55003700  1
  N  N23  1  0.00000000  0.83380100  0.44996300  1
  N  N24  1  0.40983700  0.41294100  0.88957600  1
  N  N25  1  0.40983700  0.17722200  0.11042400  1
  N  N26  1  0.40983700  0.41294100  0.61042400  1
  N  N27  1  0.40983700  0.17722200  0.38957600  1
  N  N28  1  0.59016300  0.58705900  0.11042400  1
  N  N29  1  0.59016300  0.82277800  0.88957600  1
  N  N30  1  0.59016300  0.58705900  0.38957600  1
  N  N31  1  0.59016300  0.82277800  0.61042400  1
