# generated using pymatgen
data_Ba2CaN2
_symmetry_space_group_name_H-M   'P 1'
_cell_length_a   3.67197000
_cell_length_b   6.02714500
_cell_length_c   11.43354800
_cell_angle_alpha   90.00000000
_cell_angle_beta   90.00000000
_cell_angle_gamma   90.00000000
_symmetry_Int_Tables_number   1
_chemical_formula_structural   Ba2CaN2
_chemical_formula_sum   'Ba4 Ca2 N4'
_cell_volume   253.04151755
_cell_formula_units_Z   2
loop_
 _symmetry_equiv_pos_site_id
 _symmetry_equiv_pos_as_xyz
  1  'x, y, z'
loop_
 _atom_site_type_symbol
 _atom_site_label
 _atom_site_symmetry_multiplicity
 _atom_site_fract_x
 _atom_site_fract_y
 _atom_site_fract_z
 _atom_site_occupancy
  Ba  Ba0  1  0.22809000  0.25000000  0.93584000  1
  Ba  Ba1  1  0.22809000  0.25000000  0.56416000  1
  Ba  Ba2  1  0.77191000  0.75000000  0.06416000  1
  Ba  Ba3  1  0.77191000  0.75000000  0.43584000  1
  Ca  Ca4  1  0.22892700  0.25000000  0.25000000  1
  Ca  Ca5  1  0.77107300  0.75000000  0.75000000  1
  N  N6  1  0.70910500  0.25000000  0.40318600  1
  N  N7  1  0.70910500  0.25000000  0.09681400  1
  N  N8  1  0.29089500  0.75000000  0.59681400  1
  N  N9  1  0.29089500  0.75000000  0.90318600  1
