# generated using pymatgen
data_CsCN
_symmetry_space_group_name_H-M   'P 1'
_cell_length_a   4.94460400
_cell_length_b   8.35666800
_cell_length_c   18.44202900
_cell_angle_alpha   90.00000000
_cell_angle_beta   90.00000000
_cell_angle_gamma   90.00000000
_symmetry_Int_Tables_number   1
_chemical_formula_structural   CsCN
_chemical_formula_sum   'Cs8 C8 N8'
_cell_volume   762.03227364
_cell_formula_units_Z   8
loop_
 _symmetry_equiv_pos_site_id
 _symmetry_equiv_pos_as_xyz
  1  'x, y, z'
loop_
 _atom_site_type_symbol
 _atom_site_label
 _atom_site_symmetry_multiplicity
 _atom_site_fract_x
 _atom_site_fract_y
 _atom_site_fract_z
 _atom_site_occupancy
  Cs  Cs0  1  0.71227400  0.12846700  0.87045900  1
  Cs  Cs1  1  0.78772600  0.87153300  0.37045900  1
  Cs  Cs2  1  0.21227400  0.37153300  0.12954100  1
  Cs  Cs3  1  0.28772600  0.62846700  0.62954100  1
  Cs  Cs4  1  0.19602300  0.63440700  0.87881300  1
  Cs  Cs5  1  0.30397700  0.36559300  0.37881300  1
  Cs  Cs6  1  0.69602300  0.86559300  0.12118700  1
  Cs  Cs7  1  0.80397700  0.13440700  0.62118700  1
  C  C8  1  0.68328800  0.48735300  0.76929300  1
  C  C9  1  0.81671200  0.51264700  0.26929300  1
  C  C10  1  0.18328800  0.01264700  0.23070700  1
  C  C11  1  0.31671200  0.98735300  0.73070700  1
  C  C12  1  0.69129000  0.45096400  0.98111500  1
  C  C13  1  0.80871000  0.54903600  0.48111500  1
  C  C14  1  0.19129000  0.04903600  0.01888500  1
  C  C15  1  0.30871000  0.95096400  0.51888500  1
  N  N16  1  0.84861800  0.43724600  0.72890000  1
  N  N17  1  0.65138200  0.56275400  0.22890000  1
  N  N18  1  0.34861800  0.06275400  0.27110000  1
  N  N19  1  0.15138200  0.93724600  0.77110000  1
  N  N20  1  0.73631200  0.54014700  0.02942600  1
  N  N21  1  0.76368800  0.45985300  0.52942600  1
  N  N22  1  0.23631200  0.95985300  0.97057400  1
  N  N23  1  0.26368800  0.04014700  0.47057400  1
