# generated using pymatgen
data_Ca2RuN3
_symmetry_space_group_name_H-M   'P 1'
_cell_length_a   6.07496433
_cell_length_b   10.79044285
_cell_length_c   11.84792000
_cell_angle_alpha   90.00000000
_cell_angle_beta   90.00000000
_cell_angle_gamma   27.36360846
_symmetry_Int_Tables_number   1
_chemical_formula_structural   Ca2RuN3
_chemical_formula_sum   'Ca8 Ru4 N12'
_cell_volume   356.97594880
_cell_formula_units_Z   4
loop_
 _symmetry_equiv_pos_site_id
 _symmetry_equiv_pos_as_xyz
  1  'x, y, z'
loop_
 _atom_site_type_symbol
 _atom_site_label
 _atom_site_symmetry_multiplicity
 _atom_site_fract_x
 _atom_site_fract_y
 _atom_site_fract_z
 _atom_site_occupancy
  Ca  Ca0  1  0.00000000  0.45436900  0.64367000  1
  Ca  Ca1  1  0.00000000  0.54563100  0.35633000  1
  Ca  Ca2  1  0.00000000  0.04563100  0.14367000  1
  Ca  Ca3  1  0.00000000  0.95436900  0.85633000  1
  Ca  Ca4  1  0.00000000  0.13700700  0.57643300  1
  Ca  Ca5  1  0.00000000  0.86299300  0.42356700  1
  Ca  Ca6  1  0.00000000  0.36299300  0.07643300  1
  Ca  Ca7  1  0.00000000  0.63700700  0.92356700  1
  Ru  Ru8  1  0.00000000  0.25331700  0.84312300  1
  Ru  Ru9  1  0.00000000  0.74668300  0.15687700  1
  Ru  Ru10  1  0.00000000  0.24668300  0.34312300  1
  Ru  Ru11  1  0.00000000  0.75331700  0.65687700  1
  N  N12  1  0.00000000  0.15469500  0.97364300  1
  N  N13  1  0.00000000  0.84530500  0.02635700  1
  N  N14  1  0.00000000  0.34530500  0.47364300  1
  N  N15  1  0.00000000  0.65469500  0.52635700  1
  N  N16  1  0.00000000  0.42879800  0.86255600  1
  N  N17  1  0.00000000  0.57120200  0.13744400  1
  N  N18  1  0.00000000  0.07120200  0.36255600  1
  N  N19  1  0.00000000  0.92879800  0.63744400  1
  N  N20  1  0.50000000  0.44939300  0.75000000  1
  N  N21  1  0.50000000  0.05060700  0.25000000  1
  N  N22  1  0.50000000  0.55060700  0.25000000  1
  N  N23  1  0.50000000  0.94939300  0.75000000  1
