# generated using pymatgen
data_CaIrN2
_symmetry_space_group_name_H-M   'P 1'
_cell_length_a   5.22065200
_cell_length_b   10.46520200
_cell_length_c   16.64349500
_cell_angle_alpha   90.00000000
_cell_angle_beta   90.00000000
_cell_angle_gamma   90.00000000
_symmetry_Int_Tables_number   1
_chemical_formula_structural   CaIrN2
_chemical_formula_sum   'Ca16 Ir16 N32'
_cell_volume   909.32030773
_cell_formula_units_Z   16
loop_
 _symmetry_equiv_pos_site_id
 _symmetry_equiv_pos_as_xyz
  1  'x, y, z'
loop_
 _atom_site_type_symbol
 _atom_site_label
 _atom_site_symmetry_multiplicity
 _atom_site_fract_x
 _atom_site_fract_y
 _atom_site_fract_z
 _atom_site_occupancy
  Ca  Ca0  1  0.73030600  0.96536700  0.44173800  1
  Ca  Ca1  1  0.23030600  0.53463300  0.55826200  1
  Ca  Ca2  1  0.26969400  0.46536700  0.05826200  1
  Ca  Ca3  1  0.76969400  0.03463300  0.94173800  1
  Ca  Ca4  1  0.26969400  0.03463300  0.55826200  1
  Ca  Ca5  1  0.76969400  0.46536700  0.44173800  1
  Ca  Ca6  1  0.73030600  0.53463300  0.94173800  1
  Ca  Ca7  1  0.23030600  0.96536700  0.05826200  1
  Ca  Ca8  1  0.75693900  0.22109000  0.31217200  1
  Ca  Ca9  1  0.25693900  0.27891000  0.68782800  1
  Ca  Ca10  1  0.24306100  0.72109000  0.18782800  1
  Ca  Ca11  1  0.74306100  0.77891000  0.81217200  1
  Ca  Ca12  1  0.24306100  0.77891000  0.68782800  1
  Ca  Ca13  1  0.74306100  0.72109000  0.31217200  1
  Ca  Ca14  1  0.75693900  0.27891000  0.81217200  1
  Ca  Ca15  1  0.25693900  0.22109000  0.18782800  1
  Ir  Ir16  1  0.66326400  0.00130000  0.19215500  1
  Ir  Ir17  1  0.16326400  0.49870000  0.80784500  1
  Ir  Ir18  1  0.33673600  0.50130000  0.30784500  1
  Ir  Ir19  1  0.83673600  0.99870000  0.69215500  1
  Ir  Ir20  1  0.33673600  0.99870000  0.80784500  1
  Ir  Ir21  1  0.83673600  0.50130000  0.19215500  1
  Ir  Ir22  1  0.66326400  0.49870000  0.69215500  1
  Ir  Ir23  1  0.16326400  0.00130000  0.30784500  1
  Ir  Ir24  1  0.81789200  0.27424400  0.07197500  1
  Ir  Ir25  1  0.31789200  0.22575600  0.92802500  1
  Ir  Ir26  1  0.18210800  0.77424400  0.42802500  1
  Ir  Ir27  1  0.68210800  0.72575600  0.57197500  1
  Ir  Ir28  1  0.18210800  0.72575600  0.92802500  1
  Ir  Ir29  1  0.68210800  0.77424400  0.07197500  1
  Ir  Ir30  1  0.81789200  0.22575600  0.57197500  1
  Ir  Ir31  1  0.31789200  0.27424400  0.42802500  1
  N  N32  1  0.70930300  0.45625600  0.29884000  1
  N  N33  1  0.20930300  0.04374400  0.70116000  1
  N  N34  1  0.29069700  0.95625600  0.20116000  1
  N  N35  1  0.79069700  0.54374400  0.79884000  1
  N  N36  1  0.29069700  0.54374400  0.70116000  1
  N  N37  1  0.79069700  0.95625600  0.29884000  1
  N  N38  1  0.70930300  0.04374400  0.79884000  1
  N  N39  1  0.20930300  0.45625600  0.20116000  1
  N  N40  1  0.66647300  0.22924300  0.45649800  1
  N  N41  1  0.16647300  0.27075700  0.54350200  1
  N  N42  1  0.33352700  0.72924300  0.04350200  1
  N  N43  1  0.83352700  0.77075700  0.95649800  1
  N  N44  1  0.33352700  0.77075700  0.54350200  1
  N  N45  1  0.83352700  0.72924300  0.45649800  1
  N  N46  1  0.66647300  0.27075700  0.95649800  1
  N  N47  1  0.16647300  0.22924300  0.04350200  1
  N  N48  1  0.74329800  0.45637600  0.07894400  1
  N  N49  1  0.24329800  0.04362400  0.92105600  1
  N  N50  1  0.25670200  0.95637600  0.42105600  1
  N  N51  1  0.75670200  0.54362400  0.57894400  1
  N  N52  1  0.25670200  0.54362400  0.92105600  1
  N  N53  1  0.75670200  0.95637600  0.07894400  1
  N  N54  1  0.74329800  0.04362400  0.57894400  1
  N  N55  1  0.24329800  0.45637600  0.42105600  1
  N  N56  1  0.70731700  0.18713900  0.16682400  1
  N  N57  1  0.20731700  0.31286100  0.83317600  1
  N  N58  1  0.29268300  0.68713900  0.33317600  1
  N  N59  1  0.79268300  0.81286100  0.66682400  1
  N  N60  1  0.29268300  0.81286100  0.83317600  1
  N  N61  1  0.79268300  0.68713900  0.16682400  1
  N  N62  1  0.70731700  0.31286100  0.66682400  1
  N  N63  1  0.20731700  0.18713900  0.33317600  1
