# generated using pymatgen
data_Sr7SiN6
_symmetry_space_group_name_H-M   'P 1'
_cell_length_a   11.61159100
_cell_length_b   6.60050500
_cell_length_c   13.74547000
_cell_angle_alpha   90.00000000
_cell_angle_beta   90.00000000
_cell_angle_gamma   90.00000000
_symmetry_Int_Tables_number   1
_chemical_formula_structural   Sr7SiN6
_chemical_formula_sum   'Sr28 Si4 N24'
_cell_volume   1053.48532132
_cell_formula_units_Z   4
loop_
 _symmetry_equiv_pos_site_id
 _symmetry_equiv_pos_as_xyz
  1  'x, y, z'
loop_
 _atom_site_type_symbol
 _atom_site_label
 _atom_site_symmetry_multiplicity
 _atom_site_fract_x
 _atom_site_fract_y
 _atom_site_fract_z
 _atom_site_occupancy
  Sr  Sr0  1  0.03875500  0.73948700  0.98058600  1
  Sr  Sr1  1  0.46124500  0.76051300  0.48058600  1
  Sr  Sr2  1  0.53875500  0.76051300  0.01941400  1
  Sr  Sr3  1  0.96124500  0.73948700  0.51941400  1
  Sr  Sr4  1  0.96124500  0.26051300  0.01941400  1
  Sr  Sr5  1  0.53875500  0.23948700  0.51941400  1
  Sr  Sr6  1  0.46124500  0.23948700  0.98058600  1
  Sr  Sr7  1  0.03875500  0.26051300  0.48058600  1
  Sr  Sr8  1  0.22095300  0.85757700  0.62466600  1
  Sr  Sr9  1  0.27904700  0.64242300  0.12466600  1
  Sr  Sr10  1  0.72095300  0.64242300  0.37533400  1
  Sr  Sr11  1  0.77904700  0.85757700  0.87533400  1
  Sr  Sr12  1  0.77904700  0.14242300  0.37533400  1
  Sr  Sr13  1  0.72095300  0.35757700  0.87533400  1
  Sr  Sr14  1  0.27904700  0.35757700  0.62466600  1
  Sr  Sr15  1  0.22095300  0.14242300  0.12466600  1
  Sr  Sr16  1  0.29332800  0.61327700  0.87263100  1
  Sr  Sr17  1  0.20667200  0.88672300  0.37263100  1
  Sr  Sr18  1  0.79332800  0.88672300  0.12736900  1
  Sr  Sr19  1  0.70667200  0.61327700  0.62736900  1
  Sr  Sr20  1  0.70667200  0.38672300  0.12736900  1
  Sr  Sr21  1  0.79332800  0.11327700  0.62736900  1
  Sr  Sr22  1  0.20667200  0.11327700  0.87263100  1
  Sr  Sr23  1  0.29332800  0.38672300  0.37263100  1
  Sr  Sr24  1  0.00000000  0.44168900  0.75000000  1
  Sr  Sr25  1  0.50000000  0.05831100  0.25000000  1
  Sr  Sr26  1  0.00000000  0.55831100  0.25000000  1
  Sr  Sr27  1  0.50000000  0.94168900  0.75000000  1
  Si  Si28  1  0.00000000  0.92888100  0.75000000  1
  Si  Si29  1  0.50000000  0.57111900  0.25000000  1
  Si  Si30  1  0.00000000  0.07111900  0.25000000  1
  Si  Si31  1  0.50000000  0.42888100  0.75000000  1
  N  N32  1  0.11929200  0.76901400  0.78895300  1
  N  N33  1  0.38070800  0.73098600  0.28895300  1
  N  N34  1  0.61929200  0.73098600  0.21104700  1
  N  N35  1  0.88070800  0.76901400  0.71104700  1
  N  N36  1  0.88070800  0.23098600  0.21104700  1
  N  N37  1  0.61929200  0.26901400  0.71104700  1
  N  N38  1  0.38070800  0.26901400  0.78895300  1
  N  N39  1  0.11929200  0.23098600  0.28895300  1
  N  N40  1  0.16600600  0.59356600  0.49993400  1
  N  N41  1  0.33399400  0.90643400  0.99993400  1
  N  N42  1  0.66600600  0.90643400  0.50006600  1
  N  N43  1  0.83399400  0.59356600  0.00006600  1
  N  N44  1  0.83399400  0.40643400  0.50006600  1
  N  N45  1  0.66600600  0.09356600  0.00006600  1
  N  N46  1  0.33399400  0.09356600  0.49993400  1
  N  N47  1  0.16600600  0.40643400  0.99993400  1
  N  N48  1  0.45857200  0.58655500  0.64864000  1
  N  N49  1  0.04142800  0.91344500  0.14864000  1
  N  N50  1  0.95857200  0.91344500  0.35136000  1
  N  N51  1  0.54142800  0.58655500  0.85136000  1
  N  N52  1  0.54142800  0.41344500  0.35136000  1
  N  N53  1  0.95857200  0.08655500  0.85136000  1
  N  N54  1  0.04142800  0.08655500  0.64864000  1
  N  N55  1  0.45857200  0.41344500  0.14864000  1
