# generated using pymatgen
data_Sr3(OsN2)2
_symmetry_space_group_name_H-M   'P 1'
_cell_length_a   7.31726017
_cell_length_b   9.11975241
_cell_length_c   5.64039398
_cell_angle_alpha   90.00000117
_cell_angle_beta   93.12417274
_cell_angle_gamma   128.54778591
_symmetry_Int_Tables_number   1
_chemical_formula_structural   Sr3(OsN2)2
_chemical_formula_sum   'Sr6 Os4 N8'
_cell_volume   293.65672324
_cell_formula_units_Z   2
loop_
 _symmetry_equiv_pos_site_id
 _symmetry_equiv_pos_as_xyz
  1  'x, y, z'
loop_
 _atom_site_type_symbol
 _atom_site_label
 _atom_site_symmetry_multiplicity
 _atom_site_fract_x
 _atom_site_fract_y
 _atom_site_fract_z
 _atom_site_occupancy
  Sr  Sr0  1  0.24370300  0.98990200  0.03666000  1
  Sr  Sr1  1  0.75629700  0.74620000  0.46334000  1
  Sr  Sr2  1  0.75629700  0.01009800  0.96334000  1
  Sr  Sr3  1  0.24370300  0.25380000  0.53666000  1
  Sr  Sr4  1  0.00000000  0.59810900  0.75000000  1
  Sr  Sr5  1  0.00000000  0.40189100  0.25000000  1
  Os  Os6  1  0.59322400  0.16137800  0.59101100  1
  Os  Os7  1  0.40677600  0.56815400  0.90898900  1
  Os  Os8  1  0.40677600  0.83862200  0.40898900  1
  Os  Os9  1  0.59322400  0.43184600  0.09101100  1
  N  N10  1  0.23767000  0.93803600  0.52602200  1
  N  N11  1  0.76233000  0.70036600  0.97397800  1
  N  N12  1  0.76233000  0.06196400  0.47397800  1
  N  N13  1  0.23767000  0.29963400  0.02602200  1
  N  N14  1  0.65838200  0.27484400  0.91093300  1
  N  N15  1  0.34161800  0.61646200  0.58906700  1
  N  N16  1  0.34161800  0.72515600  0.08906700  1
  N  N17  1  0.65838200  0.38353800  0.41093300  1
