# generated using pymatgen
data_Sr3(TaN2)2
_symmetry_space_group_name_H-M   'P 1'
_cell_length_a   6.15884400
_cell_length_b   10.79959900
_cell_length_c   10.01561300
_cell_angle_alpha   90.00000000
_cell_angle_beta   90.00000000
_cell_angle_gamma   90.00000000
_symmetry_Int_Tables_number   1
_chemical_formula_structural   Sr3(TaN2)2
_chemical_formula_sum   'Sr12 Ta8 N16'
_cell_volume   666.16892322
_cell_formula_units_Z   4
loop_
 _symmetry_equiv_pos_site_id
 _symmetry_equiv_pos_as_xyz
  1  'x, y, z'
loop_
 _atom_site_type_symbol
 _atom_site_label
 _atom_site_symmetry_multiplicity
 _atom_site_fract_x
 _atom_site_fract_y
 _atom_site_fract_z
 _atom_site_occupancy
  Sr  Sr0  1  0.61444600  0.15862400  0.42036600  1
  Sr  Sr1  1  0.88555400  0.84137600  0.42036600  1
  Sr  Sr2  1  0.61444600  0.34137600  0.07963400  1
  Sr  Sr3  1  0.88555400  0.65862400  0.07963400  1
  Sr  Sr4  1  0.38555400  0.84137600  0.57963400  1
  Sr  Sr5  1  0.11444600  0.15862400  0.57963400  1
  Sr  Sr6  1  0.38555400  0.65862400  0.92036600  1
  Sr  Sr7  1  0.11444600  0.34137600  0.92036600  1
  Sr  Sr8  1  0.75000000  0.50000000  0.40070600  1
  Sr  Sr9  1  0.75000000  0.00000000  0.09929400  1
  Sr  Sr10  1  0.25000000  0.50000000  0.59929400  1
  Sr  Sr11  1  0.25000000  0.00000000  0.90070600  1
  Ta  Ta12  1  0.75000000  0.50000000  0.73550700  1
  Ta  Ta13  1  0.75000000  0.00000000  0.76449300  1
  Ta  Ta14  1  0.25000000  0.50000000  0.26449300  1
  Ta  Ta15  1  0.25000000  0.00000000  0.23550700  1
  Ta  Ta16  1  0.60925800  0.25000000  0.75000000  1
  Ta  Ta17  1  0.89074200  0.75000000  0.75000000  1
  Ta  Ta18  1  0.39074200  0.75000000  0.25000000  1
  Ta  Ta19  1  0.10925800  0.25000000  0.25000000  1
  N  N20  1  0.81407400  0.34733200  0.62667300  1
  N  N21  1  0.68592600  0.65266800  0.62667300  1
  N  N22  1  0.81407400  0.15266800  0.87332700  1
  N  N23  1  0.68592600  0.84733200  0.87332700  1
  N  N24  1  0.18592600  0.65266800  0.37332700  1
  N  N25  1  0.31407400  0.34733200  0.37332700  1
  N  N26  1  0.18592600  0.84733200  0.12667300  1
  N  N27  1  0.31407400  0.15266800  0.12667300  1
  N  N28  1  0.50263200  0.42087300  0.83616000  1
  N  N29  1  0.99736800  0.57912700  0.83616000  1
  N  N30  1  0.50263200  0.07912700  0.66384000  1
  N  N31  1  0.99736800  0.92087300  0.66384000  1
  N  N32  1  0.49736800  0.57912700  0.16384000  1
  N  N33  1  0.00263200  0.42087300  0.16384000  1
  N  N34  1  0.49736800  0.92087300  0.33616000  1
  N  N35  1  0.00263200  0.07912700  0.33616000  1
