# generated using pymatgen
data_Co7GeN6
_symmetry_space_group_name_H-M   'P 1'
_cell_length_a   10.01391300
_cell_length_b   5.58483800
_cell_length_c   11.01764700
_cell_angle_alpha   90.00000000
_cell_angle_beta   90.00000000
_cell_angle_gamma   90.00000000
_symmetry_Int_Tables_number   1
_chemical_formula_structural   Co7GeN6
_chemical_formula_sum   'Co28 Ge4 N24'
_cell_volume   616.17382793
_cell_formula_units_Z   4
loop_
 _symmetry_equiv_pos_site_id
 _symmetry_equiv_pos_as_xyz
  1  'x, y, z'
loop_
 _atom_site_type_symbol
 _atom_site_label
 _atom_site_symmetry_multiplicity
 _atom_site_fract_x
 _atom_site_fract_y
 _atom_site_fract_z
 _atom_site_occupancy
  Co  Co0  1  0.98772900  0.72987600  0.03233600  1
  Co  Co1  1  0.51227100  0.77012400  0.53233600  1
  Co  Co2  1  0.48772900  0.77012400  0.96766400  1
  Co  Co3  1  0.01227100  0.72987600  0.46766400  1
  Co  Co4  1  0.01227100  0.27012400  0.96766400  1
  Co  Co5  1  0.48772900  0.22987600  0.46766400  1
  Co  Co6  1  0.51227100  0.22987600  0.03233600  1
  Co  Co7  1  0.98772900  0.27012400  0.53233600  1
  Co  Co8  1  0.24305900  0.68254900  0.61186200  1
  Co  Co9  1  0.25694100  0.81745100  0.11186200  1
  Co  Co10  1  0.74305900  0.81745100  0.38813800  1
  Co  Co11  1  0.75694100  0.68254900  0.88813800  1
  Co  Co12  1  0.75694100  0.31745100  0.38813800  1
  Co  Co13  1  0.74305900  0.18254900  0.88813800  1
  Co  Co14  1  0.25694100  0.18254900  0.61186200  1
  Co  Co15  1  0.24305900  0.31745100  0.11186200  1
  Co  Co16  1  0.17566500  0.59417700  0.90722000  1
  Co  Co17  1  0.32433500  0.90582300  0.40722000  1
  Co  Co18  1  0.67566500  0.90582300  0.09278000  1
  Co  Co19  1  0.82433500  0.59417700  0.59278000  1
  Co  Co20  1  0.82433500  0.40582300  0.09278000  1
  Co  Co21  1  0.67566500  0.09417700  0.59278000  1
  Co  Co22  1  0.32433500  0.09417700  0.90722000  1
  Co  Co23  1  0.17566500  0.40582300  0.40722000  1
  Co  Co24  1  0.00000000  0.42835900  0.75000000  1
  Co  Co25  1  0.50000000  0.07164100  0.25000000  1
  Co  Co26  1  0.00000000  0.57164100  0.25000000  1
  Co  Co27  1  0.50000000  0.92835900  0.75000000  1
  Ge  Ge28  1  0.00000000  0.91603400  0.75000000  1
  Ge  Ge29  1  0.50000000  0.58396600  0.25000000  1
  Ge  Ge30  1  0.00000000  0.08396600  0.25000000  1
  Ge  Ge31  1  0.50000000  0.41603400  0.75000000  1
  N  N32  1  0.13713800  0.66713600  0.74912500  1
  N  N33  1  0.36286200  0.83286400  0.24912500  1
  N  N34  1  0.63713800  0.83286400  0.25087500  1
  N  N35  1  0.86286200  0.66713600  0.75087500  1
  N  N36  1  0.86286200  0.33286400  0.25087500  1
  N  N37  1  0.63713800  0.16713600  0.75087500  1
  N  N38  1  0.36286200  0.16713600  0.74912500  1
  N  N39  1  0.13713800  0.33286400  0.24912500  1
  N  N40  1  0.19005100  0.71650900  0.45549600  1
  N  N41  1  0.30994900  0.78349100  0.95549600  1
  N  N42  1  0.69005100  0.78349100  0.54450400  1
  N  N43  1  0.80994900  0.71650900  0.04450400  1
  N  N44  1  0.80994900  0.28349100  0.54450400  1
  N  N45  1  0.69005100  0.21650900  0.04450400  1
  N  N46  1  0.30994900  0.21650900  0.45549600  1
  N  N47  1  0.19005100  0.28349100  0.95549600  1
  N  N48  1  0.41525300  0.67995600  0.66214300  1
  N  N49  1  0.08474700  0.82004400  0.16214300  1
  N  N50  1  0.91525300  0.82004400  0.33785700  1
  N  N51  1  0.58474700  0.67995600  0.83785700  1
  N  N52  1  0.58474700  0.32004400  0.33785700  1
  N  N53  1  0.91525300  0.17995600  0.83785700  1
  N  N54  1  0.08474700  0.17995600  0.66214300  1
  N  N55  1  0.41525300  0.32004400  0.16214300  1
