# generated using pymatgen
data_Sc2GaN3
_symmetry_space_group_name_H-M   'P 1'
_cell_length_a   5.61015401
_cell_length_b   9.76035111
_cell_length_c   11.08757216
_cell_angle_alpha   90.00000308
_cell_angle_beta   93.48627889
_cell_angle_gamma   150.44498315
_symmetry_Int_Tables_number   1
_chemical_formula_structural   Sc2GaN3
_chemical_formula_sum   'Sc8 Ga4 N12'
_cell_volume   297.18451145
_cell_formula_units_Z   4
loop_
 _symmetry_equiv_pos_site_id
 _symmetry_equiv_pos_as_xyz
  1  'x, y, z'
loop_
 _atom_site_type_symbol
 _atom_site_label
 _atom_site_symmetry_multiplicity
 _atom_site_fract_x
 _atom_site_fract_y
 _atom_site_fract_z
 _atom_site_occupancy
  Sc  Sc0  1  0.45524700  0.01861600  0.86341800  1
  Sc  Sc1  1  0.54475300  0.56336800  0.63658200  1
  Sc  Sc2  1  0.54475300  0.98138400  0.13658200  1
  Sc  Sc3  1  0.45524700  0.43663200  0.36341800  1
  Sc  Sc4  1  0.61362100  0.92034700  0.56783000  1
  Sc  Sc5  1  0.38637900  0.30672600  0.93217000  1
  Sc  Sc6  1  0.38637900  0.07965300  0.43217000  1
  Sc  Sc7  1  0.61362100  0.69327400  0.06783000  1
  Ga  Ga8  1  0.55785800  0.27602200  0.66500600  1
  Ga  Ga9  1  0.44214200  0.71816300  0.83499400  1
  Ga  Ga10  1  0.44214200  0.72397800  0.33499400  1
  Ga  Ga11  1  0.55785800  0.28183700  0.16500600  1
  N  N12  1  0.00000000  0.62985400  0.75000000  1
  N  N13  1  0.00000000  0.37014600  0.25000000  1
  N  N14  1  0.75939000  0.20169900  0.60959900  1
  N  N15  1  0.24061000  0.44231000  0.89040100  1
  N  N16  1  0.24061000  0.79830100  0.39040100  1
  N  N17  1  0.75939000  0.55769000  0.10959900  1
  N  N18  1  0.34573400  0.06606400  0.02175900  1
  N  N19  1  0.65426600  0.72032800  0.47824100  1
  N  N20  1  0.65426600  0.93393600  0.97824100  1
  N  N21  1  0.34573400  0.27967200  0.52175900  1
  N  N22  1  0.00000000  0.96129900  0.75000000  1
  N  N23  1  0.00000000  0.03870100  0.25000000  1
