# generated using pymatgen
data_SrZr7N10
_symmetry_space_group_name_H-M   'P 1'
_cell_length_a   6.65413725
_cell_length_b   6.90261300
_cell_length_c   13.72205632
_cell_angle_alpha   90.00000000
_cell_angle_beta   88.02659177
_cell_angle_gamma   90.00000000
_symmetry_Int_Tables_number   1
_chemical_formula_structural   SrZr7N10
_chemical_formula_sum   'Sr2 Zr14 N20'
_cell_volume   629.89306592
_cell_formula_units_Z   2
loop_
 _symmetry_equiv_pos_site_id
 _symmetry_equiv_pos_as_xyz
  1  'x, y, z'
loop_
 _atom_site_type_symbol
 _atom_site_label
 _atom_site_symmetry_multiplicity
 _atom_site_fract_x
 _atom_site_fract_y
 _atom_site_fract_z
 _atom_site_occupancy
  Sr  Sr0  1  0.88011400  0.05547700  0.61730200  1
  Sr  Sr1  1  0.88011400  0.94452300  0.11730200  1
  Zr  Zr2  1  0.59368800  0.04787500  0.82846700  1
  Zr  Zr3  1  0.59368800  0.95212500  0.32846700  1
  Zr  Zr4  1  0.40252600  0.96074500  0.03886800  1
  Zr  Zr5  1  0.40252600  0.03925500  0.53886800  1
  Zr  Zr6  1  0.12202600  0.41636300  0.07890600  1
  Zr  Zr7  1  0.12202600  0.58363700  0.57890600  1
  Zr  Zr8  1  0.69363500  0.40978300  0.98676000  1
  Zr  Zr9  1  0.69363500  0.59021700  0.48676000  1
  Zr  Zr10  1  0.88230600  0.60109400  0.78735300  1
  Zr  Zr11  1  0.88230600  0.39890600  0.28735300  1
  Zr  Zr12  1  0.30866500  0.59694800  0.87966700  1
  Zr  Zr13  1  0.30866500  0.40305200  0.37966700  1
  Zr  Zr14  1  0.49994300  0.41713100  0.68426000  1
  Zr  Zr15  1  0.49994300  0.58286900  0.18426000  1
  N  N16  1  0.82842800  0.88552900  0.78297900  1
  N  N17  1  0.82842800  0.11447100  0.28297900  1
  N  N18  1  0.65110400  0.11670700  0.98612600  1
  N  N19  1  0.65110400  0.88329300  0.48612600  1
  N  N20  1  0.36755200  0.88096500  0.88886800  1
  N  N21  1  0.36755200  0.11903500  0.38886800  1
  N  N22  1  0.16575400  0.13416400  0.06383600  1
  N  N23  1  0.16575400  0.86583600  0.56383600  1
  N  N24  1  0.20838500  0.53447200  0.73155800  1
  N  N25  1  0.20838500  0.46552800  0.23155800  1
  N  N26  1  0.51178300  0.12711800  0.68036700  1
  N  N27  1  0.51178300  0.87288200  0.18036700  1
  N  N28  1  0.80638300  0.47743300  0.13376500  1
  N  N29  1  0.80638300  0.52256700  0.63376500  1
  N  N30  1  0.00315300  0.52367700  0.93428200  1
  N  N31  1  0.00315300  0.47632300  0.43428200  1
  N  N32  1  0.60434200  0.44171400  0.83443000  1
  N  N33  1  0.60434200  0.55828600  0.33443000  1
  N  N34  1  0.41251200  0.55408700  0.03150600  1
  N  N35  1  0.41251200  0.44591300  0.53150600  1
