# generated using pymatgen
data_RbZnN
_symmetry_space_group_name_H-M   'P 1'
_cell_length_a   5.37090600
_cell_length_b   5.37112767
_cell_length_c   3.58818900
_cell_angle_alpha   90.00000000
_cell_angle_beta   90.00000000
_cell_angle_gamma   119.99863478
_symmetry_Int_Tables_number   1
_chemical_formula_structural   RbZnN
_chemical_formula_sum   'Rb1 Zn1 N1'
_cell_volume   89.64476721
_cell_formula_units_Z   1
loop_
 _symmetry_equiv_pos_site_id
 _symmetry_equiv_pos_as_xyz
  1  'x, y, z'
loop_
 _atom_site_type_symbol
 _atom_site_label
 _atom_site_symmetry_multiplicity
 _atom_site_fract_x
 _atom_site_fract_y
 _atom_site_fract_z
 _atom_site_occupancy
  Rb  Rb0  1  0.00002000  0.00004000  0.50000000  1
  Zn  Zn1  1  0.66670200  0.33340300  0.00000000  1
  N  N2  1  0.66667900  0.33335700  0.50000000  1
