# generated using pymatgen
data_NaMgN
_symmetry_space_group_name_H-M   'P 1'
_cell_length_a   3.55094800
_cell_length_b   3.55092880
_cell_length_c   8.88036000
_cell_angle_alpha   90.00000000
_cell_angle_beta   90.00000000
_cell_angle_gamma   120.00017891
_symmetry_Int_Tables_number   1
_chemical_formula_structural   NaMgN
_chemical_formula_sum   'Na2 Mg2 N2'
_cell_volume   96.97207686
_cell_formula_units_Z   2
loop_
 _symmetry_equiv_pos_site_id
 _symmetry_equiv_pos_as_xyz
  1  'x, y, z'
loop_
 _atom_site_type_symbol
 _atom_site_label
 _atom_site_symmetry_multiplicity
 _atom_site_fract_x
 _atom_site_fract_y
 _atom_site_fract_z
 _atom_site_occupancy
  Na  Na0  1  0.66666200  0.33332500  0.75537800  1
  Na  Na1  1  0.33333800  0.66667500  0.25537800  1
  Mg  Mg2  1  0.00000300  0.00000700  0.52963400  1
  Mg  Mg3  1  0.99999700  0.99999300  0.02963400  1
  N  N4  1  0.33333800  0.66667500  0.55963000  1
  N  N5  1  0.66666200  0.33332500  0.05963000  1
