data_image0
_chemical_formula_structural       BBe2F2O3Rb
_chemical_formula_sum              "B1 Be2 F2 O3 Rb1"
_cell_length_a       4.42296
_cell_length_b       4.42585
_cell_length_c       6.87368
_cell_angle_alpha    108.777
_cell_angle_beta     90
_cell_angle_gamma    119.978

_space_group_name_H-M_alt    "P 1"
_space_group_IT_number       1

loop_
  _space_group_symop_operation_xyz
  'x, y, z'

loop_
  _atom_site_type_symbol
  _atom_site_label
  _atom_site_symmetry_multiplicity
  _atom_site_fract_x
  _atom_site_fract_y
  _atom_site_fract_z
  _atom_site_occupancy
  B   B1        1.0  0.50600  0.00000  0.50000  1.0000
  Be  Be1       1.0  0.80800  0.60600  0.41000  1.0000
  Be  Be2       1.0  0.20200  0.39400  0.59000  1.0000
  F   F1        1.0  0.72800  0.44700  0.17000  1.0000
  F   F2        1.0  0.28100  0.55300  0.83000  1.0000
  O   O1        1.0  0.19400  0.68800  0.49900  1.0000
  O   O2        1.0  0.81500  0.00000  0.50000  1.0000
  O   O3        1.0  0.50600  0.31200  0.50100  1.0000
  Rb  Rb1       1.0  0.00325  0.00000  0.00000  1.0000
