# generated using pymatgen
data_AlIn2N3
_symmetry_space_group_name_H-M   'P 1'
_cell_length_a   5.93982897
_cell_length_b   5.92574594
_cell_length_c   5.50003800
_cell_angle_alpha   90.00000000
_cell_angle_beta   90.00000000
_cell_angle_gamma   119.92159429
_symmetry_Int_Tables_number   1
_chemical_formula_structural   AlIn2N3
_chemical_formula_sum   'Al2 In4 N6'
_cell_volume   167.78605752
_cell_formula_units_Z   2
loop_
 _symmetry_equiv_pos_site_id
 _symmetry_equiv_pos_as_xyz
  1  'x, y, z'
loop_
 _atom_site_type_symbol
 _atom_site_label
 _atom_site_symmetry_multiplicity
 _atom_site_fract_x
 _atom_site_fract_y
 _atom_site_fract_z
 _atom_site_occupancy
  Al  Al0  1  0.00000000  0.65875700  0.48921800  1
  Al  Al1  1  0.00000000  0.34124300  0.98921800  1
  In  In2  1  0.32370800  0.33541300  0.48712100  1
  In  In3  1  0.67629200  0.01170400  0.48712100  1
  In  In4  1  0.67629200  0.66458700  0.98712100  1
  In  In5  1  0.32370800  0.98829600  0.98712100  1
  N  N6  1  0.30181400  0.33295900  0.88563700  1
  N  N7  1  0.69818600  0.03114500  0.88563700  1
  N  N8  1  0.69818600  0.66704100  0.38563700  1
  N  N9  1  0.30181400  0.96885500  0.38563700  1
  N  N10  1  0.00000000  0.63135700  0.83726600  1
  N  N11  1  0.00000000  0.36864300  0.33726600  1
