# generated using pymatgen
data_KNiN
_symmetry_space_group_name_H-M   'P 1'
_cell_length_a   10.41661800
_cell_length_b   3.43212200
_cell_length_c   6.06977700
_cell_angle_alpha   90.00000000
_cell_angle_beta   90.00000000
_cell_angle_gamma   90.00000000
_symmetry_Int_Tables_number   1
_chemical_formula_structural   KNiN
_chemical_formula_sum   'K4 Ni4 N4'
_cell_volume   217.00122759
_cell_formula_units_Z   4
loop_
 _symmetry_equiv_pos_site_id
 _symmetry_equiv_pos_as_xyz
  1  'x, y, z'
loop_
 _atom_site_type_symbol
 _atom_site_label
 _atom_site_symmetry_multiplicity
 _atom_site_fract_x
 _atom_site_fract_y
 _atom_site_fract_z
 _atom_site_occupancy
  K  K0  1  0.65823700  0.25000000  0.06961000  1
  K  K1  1  0.15823700  0.25000000  0.43039000  1
  K  K2  1  0.34176300  0.75000000  0.93039000  1
  K  K3  1  0.84176300  0.75000000  0.56961000  1
  Ni  Ni4  1  0.55505700  0.25000000  0.58625100  1
  Ni  Ni5  1  0.05505700  0.25000000  0.91374900  1
  Ni  Ni6  1  0.44494300  0.75000000  0.41374900  1
  Ni  Ni7  1  0.94494300  0.75000000  0.08625100  1
  N  N8  1  0.92793700  0.25000000  0.17234400  1
  N  N9  1  0.42793700  0.25000000  0.32765600  1
  N  N10  1  0.07206300  0.75000000  0.82765600  1
  N  N11  1  0.57206300  0.75000000  0.67234400  1
