# generated using pymatgen
data_Os3Pb3N5
_symmetry_space_group_name_H-M   'P 1'
_cell_length_a   6.22578069
_cell_length_b   7.59395553
_cell_length_c   8.43825499
_cell_angle_alpha   101.22306177
_cell_angle_beta   97.53675228
_cell_angle_gamma   86.99687664
_symmetry_Int_Tables_number   1
_chemical_formula_structural   Os3Pb3N5
_chemical_formula_sum   'Os6 Pb6 N10'
_cell_volume   387.78860475
_cell_formula_units_Z   2
loop_
 _symmetry_equiv_pos_site_id
 _symmetry_equiv_pos_as_xyz
  1  'x, y, z'
loop_
 _atom_site_type_symbol
 _atom_site_label
 _atom_site_symmetry_multiplicity
 _atom_site_fract_x
 _atom_site_fract_y
 _atom_site_fract_z
 _atom_site_occupancy
  Os  Os0  1  0.90835600  0.29640300  0.96286700  1
  Os  Os1  1  0.09164400  0.70359700  0.03713300  1
  Os  Os2  1  0.65644300  0.95573700  0.60718700  1
  Os  Os3  1  0.34355700  0.04426300  0.39281300  1
  Os  Os4  1  0.07991100  0.92943400  0.69942400  1
  Os  Os5  1  0.92008900  0.07056600  0.30057600  1
  Pb  Pb6  1  0.78199900  0.48689600  0.59894800  1
  Pb  Pb7  1  0.21800100  0.51310400  0.40105200  1
  Pb  Pb8  1  0.63231100  0.82102100  0.91571900  1
  Pb  Pb9  1  0.36768900  0.17897900  0.08428100  1
  Pb  Pb10  1  0.64994000  0.58881900  0.18430400  1
  Pb  Pb11  1  0.35006000  0.41118100  0.81569600  1
  N  N12  1  0.85286400  0.11599500  0.76833200  1
  N  N13  1  0.14713600  0.88400500  0.23166800  1
  N  N14  1  0.89509900  0.77538200  0.53878200  1
  N  N15  1  0.10490100  0.22461800  0.46121800  1
  N  N16  1  0.97530600  0.49663100  0.84986500  1
  N  N17  1  0.02469400  0.50336900  0.15013500  1
  N  N18  1  0.34525500  0.95492100  0.60980900  1
  N  N19  1  0.65474500  0.04507900  0.39019100  1
  N  N20  1  0.14351400  0.84327000  0.88566100  1
  N  N21  1  0.85648600  0.15673000  0.11433900  1
