# generated using pymatgen
data_VCN2
_symmetry_space_group_name_H-M   'P 1'
_cell_length_a   5.37073067
_cell_length_b   5.37073105
_cell_length_c   5.37073102
_cell_angle_alpha   31.20186233
_cell_angle_beta   31.20186398
_cell_angle_gamma   31.20186126
_symmetry_Int_Tables_number   1
_chemical_formula_structural   VCN2
_chemical_formula_sum   'V1 C1 N2'
_cell_volume   36.89492905
_cell_formula_units_Z   1
loop_
 _symmetry_equiv_pos_site_id
 _symmetry_equiv_pos_as_xyz
  1  'x, y, z'
loop_
 _atom_site_type_symbol
 _atom_site_label
 _atom_site_symmetry_multiplicity
 _atom_site_fract_x
 _atom_site_fract_y
 _atom_site_fract_z
 _atom_site_occupancy
  V  V0  1  0.00000000  0.00000000  0.00000000  1
  C  C1  1  0.50000000  0.50000000  0.50000000  1
  N  N2  1  0.58111700  0.58111700  0.58111700  1
  N  N3  1  0.41888300  0.41888300  0.41888300  1
