# generated using pymatgen
data_KRuN
_symmetry_space_group_name_H-M   'P 1'
_cell_length_a   5.91623769
_cell_length_b   3.29106421
_cell_length_c   6.76473694
_cell_angle_alpha   90.00000642
_cell_angle_beta   29.03512139
_cell_angle_gamma   73.85088453
_symmetry_Int_Tables_number   1
_chemical_formula_structural   KRuN
_chemical_formula_sum   'K1 Ru1 N1'
_cell_volume   52.38843921
_cell_formula_units_Z   1
loop_
 _symmetry_equiv_pos_site_id
 _symmetry_equiv_pos_as_xyz
  1  'x, y, z'
loop_
 _atom_site_type_symbol
 _atom_site_label
 _atom_site_symmetry_multiplicity
 _atom_site_fract_x
 _atom_site_fract_y
 _atom_site_fract_z
 _atom_site_occupancy
  K  K0  1  0.73705800  0.13147100  0.20375900  1
  Ru  Ru1  1  0.75490800  0.12254600  0.69960400  1
  N  N2  1  0.52603400  0.73698400  0.00563800  1
