# generated using pymatgen
data_GaW2N3
_symmetry_space_group_name_H-M   'P 1'
_cell_length_a   7.54679244
_cell_length_b   14.10936233
_cell_length_c   8.63795252
_cell_angle_alpha   89.99999559
_cell_angle_beta   92.27857398
_cell_angle_gamma   159.19454794
_symmetry_Int_Tables_number   1
_chemical_formula_structural   GaW2N3
_chemical_formula_sum   'Ga4 W8 N12'
_cell_volume   324.64652213
_cell_formula_units_Z   4
loop_
 _symmetry_equiv_pos_site_id
 _symmetry_equiv_pos_as_xyz
  1  'x, y, z'
loop_
 _atom_site_type_symbol
 _atom_site_label
 _atom_site_symmetry_multiplicity
 _atom_site_fract_x
 _atom_site_fract_y
 _atom_site_fract_z
 _atom_site_occupancy
  Ga  Ga0  1  0.59675700  0.28748800  0.63704200  1
  Ga  Ga1  1  0.40324300  0.69073000  0.86295800  1
  Ga  Ga2  1  0.40324300  0.71251200  0.36295800  1
  Ga  Ga3  1  0.59675700  0.30927000  0.13704200  1
  W  W4  1  0.55047000  0.04342800  0.84016500  1
  W  W5  1  0.44953000  0.49295800  0.65983500  1
  W  W6  1  0.44953000  0.95657200  0.15983500  1
  W  W7  1  0.55047000  0.50704200  0.34016500  1
  W  W8  1  0.65498500  0.97473400  0.60213600  1
  W  W9  1  0.34501500  0.31974900  0.89786400  1
  W  W10  1  0.34501500  0.02526600  0.39786400  1
  W  W11  1  0.65498500  0.68025100  0.10213600  1
  N  N12  1  0.00000000  0.67130100  0.75000000  1
  N  N13  1  0.00000000  0.32869900  0.25000000  1
  N  N14  1  0.69468400  0.14872400  0.61711700  1
  N  N15  1  0.30531600  0.45404100  0.88288300  1
  N  N16  1  0.30531600  0.85127600  0.38288300  1
  N  N17  1  0.69468400  0.54595900  0.11711700  1
  N  N18  1  0.25753000  0.97193400  0.98846900  1
  N  N19  1  0.74247000  0.71440400  0.51153100  1
  N  N20  1  0.74247000  0.02806600  0.01153100  1
  N  N21  1  0.25753000  0.28559600  0.48846900  1
  N  N22  1  0.00000000  0.05024700  0.75000000  1
  N  N23  1  0.00000000  0.94975300  0.25000000  1
