# generated using pymatgen
data_Sr3Rh3N5
_symmetry_space_group_name_H-M   'P 1'
_cell_length_a   6.35611455
_cell_length_b   7.85301938
_cell_length_c   8.37345751
_cell_angle_alpha   104.38295460
_cell_angle_beta   110.89516790
_cell_angle_gamma   101.54030941
_symmetry_Int_Tables_number   1
_chemical_formula_structural   Sr3Rh3N5
_chemical_formula_sum   'Sr6 Rh6 N10'
_cell_volume   358.47585942
_cell_formula_units_Z   2
loop_
 _symmetry_equiv_pos_site_id
 _symmetry_equiv_pos_as_xyz
  1  'x, y, z'
loop_
 _atom_site_type_symbol
 _atom_site_label
 _atom_site_symmetry_multiplicity
 _atom_site_fract_x
 _atom_site_fract_y
 _atom_site_fract_z
 _atom_site_occupancy
  Sr  Sr0  1  0.73751000  0.40653700  0.59052000  1
  Sr  Sr1  1  0.26249000  0.59346300  0.40948000  1
  Sr  Sr2  1  0.67451400  0.84799100  0.88649900  1
  Sr  Sr3  1  0.32548600  0.15200900  0.11350100  1
  Sr  Sr4  1  0.71900300  0.68050900  0.23736700  1
  Sr  Sr5  1  0.28099700  0.31949100  0.76263300  1
  Rh  Rh6  1  0.86090600  0.34518400  0.99918600  1
  Rh  Rh7  1  0.13909400  0.65481600  0.00081400  1
  Rh  Rh8  1  0.74619000  0.99000700  0.58469600  1
  Rh  Rh9  1  0.25381000  0.00999300  0.41530400  1
  Rh  Rh10  1  0.07643800  0.81034200  0.68388000  1
  Rh  Rh11  1  0.92356200  0.18965800  0.31612000  1
  N  N12  1  0.91129900  0.14894700  0.83524500  1
  N  N13  1  0.08870100  0.85105300  0.16475500  1
  N  N14  1  0.71963100  0.72942800  0.57763200  1
  N  N15  1  0.28036900  0.27057200  0.42236800  1
  N  N16  1  0.72491800  0.51388100  0.90206200  1
  N  N17  1  0.27508200  0.48611900  0.09793800  1
  N  N18  1  0.29468300  0.95820000  0.63021600  1
  N  N19  1  0.70531700  0.04180000  0.36978400  1
  N  N20  1  0.20860100  0.63834700  0.78231700  1
  N  N21  1  0.79139900  0.36165300  0.21768300  1
