# generated using pymatgen
data_SiPbN2
_symmetry_space_group_name_H-M   'P 1'
_cell_length_a   5.20396800
_cell_length_b   11.19631800
_cell_length_c   15.32425400
_cell_angle_alpha   90.00000000
_cell_angle_beta   90.00000000
_cell_angle_gamma   90.00000000
_symmetry_Int_Tables_number   1
_chemical_formula_structural   SiPbN2
_chemical_formula_sum   'Si16 Pb16 N32'
_cell_volume   892.87195914
_cell_formula_units_Z   16
loop_
 _symmetry_equiv_pos_site_id
 _symmetry_equiv_pos_as_xyz
  1  'x, y, z'
loop_
 _atom_site_type_symbol
 _atom_site_label
 _atom_site_symmetry_multiplicity
 _atom_site_fract_x
 _atom_site_fract_y
 _atom_site_fract_z
 _atom_site_occupancy
  Si  Si0  1  0.72227400  0.99230100  0.18745100  1
  Si  Si1  1  0.22227400  0.50769900  0.81254900  1
  Si  Si2  1  0.27772600  0.49230100  0.31254900  1
  Si  Si3  1  0.77772600  0.00769900  0.68745100  1
  Si  Si4  1  0.27772600  0.00769900  0.81254900  1
  Si  Si5  1  0.77772600  0.49230100  0.18745100  1
  Si  Si6  1  0.72227400  0.50769900  0.68745100  1
  Si  Si7  1  0.22227400  0.99230100  0.31254900  1
  Si  Si8  1  0.81085000  0.25147900  0.06170700  1
  Si  Si9  1  0.31085000  0.24852100  0.93829300  1
  Si  Si10  1  0.18915000  0.75147900  0.43829300  1
  Si  Si11  1  0.68915000  0.74852100  0.56170700  1
  Si  Si12  1  0.18915000  0.74852100  0.93829300  1
  Si  Si13  1  0.68915000  0.75147900  0.06170700  1
  Si  Si14  1  0.81085000  0.24852100  0.56170700  1
  Si  Si15  1  0.31085000  0.25147900  0.43829300  1
  Pb  Pb16  1  0.72691400  0.97278200  0.43261600  1
  Pb  Pb17  1  0.22691400  0.52721800  0.56738400  1
  Pb  Pb18  1  0.27308600  0.47278200  0.06738400  1
  Pb  Pb19  1  0.77308600  0.02721800  0.93261600  1
  Pb  Pb20  1  0.27308600  0.02721800  0.56738400  1
  Pb  Pb21  1  0.77308600  0.47278200  0.43261600  1
  Pb  Pb22  1  0.72691400  0.52721800  0.93261600  1
  Pb  Pb23  1  0.22691400  0.97278200  0.06738400  1
  Pb  Pb24  1  0.86272600  0.22683600  0.31617900  1
  Pb  Pb25  1  0.36272600  0.27316400  0.68382100  1
  Pb  Pb26  1  0.13727400  0.72683600  0.18382100  1
  Pb  Pb27  1  0.63727400  0.77316400  0.81617900  1
  Pb  Pb28  1  0.13727400  0.77316400  0.68382100  1
  Pb  Pb29  1  0.63727400  0.72683600  0.31617900  1
  Pb  Pb30  1  0.86272600  0.27316400  0.81617900  1
  Pb  Pb31  1  0.36272600  0.22683600  0.18382100  1
  N  N32  1  0.60342400  0.48470000  0.28511700  1
  N  N33  1  0.10342400  0.01530000  0.71488300  1
  N  N34  1  0.39657600  0.98470000  0.21488300  1
  N  N35  1  0.89657600  0.51530000  0.78511700  1
  N  N36  1  0.39657600  0.51530000  0.71488300  1
  N  N37  1  0.89657600  0.98470000  0.28511700  1
  N  N38  1  0.60342400  0.01530000  0.78511700  1
  N  N39  1  0.10342400  0.48470000  0.21488300  1
  N  N40  1  0.64115900  0.26708300  0.46164900  1
  N  N41  1  0.14115900  0.23291700  0.53835100  1
  N  N42  1  0.35884100  0.76708300  0.03835100  1
  N  N43  1  0.85884100  0.73291700  0.96164900  1
  N  N44  1  0.35884100  0.73291700  0.53835100  1
  N  N45  1  0.85884100  0.76708300  0.46164900  1
  N  N46  1  0.64115900  0.23291700  0.96164900  1
  N  N47  1  0.14115900  0.26708300  0.03835100  1
  N  N48  1  0.68191300  0.37676100  0.11665000  1
  N  N49  1  0.18191300  0.12323900  0.88335000  1
  N  N50  1  0.31808700  0.87676100  0.38335000  1
  N  N51  1  0.81808700  0.62323900  0.61665000  1
  N  N52  1  0.31808700  0.62323900  0.88335000  1
  N  N53  1  0.81808700  0.87676100  0.11665000  1
  N  N54  1  0.68191300  0.12323900  0.61665000  1
  N  N55  1  0.18191300  0.37676100  0.38335000  1
  N  N56  1  0.75487500  0.12906900  0.13054200  1
  N  N57  1  0.25487500  0.37093100  0.86945800  1
  N  N58  1  0.24512500  0.62906900  0.36945800  1
  N  N59  1  0.74512500  0.87093100  0.63054200  1
  N  N60  1  0.24512500  0.87093100  0.86945800  1
  N  N61  1  0.74512500  0.62906900  0.13054200  1
  N  N62  1  0.75487500  0.37093100  0.63054200  1
  N  N63  1  0.25487500  0.12906900  0.36945800  1
