# generated using pymatgen
data_Sr3(WN2)2
_symmetry_space_group_name_H-M   'P 1'
_cell_length_a   7.42583875
_cell_length_b   8.96040492
_cell_length_c   5.75827778
_cell_angle_alpha   89.99999275
_cell_angle_beta   91.03013161
_cell_angle_gamma   127.10849027
_symmetry_Int_Tables_number   1
_chemical_formula_structural   Sr3(WN2)2
_chemical_formula_sum   'Sr6 W4 N8'
_cell_volume   305.48022019
_cell_formula_units_Z   2
loop_
 _symmetry_equiv_pos_site_id
 _symmetry_equiv_pos_as_xyz
  1  'x, y, z'
loop_
 _atom_site_type_symbol
 _atom_site_label
 _atom_site_symmetry_multiplicity
 _atom_site_fract_x
 _atom_site_fract_y
 _atom_site_fract_z
 _atom_site_occupancy
  Sr  Sr0  1  0.23451200  0.98834300  0.02397000  1
  Sr  Sr1  1  0.76548800  0.75383100  0.47603000  1
  Sr  Sr2  1  0.76548800  0.01165700  0.97603000  1
  Sr  Sr3  1  0.23451200  0.24616900  0.52397000  1
  Sr  Sr4  1  0.00000000  0.60294200  0.75000000  1
  Sr  Sr5  1  0.00000000  0.39705800  0.25000000  1
  W  W6  1  0.60048900  0.17302200  0.59426200  1
  W  W7  1  0.39951100  0.57253300  0.90573800  1
  W  W8  1  0.39951100  0.82697800  0.40573800  1
  W  W9  1  0.60048900  0.42746700  0.09426200  1
  N  N10  1  0.26445000  0.95945300  0.50868100  1
  N  N11  1  0.73555000  0.69500300  0.99131900  1
  N  N12  1  0.73555000  0.04054700  0.49131900  1
  N  N13  1  0.26445000  0.30499700  0.00868100  1
  N  N14  1  0.65948500  0.26804600  0.91671500  1
  N  N15  1  0.34051500  0.60856200  0.58328500  1
  N  N16  1  0.34051500  0.73195400  0.08328500  1
  N  N17  1  0.65948500  0.39143800  0.41671500  1
