# generated using pymatgen
data_Fe2(CN2)3
_symmetry_space_group_name_H-M   'P 1'
_cell_length_a   9.72510342
_cell_length_b   5.26954277
_cell_length_c   27.70866940
_cell_angle_alpha   90.00370808
_cell_angle_beta   161.76972008
_cell_angle_gamma   74.27767338
_symmetry_Int_Tables_number   1
_chemical_formula_structural   Fe2(CN2)3
_chemical_formula_sum   'Fe4 C6 N12'
_cell_volume   222.13753396
_cell_formula_units_Z   2
loop_
 _symmetry_equiv_pos_site_id
 _symmetry_equiv_pos_as_xyz
  1  'x, y, z'
loop_
 _atom_site_type_symbol
 _atom_site_label
 _atom_site_symmetry_multiplicity
 _atom_site_fract_x
 _atom_site_fract_y
 _atom_site_fract_z
 _atom_site_occupancy
  Fe  Fe0  1  0.99988400  0.99991100  0.16556800  1
  Fe  Fe1  1  0.99970400  0.00025900  0.66550400  1
  Fe  Fe2  1  0.00019200  0.00000300  0.83447100  1
  Fe  Fe3  1  0.00036500  0.99975300  0.33451900  1
  C  C4  1  0.96710200  0.67772000  0.07236600  1
  C  C5  1  0.00001200  0.67758900  0.75001700  1
  C  C6  1  0.03283200  0.64483100  0.42763400  1
  C  C7  1  0.96716800  0.35513700  0.57239000  1
  C  C8  1  0.03281600  0.32233900  0.92763300  1
  C  C9  1  0.00007800  0.32237700  0.25004000  1
  N  N10  1  0.86678700  0.76142000  0.08256200  1
  N  N11  1  0.15135800  0.61010200  0.84408800  1
  N  N12  1  0.98139600  0.62858200  0.45409200  1
  N  N13  1  0.86682500  0.37174900  0.58257600  1
  N  N14  1  0.98135200  0.39005400  0.95409100  1
  N  N15  1  0.15137400  0.23854700  0.34410300  1
  N  N16  1  0.13318500  0.23862400  0.91743900  1
  N  N17  1  0.84865400  0.38988000  0.15593300  1
  N  N18  1  0.01854600  0.37143000  0.54590000  1
  N  N19  1  0.13324700  0.62815900  0.41746900  1
  N  N20  1  0.01843700  0.61006100  0.04586100  1
  N  N21  1  0.84868400  0.76147400  0.65594200  1
