# generated using pymatgen
data_Sr11(CN5)2
_symmetry_space_group_name_H-M   'P 1'
_cell_length_a   15.50727200
_cell_length_b   15.50727200
_cell_length_c   3.88755600
_cell_angle_alpha   90.00000000
_cell_angle_beta   90.00000000
_cell_angle_gamma   90.00000000
_symmetry_Int_Tables_number   1
_chemical_formula_structural   Sr11(CN5)2
_chemical_formula_sum   'Sr22 C4 N20'
_cell_volume   934.86191411
_cell_formula_units_Z   2
loop_
 _symmetry_equiv_pos_site_id
 _symmetry_equiv_pos_as_xyz
  1  'x, y, z'
loop_
 _atom_site_type_symbol
 _atom_site_label
 _atom_site_symmetry_multiplicity
 _atom_site_fract_x
 _atom_site_fract_y
 _atom_site_fract_z
 _atom_site_occupancy
  Sr  Sr0  1  0.50000000  0.50000000  0.50000000  1
  Sr  Sr1  1  0.00000000  0.00000000  0.00000000  1
  Sr  Sr2  1  0.97977200  0.79485700  0.50000000  1
  Sr  Sr3  1  0.02022800  0.20514300  0.50000000  1
  Sr  Sr4  1  0.52022800  0.29485700  0.00000000  1
  Sr  Sr5  1  0.47977200  0.70514300  0.00000000  1
  Sr  Sr6  1  0.79485700  0.97977200  0.50000000  1
  Sr  Sr7  1  0.20514300  0.02022800  0.50000000  1
  Sr  Sr8  1  0.29485700  0.52022800  0.00000000  1
  Sr  Sr9  1  0.70514300  0.47977200  0.00000000  1
  Sr  Sr10  1  0.67063400  0.67063400  0.50000000  1
  Sr  Sr11  1  0.32936600  0.32936600  0.50000000  1
  Sr  Sr12  1  0.82936600  0.17063400  0.00000000  1
  Sr  Sr13  1  0.17063400  0.82936600  0.00000000  1
  Sr  Sr14  1  0.38186800  0.88940500  0.50000000  1
  Sr  Sr15  1  0.61813200  0.11059500  0.50000000  1
  Sr  Sr16  1  0.11813300  0.38940500  0.00000000  1
  Sr  Sr17  1  0.88186800  0.61059500  0.00000000  1
  Sr  Sr18  1  0.88940500  0.38186800  0.50000000  1
  Sr  Sr19  1  0.11059500  0.61813200  0.50000000  1
  Sr  Sr20  1  0.38940500  0.11813300  0.00000000  1
  Sr  Sr21  1  0.61059500  0.88186800  0.00000000  1
  C  C22  1  0.31820500  0.68179500  0.50000000  1
  C  C23  1  0.68179500  0.31820500  0.50000000  1
  C  C24  1  0.18179500  0.18179500  0.00000000  1
  C  C25  1  0.81820500  0.81820500  0.00000000  1
  N  N26  1  0.09141200  0.90858800  0.50000000  1
  N  N27  1  0.90858800  0.09141200  0.50000000  1
  N  N28  1  0.40858800  0.40858800  0.00000000  1
  N  N29  1  0.59141200  0.59141200  0.00000000  1
  N  N30  1  0.46787300  0.18969200  0.50000000  1
  N  N31  1  0.53212700  0.81030800  0.50000000  1
  N  N32  1  0.03212700  0.68969200  0.00000000  1
  N  N33  1  0.96787300  0.31030800  0.00000000  1
  N  N34  1  0.18969200  0.46787300  0.50000000  1
  N  N35  1  0.81030800  0.53212700  0.50000000  1
  N  N36  1  0.68969200  0.03212700  0.00000000  1
  N  N37  1  0.31030800  0.96787300  0.00000000  1
  N  N38  1  0.26171100  0.73828900  0.50000000  1
  N  N39  1  0.73828900  0.26171100  0.50000000  1
  N  N40  1  0.23828900  0.23828900  0.00000000  1
  N  N41  1  0.76171100  0.76171100  0.00000000  1
  N  N42  1  0.37514100  0.62485900  0.50000000  1
  N  N43  1  0.62485900  0.37514100  0.50000000  1
  N  N44  1  0.12485900  0.12485900  0.00000000  1
  N  N45  1  0.87514100  0.87514100  0.00000000  1
