# generated using pymatgen
data_Sc3Si6N11
_symmetry_space_group_name_H-M   'P 1'
_cell_length_a   9.77288989
_cell_length_b   9.77288989
_cell_length_c   4.85348155
_cell_angle_alpha   90.00000000
_cell_angle_beta   90.00000000
_cell_angle_gamma   90.00000000
_symmetry_Int_Tables_number   1
_chemical_formula_structural   Sc3Si6N11
_chemical_formula_sum   'Sc6 Si12 N22'
_cell_volume   463.55299816
_cell_formula_units_Z   2
loop_
 _symmetry_equiv_pos_site_id
 _symmetry_equiv_pos_as_xyz
  1  'x, y, z'
loop_
 _atom_site_type_symbol
 _atom_site_label
 _atom_site_symmetry_multiplicity
 _atom_site_fract_x
 _atom_site_fract_y
 _atom_site_fract_z
 _atom_site_occupancy
  Sc  Sc0  1  0.31081032  0.81081032  0.95692996  1
  Sc  Sc1  1  0.68918968  0.18918968  0.95692996  1
  Sc  Sc2  1  0.18918968  0.31081032  0.95692996  1
  Sc  Sc3  1  0.81081032  0.68918968  0.95692996  1
  Sc  Sc4  1  0.50000000  0.50000000  0.96149317  1
  Sc  Sc5  1  -0.00000000  0.00000000  0.96149317  1
  Si  Si6  1  0.41838709  0.29387770  0.53248131  1
  Si  Si7  1  0.58161291  0.70612230  0.53248131  1
  Si  Si8  1  0.08161291  0.79387770  0.53248131  1
  Si  Si9  1  0.91838709  0.20612230  0.53248131  1
  Si  Si10  1  0.29387770  0.58161291  0.53248131  1
  Si  Si11  1  0.70612230  0.41838709  0.53248131  1
  Si  Si12  1  0.79387770  0.91838709  0.53248131  1
  Si  Si13  1  0.20612230  0.08161291  0.53248131  1
  Si  Si14  1  0.87963443  0.37963443  0.04874028  1
  Si  Si15  1  0.12036557  0.62036557  0.04874028  1
  Si  Si16  1  0.62036557  0.87963443  0.04874028  1
  Si  Si17  1  0.37963443  0.12036557  0.04874028  1
  N  N18  1  0.31763333  0.42245637  0.66966793  1
  N  N19  1  0.68236667  0.57754363  0.66966793  1
  N  N20  1  0.18236667  0.92245637  0.66966793  1
  N  N21  1  0.81763333  0.07754363  0.66966793  1
  N  N22  1  0.42245637  0.68236667  0.66966793  1
  N  N23  1  0.57754363  0.31763333  0.66966793  1
  N  N24  1  0.92245637  0.81763333  0.66966793  1
  N  N25  1  0.07754363  0.18236667  0.66966793  1
  N  N26  1  0.41444999  0.28439644  0.17713929  1
  N  N27  1  0.58555001  0.71560356  0.17713929  1
  N  N28  1  0.08555001  0.78439644  0.17713929  1
  N  N29  1  0.91444999  0.21560356  0.17713929  1
  N  N30  1  0.28439644  0.58555001  0.17713929  1
  N  N31  1  0.71560356  0.41444999  0.17713929  1
  N  N32  1  0.78439644  0.91444999  0.17713929  1
  N  N33  1  0.21560356  0.08555001  0.17713929  1
  N  N34  1  0.84589838  0.34589838  0.69933255  1
  N  N35  1  0.15410162  0.65410162  0.69933255  1
  N  N36  1  0.65410162  0.84589838  0.69933255  1
  N  N37  1  0.34589838  0.15410162  0.69933255  1
  N  N38  1  0.50000000  0.00000000  0.07988412  1
  N  N39  1  -0.00000000  0.50000000  0.07988412  1
