# generated using pymatgen
data_NaSbN2
_symmetry_space_group_name_H-M   'P 1'
_cell_length_a   5.68328200
_cell_length_b   11.46259500
_cell_length_c   15.76866400
_cell_angle_alpha   90.00000000
_cell_angle_beta   90.00000000
_cell_angle_gamma   90.00000000
_symmetry_Int_Tables_number   1
_chemical_formula_structural   NaSbN2
_chemical_formula_sum   'Na16 Sb16 N32'
_cell_volume   1027.25213669
_cell_formula_units_Z   16
loop_
 _symmetry_equiv_pos_site_id
 _symmetry_equiv_pos_as_xyz
  1  'x, y, z'
loop_
 _atom_site_type_symbol
 _atom_site_label
 _atom_site_symmetry_multiplicity
 _atom_site_fract_x
 _atom_site_fract_y
 _atom_site_fract_z
 _atom_site_occupancy
  Na  Na0  1  0.27486100  0.00014900  0.44310100  1
  Na  Na1  1  0.77486100  0.49985100  0.55689900  1
  Na  Na2  1  0.72513900  0.50014900  0.05689900  1
  Na  Na3  1  0.22513900  0.99985100  0.94310100  1
  Na  Na4  1  0.72513900  0.99985100  0.55689900  1
  Na  Na5  1  0.22513900  0.50014900  0.44310100  1
  Na  Na6  1  0.27486100  0.49985100  0.94310100  1
  Na  Na7  1  0.77486100  0.00014900  0.05689900  1
  Na  Na8  1  0.27103100  0.27914500  0.31263300  1
  Na  Na9  1  0.77103100  0.22085500  0.68736700  1
  Na  Na10  1  0.72896900  0.77914500  0.18736700  1
  Na  Na11  1  0.22896900  0.72085500  0.81263300  1
  Na  Na12  1  0.72896900  0.72085500  0.68736700  1
  Na  Na13  1  0.22896900  0.77914500  0.31263300  1
  Na  Na14  1  0.27103100  0.22085500  0.81263300  1
  Na  Na15  1  0.77103100  0.27914500  0.18736700  1
  Sb  Sb16  1  0.78439400  0.01680500  0.31121500  1
  Sb  Sb17  1  0.28439400  0.48319500  0.68878500  1
  Sb  Sb18  1  0.21560600  0.51680500  0.18878500  1
  Sb  Sb19  1  0.71560600  0.98319500  0.81121500  1
  Sb  Sb20  1  0.21560600  0.98319500  0.68878500  1
  Sb  Sb21  1  0.71560600  0.51680500  0.31121500  1
  Sb  Sb22  1  0.78439400  0.48319500  0.81121500  1
  Sb  Sb23  1  0.28439400  0.01680500  0.18878500  1
  Sb  Sb24  1  0.76098600  0.26799200  0.43487400  1
  Sb  Sb25  1  0.26098600  0.23200800  0.56512600  1
  Sb  Sb26  1  0.23901400  0.76799200  0.06512600  1
  Sb  Sb27  1  0.73901400  0.73200800  0.93487400  1
  Sb  Sb28  1  0.23901400  0.73200800  0.56512600  1
  Sb  Sb29  1  0.73901400  0.76799200  0.43487400  1
  Sb  Sb30  1  0.76098600  0.23200800  0.93487400  1
  Sb  Sb31  1  0.26098600  0.26799200  0.06512600  1
  N  N32  1  0.01863400  0.33382600  0.50907300  1
  N  N33  1  0.51863400  0.16617400  0.49092700  1
  N  N34  1  0.98136600  0.83382600  0.99092700  1
  N  N35  1  0.48136600  0.66617400  0.00907300  1
  N  N36  1  0.98136600  0.66617400  0.49092700  1
  N  N37  1  0.48136600  0.83382600  0.50907300  1
  N  N38  1  0.01863400  0.16617400  0.00907300  1
  N  N39  1  0.51863400  0.33382600  0.99092700  1
  N  N40  1  0.58680700  0.41360700  0.40346300  1
  N  N41  1  0.08680700  0.08639300  0.59653700  1
  N  N42  1  0.41319300  0.91360700  0.09653700  1
  N  N43  1  0.91319300  0.58639300  0.90346300  1
  N  N44  1  0.41319300  0.58639300  0.59653700  1
  N  N45  1  0.91319300  0.91360700  0.40346300  1
  N  N46  1  0.58680700  0.08639300  0.90346300  1
  N  N47  1  0.08680700  0.41360700  0.09653700  1
  N  N48  1  0.88466500  0.18356200  0.33171700  1
  N  N49  1  0.38466500  0.31643800  0.66828300  1
  N  N50  1  0.11533500  0.68356200  0.16828300  1
  N  N51  1  0.61533500  0.81643800  0.83171700  1
  N  N52  1  0.11533500  0.81643800  0.66828300  1
  N  N53  1  0.61533500  0.68356200  0.33171700  1
  N  N54  1  0.88466500  0.31643800  0.83171700  1
  N  N55  1  0.38466500  0.18356200  0.16828300  1
  N  N56  1  0.55842500  0.47553800  0.20060000  1
  N  N57  1  0.05842500  0.02446200  0.79940000  1
  N  N58  1  0.44157500  0.97553800  0.29940000  1
  N  N59  1  0.94157500  0.52446200  0.70060000  1
  N  N60  1  0.44157500  0.52446200  0.79940000  1
  N  N61  1  0.94157500  0.97553800  0.20060000  1
  N  N62  1  0.55842500  0.02446200  0.70060000  1
  N  N63  1  0.05842500  0.47553800  0.29940000  1
