# generated using pymatgen
data_Mn5(SiN3)3
_symmetry_space_group_name_H-M   'P 1'
_cell_length_a   7.59394792
_cell_length_b   10.12166827
_cell_length_c   14.23862900
_cell_angle_alpha   90.00000000
_cell_angle_beta   90.00000000
_cell_angle_gamma   131.79212583
_symmetry_Int_Tables_number   1
_chemical_formula_structural   Mn5(SiN3)3
_chemical_formula_sum   'Mn20 Si12 N36'
_cell_volume   815.97135170
_cell_formula_units_Z   4
loop_
 _symmetry_equiv_pos_site_id
 _symmetry_equiv_pos_as_xyz
  1  'x, y, z'
loop_
 _atom_site_type_symbol
 _atom_site_label
 _atom_site_symmetry_multiplicity
 _atom_site_fract_x
 _atom_site_fract_y
 _atom_site_fract_z
 _atom_site_occupancy
  Mn  Mn0  1  0.00000000  0.49913400  0.83301400  1
  Mn  Mn1  1  0.00000000  0.50086600  0.16698600  1
  Mn  Mn2  1  0.00000000  0.00086600  0.33301400  1
  Mn  Mn3  1  0.00000000  0.99913400  0.66698600  1
  Mn  Mn4  1  0.34166300  0.99654400  0.83882600  1
  Mn  Mn5  1  0.34166300  0.34512000  0.16117400  1
  Mn  Mn6  1  0.34166300  0.84512000  0.33882600  1
  Mn  Mn7  1  0.34166300  0.49654400  0.66117400  1
  Mn  Mn8  1  0.65833700  0.00345600  0.16117400  1
  Mn  Mn9  1  0.65833700  0.65488000  0.83882600  1
  Mn  Mn10  1  0.65833700  0.15488000  0.66117400  1
  Mn  Mn11  1  0.65833700  0.50345600  0.33882600  1
  Mn  Mn12  1  0.00000000  0.43972500  0.58341600  1
  Mn  Mn13  1  0.00000000  0.56027500  0.41658400  1
  Mn  Mn14  1  0.00000000  0.06027500  0.08341600  1
  Mn  Mn15  1  0.00000000  0.93972500  0.91658400  1
  Mn  Mn16  1  0.39869500  0.19934800  0.00000000  1
  Mn  Mn17  1  0.39869500  0.69934800  0.50000000  1
  Mn  Mn18  1  0.60130500  0.80065200  0.00000000  1
  Mn  Mn19  1  0.60130500  0.30065200  0.50000000  1
  Si  Si20  1  0.00000000  0.71777900  0.00670300  1
  Si  Si21  1  0.00000000  0.28222100  0.99329700  1
  Si  Si22  1  0.00000000  0.78222100  0.50670300  1
  Si  Si23  1  0.00000000  0.21777900  0.49329700  1
  Si  Si24  1  0.00000000  0.24071100  0.77408300  1
  Si  Si25  1  0.00000000  0.75928900  0.22591700  1
  Si  Si26  1  0.00000000  0.25928900  0.27408300  1
  Si  Si27  1  0.00000000  0.74071100  0.72591700  1
  Si  Si28  1  0.50000000  0.81926000  0.75000000  1
  Si  Si29  1  0.50000000  0.68074000  0.25000000  1
  Si  Si30  1  0.50000000  0.18074000  0.25000000  1
  Si  Si31  1  0.50000000  0.31926000  0.75000000  1
  N  N32  1  0.00000000  0.39410700  0.71373600  1
  N  N33  1  0.00000000  0.60589300  0.28626400  1
  N  N34  1  0.00000000  0.10589300  0.21373600  1
  N  N35  1  0.00000000  0.89410700  0.78626400  1
  N  N36  1  0.00000000  0.31455200  0.87905100  1
  N  N37  1  0.00000000  0.68544800  0.12094900  1
  N  N38  1  0.00000000  0.18544800  0.37905100  1
  N  N39  1  0.00000000  0.81455200  0.62094900  1
  N  N40  1  0.00000000  0.54572400  0.96529600  1
  N  N41  1  0.00000000  0.45427600  0.03470400  1
  N  N42  1  0.00000000  0.95427600  0.46529600  1
  N  N43  1  0.00000000  0.04572400  0.53470400  1
  N  N44  1  0.75787200  0.53830800  0.76977700  1
  N  N45  1  0.75787200  0.21956400  0.23022300  1
  N  N46  1  0.75787200  0.71956400  0.26977700  1
  N  N47  1  0.75787200  0.03830800  0.73022300  1
  N  N48  1  0.24212800  0.46169200  0.23022300  1
  N  N49  1  0.24212800  0.78043600  0.76977700  1
  N  N50  1  0.24212800  0.28043600  0.73022300  1
  N  N51  1  0.24212800  0.96169200  0.26977700  1
  N  N52  1  0.49112500  0.23098600  0.85782900  1
  N  N53  1  0.49112500  0.26013900  0.14217100  1
  N  N54  1  0.49112500  0.76013900  0.35782900  1
  N  N55  1  0.49112500  0.73098600  0.64217100  1
  N  N56  1  0.50887500  0.76901400  0.14217100  1
  N  N57  1  0.50887500  0.73986100  0.85782900  1
  N  N58  1  0.50887500  0.23986100  0.64217100  1
  N  N59  1  0.50887500  0.26901400  0.35782900  1
  N  N60  1  0.23588500  0.93686000  0.96821100  1
  N  N61  1  0.23588500  0.29902400  0.03178900  1
  N  N62  1  0.23588500  0.79902400  0.46821100  1
  N  N63  1  0.23588500  0.43686000  0.53178900  1
  N  N64  1  0.76411500  0.06314000  0.03178900  1
  N  N65  1  0.76411500  0.70097600  0.96821100  1
  N  N66  1  0.76411500  0.20097600  0.53178900  1
  N  N67  1  0.76411500  0.56314000  0.46821100  1
