# generated using pymatgen
data_SiPbN2
_symmetry_space_group_name_H-M   'P 1'
_cell_length_a   5.67648700
_cell_length_b   7.56234600
_cell_length_c   5.16478300
_cell_angle_alpha   90.00000000
_cell_angle_beta   90.00000000
_cell_angle_gamma   90.00000000
_symmetry_Int_Tables_number   1
_chemical_formula_structural   SiPbN2
_chemical_formula_sum   'Si4 Pb4 N8'
_cell_volume   221.71152571
_cell_formula_units_Z   4
loop_
 _symmetry_equiv_pos_site_id
 _symmetry_equiv_pos_as_xyz
  1  'x, y, z'
loop_
 _atom_site_type_symbol
 _atom_site_label
 _atom_site_symmetry_multiplicity
 _atom_site_fract_x
 _atom_site_fract_y
 _atom_site_fract_z
 _atom_site_occupancy
  Si  Si0  1  0.51481200  0.37318100  0.00276300  1
  Si  Si1  1  0.48518800  0.62681900  0.50276300  1
  Si  Si2  1  0.98518800  0.87318100  0.50276300  1
  Si  Si3  1  0.01481200  0.12681900  0.00276300  1
  Pb  Pb4  1  0.57802500  0.87366200  0.01769900  1
  Pb  Pb5  1  0.42197500  0.12633800  0.51769900  1
  Pb  Pb6  1  0.92197500  0.37366200  0.51769900  1
  Pb  Pb7  1  0.07802500  0.62633800  0.01769900  1
  N  N8  1  0.50559100  0.42200000  0.33558100  1
  N  N9  1  0.49440900  0.57800000  0.83558100  1
  N  N10  1  0.99440900  0.92200000  0.83558100  1
  N  N11  1  0.00559100  0.07800000  0.33558100  1
  N  N12  1  0.73033500  0.75767000  0.41395700  1
  N  N13  1  0.26966500  0.24233000  0.91395700  1
  N  N14  1  0.76966500  0.25767000  0.91395700  1
  N  N15  1  0.23033500  0.74233000  0.41395700  1
