# generated using pymatgen
data_Ca7SeN6
_symmetry_space_group_name_H-M   'P 1'
_cell_length_a   12.13081569
_cell_length_b   6.38982303
_cell_length_c   12.52399844
_cell_angle_alpha   90.00000000
_cell_angle_beta   90.00000000
_cell_angle_gamma   90.00000000
_symmetry_Int_Tables_number   1
_chemical_formula_structural   Ca7SeN6
_chemical_formula_sum   'Ca28 Se4 N24'
_cell_volume   970.78227781
_cell_formula_units_Z   4
loop_
 _symmetry_equiv_pos_site_id
 _symmetry_equiv_pos_as_xyz
  1  'x, y, z'
loop_
 _atom_site_type_symbol
 _atom_site_label
 _atom_site_symmetry_multiplicity
 _atom_site_fract_x
 _atom_site_fract_y
 _atom_site_fract_z
 _atom_site_occupancy
  Ca  Ca0  1  0.06044894  0.70645269  0.00118522  1
  Ca  Ca1  1  0.43955106  0.79354731  0.50118522  1
  Ca  Ca2  1  0.56044894  0.79354731  0.99881478  1
  Ca  Ca3  1  0.93955106  0.70645269  0.49881478  1
  Ca  Ca4  1  0.93955106  0.29354731  0.99881478  1
  Ca  Ca5  1  0.56044894  0.20645269  0.49881478  1
  Ca  Ca6  1  0.43955106  0.20645269  0.00118522  1
  Ca  Ca7  1  0.06044894  0.29354731  0.50118522  1
  Ca  Ca8  1  0.22036283  0.89062491  0.65370116  1
  Ca  Ca9  1  0.27963717  0.60937509  0.15370116  1
  Ca  Ca10  1  0.72036283  0.60937509  0.34629884  1
  Ca  Ca11  1  0.77963717  0.89062491  0.84629884  1
  Ca  Ca12  1  0.77963717  0.10937509  0.34629884  1
  Ca  Ca13  1  0.72036283  0.39062491  0.84629884  1
  Ca  Ca14  1  0.27963717  0.39062491  0.65370116  1
  Ca  Ca15  1  0.22036283  0.10937509  0.15370116  1
  Ca  Ca16  1  0.30412364  0.65893240  0.88668046  1
  Ca  Ca17  1  0.19587636  0.84106760  0.38668046  1
  Ca  Ca18  1  0.80412364  0.84106760  0.11331954  1
  Ca  Ca19  1  0.69587636  0.65893240  0.61331954  1
  Ca  Ca20  1  0.69587636  0.34106760  0.11331954  1
  Ca  Ca21  1  0.80412364  0.15893240  0.61331954  1
  Ca  Ca22  1  0.19587636  0.15893240  0.88668046  1
  Ca  Ca23  1  0.30412364  0.34106760  0.38668046  1
  Ca  Ca24  1  0.00000000  0.56526279  0.75000000  1
  Ca  Ca25  1  0.50000000  0.93473721  0.25000000  1
  Ca  Ca26  1  0.00000000  0.43473721  0.25000000  1
  Ca  Ca27  1  0.50000000  0.06526279  0.75000000  1
  Se  Se28  1  0.00000000  0.04993126  0.75000000  1
  Se  Se29  1  0.50000000  0.45006874  0.25000000  1
  Se  Se30  1  0.00000000  0.95006874  0.25000000  1
  Se  Se31  1  0.50000000  0.54993126  0.75000000  1
  N  N32  1  0.14050828  0.80099600  0.83349307  1
  N  N33  1  0.35949172  0.69900400  0.33349307  1
  N  N34  1  0.64050828  0.69900400  0.16650693  1
  N  N35  1  0.85949172  0.80099600  0.66650693  1
  N  N36  1  0.85949172  0.19900400  0.16650693  1
  N  N37  1  0.64050828  0.30099600  0.66650693  1
  N  N38  1  0.35949172  0.30099600  0.83349307  1
  N  N39  1  0.14050828  0.19900400  0.33349307  1
  N  N40  1  0.13186465  0.64369923  0.53721868  1
  N  N41  1  0.36813535  0.85630077  0.03721868  1
  N  N42  1  0.63186465  0.85630077  0.46278132  1
  N  N43  1  0.86813535  0.64369923  0.96278132  1
  N  N44  1  0.86813535  0.35630077  0.46278132  1
  N  N45  1  0.63186465  0.14369923  0.96278132  1
  N  N46  1  0.36813535  0.14369923  0.53721868  1
  N  N47  1  0.13186465  0.35630077  0.03721868  1
  N  N48  1  0.39384667  0.72356319  0.69656661  1
  N  N49  1  0.10615333  0.77643681  0.19656661  1
  N  N50  1  0.89384667  0.77643681  0.30343339  1
  N  N51  1  0.60615333  0.72356319  0.80343339  1
  N  N52  1  0.60615333  0.27643681  0.30343339  1
  N  N53  1  0.89384667  0.22356319  0.80343339  1
  N  N54  1  0.10615333  0.22356319  0.69656661  1
  N  N55  1  0.39384667  0.27643681  0.19656661  1
