# generated using pymatgen
data_SiGeN2
_symmetry_space_group_name_H-M   'P 1'
_cell_length_a   7.65674892
_cell_length_b   5.94538700
_cell_length_c   5.15012312
_cell_angle_alpha   90.00000000
_cell_angle_beta   106.02685788
_cell_angle_gamma   90.00000000
_symmetry_Int_Tables_number   1
_chemical_formula_structural   SiGeN2
_chemical_formula_sum   'Si4 Ge4 N8'
_cell_volume   225.33328937
_cell_formula_units_Z   4
loop_
 _symmetry_equiv_pos_site_id
 _symmetry_equiv_pos_as_xyz
  1  'x, y, z'
loop_
 _atom_site_type_symbol
 _atom_site_label
 _atom_site_symmetry_multiplicity
 _atom_site_fract_x
 _atom_site_fract_y
 _atom_site_fract_z
 _atom_site_occupancy
  Si  Si0  1  0.11126500  0.36142300  0.64090000  1
  Si  Si1  1  0.88873500  0.86142300  0.85910000  1
  Si  Si2  1  0.88873500  0.63857700  0.35910000  1
  Si  Si3  1  0.11126500  0.13857700  0.14090000  1
  Ge  Ge4  1  0.29806400  0.88199500  0.71590400  1
  Ge  Ge5  1  0.70193600  0.38199500  0.78409600  1
  Ge  Ge6  1  0.70193600  0.11800500  0.28409600  1
  Ge  Ge7  1  0.29806400  0.61800500  0.21590400  1
  N  N8  1  0.13473900  0.87958300  0.98076800  1
  N  N9  1  0.86526100  0.37958300  0.51923200  1
  N  N10  1  0.86526100  0.12041700  0.01923200  1
  N  N11  1  0.13473900  0.62041700  0.48076800  1
  N  N12  1  0.18664200  0.35975500  0.98648100  1
  N  N13  1  0.81335800  0.85975500  0.51351900  1
  N  N14  1  0.81335800  0.64024500  0.01351900  1
  N  N15  1  0.18664200  0.14024500  0.48648100  1
