# generated using pymatgen
data_Sr7HfN6
_symmetry_space_group_name_H-M   'P 1'
_cell_length_a   12.26885400
_cell_length_b   6.80008200
_cell_length_c   13.90383600
_cell_angle_alpha   90.00000000
_cell_angle_beta   90.00000000
_cell_angle_gamma   90.00000000
_symmetry_Int_Tables_number   1
_chemical_formula_structural   Sr7HfN6
_chemical_formula_sum   'Sr28 Hf4 N24'
_cell_volume   1159.98609858
_cell_formula_units_Z   4
loop_
 _symmetry_equiv_pos_site_id
 _symmetry_equiv_pos_as_xyz
  1  'x, y, z'
loop_
 _atom_site_type_symbol
 _atom_site_label
 _atom_site_symmetry_multiplicity
 _atom_site_fract_x
 _atom_site_fract_y
 _atom_site_fract_z
 _atom_site_occupancy
  Sr  Sr0  1  0.04027900  0.72646800  0.99174200  1
  Sr  Sr1  1  0.45972100  0.77353200  0.49174200  1
  Sr  Sr2  1  0.54027900  0.77353200  0.00825800  1
  Sr  Sr3  1  0.95972100  0.72646800  0.50825800  1
  Sr  Sr4  1  0.95972100  0.27353200  0.00825800  1
  Sr  Sr5  1  0.54027900  0.22646800  0.50825800  1
  Sr  Sr6  1  0.45972100  0.22646800  0.99174200  1
  Sr  Sr7  1  0.04027900  0.27353200  0.49174200  1
  Sr  Sr8  1  0.22837400  0.84868000  0.62951600  1
  Sr  Sr9  1  0.27162600  0.65132000  0.12951600  1
  Sr  Sr10  1  0.72837400  0.65132000  0.37048400  1
  Sr  Sr11  1  0.77162600  0.84868000  0.87048400  1
  Sr  Sr12  1  0.77162600  0.15132000  0.37048400  1
  Sr  Sr13  1  0.72837400  0.34868000  0.87048400  1
  Sr  Sr14  1  0.27162600  0.34868000  0.62951600  1
  Sr  Sr15  1  0.22837400  0.15132000  0.12951600  1
  Sr  Sr16  1  0.27991100  0.61578900  0.88174800  1
  Sr  Sr17  1  0.22008900  0.88421100  0.38174800  1
  Sr  Sr18  1  0.77991100  0.88421100  0.11825200  1
  Sr  Sr19  1  0.72008900  0.61578900  0.61825200  1
  Sr  Sr20  1  0.72008900  0.38421100  0.11825200  1
  Sr  Sr21  1  0.77991100  0.11578900  0.61825200  1
  Sr  Sr22  1  0.22008900  0.11578900  0.88174800  1
  Sr  Sr23  1  0.27991100  0.38421100  0.38174800  1
  Sr  Sr24  1  0.00000000  0.47504700  0.75000000  1
  Sr  Sr25  1  0.50000000  0.02495300  0.25000000  1
  Sr  Sr26  1  0.00000000  0.52495300  0.25000000  1
  Sr  Sr27  1  0.50000000  0.97504700  0.75000000  1
  Hf  Hf28  1  0.00000000  0.97460100  0.75000000  1
  Hf  Hf29  1  0.50000000  0.52539900  0.25000000  1
  Hf  Hf30  1  0.00000000  0.02539900  0.25000000  1
  Hf  Hf31  1  0.50000000  0.47460100  0.75000000  1
  N  N32  1  0.11616000  0.78866000  0.81210700  1
  N  N33  1  0.38384000  0.71134000  0.31210700  1
  N  N34  1  0.61616000  0.71134000  0.18789300  1
  N  N35  1  0.88384000  0.78866000  0.68789300  1
  N  N36  1  0.88384000  0.21134000  0.18789300  1
  N  N37  1  0.61616000  0.28866000  0.68789300  1
  N  N38  1  0.38384000  0.28866000  0.81210700  1
  N  N39  1  0.11616000  0.21134000  0.31210700  1
  N  N40  1  0.15972800  0.60070200  0.50334400  1
  N  N41  1  0.34027200  0.89929800  0.00334400  1
  N  N42  1  0.65972800  0.89929800  0.49665600  1
  N  N43  1  0.84027200  0.60070200  0.99665600  1
  N  N44  1  0.84027200  0.39929800  0.49665600  1
  N  N45  1  0.65972800  0.10070200  0.99665600  1
  N  N46  1  0.34027200  0.10070200  0.50334400  1
  N  N47  1  0.15972800  0.39929800  0.00334400  1
  N  N48  1  0.41243800  0.66003500  0.66100000  1
  N  N49  1  0.08756200  0.83996500  0.16100000  1
  N  N50  1  0.91243800  0.83996500  0.33900000  1
  N  N51  1  0.58756200  0.66003500  0.83900000  1
  N  N52  1  0.58756200  0.33996500  0.33900000  1
  N  N53  1  0.91243800  0.16003500  0.83900000  1
  N  N54  1  0.08756200  0.16003500  0.66100000  1
  N  N55  1  0.41243800  0.33996500  0.16100000  1
