# generated using pymatgen
data_Y2Cd3N4
_symmetry_space_group_name_H-M   'P 1'
_cell_length_a   7.54080159
_cell_length_b   9.82675848
_cell_length_c   4.94233764
_cell_angle_alpha   89.99999450
_cell_angle_beta   87.05407745
_cell_angle_gamma   130.66027320
_symmetry_Int_Tables_number   1
_chemical_formula_structural   Y2Cd3N4
_chemical_formula_sum   'Y4 Cd6 N8'
_cell_volume   277.18276041
_cell_formula_units_Z   2
loop_
 _symmetry_equiv_pos_site_id
 _symmetry_equiv_pos_as_xyz
  1  'x, y, z'
loop_
 _atom_site_type_symbol
 _atom_site_label
 _atom_site_symmetry_multiplicity
 _atom_site_fract_x
 _atom_site_fract_y
 _atom_site_fract_z
 _atom_site_occupancy
  Y  Y0  1  0.77961700  0.25863200  0.51993300  1
  Y  Y1  1  0.22038300  0.47901500  0.98006700  1
  Y  Y2  1  0.22038300  0.74136800  0.48006700  1
  Y  Y3  1  0.77961700  0.52098500  0.01993300  1
  Cd  Cd4  1  0.40219100  0.08495100  0.06197200  1
  Cd  Cd5  1  0.59780900  0.68276000  0.43802800  1
  Cd  Cd6  1  0.59780900  0.91504900  0.93802800  1
  Cd  Cd7  1  0.40219100  0.31724000  0.56197200  1
  Cd  Cd8  1  0.00000000  0.90331600  0.75000000  1
  Cd  Cd9  1  0.00000000  0.09668400  0.25000000  1
  N  N10  1  0.33423400  0.04282400  0.53330600  1
  N  N11  1  0.66576600  0.70859200  0.96669400  1
  N  N12  1  0.66576600  0.95717600  0.46669400  1
  N  N13  1  0.33423400  0.29140800  0.03330600  1
  N  N14  1  0.80511400  0.28288000  0.00495000  1
  N  N15  1  0.19488600  0.47776700  0.49505000  1
  N  N16  1  0.19488600  0.71712000  0.99505000  1
  N  N17  1  0.80511400  0.52223300  0.50495000  1
