# generated using pymatgen
data_Li3NbN2
_symmetry_space_group_name_H-M   'P 1'
_cell_length_a   8.62965200
_cell_length_b   9.96466367
_cell_length_c   9.96466297
_cell_angle_alpha   90.00000216
_cell_angle_beta   125.26439073
_cell_angle_gamma   54.73561211
_symmetry_Int_Tables_number   1
_chemical_formula_structural   Li3NbN2
_chemical_formula_sum   'Li24 Nb8 N16'
_cell_volume   494.71825862
_cell_formula_units_Z   8
loop_
 _symmetry_equiv_pos_site_id
 _symmetry_equiv_pos_as_xyz
  1  'x, y, z'
loop_
 _atom_site_type_symbol
 _atom_site_label
 _atom_site_symmetry_multiplicity
 _atom_site_fract_x
 _atom_site_fract_y
 _atom_site_fract_z
 _atom_site_occupancy
  Li  Li0  1  0.21358600  0.05524700  0.99695000  1
  Li  Li1  1  0.78641400  0.76883300  0.50305000  1
  Li  Li2  1  0.78641400  0.44475300  0.78336400  1
  Li  Li3  1  0.21358600  0.73116700  0.71663600  1
  Li  Li4  1  0.21968500  0.78336400  0.27188300  1
  Li  Li5  1  0.78031500  0.71663600  0.05219700  1
  Li  Li6  1  0.21968500  0.99695000  0.44780300  1
  Li  Li7  1  0.78031500  0.50305000  0.22811700  1
  Li  Li8  1  0.67592000  0.05219700  0.73116700  1
  Li  Li9  1  0.67592000  0.27188300  0.44475300  1
  Li  Li10  1  0.32408000  0.22811700  0.76883300  1
  Li  Li11  1  0.32408000  0.44780300  0.05524700  1
  Li  Li12  1  0.78641400  0.94475300  0.00305000  1
  Li  Li13  1  0.21358600  0.23116700  0.49695000  1
  Li  Li14  1  0.21358600  0.55524700  0.21663600  1
  Li  Li15  1  0.78641400  0.26883300  0.28336400  1
  Li  Li16  1  0.78031500  0.21663600  0.72811700  1
  Li  Li17  1  0.21968500  0.28336400  0.94780300  1
  Li  Li18  1  0.78031500  0.00305000  0.55219700  1
  Li  Li19  1  0.21968500  0.49695000  0.77188300  1
  Li  Li20  1  0.32408000  0.94780300  0.26883300  1
  Li  Li21  1  0.32408000  0.72811700  0.55524700  1
  Li  Li22  1  0.67592000  0.77188300  0.23116700  1
  Li  Li23  1  0.67592000  0.55219700  0.94475300  1
  Nb  Nb24  1  0.23731700  0.00000000  0.73731700  1
  Nb  Nb25  1  0.76268300  0.73731700  0.76268300  1
  Nb  Nb26  1  0.76268300  0.50000000  0.50000000  1
  Nb  Nb27  1  0.23731700  0.76268300  0.00000000  1
  Nb  Nb28  1  0.76268300  0.00000000  0.26268300  1
  Nb  Nb29  1  0.23731700  0.26268300  0.23731700  1
  Nb  Nb30  1  0.23731700  0.50000000  0.50000000  1
  Nb  Nb31  1  0.76268300  0.23731700  0.00000000  1
  N  N32  1  0.00000000  0.00000000  0.50000000  1
  N  N33  1  0.00000000  0.50000000  0.00000000  1
  N  N34  1  0.00000000  0.50000000  0.50000000  1
  N  N35  1  0.00000000  0.00000000  0.00000000  1
  N  N36  1  0.50000000  0.98463700  0.75000000  1
  N  N37  1  0.50000000  0.51536300  0.25000000  1
  N  N38  1  0.00000000  0.25000000  0.73463700  1
  N  N39  1  0.00000000  0.75000000  0.76536300  1
  N  N40  1  0.53072400  0.73463700  0.51536300  1
  N  N41  1  0.46927600  0.76536300  0.98463700  1
  N  N42  1  0.50000000  0.01536300  0.25000000  1
  N  N43  1  0.50000000  0.48463700  0.75000000  1
  N  N44  1  0.00000000  0.75000000  0.26536300  1
  N  N45  1  0.00000000  0.25000000  0.23463700  1
  N  N46  1  0.46927600  0.26536300  0.48463700  1
  N  N47  1  0.53072400  0.23463700  0.01536300  1
