# generated using pymatgen
data_Li2VN2
_symmetry_space_group_name_H-M   'P 1'
_cell_length_a   3.00583501
_cell_length_b   3.00610693
_cell_length_c   5.51124001
_cell_angle_alpha   90.00189518
_cell_angle_beta   89.99434768
_cell_angle_gamma   120.00367766
_symmetry_Int_Tables_number   1
_chemical_formula_structural   Li2VN2
_chemical_formula_sum   'Li2 V1 N2'
_cell_volume   43.12542834
_cell_formula_units_Z   1
loop_
 _symmetry_equiv_pos_site_id
 _symmetry_equiv_pos_as_xyz
  1  'x, y, z'
loop_
 _atom_site_type_symbol
 _atom_site_label
 _atom_site_symmetry_multiplicity
 _atom_site_fract_x
 _atom_site_fract_y
 _atom_site_fract_z
 _atom_site_occupancy
  Li  Li0  1  0.66668300  0.33334000  0.36129700  1
  Li  Li1  1  0.33331700  0.66666000  0.63870300  1
  V  V2  1  0.00000000  0.00000000  0.00000000  1
  N  N3  1  0.66669700  0.33336000  0.79245500  1
  N  N4  1  0.33330300  0.66664000  0.20754500  1
