# generated using pymatgen
data_Sr3(ReN2)2
_symmetry_space_group_name_H-M   'P 1'
_cell_length_a   7.40098657
_cell_length_b   9.65208994
_cell_length_c   5.56486953
_cell_angle_alpha   90.00000150
_cell_angle_beta   96.93731325
_cell_angle_gamma   130.69871087
_symmetry_Int_Tables_number   1
_chemical_formula_structural   Sr3(ReN2)2
_chemical_formula_sum   'Sr6 Re4 N8'
_cell_volume   297.53497173
_cell_formula_units_Z   2
loop_
 _symmetry_equiv_pos_site_id
 _symmetry_equiv_pos_as_xyz
  1  'x, y, z'
loop_
 _atom_site_type_symbol
 _atom_site_label
 _atom_site_symmetry_multiplicity
 _atom_site_fract_x
 _atom_site_fract_y
 _atom_site_fract_z
 _atom_site_occupancy
  Sr  Sr0  1  0.24850300  0.00895500  0.03907500  1
  Sr  Sr1  1  0.75149700  0.76045200  0.46092500  1
  Sr  Sr2  1  0.75149700  0.99104500  0.96092500  1
  Sr  Sr3  1  0.24850300  0.23954800  0.53907500  1
  Sr  Sr4  1  0.00000000  0.61175600  0.75000000  1
  Sr  Sr5  1  0.00000000  0.38824400  0.25000000  1
  Re  Re6  1  0.60616600  0.16437100  0.58906200  1
  Re  Re7  1  0.39383400  0.55820500  0.91093800  1
  Re  Re8  1  0.39383400  0.83562900  0.41093800  1
  Re  Re9  1  0.60616600  0.44179500  0.08906200  1
  N  N10  1  0.23720600  0.93910400  0.52180400  1
  N  N11  1  0.76279400  0.70189800  0.97819600  1
  N  N12  1  0.76279400  0.06089600  0.47819600  1
  N  N13  1  0.23720600  0.29810200  0.02180400  1
  N  N14  1  0.64052400  0.29868700  0.88563400  1
  N  N15  1  0.35947600  0.65816400  0.61436600  1
  N  N16  1  0.35947600  0.70131300  0.11436600  1
  N  N17  1  0.64052400  0.34183600  0.38563400  1
