# generated using pymatgen
data_Y2FeN3
_symmetry_space_group_name_H-M   'P 1'
_cell_length_a   5.87060928
_cell_length_b   10.58836569
_cell_length_c   11.35646827
_cell_angle_alpha   89.99999747
_cell_angle_beta   91.54996843
_cell_angle_gamma   154.39720502
_symmetry_Int_Tables_number   1
_chemical_formula_structural   Y2FeN3
_chemical_formula_sum   'Y8 Fe4 N12'
_cell_volume   304.45078845
_cell_formula_units_Z   4
loop_
 _symmetry_equiv_pos_site_id
 _symmetry_equiv_pos_as_xyz
  1  'x, y, z'
loop_
 _atom_site_type_symbol
 _atom_site_label
 _atom_site_symmetry_multiplicity
 _atom_site_fract_x
 _atom_site_fract_y
 _atom_site_fract_z
 _atom_site_occupancy
  Y  Y0  1  0.46749200  0.02648600  0.85233900  1
  Y  Y1  1  0.53250800  0.55899600  0.64766100  1
  Y  Y2  1  0.53250800  0.97351400  0.14766100  1
  Y  Y3  1  0.46749200  0.44100400  0.35233900  1
  Y  Y4  1  0.51808400  0.86369600  0.56360400  1
  Y  Y5  1  0.48191600  0.34561100  0.93639600  1
  Y  Y6  1  0.48191600  0.13630400  0.43639600  1
  Y  Y7  1  0.51808400  0.65438900  0.06360400  1
  Fe  Fe8  1  0.57082800  0.28171900  0.67605900  1
  Fe  Fe9  1  0.42917200  0.71089000  0.82394100  1
  Fe  Fe10  1  0.42917200  0.71828100  0.32394100  1
  Fe  Fe11  1  0.57082800  0.28911000  0.17605900  1
  N  N12  1  0.00000000  0.61548200  0.75000000  1
  N  N13  1  0.00000000  0.38451800  0.25000000  1
  N  N14  1  0.58434900  0.10838700  0.63201600  1
  N  N15  1  0.41565100  0.52403800  0.86798400  1
  N  N16  1  0.41565100  0.89161300  0.36798400  1
  N  N17  1  0.58434900  0.47596200  0.13201600  1
  N  N18  1  0.48718700  0.14490200  0.03300500  1
  N  N19  1  0.51281300  0.65771400  0.46699500  1
  N  N20  1  0.51281300  0.85509800  0.96699500  1
  N  N21  1  0.48718700  0.34228600  0.53300500  1
  N  N22  1  0.00000000  0.99678800  0.75000000  1
  N  N23  1  0.00000000  0.00321200  0.25000000  1
