# generated using pymatgen
data_Sr3(ReN2)2
_symmetry_space_group_name_H-M   'P 1'
_cell_length_a   6.07354938
_cell_length_b   10.17591421
_cell_length_c   9.85875933
_cell_angle_alpha   90.00000000
_cell_angle_beta   90.00000000
_cell_angle_gamma   90.00000000
_symmetry_Int_Tables_number   1
_chemical_formula_structural   Sr3(ReN2)2
_chemical_formula_sum   'Sr12 Re8 N16'
_cell_volume   609.30994770
_cell_formula_units_Z   4
loop_
 _symmetry_equiv_pos_site_id
 _symmetry_equiv_pos_as_xyz
  1  'x, y, z'
loop_
 _atom_site_type_symbol
 _atom_site_label
 _atom_site_symmetry_multiplicity
 _atom_site_fract_x
 _atom_site_fract_y
 _atom_site_fract_z
 _atom_site_occupancy
  Sr  Sr0  1  0.62320454  0.16062747  0.41707122  1
  Sr  Sr1  1  0.87679546  0.83937253  0.41707122  1
  Sr  Sr2  1  0.62320454  0.33937253  0.08292878  1
  Sr  Sr3  1  0.87679546  0.66062747  0.08292878  1
  Sr  Sr4  1  0.37679546  0.83937253  0.58292878  1
  Sr  Sr5  1  0.12320454  0.16062747  0.58292878  1
  Sr  Sr6  1  0.37679546  0.66062747  0.91707122  1
  Sr  Sr7  1  0.12320454  0.33937253  0.91707122  1
  Sr  Sr8  1  0.75000000  0.50000000  0.40377542  1
  Sr  Sr9  1  0.75000000  0.00000000  0.09622458  1
  Sr  Sr10  1  0.25000000  0.50000000  0.59622458  1
  Sr  Sr11  1  0.25000000  0.00000000  0.90377542  1
  Re  Re12  1  0.75000000  0.50000000  0.73776410  1
  Re  Re13  1  0.75000000  0.00000000  0.76223590  1
  Re  Re14  1  0.25000000  0.50000000  0.26223590  1
  Re  Re15  1  0.25000000  0.00000000  0.23776410  1
  Re  Re16  1  0.62404363  0.25000000  0.75000000  1
  Re  Re17  1  0.87595637  0.75000000  0.75000000  1
  Re  Re18  1  0.37595637  0.75000000  0.25000000  1
  Re  Re19  1  0.12404363  0.25000000  0.25000000  1
  N  N20  1  0.87956837  0.35312871  0.63866416  1
  N  N21  1  0.62043163  0.64687129  0.63866416  1
  N  N22  1  0.87956837  0.14687129  0.86133584  1
  N  N23  1  0.62043163  0.85312871  0.86133584  1
  N  N24  1  0.12043163  0.64687129  0.36133584  1
  N  N25  1  0.37956837  0.35312871  0.36133584  1
  N  N26  1  0.12043163  0.85312871  0.13866416  1
  N  N27  1  0.37956837  0.14687129  0.13866416  1
  N  N28  1  0.50963948  0.41719331  0.84155027  1
  N  N29  1  0.99036052  0.58280669  0.84155027  1
  N  N30  1  0.50963948  0.08280669  0.65844973  1
  N  N31  1  0.99036052  0.91719331  0.65844973  1
  N  N32  1  0.49036052  0.58280669  0.15844973  1
  N  N33  1  0.00963948  0.41719331  0.15844973  1
  N  N34  1  0.49036052  0.91719331  0.34155027  1
  N  N35  1  0.00963948  0.08280669  0.34155027  1
