# generated using pymatgen
data_SrSnN2
_symmetry_space_group_name_H-M   'P 1'
_cell_length_a   4.01703800
_cell_length_b   4.01703800
_cell_length_c   8.49627600
_cell_angle_alpha   90.00000000
_cell_angle_beta   90.00000000
_cell_angle_gamma   90.00000000
_symmetry_Int_Tables_number   1
_chemical_formula_structural   SrSnN2
_chemical_formula_sum   'Sr2 Sn2 N4'
_cell_volume   137.10095882
_cell_formula_units_Z   2
loop_
 _symmetry_equiv_pos_site_id
 _symmetry_equiv_pos_as_xyz
  1  'x, y, z'
loop_
 _atom_site_type_symbol
 _atom_site_label
 _atom_site_symmetry_multiplicity
 _atom_site_fract_x
 _atom_site_fract_y
 _atom_site_fract_z
 _atom_site_occupancy
  Sr  Sr0  1  0.75000000  0.75000000  0.13834000  1
  Sr  Sr1  1  0.25000000  0.25000000  0.86166000  1
  Sn  Sn2  1  0.75000000  0.75000000  0.60673200  1
  Sn  Sn3  1  0.25000000  0.25000000  0.39326800  1
  N  N4  1  0.75000000  0.25000000  0.50000000  1
  N  N5  1  0.25000000  0.75000000  0.50000000  1
  N  N6  1  0.75000000  0.75000000  0.84798100  1
  N  N7  1  0.25000000  0.25000000  0.15201900  1
