# generated using pymatgen
data_Rb2ZrN2
_symmetry_space_group_name_H-M   'P 1'
_cell_length_a   3.44300700
_cell_length_b   3.44300853
_cell_length_c   10.96311800
_cell_angle_alpha   90.00000118
_cell_angle_beta   89.99997744
_cell_angle_gamma   120.00001159
_symmetry_Int_Tables_number   1
_chemical_formula_structural   Rb2ZrN2
_chemical_formula_sum   'Rb2 Zr1 N2'
_cell_volume   112.54874932
_cell_formula_units_Z   1
loop_
 _symmetry_equiv_pos_site_id
 _symmetry_equiv_pos_as_xyz
  1  'x, y, z'
loop_
 _atom_site_type_symbol
 _atom_site_label
 _atom_site_symmetry_multiplicity
 _atom_site_fract_x
 _atom_site_fract_y
 _atom_site_fract_z
 _atom_site_occupancy
  Rb  Rb0  1  0.66666800  0.33333400  0.28234600  1
  Rb  Rb1  1  0.33333200  0.66666600  0.71765400  1
  Zr  Zr2  1  0.00000000  0.00000000  0.00000000  1
  N  N3  1  0.66666700  0.33333300  0.89622000  1
  N  N4  1  0.33333300  0.66666700  0.10378000  1
