# generated using pymatgen
data_Mg3(FeN2)2
_symmetry_space_group_name_H-M   'P 1'
_cell_length_a   6.12272511
_cell_length_b   7.58398892
_cell_length_c   5.13019357
_cell_angle_alpha   89.99999785
_cell_angle_beta   90.34287323
_cell_angle_gamma   128.26730124
_symmetry_Int_Tables_number   1
_chemical_formula_structural   Mg3(FeN2)2
_chemical_formula_sum   'Mg6 Fe4 N8'
_cell_volume   187.02735536
_cell_formula_units_Z   2
loop_
 _symmetry_equiv_pos_site_id
 _symmetry_equiv_pos_as_xyz
  1  'x, y, z'
loop_
 _atom_site_type_symbol
 _atom_site_label
 _atom_site_symmetry_multiplicity
 _atom_site_fract_x
 _atom_site_fract_y
 _atom_site_fract_z
 _atom_site_occupancy
  Mg  Mg0  1  0.23012500  0.98593000  0.04750900  1
  Mg  Mg1  1  0.76987500  0.75580500  0.45249100  1
  Mg  Mg2  1  0.76987500  0.01407000  0.95249100  1
  Mg  Mg3  1  0.23012500  0.24419500  0.54750900  1
  Mg  Mg4  1  0.00000000  0.60410100  0.75000000  1
  Mg  Mg5  1  0.00000000  0.39589900  0.25000000  1
  Fe  Fe6  1  0.59520400  0.17095000  0.60676500  1
  Fe  Fe7  1  0.40479600  0.57574600  0.89323500  1
  Fe  Fe8  1  0.40479600  0.82905000  0.39323500  1
  Fe  Fe9  1  0.59520400  0.42425400  0.10676500  1
  N  N10  1  0.21247800  0.93670100  0.51798300  1
  N  N11  1  0.78752200  0.72422300  0.98201700  1
  N  N12  1  0.78752200  0.06329900  0.48201700  1
  N  N13  1  0.21247800  0.27577700  0.01798300  1
  N  N14  1  0.68578700  0.25983900  0.94622300  1
  N  N15  1  0.31421300  0.57405200  0.55377700  1
  N  N16  1  0.31421300  0.74016100  0.05377700  1
  N  N17  1  0.68578700  0.42594800  0.44622300  1
