# generated using pymatgen
data_CsSi2N3
_symmetry_space_group_name_H-M   'P 1'
_cell_length_a   5.71321158
_cell_length_b   5.91662138
_cell_length_c   5.22987400
_cell_angle_alpha   90.00000000
_cell_angle_beta   90.00000000
_cell_angle_gamma   121.18491354
_symmetry_Int_Tables_number   1
_chemical_formula_structural   CsSi2N3
_chemical_formula_sum   'Cs2 Si4 N6'
_cell_volume   151.23964408
_cell_formula_units_Z   2
loop_
 _symmetry_equiv_pos_site_id
 _symmetry_equiv_pos_as_xyz
  1  'x, y, z'
loop_
 _atom_site_type_symbol
 _atom_site_label
 _atom_site_symmetry_multiplicity
 _atom_site_fract_x
 _atom_site_fract_y
 _atom_site_fract_z
 _atom_site_occupancy
  Cs  Cs0  1  0.00000000  0.64875700  0.48881200  1
  Cs  Cs1  1  0.00000000  0.35124300  0.98881200  1
  Si  Si2  1  0.34797000  0.30905700  0.48797000  1
  Si  Si3  1  0.65203000  0.96108700  0.48797000  1
  Si  Si4  1  0.65203000  0.69094300  0.98797000  1
  Si  Si5  1  0.34797000  0.03891300  0.98797000  1
  N  N6  1  0.48114700  0.35971700  0.82013000  1
  N  N7  1  0.51885300  0.87857000  0.82013000  1
  N  N8  1  0.51885300  0.64028300  0.32013000  1
  N  N9  1  0.48114700  0.12143000  0.32013000  1
  N  N10  1  0.00000000  0.85090400  0.98298800  1
  N  N11  1  0.00000000  0.14909600  0.48298800  1
