# generated using pymatgen
data_TeCN2
_symmetry_space_group_name_H-M   'P 1'
_cell_length_a   4.14735100
_cell_length_b   5.55307844
_cell_length_c   6.60449361
_cell_angle_alpha   112.70841995
_cell_angle_beta   90.00000000
_cell_angle_gamma   90.00000000
_symmetry_Int_Tables_number   1
_chemical_formula_structural   TeCN2
_chemical_formula_sum   'Te2 C2 N4'
_cell_volume   140.31423334
_cell_formula_units_Z   2
loop_
 _symmetry_equiv_pos_site_id
 _symmetry_equiv_pos_as_xyz
  1  'x, y, z'
loop_
 _atom_site_type_symbol
 _atom_site_label
 _atom_site_symmetry_multiplicity
 _atom_site_fract_x
 _atom_site_fract_y
 _atom_site_fract_z
 _atom_site_occupancy
  Te  Te0  1  0.25000000  0.79343900  0.41086700  1
  Te  Te1  1  0.75000000  0.20656100  0.58913300  1
  C  C2  1  0.25000000  0.69166200  0.94895700  1
  C  C3  1  0.75000000  0.30833800  0.05104300  1
  N  N4  1  0.25000000  0.53883800  0.75858800  1
  N  N5  1  0.75000000  0.46116200  0.24141200  1
  N  N6  1  0.75000000  0.12862300  0.86255800  1
  N  N7  1  0.25000000  0.87137700  0.13744200  1
