# generated using pymatgen
data_Ca4RhN4
_symmetry_space_group_name_H-M   'P 1'
_cell_length_a   12.17582543
_cell_length_b   4.55308115
_cell_length_c   11.05973657
_cell_angle_alpha   90.00000000
_cell_angle_beta   90.00000000
_cell_angle_gamma   90.00000000
_symmetry_Int_Tables_number   1
_chemical_formula_structural   Ca4RhN4
_chemical_formula_sum   'Ca16 Rh4 N16'
_cell_volume   613.12438113
_cell_formula_units_Z   4
loop_
 _symmetry_equiv_pos_site_id
 _symmetry_equiv_pos_as_xyz
  1  'x, y, z'
loop_
 _atom_site_type_symbol
 _atom_site_label
 _atom_site_symmetry_multiplicity
 _atom_site_fract_x
 _atom_site_fract_y
 _atom_site_fract_z
 _atom_site_occupancy
  Ca  Ca0  1  0.05898908  0.25000000  0.09004550  1
  Ca  Ca1  1  0.55898908  0.25000000  0.40995450  1
  Ca  Ca2  1  0.94101092  0.75000000  0.90995450  1
  Ca  Ca3  1  0.44101092  0.75000000  0.59004550  1
  Ca  Ca4  1  0.71149487  0.25000000  0.99603968  1
  Ca  Ca5  1  0.21149487  0.25000000  0.50396032  1
  Ca  Ca6  1  0.28850513  0.75000000  0.00396032  1
  Ca  Ca7  1  0.78850513  0.75000000  0.49603968  1
  Ca  Ca8  1  0.42075834  0.25000000  0.81986345  1
  Ca  Ca9  1  0.92075834  0.25000000  0.68013655  1
  Ca  Ca10  1  0.57924166  0.75000000  0.18013655  1
  Ca  Ca11  1  0.07924166  0.75000000  0.31986345  1
  Ca  Ca12  1  0.15401581  0.25000000  0.79196133  1
  Ca  Ca13  1  0.65401581  0.25000000  0.70803867  1
  Ca  Ca14  1  0.84598419  0.75000000  0.20803867  1
  Ca  Ca15  1  0.34598419  0.75000000  0.29196133  1
  Rh  Rh16  1  0.43347973  0.25000000  0.08742062  1
  Rh  Rh17  1  0.93347973  0.25000000  0.41257938  1
  Rh  Rh18  1  0.56652027  0.75000000  0.91257938  1
  Rh  Rh19  1  0.06652027  0.75000000  0.58742062  1
  N  N20  1  0.75628728  0.25000000  0.20701495  1
  N  N21  1  0.25628728  0.25000000  0.29298505  1
  N  N22  1  0.24371272  0.75000000  0.79298505  1
  N  N23  1  0.74371272  0.75000000  0.70701495  1
  N  N24  1  0.99289872  0.25000000  0.87888166  1
  N  N25  1  0.49289872  0.25000000  0.62111834  1
  N  N26  1  0.00710128  0.75000000  0.12111834  1
  N  N27  1  0.50710128  0.75000000  0.37888166  1
  N  N28  1  0.88059364  0.25000000  0.91024934  1
  N  N29  1  0.38059364  0.25000000  0.58975066  1
  N  N30  1  0.11940636  0.75000000  0.08975066  1
  N  N31  1  0.61940636  0.75000000  0.41024934  1
  N  N32  1  0.81089656  0.25000000  0.30486395  1
  N  N33  1  0.31089656  0.25000000  0.19513605  1
  N  N34  1  0.18910344  0.75000000  0.69513605  1
  N  N35  1  0.68910344  0.75000000  0.80486395  1
