# generated using pymatgen
data_Ca2PbN2
_symmetry_space_group_name_H-M   'P 1'
_cell_length_a   3.59734900
_cell_length_b   3.60744200
_cell_length_c   13.90677400
_cell_angle_alpha   90.00000000
_cell_angle_beta   90.00000000
_cell_angle_gamma   90.00000000
_symmetry_Int_Tables_number   1
_chemical_formula_structural   Ca2PbN2
_chemical_formula_sum   'Ca4 Pb2 N4'
_cell_volume   180.47137515
_cell_formula_units_Z   2
loop_
 _symmetry_equiv_pos_site_id
 _symmetry_equiv_pos_as_xyz
  1  'x, y, z'
loop_
 _atom_site_type_symbol
 _atom_site_label
 _atom_site_symmetry_multiplicity
 _atom_site_fract_x
 _atom_site_fract_y
 _atom_site_fract_z
 _atom_site_occupancy
  Ca  Ca0  1  0.75000000  0.75165800  0.08109300  1
  Ca  Ca1  1  0.75000000  0.75165800  0.41890700  1
  Ca  Ca2  1  0.25000000  0.24834200  0.91890700  1
  Ca  Ca3  1  0.25000000  0.24834200  0.58109300  1
  Pb  Pb4  1  0.75000000  0.65221400  0.75000000  1
  Pb  Pb5  1  0.25000000  0.34778600  0.25000000  1
  N  N6  1  0.75000000  0.77782100  0.59163700  1
  N  N7  1  0.75000000  0.77782100  0.90836300  1
  N  N8  1  0.25000000  0.22217900  0.40836300  1
  N  N9  1  0.25000000  0.22217900  0.09163700  1
