# generated using pymatgen
data_ScAlN2
_symmetry_space_group_name_H-M   'P 1'
_cell_length_a   5.78284100
_cell_length_b   6.78861300
_cell_length_c   5.03439100
_cell_angle_alpha   90.00000000
_cell_angle_beta   90.00000000
_cell_angle_gamma   90.00000000
_symmetry_Int_Tables_number   1
_chemical_formula_structural   ScAlN2
_chemical_formula_sum   'Sc4 Al4 N8'
_cell_volume   197.63745158
_cell_formula_units_Z   4
loop_
 _symmetry_equiv_pos_site_id
 _symmetry_equiv_pos_as_xyz
  1  'x, y, z'
loop_
 _atom_site_type_symbol
 _atom_site_label
 _atom_site_symmetry_multiplicity
 _atom_site_fract_x
 _atom_site_fract_y
 _atom_site_fract_z
 _atom_site_occupancy
  Sc  Sc0  1  0.59275600  0.87593300  0.97131300  1
  Sc  Sc1  1  0.40724400  0.12406700  0.47131300  1
  Sc  Sc2  1  0.90724400  0.37593300  0.47131300  1
  Sc  Sc3  1  0.09275600  0.62406700  0.97131300  1
  Al  Al4  1  0.57587500  0.37362300  0.98715100  1
  Al  Al5  1  0.42412500  0.62637700  0.48715100  1
  Al  Al6  1  0.92412500  0.87362300  0.48715100  1
  Al  Al7  1  0.07587500  0.12637700  0.98715100  1
  N  N8  1  0.59904300  0.85936700  0.39922100  1
  N  N9  1  0.40095700  0.14063300  0.89922100  1
  N  N10  1  0.90095700  0.35936700  0.89922100  1
  N  N11  1  0.09904300  0.64063300  0.39922100  1
  N  N12  1  0.56085600  0.39042700  0.36431400  1
  N  N13  1  0.43914400  0.60957300  0.86431400  1
  N  N14  1  0.93914400  0.89042700  0.86431400  1
  N  N15  1  0.06085600  0.10957300  0.36431400  1
