# generated using pymatgen
data_Mg3(InN2)2
_symmetry_space_group_name_H-M   'P 1'
_cell_length_a   6.51097430
_cell_length_b   8.86459398
_cell_length_c   5.63378613
_cell_angle_alpha   90.00000371
_cell_angle_beta   91.85940546
_cell_angle_gamma   132.90168955
_symmetry_Int_Tables_number   1
_chemical_formula_structural   Mg3(InN2)2
_chemical_formula_sum   'Mg6 In4 N8'
_cell_volume   237.95776205
_cell_formula_units_Z   2
loop_
 _symmetry_equiv_pos_site_id
 _symmetry_equiv_pos_as_xyz
  1  'x, y, z'
loop_
 _atom_site_type_symbol
 _atom_site_label
 _atom_site_symmetry_multiplicity
 _atom_site_fract_x
 _atom_site_fract_y
 _atom_site_fract_z
 _atom_site_occupancy
  Mg  Mg0  1  0.23740900  0.01691900  0.10169500  1
  Mg  Mg1  1  0.76259100  0.77951000  0.39830500  1
  Mg  Mg2  1  0.76259100  0.98308100  0.89830500  1
  Mg  Mg3  1  0.23740900  0.22049000  0.60169500  1
  Mg  Mg4  1  0.00000000  0.70800400  0.75000000  1
  Mg  Mg5  1  0.00000000  0.29199600  0.25000000  1
  In  In6  1  0.65472600  0.20665300  0.64702800  1
  In  In7  1  0.34527400  0.55192800  0.85297200  1
  In  In8  1  0.34527400  0.79334700  0.35297200  1
  In  In9  1  0.65472600  0.44807200  0.14702800  1
  N  N10  1  0.19843400  0.94884300  0.48733700  1
  N  N11  1  0.80156600  0.75040900  0.01266300  1
  N  N12  1  0.80156600  0.05115700  0.51266300  1
  N  N13  1  0.19843400  0.24959100  0.98733700  1
  N  N14  1  0.67762300  0.22651500  0.03326800  1
  N  N15  1  0.32237700  0.54889100  0.46673200  1
  N  N16  1  0.32237700  0.77348500  0.96673200  1
  N  N17  1  0.67762300  0.45110900  0.53326800  1
