# generated using pymatgen
data_Si2TeN2
_symmetry_space_group_name_H-M   'P 1'
_cell_length_a   6.70421959
_cell_length_b   5.65569425
_cell_length_c   5.00756100
_cell_angle_alpha   90.00000000
_cell_angle_beta   90.00000000
_cell_angle_gamma   114.94835472
_symmetry_Int_Tables_number   1
_chemical_formula_structural   Si2TeN2
_chemical_formula_sum   'Si4 Te2 N4'
_cell_volume   172.15452495
_cell_formula_units_Z   2
loop_
 _symmetry_equiv_pos_site_id
 _symmetry_equiv_pos_as_xyz
  1  'x, y, z'
loop_
 _atom_site_type_symbol
 _atom_site_label
 _atom_site_symmetry_multiplicity
 _atom_site_fract_x
 _atom_site_fract_y
 _atom_site_fract_z
 _atom_site_occupancy
  Si  Si0  1  0.60498500  0.15961200  0.86370000  1
  Si  Si1  1  0.39501500  0.55462700  0.86370000  1
  Si  Si2  1  0.39501500  0.84038800  0.36370000  1
  Si  Si3  1  0.60498500  0.44537300  0.36370000  1
  Te  Te4  1  0.00000000  0.76115100  0.46368400  1
  Te  Te5  1  0.00000000  0.23884900  0.96368400  1
  N  N6  1  0.52528900  0.14382200  0.20125800  1
  N  N7  1  0.47471100  0.61853300  0.20125800  1
  N  N8  1  0.47471100  0.85617800  0.70125800  1
  N  N9  1  0.52528900  0.38146700  0.70125800  1
