# generated using pymatgen
data_Ba4TiN4
_symmetry_space_group_name_H-M   'P 1'
_cell_length_a   6.81611955
_cell_length_b   6.91072778
_cell_length_c   9.68902066
_cell_angle_alpha   72.37854134
_cell_angle_beta   80.35183348
_cell_angle_gamma   66.14121428
_symmetry_Int_Tables_number   1
_chemical_formula_structural   Ba4TiN4
_chemical_formula_sum   'Ba8 Ti2 N8'
_cell_volume   397.27455983
_cell_formula_units_Z   2
loop_
 _symmetry_equiv_pos_site_id
 _symmetry_equiv_pos_as_xyz
  1  'x, y, z'
loop_
 _atom_site_type_symbol
 _atom_site_label
 _atom_site_symmetry_multiplicity
 _atom_site_fract_x
 _atom_site_fract_y
 _atom_site_fract_z
 _atom_site_occupancy
  Ba  Ba0  1  0.77875200  0.57565000  0.15282100  1
  Ba  Ba1  1  0.22124800  0.42435000  0.84717900  1
  Ba  Ba2  1  0.73822300  0.22557600  0.96423500  1
  Ba  Ba3  1  0.26177700  0.77442400  0.03576500  1
  Ba  Ba4  1  0.71564500  0.50319900  0.56292800  1
  Ba  Ba5  1  0.28435500  0.49680100  0.43707200  1
  Ba  Ba6  1  0.21680600  0.96830300  0.61962000  1
  Ba  Ba7  1  0.78319400  0.03169700  0.38038000  1
  Ti  Ti8  1  0.73478000  0.83993800  0.75519800  1
  Ti  Ti9  1  0.26522000  0.16006200  0.24480200  1
  N  N10  1  0.95618000  0.69139800  0.62242400  1
  N  N11  1  0.04382000  0.30860200  0.37757600  1
  N  N12  1  0.90862700  0.81357800  0.91081600  1
  N  N13  1  0.09137300  0.18642200  0.08918400  1
  N  N14  1  0.54838600  0.67063000  0.81700400  1
  N  N15  1  0.45161400  0.32937000  0.18299600  1
  N  N16  1  0.43068800  0.86004600  0.35960000  1
  N  N17  1  0.56931200  0.13995400  0.64040000  1
