# generated using pymatgen
data_Ca4RuN4
_symmetry_space_group_name_H-M   'P 1'
_cell_length_a   11.52758600
_cell_length_b   3.52632100
_cell_length_c   15.15927400
_cell_angle_alpha   90.00000000
_cell_angle_beta   90.00000000
_cell_angle_gamma   90.00000000
_symmetry_Int_Tables_number   1
_chemical_formula_structural   Ca4RuN4
_chemical_formula_sum   'Ca16 Ru4 N16'
_cell_volume   616.22401196
_cell_formula_units_Z   4
loop_
 _symmetry_equiv_pos_site_id
 _symmetry_equiv_pos_as_xyz
  1  'x, y, z'
loop_
 _atom_site_type_symbol
 _atom_site_label
 _atom_site_symmetry_multiplicity
 _atom_site_fract_x
 _atom_site_fract_y
 _atom_site_fract_z
 _atom_site_occupancy
  Ca  Ca0  1  0.98638600  0.25000000  0.18401700  1
  Ca  Ca1  1  0.48638600  0.25000000  0.31598300  1
  Ca  Ca2  1  0.01361400  0.75000000  0.81598300  1
  Ca  Ca3  1  0.51361400  0.75000000  0.68401700  1
  Ca  Ca4  1  0.87248300  0.25000000  0.98191400  1
  Ca  Ca5  1  0.37248300  0.25000000  0.51808600  1
  Ca  Ca6  1  0.12751700  0.75000000  0.01808600  1
  Ca  Ca7  1  0.62751700  0.75000000  0.48191400  1
  Ca  Ca8  1  0.37799500  0.25000000  0.94235800  1
  Ca  Ca9  1  0.87799500  0.25000000  0.55764200  1
  Ca  Ca10  1  0.62200500  0.75000000  0.05764200  1
  Ca  Ca11  1  0.12200500  0.75000000  0.44235800  1
  Ca  Ca12  1  0.24175100  0.25000000  0.73105700  1
  Ca  Ca13  1  0.74175100  0.25000000  0.76894300  1
  Ca  Ca14  1  0.75824900  0.75000000  0.26894300  1
  Ca  Ca15  1  0.25824900  0.75000000  0.23105700  1
  Ru  Ru16  1  0.43067900  0.25000000  0.13094900  1
  Ru  Ru17  1  0.93067900  0.25000000  0.36905100  1
  Ru  Ru18  1  0.56932100  0.75000000  0.86905100  1
  Ru  Ru19  1  0.06932100  0.75000000  0.63094900  1
  N  N20  1  0.67874700  0.25000000  0.36707900  1
  N  N21  1  0.17874700  0.25000000  0.13292100  1
  N  N22  1  0.32125300  0.75000000  0.63292100  1
  N  N23  1  0.82125300  0.75000000  0.86707900  1
  N  N24  1  0.16048300  0.25000000  0.87972900  1
  N  N25  1  0.66048300  0.25000000  0.62027100  1
  N  N26  1  0.83951700  0.75000000  0.12027100  1
  N  N27  1  0.33951700  0.75000000  0.37972900  1
  N  N28  1  0.05562700  0.25000000  0.92016700  1
  N  N29  1  0.55562700  0.25000000  0.57983300  1
  N  N30  1  0.94437300  0.75000000  0.07983300  1
  N  N31  1  0.44437300  0.75000000  0.42016700  1
  N  N32  1  0.77538800  0.25000000  0.41395100  1
  N  N33  1  0.27538800  0.25000000  0.08604900  1
  N  N34  1  0.22461200  0.75000000  0.58604900  1
  N  N35  1  0.72461200  0.75000000  0.91395100  1
