# generated using pymatgen
data_Sn(C4N3)2
_symmetry_space_group_name_H-M   'P 1'
_cell_length_a   5.72733300
_cell_length_b   8.42246700
_cell_length_c   11.45896500
_cell_angle_alpha   90.00000000
_cell_angle_beta   90.00000000
_cell_angle_gamma   90.00000000
_symmetry_Int_Tables_number   1
_chemical_formula_structural   Sn(C4N3)2
_chemical_formula_sum   'Sn2 C16 N12'
_cell_volume   552.76068415
_cell_formula_units_Z   2
loop_
 _symmetry_equiv_pos_site_id
 _symmetry_equiv_pos_as_xyz
  1  'x, y, z'
loop_
 _atom_site_type_symbol
 _atom_site_label
 _atom_site_symmetry_multiplicity
 _atom_site_fract_x
 _atom_site_fract_y
 _atom_site_fract_z
 _atom_site_occupancy
  Sn  Sn0  1  0.00000000  0.50000000  0.50000000  1
  Sn  Sn1  1  0.00000000  0.00000000  0.00000000  1
  C  C2  1  0.40153400  0.00000000  0.73931800  1
  C  C3  1  0.40153400  0.50000000  0.76068200  1
  C  C4  1  0.59846600  0.00000000  0.26068200  1
  C  C5  1  0.59846600  0.50000000  0.23931800  1
  C  C6  1  0.58985600  0.00000000  0.66085000  1
  C  C7  1  0.58985600  0.50000000  0.83915000  1
  C  C8  1  0.41014400  0.00000000  0.33915000  1
  C  C9  1  0.41014400  0.50000000  0.16085000  1
  C  C10  1  0.68519000  0.14352200  0.62118100  1
  C  C11  1  0.68519000  0.35647800  0.87881900  1
  C  C12  1  0.31481000  0.14352200  0.37881900  1
  C  C13  1  0.68519000  0.64352200  0.87881900  1
  C  C14  1  0.31481000  0.85647800  0.37881900  1
  C  C15  1  0.31481000  0.64352200  0.12118100  1
  C  C16  1  0.68519000  0.85647800  0.62118100  1
  C  C17  1  0.31481000  0.35647800  0.12118100  1
  N  N18  1  0.76417000  0.26324800  0.58714100  1
  N  N19  1  0.76417000  0.23675200  0.91285900  1
  N  N20  1  0.23583000  0.26324800  0.41285900  1
  N  N21  1  0.76417000  0.76324800  0.91285900  1
  N  N22  1  0.23583000  0.73675200  0.41285900  1
  N  N23  1  0.23583000  0.76324800  0.08714100  1
  N  N24  1  0.76417000  0.73675200  0.58714100  1
  N  N25  1  0.23583000  0.23675200  0.08714100  1
  N  N26  1  0.24228800  0.00000000  0.80371600  1
  N  N27  1  0.24228800  0.50000000  0.69628400  1
  N  N28  1  0.75771200  0.00000000  0.19628400  1
  N  N29  1  0.75771200  0.50000000  0.30371600  1
