# generated using pymatgen
data_Al2Zn3N4
_symmetry_space_group_name_H-M   'P 1'
_cell_length_a   6.29030077
_cell_length_b   9.00412672
_cell_length_c   5.30788966
_cell_angle_alpha   90.00000091
_cell_angle_beta   93.32165836
_cell_angle_gamma   135.70183421
_symmetry_Int_Tables_number   1
_chemical_formula_structural   Al2Zn3N4
_chemical_formula_sum   'Al4 Zn6 N8'
_cell_volume   209.23512252
_cell_formula_units_Z   2
loop_
 _symmetry_equiv_pos_site_id
 _symmetry_equiv_pos_as_xyz
  1  'x, y, z'
loop_
 _atom_site_type_symbol
 _atom_site_label
 _atom_site_symmetry_multiplicity
 _atom_site_fract_x
 _atom_site_fract_y
 _atom_site_fract_z
 _atom_site_occupancy
  Al  Al0  1  0.55869700  0.16765900  0.61908600  1
  Al  Al1  1  0.44130300  0.60896300  0.88091400  1
  Al  Al2  1  0.44130300  0.83234100  0.38091400  1
  Al  Al3  1  0.55869700  0.39103700  0.11908600  1
  Zn  Zn4  1  0.22649900  0.95036400  0.08960000  1
  Zn  Zn5  1  0.77350100  0.72386500  0.41040000  1
  Zn  Zn6  1  0.77350100  0.04963600  0.91040000  1
  Zn  Zn7  1  0.22649900  0.27613500  0.58960000  1
  Zn  Zn8  1  0.00000000  0.64449800  0.75000000  1
  Zn  Zn9  1  0.00000000  0.35550200  0.25000000  1
  N  N10  1  0.20649200  0.88602900  0.48885400  1
  N  N11  1  0.79350800  0.67953700  0.01114600  1
  N  N12  1  0.79350800  0.11397100  0.51114600  1
  N  N13  1  0.20649200  0.32046300  0.98885400  1
  N  N14  1  0.61162000  0.22777500  0.97831800  1
  N  N15  1  0.38838000  0.61615500  0.52168200  1
  N  N16  1  0.38838000  0.77222500  0.02168200  1
  N  N17  1  0.61162000  0.38384500  0.47831800  1
