# generated using pymatgen
data_Mg3(GaN2)2
_symmetry_space_group_name_H-M   'P 1'
_cell_length_a   5.32714100
_cell_length_b   10.35095400
_cell_length_c   8.29088200
_cell_angle_alpha   90.00000000
_cell_angle_beta   90.00000000
_cell_angle_gamma   90.00000000
_symmetry_Int_Tables_number   1
_chemical_formula_structural   Mg3(GaN2)2
_chemical_formula_sum   'Mg12 Ga8 N16'
_cell_volume   457.16745341
_cell_formula_units_Z   4
loop_
 _symmetry_equiv_pos_site_id
 _symmetry_equiv_pos_as_xyz
  1  'x, y, z'
loop_
 _atom_site_type_symbol
 _atom_site_label
 _atom_site_symmetry_multiplicity
 _atom_site_fract_x
 _atom_site_fract_y
 _atom_site_fract_z
 _atom_site_occupancy
  Mg  Mg0  1  0.66436300  0.17119400  0.39099400  1
  Mg  Mg1  1  0.83563700  0.82880600  0.39099400  1
  Mg  Mg2  1  0.66436300  0.32880600  0.10900600  1
  Mg  Mg3  1  0.83563700  0.67119400  0.10900600  1
  Mg  Mg4  1  0.33563700  0.82880600  0.60900600  1
  Mg  Mg5  1  0.16436300  0.17119400  0.60900600  1
  Mg  Mg6  1  0.33563700  0.67119400  0.89099400  1
  Mg  Mg7  1  0.16436300  0.32880600  0.89099400  1
  Mg  Mg8  1  0.75000000  0.50000000  0.44609900  1
  Mg  Mg9  1  0.75000000  0.00000000  0.05390100  1
  Mg  Mg10  1  0.25000000  0.50000000  0.55390100  1
  Mg  Mg11  1  0.25000000  0.00000000  0.94609900  1
  Ga  Ga12  1  0.75000000  0.50000000  0.79157500  1
  Ga  Ga13  1  0.75000000  0.00000000  0.70842500  1
  Ga  Ga14  1  0.25000000  0.50000000  0.20842500  1
  Ga  Ga15  1  0.25000000  0.00000000  0.29157500  1
  Ga  Ga16  1  0.71062800  0.25000000  0.75000000  1
  Ga  Ga17  1  0.78937200  0.75000000  0.75000000  1
  Ga  Ga18  1  0.28937200  0.75000000  0.25000000  1
  Ga  Ga19  1  0.21062800  0.25000000  0.25000000  1
  N  N20  1  0.97061300  0.37985100  0.65356300  1
  N  N21  1  0.52938700  0.62014900  0.65356300  1
  N  N22  1  0.97061300  0.12014900  0.84643700  1
  N  N23  1  0.52938700  0.87985100  0.84643700  1
  N  N24  1  0.02938700  0.62014900  0.34643700  1
  N  N25  1  0.47061300  0.37985100  0.34643700  1
  N  N26  1  0.02938700  0.87985100  0.15356300  1
  N  N27  1  0.47061300  0.12014900  0.15356300  1
  N  N28  1  0.53739600  0.36910900  0.88358500  1
  N  N29  1  0.96260400  0.63089100  0.88358500  1
  N  N30  1  0.53739600  0.13089100  0.61641500  1
  N  N31  1  0.96260400  0.86910900  0.61641500  1
  N  N32  1  0.46260400  0.63089100  0.11641500  1
  N  N33  1  0.03739600  0.36910900  0.11641500  1
  N  N34  1  0.46260400  0.86910900  0.38358500  1
  N  N35  1  0.03739600  0.13089100  0.38358500  1
