# generated using pymatgen
data_AlCr2N3
_symmetry_space_group_name_H-M   'P 1'
_cell_length_a   5.99739146
_cell_length_b   5.63795279
_cell_length_c   3.93820100
_cell_angle_alpha   90.00000000
_cell_angle_beta   90.00000000
_cell_angle_gamma   118.03648815
_symmetry_Int_Tables_number   1
_chemical_formula_structural   AlCr2N3
_chemical_formula_sum   'Al2 Cr4 N6'
_cell_volume   117.53561022
_cell_formula_units_Z   2
loop_
 _symmetry_equiv_pos_site_id
 _symmetry_equiv_pos_as_xyz
  1  'x, y, z'
loop_
 _atom_site_type_symbol
 _atom_site_label
 _atom_site_symmetry_multiplicity
 _atom_site_fract_x
 _atom_site_fract_y
 _atom_site_fract_z
 _atom_site_occupancy
  Al  Al0  1  0.00000000  0.66261800  0.42868500  1
  Al  Al1  1  0.00000000  0.33738200  0.92868500  1
  Cr  Cr2  1  0.36199400  0.33902000  0.42866600  1
  Cr  Cr3  1  0.63800600  0.97702500  0.42866600  1
  Cr  Cr4  1  0.63800600  0.66098000  0.92866600  1
  Cr  Cr5  1  0.36199400  0.02297500  0.92866600  1
  N  N6  1  0.31770500  0.33950400  0.92866100  1
  N  N7  1  0.68229500  0.02179700  0.92866100  1
  N  N8  1  0.68229500  0.66049600  0.42866100  1
  N  N9  1  0.31770500  0.97820300  0.42866100  1
  N  N10  1  0.00000000  0.68009300  0.92866000  1
  N  N11  1  0.00000000  0.31990700  0.42866000  1
