# generated using pymatgen
data_Ba2Sr6Ti7MnO22
_symmetry_space_group_name_H-M   'P 1'
_cell_length_a   8.00556368
_cell_length_b   7.86315400
_cell_length_c   8.00591868
_cell_angle_alpha   90.00000000
_cell_angle_beta   90.18715851
_cell_angle_gamma   90.00000000
_symmetry_Int_Tables_number   1
_chemical_formula_structural   Ba2Sr6Ti7MnO22
_chemical_formula_sum   'Ba2 Sr6 Ti7 Mn1 O22'
_cell_volume   503.96172648
_cell_formula_units_Z   1
loop_
 _symmetry_equiv_pos_site_id
 _symmetry_equiv_pos_as_xyz
  1  'x, y, z'
loop_
 _atom_site_type_symbol
 _atom_site_label
 _atom_site_symmetry_multiplicity
 _atom_site_fract_x
 _atom_site_fract_y
 _atom_site_fract_z
 _atom_site_occupancy
  Ba  Ba0  1  0.25117100  0.75287200  0.25118400  1
  Ba  Ba1  1  0.74882900  0.75287200  0.74881500  1
  Sr  Sr2  1  0.25675100  0.24597700  0.25676000  1
  Sr  Sr3  1  0.25630900  0.24601100  0.74367800  1
  Sr  Sr4  1  0.25754500  0.75434800  0.74244400  1
  Sr  Sr5  1  0.74369100  0.24601100  0.25632200  1
  Sr  Sr6  1  0.74324900  0.24597700  0.74324000  1
  Sr  Sr7  1  0.74245500  0.75434800  0.25755600  1
  Ti  Ti8  1  0.00000000  0.00295300  0.50000000  1
  Ti  Ti9  1  0.00000000  0.49114600  0.00000000  1
  Ti  Ti10  1  0.00000000  0.49696300  0.50000000  1
  Ti  Ti11  1  0.50000000  0.00294800  0.00000000  1
  Ti  Ti12  1  0.50000000  0.00207100  0.50000000  1
  Ti  Ti13  1  0.50000000  0.49696300  0.00000000  1
  Ti  Ti14  1  0.50000000  0.49791900  0.50000000  1
  Mn  Mn15  1  0.00000000  0.01010500  0.00000000  1
  O  O16  1  0.25858200  0.00628000  0.99754400  1
  O  O17  1  0.25251500  0.00439300  0.50172400  1
  O  O18  1  0.24389600  0.49310900  0.99833000  1
  O  O19  1  0.25043400  0.49601500  0.50192400  1
  O  O20  1  0.74141800  0.00628000  0.00245600  1
  O  O21  1  0.74748500  0.00439300  0.49827600  1
  O  O22  1  0.75610400  0.49310900  0.00167000  1
  O  O23  1  0.74956600  0.49601500  0.49807600  1
  O  O24  1  0.00000000  0.25415200  0.50000000  1
  O  O25  1  0.00000000  0.74574900  0.50000000  1
  O  O26  1  0.50000000  0.25415200  0.00000000  1
  O  O27  1  0.50000000  0.25077400  0.50000000  1
  O  O28  1  0.50000000  0.74574900  0.00000000  1
  O  O29  1  0.50000000  0.74959900  0.50000000  1
  O  O30  1  0.99753700  0.00628500  0.25859600  1
  O  O31  1  0.00246300  0.00628500  0.74140400  1
  O  O32  1  0.99832400  0.49310300  0.24389300  1
  O  O33  1  0.00167600  0.49310300  0.75610700  1
  O  O34  1  0.50173300  0.00439700  0.25252100  1
  O  O35  1  0.49826700  0.00439700  0.74747900  1
  O  O36  1  0.50193000  0.49600700  0.25044500  1
  O  O37  1  0.49807100  0.49600700  0.74955500  1
