# generated using pymatgen
data_TiMnN2
_symmetry_space_group_name_H-M   'P 1'
_cell_length_a   2.92093367
_cell_length_b   7.13909064
_cell_length_c   18.20046643
_cell_angle_alpha   11.35505113
_cell_angle_beta   61.38739601
_cell_angle_gamma   52.29252477
_symmetry_Int_Tables_number   1
_chemical_formula_structural   TiMnN2
_chemical_formula_sum   'Ti1 Mn1 N2'
_cell_volume   37.33543522
_cell_formula_units_Z   1
loop_
 _symmetry_equiv_pos_site_id
 _symmetry_equiv_pos_as_xyz
  1  'x, y, z'
loop_
 _atom_site_type_symbol
 _atom_site_label
 _atom_site_symmetry_multiplicity
 _atom_site_fract_x
 _atom_site_fract_y
 _atom_site_fract_z
 _atom_site_occupancy
  Ti  Ti0  1  0.00000000  0.99317614  0.50224644  1
  Mn  Mn1  1  1.00000000  0.00587848  0.99791980  1
  N  N2  1  1.00000000  0.51554535  0.57516648  1
  N  N3  1  1.00000000  0.48530103  0.42466728  1
