# generated using pymatgen
data_Ca3Ta3N5
_symmetry_space_group_name_H-M   'P 1'
_cell_length_a   5.97014334
_cell_length_b   8.09016316
_cell_length_c   8.41097455
_cell_angle_alpha   109.82082627
_cell_angle_beta   106.21674515
_cell_angle_gamma   105.05637049
_symmetry_Int_Tables_number   1
_chemical_formula_structural   Ca3Ta3N5
_chemical_formula_sum   'Ca6 Ta6 N10'
_cell_volume   337.53928113
_cell_formula_units_Z   2
loop_
 _symmetry_equiv_pos_site_id
 _symmetry_equiv_pos_as_xyz
  1  'x, y, z'
loop_
 _atom_site_type_symbol
 _atom_site_label
 _atom_site_symmetry_multiplicity
 _atom_site_fract_x
 _atom_site_fract_y
 _atom_site_fract_z
 _atom_site_occupancy
  Ca  Ca0  1  0.71563200  0.42726500  0.59921400  1
  Ca  Ca1  1  0.28436800  0.57273500  0.40078600  1
  Ca  Ca2  1  0.66182900  0.84501300  0.87015300  1
  Ca  Ca3  1  0.33817100  0.15498700  0.12984700  1
  Ca  Ca4  1  0.70230800  0.65507500  0.22113500  1
  Ca  Ca5  1  0.29769200  0.34492500  0.77886500  1
  Ta  Ta6  1  0.87292300  0.29315800  0.93483500  1
  Ta  Ta7  1  0.12707700  0.70684200  0.06516500  1
  Ta  Ta8  1  0.73157300  0.99272200  0.55836100  1
  Ta  Ta9  1  0.26842700  0.00727800  0.44163900  1
  Ta  Ta10  1  0.10882900  0.86866400  0.69722600  1
  Ta  Ta11  1  0.89117100  0.13133600  0.30277400  1
  N  N12  1  0.02666100  0.08341600  0.83705600  1
  N  N13  1  0.97333900  0.91658400  0.16294400  1
  N  N14  1  0.74129500  0.69949200  0.53727500  1
  N  N15  1  0.25870500  0.30050800  0.46272500  1
  N  N16  1  0.76246000  0.51765400  0.91961200  1
  N  N17  1  0.23754000  0.48234600  0.08038800  1
  N  N18  1  0.42202600  0.91593700  0.63685900  1
  N  N19  1  0.57797400  0.08406300  0.36314100  1
  N  N20  1  0.24334100  0.78126100  0.89180000  1
  N  N21  1  0.75665900  0.21873900  0.10820000  1
