# generated using pymatgen
data_BaSr2N2
_symmetry_space_group_name_H-M   'P 1'
_cell_length_a   4.01765363
_cell_length_b   4.01772588
_cell_length_c   9.64098157
_cell_angle_alpha   90.00076846
_cell_angle_beta   90.00382951
_cell_angle_gamma   119.99938678
_symmetry_Int_Tables_number   1
_chemical_formula_structural   BaSr2N2
_chemical_formula_sum   'Ba1 Sr2 N2'
_cell_volume   134.77438576
_cell_formula_units_Z   1
loop_
 _symmetry_equiv_pos_site_id
 _symmetry_equiv_pos_as_xyz
  1  'x, y, z'
loop_
 _atom_site_type_symbol
 _atom_site_label
 _atom_site_symmetry_multiplicity
 _atom_site_fract_x
 _atom_site_fract_y
 _atom_site_fract_z
 _atom_site_occupancy
  Ba  Ba0  1  0.00000100  0.00000000  0.50000000  1
  Sr  Sr1  1  0.66660500  0.33330700  0.19624300  1
  Sr  Sr2  1  0.33339200  0.66669300  0.80375700  1
  N  N3  1  0.66668800  0.33334700  0.69718900  1
  N  N4  1  0.33331400  0.66665200  0.30281000  1
