# generated using pymatgen
data_Bi3Pb3N5
_symmetry_space_group_name_H-M   'P 1'
_cell_length_a   6.62258694
_cell_length_b   7.63659169
_cell_length_c   10.27800611
_cell_angle_alpha   92.78392218
_cell_angle_beta   88.95206002
_cell_angle_gamma   77.18397622
_symmetry_Int_Tables_number   1
_chemical_formula_structural   Bi3Pb3N5
_chemical_formula_sum   'Bi6 Pb6 N10'
_cell_volume   506.02658728
_cell_formula_units_Z   2
loop_
 _symmetry_equiv_pos_site_id
 _symmetry_equiv_pos_as_xyz
  1  'x, y, z'
loop_
 _atom_site_type_symbol
 _atom_site_label
 _atom_site_symmetry_multiplicity
 _atom_site_fract_x
 _atom_site_fract_y
 _atom_site_fract_z
 _atom_site_occupancy
  Bi  Bi0  1  0.84705200  0.25492700  0.86609100  1
  Bi  Bi1  1  0.15294800  0.74507300  0.13390900  1
  Bi  Bi2  1  0.74674500  0.95738900  0.58306000  1
  Bi  Bi3  1  0.25325500  0.04261100  0.41694000  1
  Bi  Bi4  1  0.25948200  0.79894500  0.78037000  1
  Bi  Bi5  1  0.74051800  0.20105500  0.21963000  1
  Pb  Pb6  1  0.78510200  0.40267300  0.52603800  1
  Pb  Pb7  1  0.21489800  0.59732700  0.47396300  1
  Pb  Pb8  1  0.70118500  0.84022500  0.91724600  1
  Pb  Pb9  1  0.29881500  0.15977500  0.08275400  1
  Pb  Pb10  1  0.67406700  0.71743700  0.26342000  1
  Pb  Pb11  1  0.32593300  0.28256300  0.73658000  1
  N  N12  1  0.95275000  0.98277800  0.75327900  1
  N  N13  1  0.04725000  0.01722200  0.24672100  1
  N  N14  1  0.83740400  0.68810200  0.47876500  1
  N  N15  1  0.16259600  0.31189800  0.52123500  1
  N  N16  1  0.62792200  0.38763400  0.72677300  1
  N  N17  1  0.37207800  0.61236600  0.27322700  1
  N  N18  1  0.49301400  0.96144000  0.73335000  1
  N  N19  1  0.50698600  0.03856000  0.26665000  1
  N  N20  1  0.32921400  0.86987000  0.98671300  1
  N  N21  1  0.67078600  0.13013000  0.01328700  1
