# generated using pymatgen
data_Ba3(InN2)2
_symmetry_space_group_name_H-M   'P 1'
_cell_length_a   6.51006129
_cell_length_b   11.39122428
_cell_length_c   10.32409987
_cell_angle_alpha   90.00000000
_cell_angle_beta   90.00000000
_cell_angle_gamma   90.00000000
_symmetry_Int_Tables_number   1
_chemical_formula_structural   Ba3(InN2)2
_chemical_formula_sum   'Ba12 In8 N16'
_cell_volume   765.61014053
_cell_formula_units_Z   4
loop_
 _symmetry_equiv_pos_site_id
 _symmetry_equiv_pos_as_xyz
  1  'x, y, z'
loop_
 _atom_site_type_symbol
 _atom_site_label
 _atom_site_symmetry_multiplicity
 _atom_site_fract_x
 _atom_site_fract_y
 _atom_site_fract_z
 _atom_site_occupancy
  Ba  Ba0  1  0.61144549  0.15602946  0.41370604  1
  Ba  Ba1  1  0.88855451  0.84397054  0.41370604  1
  Ba  Ba2  1  0.61144549  0.34397054  0.08629396  1
  Ba  Ba3  1  0.88855451  0.65602946  0.08629396  1
  Ba  Ba4  1  0.38855451  0.84397054  0.58629396  1
  Ba  Ba5  1  0.11144549  0.15602946  0.58629396  1
  Ba  Ba6  1  0.38855451  0.65602946  0.91370604  1
  Ba  Ba7  1  0.11144549  0.34397054  0.91370604  1
  Ba  Ba8  1  0.75000000  0.50000000  0.40422266  1
  Ba  Ba9  1  0.75000000  0.00000000  0.09577734  1
  Ba  Ba10  1  0.25000000  0.50000000  0.59577734  1
  Ba  Ba11  1  0.25000000  -0.00000000  0.90422266  1
  In  In12  1  0.75000000  0.50000000  0.73380025  1
  In  In13  1  0.75000000  -0.00000000  0.76619975  1
  In  In14  1  0.25000000  0.50000000  0.26619975  1
  In  In15  1  0.25000000  0.00000000  0.23380025  1
  In  In16  1  0.65059830  0.25000000  0.75000000  1
  In  In17  1  0.84940170  0.75000000  0.75000000  1
  In  In18  1  0.34940170  0.75000000  0.25000000  1
  In  In19  1  0.15059830  0.25000000  0.25000000  1
  N  N20  1  0.87789852  0.35183505  0.62070123  1
  N  N21  1  0.62210148  0.64816495  0.62070123  1
  N  N22  1  0.87789852  0.14816495  0.87929877  1
  N  N23  1  0.62210148  0.85183505  0.87929877  1
  N  N24  1  0.12210148  0.64816495  0.37929877  1
  N  N25  1  0.37789852  0.35183505  0.37929877  1
  N  N26  1  0.12210148  0.85183505  0.12070123  1
  N  N27  1  0.37789852  0.14816495  0.12070123  1
  N  N28  1  0.49666078  0.40674674  0.83670027  1
  N  N29  1  0.00333922  0.59325326  0.83670027  1
  N  N30  1  0.49666078  0.09325326  0.66329973  1
  N  N31  1  0.00333922  0.90674674  0.66329973  1
  N  N32  1  0.50333922  0.59325326  0.16329973  1
  N  N33  1  0.99666078  0.40674674  0.16329973  1
  N  N34  1  0.50333922  0.90674674  0.33670027  1
  N  N35  1  0.99666078  0.09325326  0.33670027  1
