# generated using pymatgen
data_Sr3Bi3N5
_symmetry_space_group_name_H-M   'P 1'
_cell_length_a   6.41207569
_cell_length_b   7.06214504
_cell_length_c   10.96060195
_cell_angle_alpha   103.20244698
_cell_angle_beta   93.72419407
_cell_angle_gamma   91.86957797
_symmetry_Int_Tables_number   1
_chemical_formula_structural   Sr3Bi3N5
_chemical_formula_sum   'Sr6 Bi6 N10'
_cell_volume   481.61452852
_cell_formula_units_Z   2
loop_
 _symmetry_equiv_pos_site_id
 _symmetry_equiv_pos_as_xyz
  1  'x, y, z'
loop_
 _atom_site_type_symbol
 _atom_site_label
 _atom_site_symmetry_multiplicity
 _atom_site_fract_x
 _atom_site_fract_y
 _atom_site_fract_z
 _atom_site_occupancy
  Sr  Sr0  1  0.77072000  0.38932400  0.55237200  1
  Sr  Sr1  1  0.22928000  0.61067600  0.44762800  1
  Sr  Sr2  1  0.65852500  0.79908000  0.88628600  1
  Sr  Sr3  1  0.34147500  0.20092000  0.11371400  1
  Sr  Sr4  1  0.68345200  0.78864500  0.27161400  1
  Sr  Sr5  1  0.31654800  0.21135500  0.72838600  1
  Bi  Bi6  1  0.87845800  0.28837300  0.90026200  1
  Bi  Bi7  1  0.12154200  0.71162700  0.09973800  1
  Bi  Bi8  1  0.72854000  0.93168900  0.59801700  1
  Bi  Bi9  1  0.27146000  0.06831100  0.40198300  1
  Bi  Bi10  1  0.16553800  0.74111200  0.77502600  1
  Bi  Bi11  1  0.83446200  0.25888800  0.22497400  1
  N  N12  1  0.94840900  0.98431200  0.77063100  1
  N  N13  1  0.05159100  0.01568800  0.22936900  1
  N  N14  1  0.83250200  0.68567000  0.46855700  1
  N  N15  1  0.16749800  0.31433000  0.53144300  1
  N  N16  1  0.66583500  0.41063400  0.78589200  1
  N  N17  1  0.33416500  0.58936600  0.21410800  1
  N  N18  1  0.42558000  0.85020900  0.68204500  1
  N  N19  1  0.57442000  0.14979100  0.31795500  1
  N  N20  1  0.30185600  0.84007800  0.97028500  1
  N  N21  1  0.69814400  0.15992200  0.02971500  1
