# generated using pymatgen
data_Ca7CoN6
_symmetry_space_group_name_H-M   'P 1'
_cell_length_a   10.85611500
_cell_length_b   6.24441600
_cell_length_c   12.92587500
_cell_angle_alpha   90.00000000
_cell_angle_beta   90.00000000
_cell_angle_gamma   90.00000000
_symmetry_Int_Tables_number   1
_chemical_formula_structural   Ca7CoN6
_chemical_formula_sum   'Ca28 Co4 N24'
_cell_volume   876.24633562
_cell_formula_units_Z   4
loop_
 _symmetry_equiv_pos_site_id
 _symmetry_equiv_pos_as_xyz
  1  'x, y, z'
loop_
 _atom_site_type_symbol
 _atom_site_label
 _atom_site_symmetry_multiplicity
 _atom_site_fract_x
 _atom_site_fract_y
 _atom_site_fract_z
 _atom_site_occupancy
  Ca  Ca0  1  0.03909000  0.73023700  0.97731400  1
  Ca  Ca1  1  0.46091000  0.76976300  0.47731400  1
  Ca  Ca2  1  0.53909000  0.76976300  0.02268600  1
  Ca  Ca3  1  0.96091000  0.73023700  0.52268600  1
  Ca  Ca4  1  0.96091000  0.26976300  0.02268600  1
  Ca  Ca5  1  0.53909000  0.23023700  0.52268600  1
  Ca  Ca6  1  0.46091000  0.23023700  0.97731400  1
  Ca  Ca7  1  0.03909000  0.26976300  0.47731400  1
  Ca  Ca8  1  0.22613100  0.85845100  0.62569400  1
  Ca  Ca9  1  0.27386900  0.64154900  0.12569400  1
  Ca  Ca10  1  0.72613100  0.64154900  0.37430600  1
  Ca  Ca11  1  0.77386900  0.85845100  0.87430600  1
  Ca  Ca12  1  0.77386900  0.14154900  0.37430600  1
  Ca  Ca13  1  0.72613100  0.35845100  0.87430600  1
  Ca  Ca14  1  0.27386900  0.35845100  0.62569400  1
  Ca  Ca15  1  0.22613100  0.14154900  0.12569400  1
  Ca  Ca16  1  0.29735300  0.61178200  0.87640900  1
  Ca  Ca17  1  0.20264700  0.88821800  0.37640900  1
  Ca  Ca18  1  0.79735300  0.88821800  0.12359100  1
  Ca  Ca19  1  0.70264700  0.61178200  0.62359100  1
  Ca  Ca20  1  0.70264700  0.38821800  0.12359100  1
  Ca  Ca21  1  0.79735300  0.11178200  0.62359100  1
  Ca  Ca22  1  0.20264700  0.11178200  0.87640900  1
  Ca  Ca23  1  0.29735300  0.38821800  0.37640900  1
  Ca  Ca24  1  0.00000000  0.44548400  0.75000000  1
  Ca  Ca25  1  0.50000000  0.05451600  0.25000000  1
  Ca  Ca26  1  0.00000000  0.55451600  0.25000000  1
  Ca  Ca27  1  0.50000000  0.94548400  0.75000000  1
  Co  Co28  1  0.00000000  0.93524300  0.75000000  1
  Co  Co29  1  0.50000000  0.56475700  0.25000000  1
  Co  Co30  1  0.00000000  0.06475700  0.25000000  1
  Co  Co31  1  0.50000000  0.43524300  0.75000000  1
  N  N32  1  0.12752200  0.75775800  0.79110800  1
  N  N33  1  0.37247800  0.74224200  0.29110800  1
  N  N34  1  0.62752200  0.74224200  0.20889200  1
  N  N35  1  0.87247800  0.75775800  0.70889200  1
  N  N36  1  0.87247800  0.24224200  0.20889200  1
  N  N37  1  0.62752200  0.25775800  0.70889200  1
  N  N38  1  0.37247800  0.25775800  0.79110800  1
  N  N39  1  0.12752200  0.24224200  0.29110800  1
  N  N40  1  0.16654500  0.59267000  0.50238100  1
  N  N41  1  0.33345500  0.90733000  0.00238100  1
  N  N42  1  0.66654500  0.90733000  0.49761900  1
  N  N43  1  0.83345500  0.59267000  0.99761900  1
  N  N44  1  0.83345500  0.40733000  0.49761900  1
  N  N45  1  0.66654500  0.09267000  0.99761900  1
  N  N46  1  0.33345500  0.09267000  0.50238100  1
  N  N47  1  0.16654500  0.40733000  0.00238100  1
  N  N48  1  0.44922500  0.61430500  0.64654600  1
  N  N49  1  0.05077600  0.88569500  0.14654600  1
  N  N50  1  0.94922500  0.88569500  0.35345400  1
  N  N51  1  0.55077500  0.61430500  0.85345400  1
  N  N52  1  0.55077500  0.38569500  0.35345400  1
  N  N53  1  0.94922500  0.11430500  0.85345400  1
  N  N54  1  0.05077600  0.11430500  0.64654600  1
  N  N55  1  0.44922500  0.38569500  0.14654600  1
