# generated using pymatgen
data_Ba3Cr3N5
_symmetry_space_group_name_H-M   'P 1'
_cell_length_a   5.86144607
_cell_length_b   7.44659365
_cell_length_c   8.84353521
_cell_angle_alpha   106.60882492
_cell_angle_beta   101.90173873
_cell_angle_gamma   95.53658543
_symmetry_Int_Tables_number   1
_chemical_formula_structural   Ba3Cr3N5
_chemical_formula_sum   'Ba6 Cr6 N10'
_cell_volume   356.93748799
_cell_formula_units_Z   2
loop_
 _symmetry_equiv_pos_site_id
 _symmetry_equiv_pos_as_xyz
  1  'x, y, z'
loop_
 _atom_site_type_symbol
 _atom_site_label
 _atom_site_symmetry_multiplicity
 _atom_site_fract_x
 _atom_site_fract_y
 _atom_site_fract_z
 _atom_site_occupancy
  Ba  Ba0  1  0.81371900  0.41995000  0.60959000  1
  Ba  Ba1  1  0.18628100  0.58005000  0.39041000  1
  Ba  Ba2  1  0.65139500  0.86502300  0.88423800  1
  Ba  Ba3  1  0.34860500  0.13497700  0.11576200  1
  Ba  Ba4  1  0.64720600  0.67815900  0.21614500  1
  Ba  Ba5  1  0.35279400  0.32184100  0.78385500  1
  Cr  Cr6  1  0.92050100  0.32286900  0.97547800  1
  Cr  Cr7  1  0.07949900  0.67713100  0.02452200  1
  Cr  Cr8  1  0.68698400  0.97080100  0.57914000  1
  Cr  Cr9  1  0.31301600  0.02919900  0.42086000  1
  Cr  Cr10  1  0.08713800  0.89821200  0.70330700  1
  Cr  Cr11  1  0.91286200  0.10178800  0.29669300  1
  N  N12  1  0.91168600  0.12027100  0.77990800  1
  N  N13  1  0.08831400  0.87972900  0.22009200  1
  N  N14  1  0.82601700  0.75597700  0.53786300  1
  N  N15  1  0.17398300  0.24402300  0.46213700  1
  N  N16  1  0.78419200  0.52754600  0.93479100  1
  N  N17  1  0.21580800  0.47245400  0.06520900  1
  N  N18  1  0.36391800  0.94309000  0.61167000  1
  N  N19  1  0.63608200  0.05691000  0.38833000  1
  N  N20  1  0.13950000  0.78937100  0.86619900  1
  N  N21  1  0.86050000  0.21062900  0.13380100  1
