# generated using pymatgen
data_CaRuN2
_symmetry_space_group_name_H-M   'P 1'
_cell_length_a   5.48791600
_cell_length_b   10.79233900
_cell_length_c   15.44916100
_cell_angle_alpha   90.00000000
_cell_angle_beta   90.00000000
_cell_angle_gamma   90.00000000
_symmetry_Int_Tables_number   1
_chemical_formula_structural   CaRuN2
_chemical_formula_sum   'Ca16 Ru16 N32'
_cell_volume   915.01440875
_cell_formula_units_Z   16
loop_
 _symmetry_equiv_pos_site_id
 _symmetry_equiv_pos_as_xyz
  1  'x, y, z'
loop_
 _atom_site_type_symbol
 _atom_site_label
 _atom_site_symmetry_multiplicity
 _atom_site_fract_x
 _atom_site_fract_y
 _atom_site_fract_z
 _atom_site_occupancy
  Ca  Ca0  1  0.72271800  0.00736600  0.43239800  1
  Ca  Ca1  1  0.22271800  0.49263400  0.56760200  1
  Ca  Ca2  1  0.27728200  0.50736600  0.06760200  1
  Ca  Ca3  1  0.77728200  0.99263400  0.93239800  1
  Ca  Ca4  1  0.27728200  0.99263400  0.56760200  1
  Ca  Ca5  1  0.77728200  0.50736600  0.43239800  1
  Ca  Ca6  1  0.72271800  0.49263400  0.93239800  1
  Ca  Ca7  1  0.22271800  0.00736600  0.06760200  1
  Ca  Ca8  1  0.91137400  0.28372100  0.30910900  1
  Ca  Ca9  1  0.41137400  0.21627900  0.69089100  1
  Ca  Ca10  1  0.08862600  0.78372100  0.19089100  1
  Ca  Ca11  1  0.58862600  0.71627900  0.80910900  1
  Ca  Ca12  1  0.08862600  0.71627900  0.69089100  1
  Ca  Ca13  1  0.58862600  0.78372100  0.30910900  1
  Ca  Ca14  1  0.91137400  0.21627900  0.80910900  1
  Ca  Ca15  1  0.41137400  0.28372100  0.19089100  1
  Ru  Ru16  1  0.72189200  0.01835100  0.19163600  1
  Ru  Ru17  1  0.22189200  0.48164900  0.80836400  1
  Ru  Ru18  1  0.27810800  0.51835100  0.30836400  1
  Ru  Ru19  1  0.77810800  0.98164900  0.69163600  1
  Ru  Ru20  1  0.27810800  0.98164900  0.80836400  1
  Ru  Ru21  1  0.77810800  0.51835100  0.19163600  1
  Ru  Ru22  1  0.72189200  0.48164900  0.69163600  1
  Ru  Ru23  1  0.22189200  0.01835100  0.30836400  1
  Ru  Ru24  1  0.87621200  0.27804700  0.06295400  1
  Ru  Ru25  1  0.37621200  0.22195300  0.93704600  1
  Ru  Ru26  1  0.12378800  0.77804700  0.43704600  1
  Ru  Ru27  1  0.62378800  0.72195300  0.56295400  1
  Ru  Ru28  1  0.12378800  0.72195300  0.93704600  1
  Ru  Ru29  1  0.62378800  0.77804700  0.06295400  1
  Ru  Ru30  1  0.87621200  0.22195300  0.56295400  1
  Ru  Ru31  1  0.37621200  0.27804700  0.43704600  1
  N  N32  1  0.61236600  0.45464000  0.29203900  1
  N  N33  1  0.11236500  0.04536000  0.70796100  1
  N  N34  1  0.38763400  0.95464000  0.20796100  1
  N  N35  1  0.88763400  0.54536000  0.79203900  1
  N  N36  1  0.38763400  0.54536000  0.70796100  1
  N  N37  1  0.88763400  0.95464000  0.29203900  1
  N  N38  1  0.61236600  0.04536000  0.79203900  1
  N  N39  1  0.11236500  0.45464000  0.20796100  1
  N  N40  1  0.72094900  0.27157900  0.45510800  1
  N  N41  1  0.22094900  0.22842100  0.54489200  1
  N  N42  1  0.27905100  0.77157900  0.04489200  1
  N  N43  1  0.77905100  0.72842100  0.95510800  1
  N  N44  1  0.27905100  0.72842100  0.54489200  1
  N  N45  1  0.77905100  0.77157900  0.45510800  1
  N  N46  1  0.72094900  0.22842100  0.95510800  1
  N  N47  1  0.22094900  0.27157900  0.04489200  1
  N  N48  1  0.71228500  0.43746100  0.08141600  1
  N  N49  1  0.21228500  0.06253900  0.91858400  1
  N  N50  1  0.28771500  0.93746100  0.41858400  1
  N  N51  1  0.78771500  0.56253900  0.58141600  1
  N  N52  1  0.28771500  0.56253900  0.91858400  1
  N  N53  1  0.78771500  0.93746100  0.08141600  1
  N  N54  1  0.71228500  0.06253900  0.58141600  1
  N  N55  1  0.21228500  0.43746100  0.41858400  1
  N  N56  1  0.79693700  0.18855500  0.16821200  1
  N  N57  1  0.29693700  0.31144500  0.83178800  1
  N  N58  1  0.20306300  0.68855500  0.33178800  1
  N  N59  1  0.70306300  0.81144500  0.66821200  1
  N  N60  1  0.20306300  0.81144500  0.83178800  1
  N  N61  1  0.70306300  0.68855500  0.16821200  1
  N  N62  1  0.79693700  0.31144500  0.66821200  1
  N  N63  1  0.29693700  0.18855500  0.33178800  1
