# generated using pymatgen
data_Ca3(IrN2)2
_symmetry_space_group_name_H-M   'P 1'
_cell_length_a   7.07281507
_cell_length_b   9.09256630
_cell_length_c   5.34117544
_cell_angle_alpha   90.00000012
_cell_angle_beta   91.11414298
_cell_angle_gamma   129.99962845
_symmetry_Int_Tables_number   1
_chemical_formula_structural   Ca3(IrN2)2
_chemical_formula_sum   'Ca6 Ir4 N8'
_cell_volume   263.04618373
_cell_formula_units_Z   2
loop_
 _symmetry_equiv_pos_site_id
 _symmetry_equiv_pos_as_xyz
  1  'x, y, z'
loop_
 _atom_site_type_symbol
 _atom_site_label
 _atom_site_symmetry_multiplicity
 _atom_site_fract_x
 _atom_site_fract_y
 _atom_site_fract_z
 _atom_site_occupancy
  Ca  Ca0  1  0.23871700  0.96002500  0.05328500  1
  Ca  Ca1  1  0.76128300  0.72130800  0.44671500  1
  Ca  Ca2  1  0.76128300  0.03997500  0.94671500  1
  Ca  Ca3  1  0.23871700  0.27869200  0.55328500  1
  Ca  Ca4  1  0.00000000  0.59126800  0.75000000  1
  Ca  Ca5  1  0.00000000  0.40873200  0.25000000  1
  Ir  Ir6  1  0.52743800  0.15030400  0.58463300  1
  Ir  Ir7  1  0.47256200  0.62286700  0.91536700  1
  Ir  Ir8  1  0.47256200  0.84969600  0.41536700  1
  Ir  Ir9  1  0.52743800  0.37713300  0.08463300  1
  N  N10  1  0.20093500  0.91634200  0.52941400  1
  N  N11  1  0.79906500  0.71540600  0.97058600  1
  N  N12  1  0.79906500  0.08365800  0.47058600  1
  N  N13  1  0.20093500  0.28459400  0.02941400  1
  N  N14  1  0.68064900  0.26829000  0.93394000  1
  N  N15  1  0.31935100  0.58764100  0.56606000  1
  N  N16  1  0.31935100  0.73171000  0.06606000  1
  N  N17  1  0.68064900  0.41235900  0.43394000  1
