# generated using pymatgen
data_Mn2Fe9N8
_symmetry_space_group_name_H-M   'P 1'
_cell_length_a   8.87390035
_cell_length_b   3.79246126
_cell_length_c   6.02678556
_cell_angle_alpha   89.99998982
_cell_angle_beta   69.28602202
_cell_angle_gamma   77.66152003
_symmetry_Int_Tables_number   1
_chemical_formula_structural   Mn2Fe9N8
_chemical_formula_sum   'Mn2 Fe9 N8'
_cell_volume   184.69686848
_cell_formula_units_Z   1
loop_
 _symmetry_equiv_pos_site_id
 _symmetry_equiv_pos_as_xyz
  1  'x, y, z'
loop_
 _atom_site_type_symbol
 _atom_site_label
 _atom_site_symmetry_multiplicity
 _atom_site_fract_x
 _atom_site_fract_y
 _atom_site_fract_z
 _atom_site_occupancy
  Mn  Mn0  1  0.35623700  0.82188100  0.78509700  1
  Mn  Mn1  1  0.64376300  0.17811900  0.21490300  1
  Fe  Fe2  1  0.00000000  0.50000000  0.50000000  1
  Fe  Fe3  1  0.02981100  0.98509400  0.75361600  1
  Fe  Fe4  1  0.97018900  0.01490600  0.24638400  1
  Fe  Fe5  1  0.69928200  0.65035900  0.49085200  1
  Fe  Fe6  1  0.30071800  0.34964100  0.50914800  1
  Fe  Fe7  1  0.84070700  0.57964700  0.98302700  1
  Fe  Fe8  1  0.15929300  0.42035300  0.01697300  1
  Fe  Fe9  1  0.40606600  0.79696700  0.18798800  1
  Fe  Fe10  1  0.59393400  0.20303300  0.81201200  1
  N  N11  1  0.20984900  0.89507600  0.08831700  1
  N  N12  1  0.79015100  0.10492400  0.91168300  1
  N  N13  1  0.28101600  0.85949200  0.53391500  1
  N  N14  1  0.71898400  0.14050800  0.46608500  1
  N  N15  1  0.55340300  0.72329800  0.82021400  1
  N  N16  1  0.44659700  0.27670200  0.17978600  1
  N  N17  1  0.92832100  0.53583900  0.24635000  1
  N  N18  1  0.07167900  0.46416100  0.75365000  1
