# generated using pymatgen
data_Mg11(CN5)2
_symmetry_space_group_name_H-M   'P 1'
_cell_length_a   13.14130400
_cell_length_b   13.14130400
_cell_length_c   3.17554800
_cell_angle_alpha   90.00000000
_cell_angle_beta   90.00000000
_cell_angle_gamma   90.00000000
_symmetry_Int_Tables_number   1
_chemical_formula_structural   Mg11(CN5)2
_chemical_formula_sum   'Mg22 C4 N20'
_cell_volume   548.39767610
_cell_formula_units_Z   2
loop_
 _symmetry_equiv_pos_site_id
 _symmetry_equiv_pos_as_xyz
  1  'x, y, z'
loop_
 _atom_site_type_symbol
 _atom_site_label
 _atom_site_symmetry_multiplicity
 _atom_site_fract_x
 _atom_site_fract_y
 _atom_site_fract_z
 _atom_site_occupancy
  Mg  Mg0  1  0.50000000  0.50000000  0.50000000  1
  Mg  Mg1  1  0.00000000  0.00000000  0.00000000  1
  Mg  Mg2  1  0.98603700  0.79348400  0.50000000  1
  Mg  Mg3  1  0.01396300  0.20651600  0.50000000  1
  Mg  Mg4  1  0.51396300  0.29348400  0.00000000  1
  Mg  Mg5  1  0.48603700  0.70651600  0.00000000  1
  Mg  Mg6  1  0.79348400  0.98603700  0.50000000  1
  Mg  Mg7  1  0.20651600  0.01396300  0.50000000  1
  Mg  Mg8  1  0.29348400  0.51396300  0.00000000  1
  Mg  Mg9  1  0.70651600  0.48603700  0.00000000  1
  Mg  Mg10  1  0.66082300  0.66082300  0.50000000  1
  Mg  Mg11  1  0.33917700  0.33917700  0.50000000  1
  Mg  Mg12  1  0.83917700  0.16082300  0.00000000  1
  Mg  Mg13  1  0.16082300  0.83917700  0.00000000  1
  Mg  Mg14  1  0.38502300  0.90396000  0.50000000  1
  Mg  Mg15  1  0.61497700  0.09604000  0.50000000  1
  Mg  Mg16  1  0.11497700  0.40396000  0.00000000  1
  Mg  Mg17  1  0.88502300  0.59604000  0.00000000  1
  Mg  Mg18  1  0.90396000  0.38502300  0.50000000  1
  Mg  Mg19  1  0.09604000  0.61497700  0.50000000  1
  Mg  Mg20  1  0.40396000  0.11497700  0.00000000  1
  Mg  Mg21  1  0.59604000  0.88502300  0.00000000  1
  C  C22  1  0.30914100  0.69085900  0.50000000  1
  C  C23  1  0.69085900  0.30914100  0.50000000  1
  C  C24  1  0.19085900  0.19085900  0.00000000  1
  C  C25  1  0.80914100  0.80914100  0.00000000  1
  N  N26  1  0.08611200  0.91388800  0.50000000  1
  N  N27  1  0.91388800  0.08611200  0.50000000  1
  N  N28  1  0.41388800  0.41388800  0.00000000  1
  N  N29  1  0.58611200  0.58611200  0.00000000  1
  N  N30  1  0.48130300  0.18456100  0.50000000  1
  N  N31  1  0.51869700  0.81543900  0.50000000  1
  N  N32  1  0.01869700  0.68456100  0.00000000  1
  N  N33  1  0.98130300  0.31543900  0.00000000  1
  N  N34  1  0.18456100  0.48130300  0.50000000  1
  N  N35  1  0.81543900  0.51869700  0.50000000  1
  N  N36  1  0.68456100  0.01869700  0.00000000  1
  N  N37  1  0.31543900  0.98130300  0.00000000  1
  N  N38  1  0.24300900  0.75699100  0.50000000  1
  N  N39  1  0.75699100  0.24300900  0.50000000  1
  N  N40  1  0.25699100  0.25699100  0.00000000  1
  N  N41  1  0.74300900  0.74300900  0.00000000  1
  N  N42  1  0.37574300  0.62425700  0.50000000  1
  N  N43  1  0.62425700  0.37574300  0.50000000  1
  N  N44  1  0.12425700  0.12425700  0.00000000  1
  N  N45  1  0.87574300  0.87574300  0.00000000  1
