# generated using pymatgen
data_In4Se3N2
_symmetry_space_group_name_H-M   'P 1'
_cell_length_a   6.60507517
_cell_length_b   11.92275652
_cell_length_c   11.00935081
_cell_angle_alpha   90.00000000
_cell_angle_beta   90.00000000
_cell_angle_gamma   90.00000000
_symmetry_Int_Tables_number   1
_chemical_formula_structural   In4Se3N2
_chemical_formula_sum   'In16 Se12 N8'
_cell_volume   866.99411639
_cell_formula_units_Z   4
loop_
 _symmetry_equiv_pos_site_id
 _symmetry_equiv_pos_as_xyz
  1  'x, y, z'
loop_
 _atom_site_type_symbol
 _atom_site_label
 _atom_site_symmetry_multiplicity
 _atom_site_fract_x
 _atom_site_fract_y
 _atom_site_fract_z
 _atom_site_occupancy
  In  In0  1  0.76708007  0.25000000  0.95010644  1
  In  In1  1  0.26708007  0.25000000  0.54989356  1
  In  In2  1  0.23291993  0.75000000  0.04989356  1
  In  In3  1  0.73291993  0.75000000  0.45010644  1
  In  In4  1  0.88411211  0.25000000  0.37888978  1
  In  In5  1  0.38411211  0.25000000  0.12111022  1
  In  In6  1  0.11588789  0.75000000  0.62111022  1
  In  In7  1  0.61588789  0.75000000  0.87888978  1
  In  In8  1  0.63724346  0.52960318  0.11344451  1
  In  In9  1  0.13724346  0.97039682  0.38655549  1
  In  In10  1  0.36275654  0.02960318  0.88655549  1
  In  In11  1  0.86275654  0.47039682  0.61344451  1
  In  In12  1  0.36275654  0.47039682  0.88655549  1
  In  In13  1  0.86275654  0.02960318  0.61344451  1
  In  In14  1  0.63724346  0.97039682  0.11344451  1
  In  In15  1  0.13724346  0.52960318  0.38655549  1
  Se  Se16  1  0.99935109  0.25000000  0.15025583  1
  Se  Se17  1  0.49935109  0.25000000  0.34974417  1
  Se  Se18  1  0.00064891  0.75000000  0.84974417  1
  Se  Se19  1  0.50064891  0.75000000  0.65025583  1
  Se  Se20  1  0.53139292  0.56719021  0.34515352  1
  Se  Se21  1  0.03139292  0.93280979  0.15484648  1
  Se  Se22  1  0.46860708  0.06719021  0.65484648  1
  Se  Se23  1  0.96860708  0.43280979  0.84515352  1
  Se  Se24  1  0.46860708  0.43280979  0.65484648  1
  Se  Se25  1  0.96860708  0.06719021  0.84515352  1
  Se  Se26  1  0.53139292  0.93280979  0.34515352  1
  Se  Se27  1  0.03139292  0.56719021  0.15484648  1
  N  N28  1  0.45894599  0.62350613  0.98092612  1
  N  N29  1  0.95894599  0.87649387  0.51907388  1
  N  N30  1  0.54105401  0.12350613  0.01907388  1
  N  N31  1  0.04105401  0.37649387  0.48092612  1
  N  N32  1  0.54105401  0.37649387  0.01907388  1
  N  N33  1  0.04105401  0.12350613  0.48092612  1
  N  N34  1  0.45894599  0.87649387  0.98092612  1
  N  N35  1  0.95894599  0.62350613  0.51907388  1
