# generated using pymatgen
data_Cd3(FeN2)2
_symmetry_space_group_name_H-M   'P 1'
_cell_length_a   7.89024641
_cell_length_b   8.05158806
_cell_length_c   5.48293140
_cell_angle_alpha   90.00000474
_cell_angle_beta   77.27899096
_cell_angle_gamma   120.67876302
_symmetry_Int_Tables_number   1
_chemical_formula_structural   Cd3(FeN2)2
_chemical_formula_sum   'Cd6 Fe4 N8'
_cell_volume   289.58828951
_cell_formula_units_Z   2
loop_
 _symmetry_equiv_pos_site_id
 _symmetry_equiv_pos_as_xyz
  1  'x, y, z'
loop_
 _atom_site_type_symbol
 _atom_site_label
 _atom_site_symmetry_multiplicity
 _atom_site_fract_x
 _atom_site_fract_y
 _atom_site_fract_z
 _atom_site_occupancy
  Cd  Cd0  1  0.22634800  0.84271400  0.13835200  1
  Cd  Cd1  1  0.77365200  0.61636700  0.36164800  1
  Cd  Cd2  1  0.77365200  0.15728600  0.86164800  1
  Cd  Cd3  1  0.22634800  0.38363300  0.63835200  1
  Cd  Cd4  1  0.00000000  0.61030800  0.75000000  1
  Cd  Cd5  1  0.00000000  0.38969200  0.25000000  1
  Fe  Fe6  1  0.46473200  0.12423100  0.58621800  1
  Fe  Fe7  1  0.53526800  0.65949900  0.91378200  1
  Fe  Fe8  1  0.53526800  0.87576900  0.41378200  1
  Fe  Fe9  1  0.46473200  0.34050100  0.08621800  1
  N  N10  1  0.30079800  0.87543200  0.53662500  1
  N  N11  1  0.69920200  0.57463400  0.96337500  1
  N  N12  1  0.69920200  0.12456800  0.46337500  1
  N  N13  1  0.30079800  0.42536600  0.03662500  1
  N  N14  1  0.43566100  0.14971100  0.91246200  1
  N  N15  1  0.56433900  0.71405000  0.58753800  1
  N  N16  1  0.56433900  0.85028900  0.08753800  1
  N  N17  1  0.43566100  0.28595000  0.41246200  1
