# generated using pymatgen
data_Sr5(ReN3)2
_symmetry_space_group_name_H-M   'P 1'
_cell_length_a   6.34040607
_cell_length_b   7.08025846
_cell_length_c   13.31839136
_cell_angle_alpha   89.99999918
_cell_angle_beta   100.26978054
_cell_angle_gamma   123.94136768
_symmetry_Int_Tables_number   1
_chemical_formula_structural   Sr5(ReN3)2
_chemical_formula_sum   'Sr10 Re4 N12'
_cell_volume   484.42253731
_cell_formula_units_Z   2
loop_
 _symmetry_equiv_pos_site_id
 _symmetry_equiv_pos_as_xyz
  1  'x, y, z'
loop_
 _atom_site_type_symbol
 _atom_site_label
 _atom_site_symmetry_multiplicity
 _atom_site_fract_x
 _atom_site_fract_y
 _atom_site_fract_z
 _atom_site_occupancy
  Sr  Sr0  1  0.12120000  0.79916200  0.99641200  1
  Sr  Sr1  1  0.87880000  0.67796200  0.50358800  1
  Sr  Sr2  1  0.87880000  0.20083800  0.00358800  1
  Sr  Sr3  1  0.12120000  0.32203800  0.49641200  1
  Sr  Sr4  1  0.31677500  0.06474300  0.71485800  1
  Sr  Sr5  1  0.68322500  0.74796700  0.78514200  1
  Sr  Sr6  1  0.68322500  0.93525700  0.28514200  1
  Sr  Sr7  1  0.31677500  0.25203300  0.21485800  1
  Sr  Sr8  1  0.00000000  0.38573300  0.75000000  1
  Sr  Sr9  1  0.00000000  0.61426700  0.25000000  1
  Re  Re10  1  0.53798500  0.87273400  0.55960100  1
  Re  Re11  1  0.46201500  0.33474800  0.94039900  1
  Re  Re12  1  0.46201500  0.12726600  0.44039900  1
  Re  Re13  1  0.53798500  0.66525200  0.05960100  1
  N  N14  1  0.89189700  0.99697300  0.62192300  1
  N  N15  1  0.10810300  0.10507600  0.87807700  1
  N  N16  1  0.10810300  0.00302700  0.37807700  1
  N  N17  1  0.89189700  0.89492400  0.12192300  1
  N  N18  1  0.29119300  0.69777600  0.64205700  1
  N  N19  1  0.70880700  0.40658200  0.85794300  1
  N  N20  1  0.70880700  0.30222400  0.35794300  1
  N  N21  1  0.29119300  0.59341800  0.14205700  1
  N  N22  1  0.58635900  0.25085900  0.57921700  1
  N  N23  1  0.41364100  0.66450100  0.92078300  1
  N  N24  1  0.41364100  0.74914100  0.42078300  1
  N  N25  1  0.58635900  0.33549900  0.07921700  1
