# generated using pymatgen
data_Ba3(CrN2)2
_symmetry_space_group_name_H-M   'P 1'
_cell_length_a   6.17303432
_cell_length_b   10.12244018
_cell_length_c   10.18216259
_cell_angle_alpha   90.00000000
_cell_angle_beta   90.00000000
_cell_angle_gamma   90.00000000
_symmetry_Int_Tables_number   1
_chemical_formula_structural   Ba3(CrN2)2
_chemical_formula_sum   'Ba12 Cr8 N16'
_cell_volume   636.24434901
_cell_formula_units_Z   4
loop_
 _symmetry_equiv_pos_site_id
 _symmetry_equiv_pos_as_xyz
  1  'x, y, z'
loop_
 _atom_site_type_symbol
 _atom_site_label
 _atom_site_symmetry_multiplicity
 _atom_site_fract_x
 _atom_site_fract_y
 _atom_site_fract_z
 _atom_site_occupancy
  Ba  Ba0  1  0.62461276  0.15730897  0.41822717  1
  Ba  Ba1  1  0.87538724  0.84269103  0.41822717  1
  Ba  Ba2  1  0.62461276  0.34269103  0.08177283  1
  Ba  Ba3  1  0.87538724  0.65730897  0.08177283  1
  Ba  Ba4  1  0.37538724  0.84269103  0.58177283  1
  Ba  Ba5  1  0.12461276  0.15730897  0.58177283  1
  Ba  Ba6  1  0.37538724  0.65730897  0.91822717  1
  Ba  Ba7  1  0.12461276  0.34269103  0.91822717  1
  Ba  Ba8  1  0.75000000  0.50000000  0.40368780  1
  Ba  Ba9  1  0.75000000  0.00000000  0.09631220  1
  Ba  Ba10  1  0.25000000  0.50000000  0.59631220  1
  Ba  Ba11  1  0.25000000  0.00000000  0.90368780  1
  Cr  Cr12  1  0.75000000  0.50000000  0.73573924  1
  Cr  Cr13  1  0.75000000  0.00000000  0.76426076  1
  Cr  Cr14  1  0.25000000  0.50000000  0.26426076  1
  Cr  Cr15  1  0.25000000  0.00000000  0.23573924  1
  Cr  Cr16  1  0.66963943  0.25000000  0.75000000  1
  Cr  Cr17  1  0.83036057  0.75000000  0.75000000  1
  Cr  Cr18  1  0.33036057  0.75000000  0.25000000  1
  Cr  Cr19  1  0.16963943  0.25000000  0.25000000  1
  N  N20  1  0.85038300  0.35435564  0.64054612  1
  N  N21  1  0.64961700  0.64564436  0.64054612  1
  N  N22  1  0.85038300  0.14564436  0.85945388  1
  N  N23  1  0.64961700  0.85435564  0.85945388  1
  N  N24  1  0.14961700  0.64564436  0.35945388  1
  N  N25  1  0.35038300  0.35435564  0.35945388  1
  N  N26  1  0.14961700  0.85435564  0.14054612  1
  N  N27  1  0.35038300  0.14564436  0.14054612  1
  N  N28  1  0.54131468  0.40764953  0.82821715  1
  N  N29  1  0.95868532  0.59235047  0.82821715  1
  N  N30  1  0.54131468  0.09235047  0.67178285  1
  N  N31  1  0.95868532  0.90764953  0.67178285  1
  N  N32  1  0.45868532  0.59235047  0.17178285  1
  N  N33  1  0.04131468  0.40764953  0.17178285  1
  N  N34  1  0.45868532  0.90764953  0.32821715  1
  N  N35  1  0.04131468  0.09235047  0.32821715  1
