# generated using pymatgen
data_In2Pb3N4
_symmetry_space_group_name_H-M   'P 1'
_cell_length_a   7.39271916
_cell_length_b   9.79074711
_cell_length_c   6.99272065
_cell_angle_alpha   90.00000192
_cell_angle_beta   97.49857411
_cell_angle_gamma   131.46699842
_symmetry_Int_Tables_number   1
_chemical_formula_structural   In2Pb3N4
_chemical_formula_sum   'In4 Pb6 N8'
_cell_volume   373.46977550
_cell_formula_units_Z   2
loop_
 _symmetry_equiv_pos_site_id
 _symmetry_equiv_pos_as_xyz
  1  'x, y, z'
loop_
 _atom_site_type_symbol
 _atom_site_label
 _atom_site_symmetry_multiplicity
 _atom_site_fract_x
 _atom_site_fract_y
 _atom_site_fract_z
 _atom_site_occupancy
  In  In0  1  0.54445300  0.17941700  0.54642200  1
  In  In1  1  0.45554700  0.63496500  0.95357800  1
  In  In2  1  0.45554700  0.82058300  0.45357800  1
  In  In3  1  0.54445300  0.36503500  0.04642200  1
  Pb  Pb4  1  0.19454400  0.89810600  0.08894500  1
  Pb  Pb5  1  0.80545600  0.70356200  0.41105500  1
  Pb  Pb6  1  0.80545600  0.10189400  0.91105500  1
  Pb  Pb7  1  0.19454400  0.29643800  0.58894500  1
  Pb  Pb8  1  0.00000000  0.58660900  0.75000000  1
  Pb  Pb9  1  0.00000000  0.41339100  0.25000000  1
  N  N10  1  0.22902400  0.90215500  0.42376500  1
  N  N11  1  0.77097600  0.67313000  0.07623500  1
  N  N12  1  0.77097600  0.09784500  0.57623500  1
  N  N13  1  0.22902400  0.32687000  0.92376500  1
  N  N14  1  0.70956500  0.30014000  0.86130700  1
  N  N15  1  0.29043500  0.59057500  0.63869300  1
  N  N16  1  0.29043500  0.69986000  0.13869300  1
  N  N17  1  0.70956500  0.40942500  0.36130700  1
