# generated using pymatgen
data_NaI
_symmetry_space_group_name_H-M   'P 1'
_cell_length_a   4.26970160
_cell_length_b   4.62220931
_cell_length_c   7.79838400
_cell_angle_alpha   90.00000000
_cell_angle_beta   90.00000000
_cell_angle_gamma   90.05200395
_symmetry_Int_Tables_number   1
_chemical_formula_structural   NaI
_chemical_formula_sum   'Na2 I2'
_cell_volume   153.90458901
_cell_formula_units_Z   2
loop_
 _symmetry_equiv_pos_site_id
 _symmetry_equiv_pos_as_xyz
  1  'x, y, z'
loop_
 _atom_site_type_symbol
 _atom_site_label
 _atom_site_symmetry_multiplicity
 _atom_site_fract_x
 _atom_site_fract_y
 _atom_site_fract_z
 _atom_site_occupancy
  Na  Na0  1  0.50000000  0.25000000  0.72496900  1
  Na  Na1  1  0.50000000  0.75000000  0.27503100  1
  I  I2  1  0.00000000  0.25000000  0.25757300  1
  I  I3  1  0.00000000  0.75000000  0.74242700  1
