# generated using pymatgen
data_Bi(C2N3)3
_symmetry_space_group_name_H-M   'P 1'
_cell_length_a   7.23697224
_cell_length_b   12.24830490
_cell_length_c   11.01918200
_cell_angle_alpha   90.00000000
_cell_angle_beta   90.00000000
_cell_angle_gamma   32.19590179
_symmetry_Int_Tables_number   1
_chemical_formula_structural   Bi(C2N3)3
_chemical_formula_sum   'Bi2 C12 N18'
_cell_volume   520.42638261
_cell_formula_units_Z   2
loop_
 _symmetry_equiv_pos_site_id
 _symmetry_equiv_pos_as_xyz
  1  'x, y, z'
loop_
 _atom_site_type_symbol
 _atom_site_label
 _atom_site_symmetry_multiplicity
 _atom_site_fract_x
 _atom_site_fract_y
 _atom_site_fract_z
 _atom_site_occupancy
  Bi  Bi0  1  0.00000000  0.28619000  0.25000000  1
  Bi  Bi1  1  0.00000000  0.71381000  0.75000000  1
  C  C2  1  0.70333600  0.74510300  0.25000000  1
  C  C3  1  0.70333600  0.55156200  0.75000000  1
  C  C4  1  0.29666400  0.25489700  0.75000000  1
  C  C5  1  0.29666400  0.44843800  0.25000000  1
  C  C6  1  0.70186800  0.29288600  0.93323300  1
  C  C7  1  0.70186800  0.00524500  0.06676700  1
  C  C8  1  0.70186800  0.29288600  0.56676700  1
  C  C9  1  0.70186800  0.00524500  0.43323300  1
  C  C10  1  0.29813200  0.70711400  0.06676700  1
  C  C11  1  0.29813200  0.99475500  0.93323300  1
  C  C12  1  0.29813200  0.70711400  0.43323300  1
  C  C13  1  0.29813200  0.99475500  0.56676700  1
  N  N14  1  0.00000000  0.54775500  0.25000000  1
  N  N15  1  0.00000000  0.45224500  0.75000000  1
  N  N16  1  0.41977900  0.92319400  0.25000000  1
  N  N17  1  0.41977900  0.65702600  0.75000000  1
  N  N18  1  0.58022100  0.07680600  0.75000000  1
  N  N19  1  0.58022100  0.34297400  0.25000000  1
  N  N20  1  0.00000000  0.15190000  0.98555300  1
  N  N21  1  0.00000000  0.84810000  0.01444700  1
  N  N22  1  0.00000000  0.15190000  0.51444700  1
  N  N23  1  0.00000000  0.84810000  0.48555300  1
  N  N24  1  0.41538300  0.42952000  0.89609600  1
  N  N25  1  0.41538300  0.15509500  0.10390400  1
  N  N26  1  0.41538300  0.42952000  0.60390400  1
  N  N27  1  0.41538300  0.15509500  0.39609600  1
  N  N28  1  0.58461700  0.57048000  0.10390400  1
  N  N29  1  0.58461700  0.84490500  0.89609600  1
  N  N30  1  0.58461700  0.57048000  0.39609600  1
  N  N31  1  0.58461700  0.84490500  0.60390400  1
