# generated using pymatgen
data_Al6W5N16
_symmetry_space_group_name_H-M   'P 1'
_cell_length_a   7.85932000
_cell_length_b   9.07516069
_cell_length_c   9.07516072
_cell_angle_alpha   90.00000508
_cell_angle_beta   54.73561408
_cell_angle_gamma   54.73561391
_symmetry_Int_Tables_number   1
_chemical_formula_structural   Al6W5N16
_chemical_formula_sum   'Al6 W5 N16'
_cell_volume   373.70854955
_cell_formula_units_Z   1
loop_
 _symmetry_equiv_pos_site_id
 _symmetry_equiv_pos_as_xyz
  1  'x, y, z'
loop_
 _atom_site_type_symbol
 _atom_site_label
 _atom_site_symmetry_multiplicity
 _atom_site_fract_x
 _atom_site_fract_y
 _atom_site_fract_z
 _atom_site_occupancy
  Al  Al0  1  0.00000000  0.75000000  0.50000000  1
  Al  Al1  1  0.00000000  0.50000000  0.75000000  1
  Al  Al2  1  0.50000000  0.75000000  0.25000000  1
  Al  Al3  1  0.00000000  0.25000000  0.50000000  1
  Al  Al4  1  0.00000000  0.50000000  0.25000000  1
  Al  Al5  1  0.50000000  0.25000000  0.75000000  1
  W  W6  1  0.47410600  0.00000000  0.52589400  1
  W  W7  1  0.47410600  0.52589400  0.00000000  1
  W  W8  1  0.52589400  0.47410600  0.47410600  1
  W  W9  1  0.52589400  0.00000000  0.00000000  1
  W  W10  1  0.00000000  0.00000000  0.00000000  1
  N  N11  1  0.23709900  0.00000000  0.76290100  1
  N  N12  1  0.23709900  0.76290100  0.00000000  1
  N  N13  1  0.76290100  0.23709900  0.23709900  1
  N  N14  1  0.76290100  0.00000000  0.00000000  1
  N  N15  1  0.70025700  0.00000000  0.54596300  1
  N  N16  1  0.20781700  0.24622000  0.54596300  1
  N  N17  1  0.70025700  0.75378000  0.29974300  1
  N  N18  1  0.70025700  0.29974300  0.75378000  1
  N  N19  1  0.20781700  0.54596300  0.24622000  1
  N  N20  1  0.70025700  0.54596300  0.00000000  1
  N  N21  1  0.29974300  0.70025700  0.45403700  1
  N  N22  1  0.79218300  0.45403700  0.45403700  1
  N  N23  1  0.29974300  0.45403700  0.70025700  1
  N  N24  1  0.29974300  0.00000000  0.24622000  1
  N  N25  1  0.79218300  0.75378000  0.75378000  1
  N  N26  1  0.29974300  0.24622000  0.00000000  1
