# generated using pymatgen
data_Zr7(Se2N)4
_symmetry_space_group_name_H-M   'P 1'
_cell_length_a   7.78920655
_cell_length_b   12.80838670
_cell_length_c   9.64046485
_cell_angle_alpha   90.77139949
_cell_angle_beta   64.71831767
_cell_angle_gamma   36.95700642
_symmetry_Int_Tables_number   1
_chemical_formula_structural   Zr7(Se2N)4
_chemical_formula_sum   'Zr7 Se8 N4'
_cell_volume   396.21359710
_cell_formula_units_Z   1
loop_
 _symmetry_equiv_pos_site_id
 _symmetry_equiv_pos_as_xyz
  1  'x, y, z'
loop_
 _atom_site_type_symbol
 _atom_site_label
 _atom_site_symmetry_multiplicity
 _atom_site_fract_x
 _atom_site_fract_y
 _atom_site_fract_z
 _atom_site_occupancy
  Zr  Zr0  1  0.00759900  0.07624700  0.00687700  1
  Zr  Zr1  1  0.16331500  0.50104000  0.61103200  1
  Zr  Zr2  1  0.61704200  0.77165400  0.12829900  1
  Zr  Zr3  1  0.29041600  0.60159100  0.25870400  1
  Zr  Zr4  1  0.71477300  0.55274600  0.37390600  1
  Zr  Zr5  1  0.23452400  0.24282900  0.89417100  1
  Zr  Zr6  1  0.83336200  0.32799200  0.73427100  1
  Se  Se7  1  0.03925600  0.74781600  0.07502900  1
  Se  Se8  1  0.62109200  0.62286100  0.68914400  1
  Se  Se9  1  0.50854700  0.16539000  0.05475900  1
  Se  Se10  1  0.94351200  0.23876200  0.40425600  1
  Se  Se11  1  0.50118200  0.12747200  0.52408100  1
  Se  Se12  1  0.01482200  0.77795100  0.62739300  1
  Se  Se13  1  0.42986500  0.34624400  0.78477700  1
  Se  Se14  1  0.52475700  0.84375200  0.46801200  1
  N  N15  1  0.47863800  0.37524800  0.30024000  1
  N  N16  1  0.54141100  0.82232800  0.94743800  1
  N  N17  1  0.90921100  0.26561900  0.93407800  1
  N  N18  1  0.63417500  0.58885700  0.17973200  1
