# generated using pymatgen
data_Ca3Ir3N5
_symmetry_space_group_name_H-M   'P 1'
_cell_length_a   6.67872856
_cell_length_b   6.72314858
_cell_length_c   8.17741285
_cell_angle_alpha   106.16362278
_cell_angle_beta   107.80973743
_cell_angle_gamma   76.61205730
_symmetry_Int_Tables_number   1
_chemical_formula_structural   Ca3Ir3N5
_chemical_formula_sum   'Ca6 Ir6 N10'
_cell_volume   331.43669814
_cell_formula_units_Z   2
loop_
 _symmetry_equiv_pos_site_id
 _symmetry_equiv_pos_as_xyz
  1  'x, y, z'
loop_
 _atom_site_type_symbol
 _atom_site_label
 _atom_site_symmetry_multiplicity
 _atom_site_fract_x
 _atom_site_fract_y
 _atom_site_fract_z
 _atom_site_occupancy
  Ca  Ca0  1  0.93484000  0.35997700  0.61053300  1
  Ca  Ca1  1  0.06516000  0.64002300  0.38946700  1
  Ca  Ca2  1  0.64412200  0.82968800  0.84827100  1
  Ca  Ca3  1  0.35587800  0.17031200  0.15172900  1
  Ca  Ca4  1  0.56361700  0.65260400  0.21094200  1
  Ca  Ca5  1  0.43638300  0.34739600  0.78905800  1
  Ir  Ir6  1  0.89340400  0.35363100  0.97025100  1
  Ir  Ir7  1  0.10659600  0.64636900  0.02974900  1
  Ir  Ir8  1  0.71617000  0.00046200  0.54374200  1
  Ir  Ir9  1  0.28383000  0.99953800  0.45625800  1
  Ir  Ir10  1  0.10245700  0.83573200  0.76305400  1
  Ir  Ir11  1  0.89754300  0.16426800  0.23694600  1
  N  N12  1  0.85084400  0.06427100  0.80461900  1
  N  N13  1  0.14915600  0.93572900  0.19538100  1
  N  N14  1  0.82366900  0.71376400  0.59628400  1
  N  N15  1  0.17633100  0.28623600  0.40371600  1
  N  N16  1  0.84008800  0.65531100  0.10013700  1
  N  N17  1  0.15991200  0.34468900  0.89986300  1
  N  N18  1  0.28910200  0.88767900  0.64109600  1
  N  N19  1  0.71089800  0.11232100  0.35890400  1
  N  N20  1  0.33978800  0.72157500  0.93455100  1
  N  N21  1  0.66021200  0.27842500  0.06544900  1
