# generated using pymatgen
data_Bi4Se3N2
_symmetry_space_group_name_H-M   'P 1'
_cell_length_a   7.18073703
_cell_length_b   11.15247521
_cell_length_c   11.08990782
_cell_angle_alpha   90.00000000
_cell_angle_beta   90.00000000
_cell_angle_gamma   90.00000000
_symmetry_Int_Tables_number   1
_chemical_formula_structural   Bi4Se3N2
_chemical_formula_sum   'Bi16 Se12 N8'
_cell_volume   888.11299609
_cell_formula_units_Z   4
loop_
 _symmetry_equiv_pos_site_id
 _symmetry_equiv_pos_as_xyz
  1  'x, y, z'
loop_
 _atom_site_type_symbol
 _atom_site_label
 _atom_site_symmetry_multiplicity
 _atom_site_fract_x
 _atom_site_fract_y
 _atom_site_fract_z
 _atom_site_occupancy
  Bi  Bi0  1  0.59006666  0.25000000  0.81619775  1
  Bi  Bi1  1  0.09006666  0.25000000  0.68380225  1
  Bi  Bi2  1  0.40993334  0.75000000  0.18380225  1
  Bi  Bi3  1  0.90993334  0.75000000  0.31619775  1
  Bi  Bi4  1  0.73925332  0.25000000  0.46450753  1
  Bi  Bi5  1  0.23925332  0.25000000  0.03549247  1
  Bi  Bi6  1  0.26074668  0.75000000  0.53549247  1
  Bi  Bi7  1  0.76074668  0.75000000  0.96450753  1
  Bi  Bi8  1  0.67752855  0.44418824  0.09812362  1
  Bi  Bi9  1  0.17752855  0.05581176  0.40187638  1
  Bi  Bi10  1  0.32247145  0.94418824  0.90187638  1
  Bi  Bi11  1  0.82247145  0.55581176  0.59812362  1
  Bi  Bi12  1  0.32247145  0.55581176  0.90187638  1
  Bi  Bi13  1  0.82247145  0.94418824  0.59812362  1
  Bi  Bi14  1  0.67752855  0.05581176  0.09812362  1
  Bi  Bi15  1  0.17752855  0.44418824  0.40187638  1
  Se  Se16  1  0.95282956  0.25000000  0.26448201  1
  Se  Se17  1  0.45282956  0.25000000  0.23551799  1
  Se  Se18  1  0.04717044  0.75000000  0.73551799  1
  Se  Se19  1  0.54717044  0.75000000  0.76448201  1
  Se  Se20  1  0.60703956  0.56498554  0.36142709  1
  Se  Se21  1  0.10703956  0.93501446  0.13857291  1
  Se  Se22  1  0.39296044  0.06498554  0.63857291  1
  Se  Se23  1  0.89296044  0.43501446  0.86142709  1
  Se  Se24  1  0.39296044  0.43501446  0.63857291  1
  Se  Se25  1  0.89296044  0.06498554  0.86142709  1
  Se  Se26  1  0.60703956  0.93501446  0.36142709  1
  Se  Se27  1  0.10703956  0.56498554  0.13857291  1
  N  N28  1  0.55030458  0.62182141  0.04391985  1
  N  N29  1  0.05030458  0.87817859  0.45608015  1
  N  N30  1  0.44969542  0.12182141  0.95608015  1
  N  N31  1  0.94969542  0.37817859  0.54391985  1
  N  N32  1  0.44969542  0.37817859  0.95608015  1
  N  N33  1  0.94969542  0.12182141  0.54391985  1
  N  N34  1  0.55030458  0.87817859  0.04391985  1
  N  N35  1  0.05030458  0.62182141  0.45608015  1
