# generated using pymatgen
data_Mg4SnN4
_symmetry_space_group_name_H-M   'P 1'
_cell_length_a   5.58912023
_cell_length_b   5.63278456
_cell_length_c   8.47409726
_cell_angle_alpha   70.13920880
_cell_angle_beta   82.90909643
_cell_angle_gamma   68.41674662
_symmetry_Int_Tables_number   1
_chemical_formula_structural   Mg4SnN4
_chemical_formula_sum   'Mg8 Sn2 N8'
_cell_volume   233.32248316
_cell_formula_units_Z   2
loop_
 _symmetry_equiv_pos_site_id
 _symmetry_equiv_pos_as_xyz
  1  'x, y, z'
loop_
 _atom_site_type_symbol
 _atom_site_label
 _atom_site_symmetry_multiplicity
 _atom_site_fract_x
 _atom_site_fract_y
 _atom_site_fract_z
 _atom_site_occupancy
  Mg  Mg0  1  0.72352200  0.61468800  0.21775900  1
  Mg  Mg1  1  0.27647700  0.38531200  0.78224100  1
  Mg  Mg2  1  0.75213900  0.24496100  0.99892400  1
  Mg  Mg3  1  0.24786100  0.75503900  0.00107600  1
  Mg  Mg4  1  0.73619300  0.48674900  0.57333400  1
  Mg  Mg5  1  0.26380700  0.51325100  0.42666600  1
  Mg  Mg6  1  0.25976000  0.92912600  0.58022300  1
  Mg  Mg7  1  0.74024000  0.07087400  0.41977700  1
  Sn  Sn8  1  0.72934400  0.83363000  0.78371200  1
  Sn  Sn9  1  0.27065600  0.16637000  0.21628800  1
  N  N10  1  0.99627000  0.69712100  0.60218400  1
  N  N11  1  0.00373000  0.30287900  0.39781600  1
  N  N12  1  0.84642200  0.84142700  0.99963100  1
  N  N13  1  0.15357800  0.15857300  0.00036900  1
  N  N14  1  0.49569600  0.60566700  0.80401600  1
  N  N15  1  0.50430400  0.39433300  0.19598400  1
  N  N16  1  0.49002000  0.80169700  0.38462600  1
  N  N17  1  0.50998000  0.19830300  0.61537400  1
