# generated using pymatgen
data_Cr7GeN6
_symmetry_space_group_name_H-M   'P 1'
_cell_length_a   9.21694700
_cell_length_b   5.52268600
_cell_length_c   11.36658800
_cell_angle_alpha   90.00000000
_cell_angle_beta   90.00000000
_cell_angle_gamma   90.00000000
_symmetry_Int_Tables_number   1
_chemical_formula_structural   Cr7GeN6
_chemical_formula_sum   'Cr28 Ge4 N24'
_cell_volume   578.58551963
_cell_formula_units_Z   4
loop_
 _symmetry_equiv_pos_site_id
 _symmetry_equiv_pos_as_xyz
  1  'x, y, z'
loop_
 _atom_site_type_symbol
 _atom_site_label
 _atom_site_symmetry_multiplicity
 _atom_site_fract_x
 _atom_site_fract_y
 _atom_site_fract_z
 _atom_site_occupancy
  Cr  Cr0  1  0.01340100  0.75074200  0.99758400  1
  Cr  Cr1  1  0.48659900  0.74925800  0.49758400  1
  Cr  Cr2  1  0.51340100  0.74925800  0.00241600  1
  Cr  Cr3  1  0.98659900  0.75074200  0.50241600  1
  Cr  Cr4  1  0.98659900  0.24925800  0.00241600  1
  Cr  Cr5  1  0.51340100  0.25074200  0.50241600  1
  Cr  Cr6  1  0.48659900  0.25074200  0.99758400  1
  Cr  Cr7  1  0.01340100  0.24925800  0.49758400  1
  Cr  Cr8  1  0.21893300  0.03663900  0.62951500  1
  Cr  Cr9  1  0.28106700  0.46336100  0.12951500  1
  Cr  Cr10  1  0.71893300  0.46336100  0.37048500  1
  Cr  Cr11  1  0.78106700  0.03663900  0.87048500  1
  Cr  Cr12  1  0.78106700  0.96336100  0.37048500  1
  Cr  Cr13  1  0.71893300  0.53663900  0.87048500  1
  Cr  Cr14  1  0.28106700  0.53663900  0.62951500  1
  Cr  Cr15  1  0.21893300  0.96336100  0.12951500  1
  Cr  Cr16  1  0.24707500  0.46741500  0.90590700  1
  Cr  Cr17  1  0.25292500  0.03258500  0.40590700  1
  Cr  Cr18  1  0.74707500  0.03258500  0.09409300  1
  Cr  Cr19  1  0.75292500  0.46741500  0.59409300  1
  Cr  Cr20  1  0.75292500  0.53258500  0.09409300  1
  Cr  Cr21  1  0.74707500  0.96741500  0.59409300  1
  Cr  Cr22  1  0.25292500  0.96741500  0.90590700  1
  Cr  Cr23  1  0.24707500  0.53258500  0.40590700  1
  Cr  Cr24  1  0.00000000  0.52867200  0.75000000  1
  Cr  Cr25  1  0.50000000  0.97132800  0.25000000  1
  Cr  Cr26  1  0.00000000  0.47132800  0.25000000  1
  Cr  Cr27  1  0.50000000  0.02867200  0.75000000  1
  Ge  Ge28  1  0.00000000  0.00638800  0.75000000  1
  Ge  Ge29  1  0.50000000  0.49361200  0.25000000  1
  Ge  Ge30  1  0.00000000  0.99361200  0.25000000  1
  Ge  Ge31  1  0.50000000  0.50638800  0.75000000  1
  N  N32  1  0.11742100  0.71134800  0.85743900  1
  N  N33  1  0.38257900  0.78865200  0.35743900  1
  N  N34  1  0.61742100  0.78865200  0.14256100  1
  N  N35  1  0.88257900  0.71134800  0.64256100  1
  N  N36  1  0.88257900  0.28865200  0.14256100  1
  N  N37  1  0.61742100  0.21134800  0.64256100  1
  N  N38  1  0.38257900  0.21134800  0.85743900  1
  N  N39  1  0.11742100  0.28865200  0.35743900  1
  N  N40  1  0.18337100  0.77871400  0.51349000  1
  N  N41  1  0.31662900  0.72128600  0.01349000  1
  N  N42  1  0.68337100  0.72128600  0.48651000  1
  N  N43  1  0.81662900  0.77871400  0.98651000  1
  N  N44  1  0.81662900  0.22128600  0.48651000  1
  N  N45  1  0.68337100  0.27871400  0.98651000  1
  N  N46  1  0.31662900  0.27871400  0.51349000  1
  N  N47  1  0.18337100  0.22128600  0.01349000  1
  N  N48  1  0.39641700  0.84587400  0.64029000  1
  N  N49  1  0.10358300  0.65412600  0.14029000  1
  N  N50  1  0.89641700  0.65412600  0.35971000  1
  N  N51  1  0.60358300  0.84587400  0.85971000  1
  N  N52  1  0.60358300  0.15412600  0.35971000  1
  N  N53  1  0.89641700  0.34587400  0.85971000  1
  N  N54  1  0.10358300  0.34587400  0.64029000  1
  N  N55  1  0.39641700  0.15412600  0.14029000  1
