# generated using pymatgen
data_Ca7(VN3)3
_symmetry_space_group_name_H-M   'P 1'
_cell_length_a   6.07800016
_cell_length_b   9.99816700
_cell_length_c   9.03075519
_cell_angle_alpha   90.00000000
_cell_angle_beta   91.49989182
_cell_angle_gamma   90.00000000
_symmetry_Int_Tables_number   1
_chemical_formula_structural   Ca7(VN3)3
_chemical_formula_sum   'Ca14 V6 N18'
_cell_volume   548.60067411
_cell_formula_units_Z   2
loop_
 _symmetry_equiv_pos_site_id
 _symmetry_equiv_pos_as_xyz
  1  'x, y, z'
loop_
 _atom_site_type_symbol
 _atom_site_label
 _atom_site_symmetry_multiplicity
 _atom_site_fract_x
 _atom_site_fract_y
 _atom_site_fract_z
 _atom_site_occupancy
  Ca  Ca0  1  0.06891300  0.41619700  0.16979100  1
  Ca  Ca1  1  0.93108700  0.91619600  0.83020900  1
  Ca  Ca2  1  0.93108700  0.58380400  0.83020900  1
  Ca  Ca3  1  0.06891300  0.08380400  0.16979100  1
  Ca  Ca4  1  0.24769900  0.91950600  0.51238500  1
  Ca  Ca5  1  0.75230100  0.41950600  0.48761500  1
  Ca  Ca6  1  0.75230100  0.08049400  0.48761500  1
  Ca  Ca7  1  0.24769900  0.58049400  0.51238500  1
  Ca  Ca8  1  0.57773300  0.93145300  0.16190300  1
  Ca  Ca9  1  0.42226700  0.43145300  0.83809700  1
  Ca  Ca10  1  0.42226700  0.06854700  0.83809700  1
  Ca  Ca11  1  0.57773300  0.56854700  0.16190300  1
  Ca  Ca12  1  0.91033100  0.25000000  0.79361900  1
  Ca  Ca13  1  0.08966900  0.75000000  0.20638100  1
  V  V14  1  0.28124400  0.25000000  0.57095600  1
  V  V15  1  0.71875600  0.75000000  0.42904400  1
  V  V16  1  0.45252000  0.25000000  0.28147100  1
  V  V17  1  0.54748000  0.75000000  0.71852900  1
  V  V18  1  0.67345000  0.25000000  0.06401800  1
  V  V19  1  0.32655000  0.75000000  0.93598200  1
  N  N20  1  0.12511400  0.39317400  0.65441700  1
  N  N21  1  0.87488600  0.89317400  0.34558300  1
  N  N22  1  0.87488600  0.60682600  0.34558300  1
  N  N23  1  0.12511400  0.10682600  0.65441700  1
  N  N24  1  0.23142900  0.90438200  0.02200900  1
  N  N25  1  0.76857100  0.40438200  0.97799100  1
  N  N26  1  0.76857100  0.09561800  0.97799100  1
  N  N27  1  0.23142900  0.59561800  0.02200900  1
  N  N28  1  0.36342900  0.39522200  0.37701600  1
  N  N29  1  0.63657100  0.89522200  0.62298400  1
  N  N30  1  0.63657100  0.60477800  0.62298400  1
  N  N31  1  0.36342900  0.10477800  0.37701600  1
  N  N32  1  0.35475000  0.25000000  0.07097800  1
  N  N33  1  0.64525000  0.75000000  0.92902200  1
  N  N34  1  0.54163600  0.25000000  0.66454000  1
  N  N35  1  0.45836400  0.75000000  0.33546000  1
  N  N36  1  0.77448500  0.25000000  0.26895500  1
  N  N37  1  0.22551500  0.75000000  0.73104500  1
