# generated using pymatgen
data_Sr(C4N3)2
_symmetry_space_group_name_H-M   'P 1'
_cell_length_a   5.81254700
_cell_length_b   8.42230000
_cell_length_c   11.51224200
_cell_angle_alpha   90.00000000
_cell_angle_beta   90.00000000
_cell_angle_gamma   90.00000000
_symmetry_Int_Tables_number   1
_chemical_formula_structural   Sr(C4N3)2
_chemical_formula_sum   'Sr2 C16 N12'
_cell_volume   563.58197517
_cell_formula_units_Z   2
loop_
 _symmetry_equiv_pos_site_id
 _symmetry_equiv_pos_as_xyz
  1  'x, y, z'
loop_
 _atom_site_type_symbol
 _atom_site_label
 _atom_site_symmetry_multiplicity
 _atom_site_fract_x
 _atom_site_fract_y
 _atom_site_fract_z
 _atom_site_occupancy
  Sr  Sr0  1  0.00000000  0.50000000  0.50000000  1
  Sr  Sr1  1  0.00000000  0.00000000  0.00000000  1
  C  C2  1  0.40890300  0.00000000  0.74191400  1
  C  C3  1  0.40890300  0.50000000  0.75808600  1
  C  C4  1  0.59109700  0.00000000  0.25808600  1
  C  C5  1  0.59109700  0.50000000  0.24191400  1
  C  C6  1  0.58881300  0.00000000  0.66057500  1
  C  C7  1  0.58881300  0.50000000  0.83942500  1
  C  C8  1  0.41118700  0.00000000  0.33942500  1
  C  C9  1  0.41118700  0.50000000  0.16057500  1
  C  C10  1  0.68320900  0.14320600  0.62068300  1
  C  C11  1  0.68320900  0.35679400  0.87931700  1
  C  C12  1  0.31679100  0.14320600  0.37931700  1
  C  C13  1  0.68320900  0.64320600  0.87931700  1
  C  C14  1  0.31679100  0.85679400  0.37931700  1
  C  C15  1  0.31679100  0.64320600  0.12068300  1
  C  C16  1  0.68320900  0.85679400  0.62068300  1
  C  C17  1  0.31679100  0.35679400  0.12068300  1
  N  N18  1  0.76398600  0.26169400  0.58632000  1
  N  N19  1  0.76398600  0.23830600  0.91368000  1
  N  N20  1  0.23601400  0.26169400  0.41368000  1
  N  N21  1  0.76398600  0.76169400  0.91368000  1
  N  N22  1  0.23601400  0.73830600  0.41368000  1
  N  N23  1  0.23601400  0.76169400  0.08632000  1
  N  N24  1  0.76398600  0.73830600  0.58632000  1
  N  N25  1  0.23601400  0.23830600  0.08632000  1
  N  N26  1  0.25994900  0.00000000  0.81057100  1
  N  N27  1  0.25994900  0.50000000  0.68942900  1
  N  N28  1  0.74005100  0.00000000  0.18942900  1
  N  N29  1  0.74005100  0.50000000  0.31057100  1
