# generated using pymatgen
data_Ba3(FeN2)2
_symmetry_space_group_name_H-M   'P 1'
_cell_length_a   6.10732011
_cell_length_b   10.12115468
_cell_length_c   10.12312921
_cell_angle_alpha   90.00000000
_cell_angle_beta   90.00000000
_cell_angle_gamma   90.00000000
_symmetry_Int_Tables_number   1
_chemical_formula_structural   Ba3(FeN2)2
_chemical_formula_sum   'Ba12 Fe8 N16'
_cell_volume   625.74231719
_cell_formula_units_Z   4
loop_
 _symmetry_equiv_pos_site_id
 _symmetry_equiv_pos_as_xyz
  1  'x, y, z'
loop_
 _atom_site_type_symbol
 _atom_site_label
 _atom_site_symmetry_multiplicity
 _atom_site_fract_x
 _atom_site_fract_y
 _atom_site_fract_z
 _atom_site_occupancy
  Ba  Ba0  1  0.60520140  0.15816179  0.41550621  1
  Ba  Ba1  1  0.89479860  0.84183821  0.41550621  1
  Ba  Ba2  1  0.60520140  0.34183821  0.08449379  1
  Ba  Ba3  1  0.89479860  0.65816179  0.08449379  1
  Ba  Ba4  1  0.39479860  0.84183821  0.58449379  1
  Ba  Ba5  1  0.10520140  0.15816179  0.58449379  1
  Ba  Ba6  1  0.39479860  0.65816179  0.91550621  1
  Ba  Ba7  1  0.10520140  0.34183821  0.91550621  1
  Ba  Ba8  1  0.75000000  0.50000000  0.40115478  1
  Ba  Ba9  1  0.75000000  -0.00000000  0.09884522  1
  Ba  Ba10  1  0.25000000  0.50000000  0.59884522  1
  Ba  Ba11  1  0.25000000  -0.00000000  0.90115478  1
  Fe  Fe12  1  0.75000000  0.50000000  0.73232513  1
  Fe  Fe13  1  0.75000000  0.00000000  0.76767487  1
  Fe  Fe14  1  0.25000000  0.50000000  0.26767487  1
  Fe  Fe15  1  0.25000000  -0.00000000  0.23232513  1
  Fe  Fe16  1  0.64608059  0.25000000  0.75000000  1
  Fe  Fe17  1  0.85391941  0.75000000  0.75000000  1
  Fe  Fe18  1  0.35391941  0.75000000  0.25000000  1
  Fe  Fe19  1  0.14608059  0.25000000  0.25000000  1
  N  N20  1  0.83748275  0.35822274  0.63478966  1
  N  N21  1  0.66251725  0.64177726  0.63478966  1
  N  N22  1  0.83748275  0.14177726  0.86521034  1
  N  N23  1  0.66251725  0.85822274  0.86521034  1
  N  N24  1  0.16251725  0.64177726  0.36521034  1
  N  N25  1  0.33748275  0.35822274  0.36521034  1
  N  N26  1  0.16251725  0.85822274  0.13478966  1
  N  N27  1  0.33748275  0.14177726  0.13478966  1
  N  N28  1  0.52923980  0.41285694  0.82644898  1
  N  N29  1  0.97076020  0.58714306  0.82644898  1
  N  N30  1  0.52923980  0.08714306  0.67355102  1
  N  N31  1  0.97076020  0.91285694  0.67355102  1
  N  N32  1  0.47076020  0.58714306  0.17355102  1
  N  N33  1  0.02923980  0.41285694  0.17355102  1
  N  N34  1  0.47076020  0.91285694  0.32644898  1
  N  N35  1  0.02923980  0.08714306  0.32644898  1
