# generated using pymatgen
data_Sr4GeN4
_symmetry_space_group_name_H-M   'P 1'
_cell_length_a   6.88677432
_cell_length_b   6.76663730
_cell_length_c   8.57643771
_cell_angle_alpha   74.15569271
_cell_angle_beta   82.30194549
_cell_angle_gamma   60.70788692
_symmetry_Int_Tables_number   1
_chemical_formula_structural   Sr4GeN4
_chemical_formula_sum   'Sr8 Ge2 N8'
_cell_volume   335.31923831
_cell_formula_units_Z   2
loop_
 _symmetry_equiv_pos_site_id
 _symmetry_equiv_pos_as_xyz
  1  'x, y, z'
loop_
 _atom_site_type_symbol
 _atom_site_label
 _atom_site_symmetry_multiplicity
 _atom_site_fract_x
 _atom_site_fract_y
 _atom_site_fract_z
 _atom_site_occupancy
  Sr  Sr0  1  0.79470400  0.61746000  0.13323200  1
  Sr  Sr1  1  0.20529600  0.38254000  0.86676800  1
  Sr  Sr2  1  0.72592200  0.23734600  0.94381700  1
  Sr  Sr3  1  0.27407800  0.76265400  0.05618300  1
  Sr  Sr4  1  0.72654400  0.53571700  0.55658500  1
  Sr  Sr5  1  0.27345600  0.46428300  0.44341500  1
  Sr  Sr6  1  0.20700100  0.91227000  0.63292000  1
  Sr  Sr7  1  0.79299900  0.08773000  0.36708000  1
  Ge  Ge8  1  0.74795000  0.87580300  0.74994400  1
  Ge  Ge9  1  0.25205000  0.12419700  0.25005600  1
  N  N10  1  0.96027000  0.72319300  0.59159600  1
  N  N11  1  0.03973000  0.27680700  0.40840400  1
  N  N12  1  0.96011600  0.81767900  0.90777300  1
  N  N13  1  0.03988400  0.18232100  0.09222700  1
  N  N14  1  0.58028100  0.71122800  0.83999000  1
  N  N15  1  0.41971900  0.28877200  0.16001000  1
  N  N16  1  0.42291200  0.79276900  0.33963800  1
  N  N17  1  0.57708800  0.20723100  0.66036200  1
