# generated using pymatgen
data_TaSN
_symmetry_space_group_name_H-M   'P 1'
_cell_length_a   5.40906215
_cell_length_b   5.61828100
_cell_length_c   5.49175791
_cell_angle_alpha   90.00000000
_cell_angle_beta   98.60666897
_cell_angle_gamma   90.00000000
_symmetry_Int_Tables_number   1
_chemical_formula_structural   TaSN
_chemical_formula_sum   'Ta4 S4 N4'
_cell_volume   165.01311541
_cell_formula_units_Z   4
loop_
 _symmetry_equiv_pos_site_id
 _symmetry_equiv_pos_as_xyz
  1  'x, y, z'
loop_
 _atom_site_type_symbol
 _atom_site_label
 _atom_site_symmetry_multiplicity
 _atom_site_fract_x
 _atom_site_fract_y
 _atom_site_fract_z
 _atom_site_occupancy
  Ta  Ta0  1  0.34883300  0.48027300  0.72176600  1
  Ta  Ta1  1  0.65116700  0.98027300  0.77823400  1
  Ta  Ta2  1  0.65116700  0.51972700  0.27823400  1
  Ta  Ta3  1  0.34883300  0.01972700  0.22176600  1
  S  S4  1  0.09799100  0.12075800  0.79878500  1
  S  S5  1  0.90200900  0.62075800  0.70121500  1
  S  S6  1  0.90200900  0.87924200  0.20121500  1
  S  S7  1  0.09799100  0.37924200  0.29878500  1
  N  N8  1  0.44251100  0.73664200  0.99595400  1
  N  N9  1  0.55748900  0.23664200  0.50404600  1
  N  N10  1  0.55748900  0.26335800  0.00404600  1
  N  N11  1  0.44251100  0.76335800  0.49595400  1
