# generated using pymatgen
data_Sr2CuN2
_symmetry_space_group_name_H-M   'P 1'
_cell_length_a   3.82598800
_cell_length_b   3.83612100
_cell_length_c   6.91943042
_cell_angle_alpha   106.09311873
_cell_angle_beta   106.04945540
_cell_angle_gamma   90.00000000
_symmetry_Int_Tables_number   1
_chemical_formula_structural   Sr2CuN2
_chemical_formula_sum   'Sr2 Cu1 N2'
_cell_volume   93.44968560
_cell_formula_units_Z   1
loop_
 _symmetry_equiv_pos_site_id
 _symmetry_equiv_pos_as_xyz
  1  'x, y, z'
loop_
 _atom_site_type_symbol
 _atom_site_label
 _atom_site_symmetry_multiplicity
 _atom_site_fract_x
 _atom_site_fract_y
 _atom_site_fract_z
 _atom_site_occupancy
  Sr  Sr0  1  0.15239700  0.15239700  0.80479300  1
  Sr  Sr1  1  0.84760300  0.84760300  0.19520700  1
  Cu  Cu2  1  0.50000000  0.50000000  0.50000000  1
  N  N3  1  0.64247500  0.64247500  0.78495000  1
  N  N4  1  0.35752500  0.35752500  0.21505000  1
