# generated using pymatgen
data_Zn3SbN
_symmetry_space_group_name_H-M   'P 1'
_cell_length_a   5.88194100
_cell_length_b   6.17072967
_cell_length_c   6.14203700
_cell_angle_alpha   119.84630998
_cell_angle_beta   90.00000000
_cell_angle_gamma   118.46357961
_symmetry_Int_Tables_number   1
_chemical_formula_structural   Zn3SbN
_chemical_formula_sum   'Zn6 Sb2 N2'
_cell_volume   161.55496880
_cell_formula_units_Z   2
loop_
 _symmetry_equiv_pos_site_id
 _symmetry_equiv_pos_as_xyz
  1  'x, y, z'
loop_
 _atom_site_type_symbol
 _atom_site_label
 _atom_site_symmetry_multiplicity
 _atom_site_fract_x
 _atom_site_fract_y
 _atom_site_fract_z
 _atom_site_occupancy
  Zn  Zn0  1  0.20724200  0.91448200  0.70724200  1
  Zn  Zn1  1  0.29275800  0.08551800  0.29275800  1
  Zn  Zn2  1  0.79275800  0.08551800  0.29275800  1
  Zn  Zn3  1  0.70724200  0.91448200  0.70724200  1
  Zn  Zn4  1  0.75000000  0.50000000  0.18636400  1
  Zn  Zn5  1  0.25000000  0.50000000  0.81363600  1
  Sb  Sb6  1  0.25000000  0.50000000  0.24994100  1
  Sb  Sb7  1  0.75000000  0.50000000  0.75005900  1
  N  N8  1  0.50000000  0.00000000  0.00000000  1
  N  N9  1  0.00000000  0.00000000  0.50000000  1
