# generated using pymatgen
data_BaNb2Fe2O9
_symmetry_space_group_name_H-M   'P 1'
_cell_length_a   13.50567632
_cell_length_b   13.50555184
_cell_length_c   3.97573760
_cell_angle_alpha   81.53775313
_cell_angle_beta   81.53420444
_cell_angle_gamma   16.92804243
_symmetry_Int_Tables_number   1
_chemical_formula_structural   BaNb2Fe2O9
_chemical_formula_sum   'Ba1 Nb2 Fe2 O9'
_cell_volume   208.80029090
_cell_formula_units_Z   1
loop_
 _symmetry_equiv_pos_site_id
 _symmetry_equiv_pos_as_xyz
  1  'x, y, z'
loop_
 _atom_site_type_symbol
 _atom_site_label
 _atom_site_symmetry_multiplicity
 _atom_site_fract_x
 _atom_site_fract_y
 _atom_site_fract_z
 _atom_site_occupancy
  Ba  Ba0  1  0.72252100  0.27747900  0.72252100  1
  Nb  Nb1  1  0.29860200  0.86932600  0.13067400  1
  Nb  Nb2  1  0.13067400  0.70139800  0.29860200  1
  Fe  Fe3  1  0.46176800  0.98866300  0.01133700  1
  Fe  Fe4  1  0.01133700  0.53823200  0.46176800  1
  O  O5  1  0.22768100  0.77231900  0.22768100  1
  O  O6  1  0.38784500  0.92545800  0.07454200  1
  O  O7  1  0.07454200  0.61215500  0.38784500  1
  O  O8  1  0.98656400  0.51343600  0.98656400  1
  O  O9  1  0.48656400  0.01343600  0.48656400  1
  O  O10  1  0.15591200  0.69095400  0.80603900  1
  O  O11  1  0.30904600  0.84408800  0.65290500  1
  O  O12  1  0.80603900  0.34709500  0.15591200  1
  O  O13  1  0.65290500  0.19396100  0.30904600  1
