data_image0
_chemical_formula_structural       Mg3Pr3Pt3
_chemical_formula_sum              "Mg3 Pr3 Pt3"
_cell_length_a       7.57688
_cell_length_b       7.57688
_cell_length_c       4.15535
_cell_angle_alpha    90
_cell_angle_beta     90
_cell_angle_gamma    120

_space_group_name_H-M_alt    "P 1"
_space_group_IT_number       1

loop_
  _space_group_symop_operation_xyz
  'x, y, z'

loop_
  _atom_site_type_symbol
  _atom_site_label
  _atom_site_symmetry_multiplicity
  _atom_site_fract_x
  _atom_site_fract_y
  _atom_site_fract_z
  _atom_site_occupancy
  Mg  Mg1       1.0  0.23900  1.00000  0.50000  1.0000
  Mg  Mg2       1.0  0.00000  0.23900  0.50000  1.0000
  Mg  Mg3       1.0  0.76100  0.76100  0.50000  1.0000
  Pr  Pr1       1.0  0.58600  1.00000  0.00000  1.0000
  Pr  Pr2       1.0  0.41400  0.41400  0.00000  1.0000
  Pr  Pr3       1.0  0.00000  0.58600  0.00000  1.0000
  Pt  Pt1       1.0  0.00000  0.00000  0.00000  1.0000
  Pt  Pt2       1.0  0.66700  0.33300  0.50000  1.0000
  Pt  Pt3       1.0  0.33300  0.66700  0.50000  1.0000
