# generated using pymatgen
data_Sr2PbN2
_symmetry_space_group_name_H-M   'P 1'
_cell_length_a   6.58960167
_cell_length_b   11.95861543
_cell_length_c   12.98631300
_cell_angle_alpha   90.00000000
_cell_angle_beta   90.00000000
_cell_angle_gamma   24.85350853
_symmetry_Int_Tables_number   1
_chemical_formula_structural   Sr2PbN2
_chemical_formula_sum   'Sr8 Pb4 N8'
_cell_volume   430.11538834
_cell_formula_units_Z   4
loop_
 _symmetry_equiv_pos_site_id
 _symmetry_equiv_pos_as_xyz
  1  'x, y, z'
loop_
 _atom_site_type_symbol
 _atom_site_label
 _atom_site_symmetry_multiplicity
 _atom_site_fract_x
 _atom_site_fract_y
 _atom_site_fract_z
 _atom_site_occupancy
  Sr  Sr0  1  0.00000000  0.46049500  0.85968700  1
  Sr  Sr1  1  0.00000000  0.53950500  0.14031300  1
  Sr  Sr2  1  0.00000000  0.03950500  0.35968700  1
  Sr  Sr3  1  0.00000000  0.96049500  0.64031300  1
  Sr  Sr4  1  0.00000000  0.14176400  0.95693500  1
  Sr  Sr5  1  0.00000000  0.85823600  0.04306500  1
  Sr  Sr6  1  0.00000000  0.35823600  0.45693500  1
  Sr  Sr7  1  0.00000000  0.64176400  0.54306500  1
  Pb  Pb8  1  0.00000000  0.25327300  0.68711600  1
  Pb  Pb9  1  0.00000000  0.74672700  0.31288400  1
  Pb  Pb10  1  0.00000000  0.24672700  0.18711600  1
  Pb  Pb11  1  0.00000000  0.75327300  0.81288400  1
  N  N12  1  0.00000000  0.43454600  0.63968800  1
  N  N13  1  0.00000000  0.56545400  0.36031200  1
  N  N14  1  0.00000000  0.06545400  0.13968800  1
  N  N15  1  0.00000000  0.93454600  0.86031200  1
  N  N16  1  0.00000000  0.15288000  0.54421000  1
  N  N17  1  0.00000000  0.84712000  0.45579000  1
  N  N18  1  0.00000000  0.34712000  0.04421000  1
  N  N19  1  0.00000000  0.65288000  0.95579000  1
