# generated using pymatgen
data_Re2(CN2)3
_symmetry_space_group_name_H-M   'P 1'
_cell_length_a   9.63919205
_cell_length_b   2.90806828
_cell_length_c   5.57466415
_cell_angle_alpha   89.99999953
_cell_angle_beta   60.89360518
_cell_angle_gamma   81.32404049
_symmetry_Int_Tables_number   1
_chemical_formula_structural   Re2(CN2)3
_chemical_formula_sum   'Re2 C3 N6'
_cell_volume   134.48199782
_cell_formula_units_Z   1
loop_
 _symmetry_equiv_pos_site_id
 _symmetry_equiv_pos_as_xyz
  1  'x, y, z'
loop_
 _atom_site_type_symbol
 _atom_site_label
 _atom_site_symmetry_multiplicity
 _atom_site_fract_x
 _atom_site_fract_y
 _atom_site_fract_z
 _atom_site_occupancy
  Re  Re0  1  0.36364600  0.81817700  0.04115200  1
  Re  Re1  1  0.63635400  0.18182300  0.95884800  1
  C  C2  1  0.64641200  0.67679400  0.44366200  1
  C  C3  1  0.35358800  0.32320600  0.55633800  1
  C  C4  1  0.00000000  0.00000000  0.50000000  1
  N  N5  1  0.33032000  0.33484000  0.79332000  1
  N  N6  1  0.66968000  0.66516000  0.20668000  1
  N  N7  1  0.39047100  0.30476500  0.30701700  1
  N  N8  1  0.60952900  0.69523500  0.69298300  1
  N  N9  1  0.13637700  0.93181200  0.30389800  1
  N  N10  1  0.86362300  0.06818800  0.69610200  1
