# generated using pymatgen
data_Ba3BN3
_symmetry_space_group_name_H-M   'P 1'
_cell_length_a   8.50935700
_cell_length_b   8.50922398
_cell_length_c   5.21503900
_cell_angle_alpha   90.00000000
_cell_angle_beta   90.00000000
_cell_angle_gamma   119.99872252
_symmetry_Int_Tables_number   1
_chemical_formula_structural   Ba3BN3
_chemical_formula_sum   'Ba6 B2 N6'
_cell_volume   327.02464483
_cell_formula_units_Z   2
loop_
 _symmetry_equiv_pos_site_id
 _symmetry_equiv_pos_as_xyz
  1  'x, y, z'
loop_
 _atom_site_type_symbol
 _atom_site_label
 _atom_site_symmetry_multiplicity
 _atom_site_fract_x
 _atom_site_fract_y
 _atom_site_fract_z
 _atom_site_occupancy
  Ba  Ba0  1  0.96449300  0.63850000  0.25000000  1
  Ba  Ba1  1  0.67400200  0.03550900  0.25000000  1
  Ba  Ba2  1  0.36150700  0.32599400  0.25000000  1
  Ba  Ba3  1  0.03550700  0.36150000  0.75000000  1
  Ba  Ba4  1  0.32599800  0.96449100  0.75000000  1
  Ba  Ba5  1  0.63849300  0.67400600  0.75000000  1
  B  B6  1  0.66666600  0.33332500  0.75000000  1
  B  B7  1  0.33333400  0.66667500  0.25000000  1
  N  N8  1  0.83933800  0.51783300  0.75000000  1
  N  N9  1  0.67849800  0.16065800  0.75000000  1
  N  N10  1  0.48216600  0.32150400  0.75000000  1
  N  N11  1  0.16066200  0.48216700  0.25000000  1
  N  N12  1  0.32150200  0.83934200  0.25000000  1
  N  N13  1  0.51783400  0.67849600  0.25000000  1
