# generated using pymatgen
data_SiNiN2
_symmetry_space_group_name_H-M   'P 1'
_cell_length_a   2.72374400
_cell_length_b   2.72276762
_cell_length_c   11.71680700
_cell_angle_alpha   90.00000000
_cell_angle_beta   90.00000000
_cell_angle_gamma   120.01186308
_symmetry_Int_Tables_number   1
_chemical_formula_structural   SiNiN2
_chemical_formula_sum   'Si2 Ni2 N4'
_cell_volume   75.24278174
_cell_formula_units_Z   2
loop_
 _symmetry_equiv_pos_site_id
 _symmetry_equiv_pos_as_xyz
  1  'x, y, z'
loop_
 _atom_site_type_symbol
 _atom_site_label
 _atom_site_symmetry_multiplicity
 _atom_site_fract_x
 _atom_site_fract_y
 _atom_site_fract_z
 _atom_site_occupancy
  Si  Si0  1  0.33327400  0.66654600  0.25000000  1
  Si  Si1  1  0.66672600  0.33345400  0.75000000  1
  Ni  Ni2  1  0.00000000  0.00000000  0.00000000  1
  Ni  Ni3  1  0.00000000  0.00000000  0.50000000  1
  N  N4  1  0.00025200  0.00050300  0.84488700  1
  N  N5  1  0.99974800  0.99949700  0.15511300  1
  N  N6  1  0.99974800  0.99949700  0.34488700  1
  N  N7  1  0.00025200  0.00050300  0.65511300  1
