# generated using pymatgen
data_LiOsN2
_symmetry_space_group_name_H-M   'P 1'
_cell_length_a   5.64480500
_cell_length_b   11.48421500
_cell_length_c   14.31290900
_cell_angle_alpha   90.00000000
_cell_angle_beta   90.00000000
_cell_angle_gamma   90.00000000
_symmetry_Int_Tables_number   1
_chemical_formula_structural   LiOsN2
_chemical_formula_sum   'Li16 Os16 N32'
_cell_volume   927.85084664
_cell_formula_units_Z   16
loop_
 _symmetry_equiv_pos_site_id
 _symmetry_equiv_pos_as_xyz
  1  'x, y, z'
loop_
 _atom_site_type_symbol
 _atom_site_label
 _atom_site_symmetry_multiplicity
 _atom_site_fract_x
 _atom_site_fract_y
 _atom_site_fract_z
 _atom_site_occupancy
  Li  Li0  1  0.59701100  0.03136000  0.19277700  1
  Li  Li1  1  0.09701100  0.46864000  0.80722300  1
  Li  Li2  1  0.40298900  0.53136000  0.30722300  1
  Li  Li3  1  0.90298900  0.96864000  0.69277700  1
  Li  Li4  1  0.40298900  0.96864000  0.80722300  1
  Li  Li5  1  0.90298900  0.53136000  0.19277700  1
  Li  Li6  1  0.59701100  0.46864000  0.69277700  1
  Li  Li7  1  0.09701100  0.03136000  0.30722300  1
  Li  Li8  1  0.91826100  0.33946300  0.02163800  1
  Li  Li9  1  0.41826100  0.16053700  0.97836200  1
  Li  Li10  1  0.08173900  0.83946300  0.47836200  1
  Li  Li11  1  0.58173900  0.66053700  0.52163800  1
  Li  Li12  1  0.08173900  0.66053700  0.97836200  1
  Li  Li13  1  0.58173900  0.83946300  0.02163800  1
  Li  Li14  1  0.91826100  0.16053700  0.52163800  1
  Li  Li15  1  0.41826100  0.33946300  0.47836200  1
  Os  Os16  1  0.61606500  0.94573200  0.43355200  1
  Os  Os17  1  0.11606500  0.55426800  0.56644800  1
  Os  Os18  1  0.38393500  0.44573200  0.06644800  1
  Os  Os19  1  0.88393500  0.05426800  0.93355200  1
  Os  Os20  1  0.38393500  0.05426800  0.56644800  1
  Os  Os21  1  0.88393500  0.44573200  0.43355200  1
  Os  Os22  1  0.61606500  0.55426800  0.93355200  1
  Os  Os23  1  0.11606500  0.94573200  0.06644800  1
  Os  Os24  1  0.79282400  0.28533900  0.31324000  1
  Os  Os25  1  0.29282400  0.21466100  0.68676000  1
  Os  Os26  1  0.20717600  0.78533900  0.18676000  1
  Os  Os27  1  0.70717600  0.71466100  0.81324000  1
  Os  Os28  1  0.20717600  0.71466100  0.68676000  1
  Os  Os29  1  0.70717600  0.78533900  0.31324000  1
  Os  Os30  1  0.79282400  0.21466100  0.81324000  1
  Os  Os31  1  0.29282400  0.28533900  0.18676000  1
  N  N32  1  0.75029000  0.45588900  0.30875200  1
  N  N33  1  0.25029000  0.04411100  0.69124800  1
  N  N34  1  0.24971000  0.95588900  0.19124800  1
  N  N35  1  0.74971000  0.54411100  0.80875200  1
  N  N36  1  0.24971000  0.54411100  0.69124800  1
  N  N37  1  0.74971000  0.95588900  0.30875200  1
  N  N38  1  0.75029000  0.04411100  0.80875200  1
  N  N39  1  0.25029000  0.45588900  0.19124800  1
  N  N40  1  0.77864600  0.28707900  0.44970200  1
  N  N41  1  0.27864600  0.21292100  0.55029800  1
  N  N42  1  0.22135400  0.78707900  0.05029800  1
  N  N43  1  0.72135400  0.71292100  0.94970200  1
  N  N44  1  0.22135400  0.71292100  0.55029800  1
  N  N45  1  0.72135400  0.78707900  0.44970200  1
  N  N46  1  0.77864600  0.21292100  0.94970200  1
  N  N47  1  0.27864600  0.28707900  0.05029800  1
  N  N48  1  0.70741800  0.48156700  0.05613800  1
  N  N49  1  0.20741800  0.01843300  0.94386200  1
  N  N50  1  0.29258200  0.98156700  0.44386200  1
  N  N51  1  0.79258200  0.51843300  0.55613800  1
  N  N52  1  0.29258200  0.51843300  0.94386200  1
  N  N53  1  0.79258200  0.98156700  0.05613800  1
  N  N54  1  0.70741800  0.01843300  0.55613800  1
  N  N55  1  0.20741800  0.48156700  0.44386200  1
  N  N56  1  0.55490100  0.21879400  0.23264400  1
  N  N57  1  0.05490100  0.28120600  0.76735600  1
  N  N58  1  0.44509900  0.71879400  0.26735600  1
  N  N59  1  0.94509900  0.78120600  0.73264400  1
  N  N60  1  0.44509900  0.78120600  0.76735600  1
  N  N61  1  0.94509900  0.71879400  0.23264400  1
  N  N62  1  0.55490100  0.28120600  0.73264400  1
  N  N63  1  0.05490100  0.21879400  0.26735600  1
