# generated using pymatgen
data_Si2AgN3
_symmetry_space_group_name_H-M   'P 1'
_cell_length_a   5.51878513
_cell_length_b   5.55354276
_cell_length_c   4.96384100
_cell_angle_alpha   90.00000000
_cell_angle_beta   90.00000000
_cell_angle_gamma   120.20855857
_symmetry_Int_Tables_number   1
_chemical_formula_structural   Si2AgN3
_chemical_formula_sum   'Si4 Ag2 N6'
_cell_volume   131.47571924
_cell_formula_units_Z   2
loop_
 _symmetry_equiv_pos_site_id
 _symmetry_equiv_pos_as_xyz
  1  'x, y, z'
loop_
 _atom_site_type_symbol
 _atom_site_label
 _atom_site_symmetry_multiplicity
 _atom_site_fract_x
 _atom_site_fract_y
 _atom_site_fract_z
 _atom_site_occupancy
  Si  Si0  1  0.34340300  0.32221700  0.49097700  1
  Si  Si1  1  0.65659700  0.97881500  0.49097700  1
  Si  Si2  1  0.65659700  0.67778300  0.99097700  1
  Si  Si3  1  0.34340300  0.02118500  0.99097700  1
  Ag  Ag4  1  0.00000000  0.63563500  0.49339100  1
  Ag  Ag5  1  0.00000000  0.36436500  0.99339100  1
  N  N6  1  0.43228600  0.34636700  0.83860800  1
  N  N7  1  0.56771400  0.91408100  0.83860800  1
  N  N8  1  0.56771400  0.65363300  0.33860800  1
  N  N9  1  0.43228600  0.08591900  0.33860800  1
  N  N10  1  0.00000000  0.78241600  0.93543900  1
  N  N11  1  0.00000000  0.21758400  0.43543900  1
