# generated using pymatgen
data_Ge7PbN10
_symmetry_space_group_name_H-M   'P 1'
_cell_length_a   7.32333198
_cell_length_b   7.12962200
_cell_length_c   10.34353365
_cell_angle_alpha   90.00000000
_cell_angle_beta   105.58202788
_cell_angle_gamma   90.00000000
_symmetry_Int_Tables_number   1
_chemical_formula_structural   Ge7PbN10
_chemical_formula_sum   'Ge14 Pb2 N20'
_cell_volume   520.21367673
_cell_formula_units_Z   2
loop_
 _symmetry_equiv_pos_site_id
 _symmetry_equiv_pos_as_xyz
  1  'x, y, z'
loop_
 _atom_site_type_symbol
 _atom_site_label
 _atom_site_symmetry_multiplicity
 _atom_site_fract_x
 _atom_site_fract_y
 _atom_site_fract_z
 _atom_site_occupancy
  Ge  Ge0  1  0.54245600  0.97118000  0.82753500  1
  Ge  Ge1  1  0.54245600  0.02882000  0.32753500  1
  Ge  Ge2  1  0.35371300  0.02679900  0.01893500  1
  Ge  Ge3  1  0.35371300  0.97320100  0.51893500  1
  Ge  Ge4  1  0.11035200  0.39559100  0.07953700  1
  Ge  Ge5  1  0.11035200  0.60440900  0.57953700  1
  Ge  Ge6  1  0.66621300  0.36904800  0.99506300  1
  Ge  Ge7  1  0.66621300  0.63095200  0.49506300  1
  Ge  Ge8  1  0.85334500  0.62762200  0.81291400  1
  Ge  Ge9  1  0.85334500  0.37237800  0.31291400  1
  Ge  Ge10  1  0.29728200  0.61928900  0.88748900  1
  Ge  Ge11  1  0.29728200  0.38071100  0.38748900  1
  Ge  Ge12  1  0.48667500  0.37013500  0.69165000  1
  Ge  Ge13  1  0.48667500  0.62986500  0.19165000  1
  Pb  Pb14  1  0.92319900  0.04978100  0.58761100  1
  Pb  Pb15  1  0.92319900  0.95021900  0.08761100  1
  N  N16  1  0.76944000  0.85359800  0.85665000  1
  N  N17  1  0.76944000  0.14640200  0.35665000  1
  N  N18  1  0.57423200  0.12808300  0.97968600  1
  N  N19  1  0.57423200  0.87191700  0.47968600  1
  N  N20  1  0.32326300  0.87183200  0.86769400  1
  N  N21  1  0.32326300  0.12816800  0.36769400  1
  N  N22  1  0.14401700  0.15701700  0.02486900  1
  N  N23  1  0.14401700  0.84298300  0.52486900  1
  N  N24  1  0.28467100  0.49940800  0.72804500  1
  N  N25  1  0.28467100  0.50059200  0.22804500  1
  N  N26  1  0.45250500  0.11446800  0.67451700  1
  N  N27  1  0.45250500  0.88553200  0.17451700  1
  N  N28  1  0.88542900  0.37519200  0.13512000  1
  N  N29  1  0.88542900  0.62480800  0.63512000  1
  N  N30  1  0.07975200  0.58569000  0.94614100  1
  N  N31  1  0.07975200  0.41431000  0.44614100  1
  N  N32  1  0.70443000  0.41935800  0.82750000  1
  N  N33  1  0.70443000  0.58064200  0.32750000  1
  N  N34  1  0.49132800  0.53111200  0.02834300  1
  N  N35  1  0.49132800  0.46888800  0.52834300  1
