# generated using pymatgen
data_La3Mg2VS8
_symmetry_space_group_name_H-M   'P 1'
_cell_length_a   8.07001521
_cell_length_b   7.92100179
_cell_length_c   8.06204658
_cell_angle_alpha   59.59432573
_cell_angle_beta   60.11803724
_cell_angle_gamma   59.53608530
_symmetry_Int_Tables_number   1
_chemical_formula_structural   La3Mg2VS8
_chemical_formula_sum   'La3 Mg2 V1 S8'
_cell_volume   362.30943408
_cell_formula_units_Z   1
loop_
 _symmetry_equiv_pos_site_id
 _symmetry_equiv_pos_as_xyz
  1  'x, y, z'
loop_
 _atom_site_type_symbol
 _atom_site_label
 _atom_site_symmetry_multiplicity
 _atom_site_fract_x
 _atom_site_fract_y
 _atom_site_fract_z
 _atom_site_occupancy
  La  La0  1  0.50005200  0.50006300  0.49997300  1
  La  La1  1  0.50002500  0.49995400  0.99999700  1
  La  La2  1  0.99995900  0.50003400  0.50001900  1
  Mg  Mg3  1  0.87478000  0.87702000  0.87383200  1
  Mg  Mg4  1  0.12521600  0.12297500  0.12616700  1
  V  V5  1  0.49999500  0.99999600  0.50001000  1
  S  S6  1  0.72708700  0.77979200  0.72720400  1
  S  S7  1  0.27335600  0.21963600  0.73404600  1
  S  S8  1  0.25068200  0.74581000  0.25154500  1
  S  S9  1  0.73578000  0.22187900  0.27133600  1
  S  S10  1  0.74929400  0.25416800  0.74845000  1
  S  S11  1  0.26420600  0.77811900  0.72866300  1
  S  S12  1  0.27290400  0.22018700  0.27281600  1
  S  S13  1  0.72666600  0.78036200  0.26594400  1
