# generated using pymatgen
data_Ca7PtN6
_symmetry_space_group_name_H-M   'P 1'
_cell_length_a   6.33255000
_cell_length_b   9.11908266
_cell_length_c   9.11908266
_cell_angle_alpha   82.20883493
_cell_angle_beta   69.68298244
_cell_angle_gamma   69.68298244
_symmetry_Int_Tables_number   1
_chemical_formula_structural   Ca7PtN6
_chemical_formula_sum   'Ca14 Pt2 N12'
_cell_volume   463.04698290
_cell_formula_units_Z   2
loop_
 _symmetry_equiv_pos_site_id
 _symmetry_equiv_pos_as_xyz
  1  'x, y, z'
loop_
 _atom_site_type_symbol
 _atom_site_label
 _atom_site_symmetry_multiplicity
 _atom_site_fract_x
 _atom_site_fract_y
 _atom_site_fract_z
 _atom_site_occupancy
  Ca  Ca0  1  0.27617000  0.95200400  0.04799600  1
  Ca  Ca1  1  0.72383000  0.04799600  0.95200400  1
  Ca  Ca2  1  0.22383000  0.45200400  0.54799600  1
  Ca  Ca3  1  0.77617000  0.54799600  0.45200400  1
  Ca  Ca4  1  0.76550900  0.15102300  0.58665200  1
  Ca  Ca5  1  0.49681500  0.58665200  0.15102300  1
  Ca  Ca6  1  0.73449100  0.91334800  0.34897700  1
  Ca  Ca7  1  0.00318500  0.34897700  0.91334800  1
  Ca  Ca8  1  0.23449100  0.84897700  0.41334800  1
  Ca  Ca9  1  0.50318500  0.41334800  0.84897700  1
  Ca  Ca10  1  0.26550900  0.08665200  0.65102300  1
  Ca  Ca11  1  0.99681500  0.65102300  0.08665200  1
  Ca  Ca12  1  0.25000000  0.25000000  0.25000000  1
  Ca  Ca13  1  0.75000000  0.75000000  0.75000000  1
  Pt  Pt14  1  0.75000000  0.25000000  0.25000000  1
  Pt  Pt15  1  0.25000000  0.75000000  0.75000000  1
  N  N16  1  0.00205700  0.07086300  0.31612800  1
  N  N17  1  0.61095200  0.31612800  0.07086300  1
  N  N18  1  0.49794300  0.18387200  0.42913700  1
  N  N19  1  0.88904800  0.42913700  0.18387200  1
  N  N20  1  0.99794300  0.92913700  0.68387200  1
  N  N21  1  0.38904800  0.68387200  0.92913700  1
  N  N22  1  0.50205700  0.81612800  0.57086300  1
  N  N23  1  0.11095200  0.57086300  0.81612800  1
  N  N24  1  0.89085100  0.35592600  0.64407400  1
  N  N25  1  0.10914900  0.64407400  0.35592600  1
  N  N26  1  0.60914900  0.85592600  0.14407400  1
  N  N27  1  0.39085100  0.14407400  0.85592600  1
