# generated using pymatgen
data_Y(C2N3)3
_symmetry_space_group_name_H-M   'P 1'
_cell_length_a   7.13755114
_cell_length_b   12.10560567
_cell_length_c   11.31872600
_cell_angle_alpha   90.00000000
_cell_angle_beta   90.00000000
_cell_angle_gamma   32.00278499
_symmetry_Int_Tables_number   1
_chemical_formula_structural   Y(C2N3)3
_chemical_formula_sum   'Y2 C12 N18'
_cell_volume   518.29472815
_cell_formula_units_Z   2
loop_
 _symmetry_equiv_pos_site_id
 _symmetry_equiv_pos_as_xyz
  1  'x, y, z'
loop_
 _atom_site_type_symbol
 _atom_site_label
 _atom_site_symmetry_multiplicity
 _atom_site_fract_x
 _atom_site_fract_y
 _atom_site_fract_z
 _atom_site_occupancy
  Y  Y0  1  0.00000000  0.28214700  0.25000000  1
  Y  Y1  1  0.00000000  0.71785300  0.75000000  1
  C  C2  1  0.70013500  0.74174400  0.25000000  1
  C  C3  1  0.70013500  0.55812100  0.75000000  1
  C  C4  1  0.29986500  0.25825600  0.75000000  1
  C  C5  1  0.29986500  0.44187900  0.25000000  1
  C  C6  1  0.69953800  0.29434300  0.93104500  1
  C  C7  1  0.69953800  0.00612000  0.06895500  1
  C  C8  1  0.69953800  0.29434300  0.56895500  1
  C  C9  1  0.69953800  0.00612000  0.43104500  1
  C  C10  1  0.30046200  0.70565700  0.06895500  1
  C  C11  1  0.30046200  0.99388000  0.93104500  1
  C  C12  1  0.30046200  0.70565700  0.43104500  1
  C  C13  1  0.30046200  0.99388000  0.56895500  1
  N  N14  1  0.00000000  0.53985100  0.25000000  1
  N  N15  1  0.00000000  0.46014900  0.75000000  1
  N  N16  1  0.41815900  0.92420800  0.25000000  1
  N  N17  1  0.41815900  0.65763300  0.75000000  1
  N  N18  1  0.58184100  0.07579200  0.75000000  1
  N  N19  1  0.58184100  0.34236700  0.25000000  1
  N  N20  1  0.00000000  0.13950200  0.98493400  1
  N  N21  1  0.00000000  0.86049800  0.01506600  1
  N  N22  1  0.00000000  0.13950200  0.51506600  1
  N  N23  1  0.00000000  0.86049800  0.48493400  1
  N  N24  1  0.41457600  0.44173800  0.88914100  1
  N  N25  1  0.41457600  0.14368600  0.11085900  1
  N  N26  1  0.41457600  0.44173800  0.61085900  1
  N  N27  1  0.41457600  0.14368600  0.38914100  1
  N  N28  1  0.58542400  0.55826200  0.11085900  1
  N  N29  1  0.58542400  0.85631400  0.88914100  1
  N  N30  1  0.58542400  0.55826200  0.38914100  1
  N  N31  1  0.58542400  0.85631400  0.61085900  1
