# generated using pymatgen
data_Sr3(IrN2)2
_symmetry_space_group_name_H-M   'P 1'
_cell_length_a   6.34767700
_cell_length_b   9.78403700
_cell_length_c   9.84300400
_cell_angle_alpha   90.00000000
_cell_angle_beta   90.00000000
_cell_angle_gamma   90.00000000
_symmetry_Int_Tables_number   1
_chemical_formula_structural   Sr3(IrN2)2
_chemical_formula_sum   'Sr12 Ir8 N16'
_cell_volume   611.30868740
_cell_formula_units_Z   4
loop_
 _symmetry_equiv_pos_site_id
 _symmetry_equiv_pos_as_xyz
  1  'x, y, z'
loop_
 _atom_site_type_symbol
 _atom_site_label
 _atom_site_symmetry_multiplicity
 _atom_site_fract_x
 _atom_site_fract_y
 _atom_site_fract_z
 _atom_site_occupancy
  Sr  Sr0  1  0.61611900  0.16162300  0.42345400  1
  Sr  Sr1  1  0.88388100  0.83837700  0.42345400  1
  Sr  Sr2  1  0.61611900  0.33837700  0.07654600  1
  Sr  Sr3  1  0.88388100  0.66162300  0.07654600  1
  Sr  Sr4  1  0.38388100  0.83837700  0.57654600  1
  Sr  Sr5  1  0.11611900  0.16162300  0.57654600  1
  Sr  Sr6  1  0.38388100  0.66162300  0.92345400  1
  Sr  Sr7  1  0.11611900  0.33837700  0.92345400  1
  Sr  Sr8  1  0.75000000  0.50000000  0.39506000  1
  Sr  Sr9  1  0.75000000  0.00000000  0.10494000  1
  Sr  Sr10  1  0.25000000  0.50000000  0.60494000  1
  Sr  Sr11  1  0.25000000  0.00000000  0.89506000  1
  Ir  Ir12  1  0.75000000  0.50000000  0.71849100  1
  Ir  Ir13  1  0.75000000  0.00000000  0.78150900  1
  Ir  Ir14  1  0.25000000  0.50000000  0.28150900  1
  Ir  Ir15  1  0.25000000  0.00000000  0.21849100  1
  Ir  Ir16  1  0.57400700  0.25000000  0.75000000  1
  Ir  Ir17  1  0.92599300  0.75000000  0.75000000  1
  Ir  Ir18  1  0.42599300  0.75000000  0.25000000  1
  Ir  Ir19  1  0.07400700  0.25000000  0.25000000  1
  N  N20  1  0.90202000  0.36823600  0.61488000  1
  N  N21  1  0.59798000  0.63176400  0.61488000  1
  N  N22  1  0.90202000  0.13176400  0.88512000  1
  N  N23  1  0.59798000  0.86823600  0.88512000  1
  N  N24  1  0.09798000  0.63176400  0.38512000  1
  N  N25  1  0.40202000  0.36823600  0.38512000  1
  N  N26  1  0.09798000  0.86823600  0.11488000  1
  N  N27  1  0.40202000  0.13176400  0.11488000  1
  N  N28  1  0.49929400  0.42440000  0.83701800  1
  N  N29  1  0.00070600  0.57560000  0.83701800  1
  N  N30  1  0.49929400  0.07560000  0.66298200  1
  N  N31  1  0.00070600  0.92440000  0.66298200  1
  N  N32  1  0.50070600  0.57560000  0.16298200  1
  N  N33  1  0.99929400  0.42440000  0.16298200  1
  N  N34  1  0.50070600  0.92440000  0.33701800  1
  N  N35  1  0.99929400  0.07560000  0.33701800  1
