# generated using pymatgen
data_Li3MnN2
_symmetry_space_group_name_H-M   'P 1'
_cell_length_a   8.22294500
_cell_length_b   9.49503891
_cell_length_c   9.49503831
_cell_angle_alpha   89.99999962
_cell_angle_beta   125.26439026
_cell_angle_gamma   54.73561233
_symmetry_Int_Tables_number   1
_chemical_formula_structural   Li3MnN2
_chemical_formula_sum   'Li24 Mn8 N16'
_cell_volume   428.01623317
_cell_formula_units_Z   8
loop_
 _symmetry_equiv_pos_site_id
 _symmetry_equiv_pos_as_xyz
  1  'x, y, z'
loop_
 _atom_site_type_symbol
 _atom_site_label
 _atom_site_symmetry_multiplicity
 _atom_site_fract_x
 _atom_site_fract_y
 _atom_site_fract_z
 _atom_site_occupancy
  Li  Li0  1  0.21867900  0.04110000  0.98021400  1
  Li  Li1  1  0.78132100  0.75977900  0.51978600  1
  Li  Li2  1  0.78132100  0.45890000  0.76153500  1
  Li  Li3  1  0.21867900  0.74022100  0.73846500  1
  Li  Li4  1  0.25825000  0.76153500  0.27956500  1
  Li  Li5  1  0.74175000  0.73846500  0.02131500  1
  Li  Li6  1  0.25825000  0.98021400  0.47868500  1
  Li  Li7  1  0.74175000  0.51978600  0.22043500  1
  Li  Li8  1  0.69912000  0.02131500  0.74022100  1
  Li  Li9  1  0.69912000  0.27956500  0.45890000  1
  Li  Li10  1  0.30088000  0.22043500  0.75977900  1
  Li  Li11  1  0.30088000  0.47868500  0.04110000  1
  Li  Li12  1  0.78132100  0.95890000  0.01978600  1
  Li  Li13  1  0.21867900  0.24022100  0.48021400  1
  Li  Li14  1  0.21867900  0.54110000  0.23846500  1
  Li  Li15  1  0.78132100  0.25977900  0.26153500  1
  Li  Li16  1  0.74175000  0.23846500  0.72043500  1
  Li  Li17  1  0.25825000  0.26153500  0.97868500  1
  Li  Li18  1  0.74175000  0.01978600  0.52131500  1
  Li  Li19  1  0.25825000  0.48021400  0.77956500  1
  Li  Li20  1  0.30088000  0.97868500  0.25977900  1
  Li  Li21  1  0.30088000  0.72043500  0.54110000  1
  Li  Li22  1  0.69912000  0.77956500  0.24022100  1
  Li  Li23  1  0.69912000  0.52131500  0.95890000  1
  Mn  Mn24  1  0.22670900  0.00000000  0.72670900  1
  Mn  Mn25  1  0.77329100  0.72670900  0.77329100  1
  Mn  Mn26  1  0.77329100  0.50000000  0.50000000  1
  Mn  Mn27  1  0.22670900  0.77329100  0.00000000  1
  Mn  Mn28  1  0.77329100  0.00000000  0.27329100  1
  Mn  Mn29  1  0.22670900  0.27329100  0.22670900  1
  Mn  Mn30  1  0.22670900  0.50000000  0.50000000  1
  Mn  Mn31  1  0.77329100  0.22670900  0.00000000  1
  N  N32  1  0.00000000  0.00000000  0.50000000  1
  N  N33  1  0.00000000  0.50000000  0.00000000  1
  N  N34  1  0.00000000  0.50000000  0.50000000  1
  N  N35  1  0.00000000  0.00000000  0.00000000  1
  N  N36  1  0.50000000  0.96580500  0.75000000  1
  N  N37  1  0.50000000  0.53419500  0.25000000  1
  N  N38  1  0.00000000  0.25000000  0.71580500  1
  N  N39  1  0.00000000  0.75000000  0.78419500  1
  N  N40  1  0.56839000  0.71580500  0.53419500  1
  N  N41  1  0.43161000  0.78419500  0.96580500  1
  N  N42  1  0.50000000  0.03419500  0.25000000  1
  N  N43  1  0.50000000  0.46580500  0.75000000  1
  N  N44  1  0.00000000  0.75000000  0.28419500  1
  N  N45  1  0.00000000  0.25000000  0.21580500  1
  N  N46  1  0.43161000  0.28419500  0.46580500  1
  N  N47  1  0.56839000  0.21580500  0.03419500  1
