# generated using pymatgen
data_Li3WN2
_symmetry_space_group_name_H-M   'P 1'
_cell_length_a   8.51214500
_cell_length_b   9.82897800
_cell_length_c   9.82897817
_cell_angle_alpha   89.99999666
_cell_angle_beta   125.26438832
_cell_angle_gamma   54.73561100
_symmetry_Int_Tables_number   1
_chemical_formula_structural   Li3WN2
_chemical_formula_sum   'Li24 W8 N16'
_cell_volume   474.78295117
_cell_formula_units_Z   8
loop_
 _symmetry_equiv_pos_site_id
 _symmetry_equiv_pos_as_xyz
  1  'x, y, z'
loop_
 _atom_site_type_symbol
 _atom_site_label
 _atom_site_symmetry_multiplicity
 _atom_site_fract_x
 _atom_site_fract_y
 _atom_site_fract_z
 _atom_site_occupancy
  Li  Li0  1  0.21612000  0.05212400  0.99319300  1
  Li  Li1  1  0.78388000  0.76824300  0.50680700  1
  Li  Li2  1  0.78388000  0.44787600  0.77707300  1
  Li  Li3  1  0.21612000  0.73175700  0.72292700  1
  Li  Li4  1  0.22973400  0.77707300  0.27505000  1
  Li  Li5  1  0.77026600  0.72292700  0.04531700  1
  Li  Li6  1  0.22973400  0.99319300  0.45468400  1
  Li  Li7  1  0.77026600  0.50680700  0.22494900  1
  Li  Li8  1  0.67963300  0.04531700  0.73175700  1
  Li  Li9  1  0.67963300  0.27505000  0.44787600  1
  Li  Li10  1  0.32036700  0.22494900  0.76824300  1
  Li  Li11  1  0.32036700  0.45468400  0.05212400  1
  Li  Li12  1  0.78388000  0.94787600  0.00680700  1
  Li  Li13  1  0.21612000  0.23175700  0.49319300  1
  Li  Li14  1  0.21612000  0.55212400  0.22292700  1
  Li  Li15  1  0.78388000  0.26824300  0.27707300  1
  Li  Li16  1  0.77026600  0.22292700  0.72495000  1
  Li  Li17  1  0.22973400  0.27707300  0.95468400  1
  Li  Li18  1  0.77026600  0.00680700  0.54531600  1
  Li  Li19  1  0.22973400  0.49319300  0.77505000  1
  Li  Li20  1  0.32036700  0.95468400  0.26824300  1
  Li  Li21  1  0.32036700  0.72495000  0.55212400  1
  Li  Li22  1  0.67963300  0.77505000  0.23175700  1
  Li  Li23  1  0.67963300  0.54531600  0.94787600  1
  W  W24  1  0.23128500  0.00000000  0.73128500  1
  W  W25  1  0.76871500  0.73128500  0.76871500  1
  W  W26  1  0.76871500  0.50000000  0.50000000  1
  W  W27  1  0.23128500  0.76871500  0.00000000  1
  W  W28  1  0.76871500  0.00000000  0.26871500  1
  W  W29  1  0.23128500  0.26871500  0.23128500  1
  W  W30  1  0.23128500  0.50000000  0.50000000  1
  W  W31  1  0.76871500  0.23128500  0.00000000  1
  N  N32  1  0.00000000  0.00000000  0.50000000  1
  N  N33  1  0.00000000  0.50000000  0.00000000  1
  N  N34  1  0.00000000  0.50000000  0.50000000  1
  N  N35  1  0.00000000  0.00000000  0.00000000  1
  N  N36  1  0.50000000  0.97869900  0.75000000  1
  N  N37  1  0.50000000  0.52130100  0.25000000  1
  N  N38  1  0.00000000  0.25000000  0.72869900  1
  N  N39  1  0.00000000  0.75000000  0.77130100  1
  N  N40  1  0.54260200  0.72869900  0.52130100  1
  N  N41  1  0.45739800  0.77130100  0.97869900  1
  N  N42  1  0.50000000  0.02130100  0.25000000  1
  N  N43  1  0.50000000  0.47869900  0.75000000  1
  N  N44  1  0.00000000  0.75000000  0.27130100  1
  N  N45  1  0.00000000  0.25000000  0.22869900  1
  N  N46  1  0.45739800  0.27130100  0.47869900  1
  N  N47  1  0.54260200  0.22869900  0.02130100  1
