# generated using pymatgen
data_SiPb7N6
_symmetry_space_group_name_H-M   'P 1'
_cell_length_a   12.70494700
_cell_length_b   7.32434300
_cell_length_c   12.58207500
_cell_angle_alpha   90.00000000
_cell_angle_beta   90.00000000
_cell_angle_gamma   90.00000000
_symmetry_Int_Tables_number   1
_chemical_formula_structural   SiPb7N6
_chemical_formula_sum   'Si4 Pb28 N24'
_cell_volume   1170.82989141
_cell_formula_units_Z   4
loop_
 _symmetry_equiv_pos_site_id
 _symmetry_equiv_pos_as_xyz
  1  'x, y, z'
loop_
 _atom_site_type_symbol
 _atom_site_label
 _atom_site_symmetry_multiplicity
 _atom_site_fract_x
 _atom_site_fract_y
 _atom_site_fract_z
 _atom_site_occupancy
  Si  Si0  1  0.00000000  0.84285800  0.75000000  1
  Si  Si1  1  0.50000000  0.65714200  0.25000000  1
  Si  Si2  1  0.00000000  0.15714200  0.25000000  1
  Si  Si3  1  0.50000000  0.34285800  0.75000000  1
  Pb  Pb4  1  0.00846700  0.76723500  0.02122200  1
  Pb  Pb5  1  0.49153300  0.73276500  0.52122200  1
  Pb  Pb6  1  0.50846700  0.73276500  0.97877800  1
  Pb  Pb7  1  0.99153300  0.76723500  0.47877800  1
  Pb  Pb8  1  0.99153300  0.23276500  0.97877800  1
  Pb  Pb9  1  0.50846700  0.26723500  0.47877800  1
  Pb  Pb10  1  0.49153300  0.26723500  0.02122200  1
  Pb  Pb11  1  0.00846700  0.23276500  0.52122200  1
  Pb  Pb12  1  0.21285700  0.82563700  0.63194800  1
  Pb  Pb13  1  0.28714300  0.67436300  0.13194800  1
  Pb  Pb14  1  0.71285700  0.67436300  0.36805200  1
  Pb  Pb15  1  0.78714300  0.82563700  0.86805200  1
  Pb  Pb16  1  0.78714300  0.17436300  0.36805200  1
  Pb  Pb17  1  0.71285700  0.32563700  0.86805200  1
  Pb  Pb18  1  0.28714300  0.32563700  0.63194800  1
  Pb  Pb19  1  0.21285700  0.17436300  0.13194800  1
  Pb  Pb20  1  0.25523800  0.54506400  0.86526500  1
  Pb  Pb21  1  0.24476200  0.95493600  0.36526500  1
  Pb  Pb22  1  0.75523800  0.95493600  0.13473500  1
  Pb  Pb23  1  0.74476200  0.54506400  0.63473500  1
  Pb  Pb24  1  0.74476200  0.45493600  0.13473500  1
  Pb  Pb25  1  0.75523800  0.04506400  0.63473500  1
  Pb  Pb26  1  0.24476200  0.04506400  0.86526500  1
  Pb  Pb27  1  0.25523800  0.45493600  0.36526500  1
  Pb  Pb28  1  0.00000000  0.43769300  0.75000000  1
  Pb  Pb29  1  0.50000000  0.06230700  0.25000000  1
  Pb  Pb30  1  0.00000000  0.56230700  0.25000000  1
  Pb  Pb31  1  0.50000000  0.93769300  0.75000000  1
  N  N32  1  0.10738100  0.68684800  0.76855800  1
  N  N33  1  0.39261900  0.81315200  0.26855800  1
  N  N34  1  0.60738100  0.81315200  0.23144200  1
  N  N35  1  0.89261900  0.68684800  0.73144200  1
  N  N36  1  0.89261900  0.31315200  0.23144200  1
  N  N37  1  0.60738100  0.18684800  0.73144200  1
  N  N38  1  0.39261900  0.18684800  0.76855800  1
  N  N39  1  0.10738100  0.31315200  0.26855800  1
  N  N40  1  0.17478500  0.70618500  0.46600400  1
  N  N41  1  0.32521500  0.79381500  0.96600400  1
  N  N42  1  0.67478500  0.79381500  0.53399600  1
  N  N43  1  0.82521500  0.70618500  0.03399600  1
  N  N44  1  0.82521500  0.29381500  0.53399600  1
  N  N45  1  0.67478500  0.20618500  0.03399600  1
  N  N46  1  0.32521500  0.20618500  0.46600400  1
  N  N47  1  0.17478500  0.29381500  0.96600400  1
  N  N48  1  0.46837000  0.45627900  0.63001300  1
  N  N49  1  0.03163000  0.04372100  0.13001300  1
  N  N50  1  0.96837000  0.04372100  0.36998700  1
  N  N51  1  0.53163000  0.45627900  0.86998700  1
  N  N52  1  0.53163000  0.54372100  0.36998700  1
  N  N53  1  0.96837000  0.95627900  0.86998700  1
  N  N54  1  0.03163000  0.95627900  0.63001300  1
  N  N55  1  0.46837000  0.54372100  0.13001300  1
