# generated using pymatgen
data_Y2Zn3N4
_symmetry_space_group_name_H-M   'P 1'
_cell_length_a   6.82329148
_cell_length_b   7.17923364
_cell_length_c   6.34569449
_cell_angle_alpha   89.99999746
_cell_angle_beta   91.45885555
_cell_angle_gamma   121.74116877
_symmetry_Int_Tables_number   1
_chemical_formula_structural   Y2Zn3N4
_chemical_formula_sum   'Y4 Zn6 N8'
_cell_volume   264.23889511
_cell_formula_units_Z   2
loop_
 _symmetry_equiv_pos_site_id
 _symmetry_equiv_pos_as_xyz
  1  'x, y, z'
loop_
 _atom_site_type_symbol
 _atom_site_label
 _atom_site_symmetry_multiplicity
 _atom_site_fract_x
 _atom_site_fract_y
 _atom_site_fract_z
 _atom_site_occupancy
  Y  Y0  1  0.71617600  0.23004900  0.64164200  1
  Y  Y1  1  0.28382400  0.51387400  0.85835800  1
  Y  Y2  1  0.28382400  0.76995100  0.35835800  1
  Y  Y3  1  0.71617600  0.48612600  0.14164200  1
  Zn  Zn4  1  0.30488000  0.06834600  0.02997800  1
  Zn  Zn5  1  0.69512000  0.76346600  0.47002200  1
  Zn  Zn6  1  0.69512000  0.93165400  0.97002200  1
  Zn  Zn7  1  0.30488000  0.23653400  0.52997800  1
  Zn  Zn8  1  0.00000000  0.73912000  0.75000000  1
  Zn  Zn9  1  0.00000000  0.26088000  0.25000000  1
  N  N10  1  0.46682100  0.15403900  0.33193000  1
  N  N11  1  0.53317900  0.68721800  0.16807000  1
  N  N12  1  0.53317900  0.84596100  0.66807000  1
  N  N13  1  0.46682100  0.31278200  0.83193000  1
  N  N14  1  0.90117900  0.25211300  0.97581500  1
  N  N15  1  0.09882100  0.35093400  0.52418500  1
  N  N16  1  0.09882100  0.74788700  0.02418500  1
  N  N17  1  0.90117900  0.64906600  0.47581500  1
