# generated using pymatgen
data_GaBiN2
_symmetry_space_group_name_H-M   'P 1'
_cell_length_a   7.66913603
_cell_length_b   6.53512100
_cell_length_c   5.81759640
_cell_angle_alpha   90.00000000
_cell_angle_beta   103.68344072
_cell_angle_gamma   90.00000000
_symmetry_Int_Tables_number   1
_chemical_formula_structural   GaBiN2
_chemical_formula_sum   'Ga4 Bi4 N8'
_cell_volume   283.29506149
_cell_formula_units_Z   4
loop_
 _symmetry_equiv_pos_site_id
 _symmetry_equiv_pos_as_xyz
  1  'x, y, z'
loop_
 _atom_site_type_symbol
 _atom_site_label
 _atom_site_symmetry_multiplicity
 _atom_site_fract_x
 _atom_site_fract_y
 _atom_site_fract_z
 _atom_site_occupancy
  Ga  Ga0  1  0.12508000  0.36076500  0.63680300  1
  Ga  Ga1  1  0.87492000  0.86076500  0.86319700  1
  Ga  Ga2  1  0.87492000  0.63923500  0.36319700  1
  Ga  Ga3  1  0.12508000  0.13923500  0.13680300  1
  Bi  Bi4  1  0.30468200  0.88474100  0.68774200  1
  Bi  Bi5  1  0.69531800  0.38474100  0.81225800  1
  Bi  Bi6  1  0.69531800  0.11525900  0.31225800  1
  Bi  Bi7  1  0.30468200  0.61525900  0.18774200  1
  N  N8  1  0.14610200  0.87470800  0.96838800  1
  N  N9  1  0.85389800  0.37470800  0.53161200  1
  N  N10  1  0.85389800  0.12529200  0.03161200  1
  N  N11  1  0.14610200  0.62529200  0.46838800  1
  N  N12  1  0.21228300  0.35356300  0.97139900  1
  N  N13  1  0.78771700  0.85356300  0.52860100  1
  N  N14  1  0.78771700  0.64643700  0.02860100  1
  N  N15  1  0.21228300  0.14643700  0.47139900  1
