# generated using pymatgen
data_In5(GeN3)3
_symmetry_space_group_name_H-M   'P 1'
_cell_length_a   7.84630392
_cell_length_b   11.26145960
_cell_length_c   16.13228800
_cell_angle_alpha   90.00000000
_cell_angle_beta   90.00000000
_cell_angle_gamma   135.85901722
_symmetry_Int_Tables_number   1
_chemical_formula_structural   In5(GeN3)3
_chemical_formula_sum   'In20 Ge12 N36'
_cell_volume   992.72950268
_cell_formula_units_Z   4
loop_
 _symmetry_equiv_pos_site_id
 _symmetry_equiv_pos_as_xyz
  1  'x, y, z'
loop_
 _atom_site_type_symbol
 _atom_site_label
 _atom_site_symmetry_multiplicity
 _atom_site_fract_x
 _atom_site_fract_y
 _atom_site_fract_z
 _atom_site_occupancy
  In  In0  1  0.00000000  0.54454700  0.84008100  1
  In  In1  1  0.00000000  0.45545300  0.15991900  1
  In  In2  1  0.00000000  0.95545300  0.34008100  1
  In  In3  1  0.00000000  0.04454700  0.65991900  1
  In  In4  1  0.38517800  0.01903400  0.84487800  1
  In  In5  1  0.38517800  0.36614400  0.15512200  1
  In  In6  1  0.38517800  0.86614400  0.34487800  1
  In  In7  1  0.38517800  0.51903400  0.65512200  1
  In  In8  1  0.61482200  0.98096600  0.15512200  1
  In  In9  1  0.61482200  0.63385600  0.84487800  1
  In  In10  1  0.61482200  0.13385600  0.65512200  1
  In  In11  1  0.61482200  0.48096600  0.34487800  1
  In  In12  1  0.00000000  0.50499100  0.60060300  1
  In  In13  1  0.00000000  0.49500900  0.39939700  1
  In  In14  1  0.00000000  0.99500900  0.10060300  1
  In  In15  1  0.00000000  0.00499100  0.89939700  1
  In  In16  1  0.60621900  0.30310900  0.00000000  1
  In  In17  1  0.60621900  0.80310900  0.50000000  1
  In  In18  1  0.39378100  0.69689100  0.00000000  1
  In  In19  1  0.39378100  0.19689100  0.50000000  1
  Ge  Ge20  1  0.00000000  0.76973300  0.00082300  1
  Ge  Ge21  1  0.00000000  0.23026700  0.99917700  1
  Ge  Ge22  1  0.00000000  0.73026700  0.50082300  1
  Ge  Ge23  1  0.00000000  0.26973300  0.49917700  1
  Ge  Ge24  1  0.00000000  0.26107200  0.78324300  1
  Ge  Ge25  1  0.00000000  0.73892800  0.21675700  1
  Ge  Ge26  1  0.00000000  0.23892800  0.28324300  1
  Ge  Ge27  1  0.00000000  0.76107200  0.71675700  1
  Ge  Ge28  1  0.50000000  0.82313000  0.75000000  1
  Ge  Ge29  1  0.50000000  0.67687000  0.25000000  1
  Ge  Ge30  1  0.50000000  0.17687000  0.25000000  1
  Ge  Ge31  1  0.50000000  0.32313000  0.75000000  1
  N  N32  1  0.00000000  0.41140300  0.73047400  1
  N  N33  1  0.00000000  0.58859700  0.26952600  1
  N  N34  1  0.00000000  0.08859700  0.23047400  1
  N  N35  1  0.00000000  0.91140300  0.76952600  1
  N  N36  1  0.00000000  0.19660900  0.88690500  1
  N  N37  1  0.00000000  0.80339100  0.11309500  1
  N  N38  1  0.00000000  0.30339100  0.38690500  1
  N  N39  1  0.00000000  0.69660900  0.61309500  1
  N  N40  1  0.00000000  0.61196800  0.97100400  1
  N  N41  1  0.00000000  0.38803200  0.02899600  1
  N  N42  1  0.00000000  0.88803200  0.47100400  1
  N  N43  1  0.00000000  0.11196800  0.52899600  1
  N  N44  1  0.74554400  0.55753000  0.77175100  1
  N  N45  1  0.74554400  0.18801400  0.22824900  1
  N  N46  1  0.74554400  0.68801300  0.27175100  1
  N  N47  1  0.74554400  0.05753000  0.72824900  1
  N  N48  1  0.25445600  0.44247000  0.22824900  1
  N  N49  1  0.25445600  0.81198700  0.77175100  1
  N  N50  1  0.25445600  0.31198600  0.72824900  1
  N  N51  1  0.25445600  0.94247000  0.27175100  1
  N  N52  1  0.58424200  0.27895500  0.84676400  1
  N  N53  1  0.58424200  0.30528700  0.15323600  1
  N  N54  1  0.58424200  0.80528700  0.34676400  1
  N  N55  1  0.58424200  0.77895500  0.65323600  1
  N  N56  1  0.41575800  0.72104500  0.15323600  1
  N  N57  1  0.41575800  0.69471300  0.84676400  1
  N  N58  1  0.41575800  0.19471300  0.65323600  1
  N  N59  1  0.41575800  0.22104500  0.34676400  1
  N  N60  1  0.25763300  0.00273600  0.96425300  1
  N  N61  1  0.25763300  0.25489600  0.03574700  1
  N  N62  1  0.25763300  0.75489600  0.46425300  1
  N  N63  1  0.25763300  0.50273600  0.53574700  1
  N  N64  1  0.74236700  0.99726400  0.03574700  1
  N  N65  1  0.74236700  0.74510400  0.96425300  1
  N  N66  1  0.74236700  0.24510400  0.53574700  1
  N  N67  1  0.74236700  0.49726400  0.46425300  1
