# generated using pymatgen
data_CrGaN2
_symmetry_space_group_name_H-M   'P 1'
_cell_length_a   5.52716300
_cell_length_b   6.58245900
_cell_length_c   5.16830600
_cell_angle_alpha   90.00000000
_cell_angle_beta   90.00000000
_cell_angle_gamma   90.00000000
_symmetry_Int_Tables_number   1
_chemical_formula_structural   CrGaN2
_chemical_formula_sum   'Cr4 Ga4 N8'
_cell_volume   188.03498256
_cell_formula_units_Z   4
loop_
 _symmetry_equiv_pos_site_id
 _symmetry_equiv_pos_as_xyz
  1  'x, y, z'
loop_
 _atom_site_type_symbol
 _atom_site_label
 _atom_site_symmetry_multiplicity
 _atom_site_fract_x
 _atom_site_fract_y
 _atom_site_fract_z
 _atom_site_occupancy
  Cr  Cr0  1  0.57452100  0.87394500  0.99942700  1
  Cr  Cr1  1  0.42547900  0.12605500  0.49942700  1
  Cr  Cr2  1  0.92547900  0.37394500  0.49942700  1
  Cr  Cr3  1  0.07452100  0.62605500  0.99942700  1
  Ga  Ga4  1  0.58295200  0.37572900  0.00335900  1
  Ga  Ga5  1  0.41704800  0.62427100  0.50335900  1
  Ga  Ga6  1  0.91704800  0.87572900  0.50335900  1
  Ga  Ga7  1  0.08295200  0.12427100  0.00335900  1
  N  N8  1  0.58474500  0.37821600  0.38708300  1
  N  N9  1  0.41525500  0.62178400  0.88708300  1
  N  N10  1  0.91525500  0.87821600  0.88708300  1
  N  N11  1  0.08474500  0.12178400  0.38708300  1
  N  N12  1  0.58090300  0.87219500  0.38013200  1
  N  N13  1  0.41909700  0.12780500  0.88013200  1
  N  N14  1  0.91909700  0.37219500  0.88013200  1
  N  N15  1  0.08090300  0.62780500  0.38013200  1
