# generated using pymatgen
data_Y4S3N2
_symmetry_space_group_name_H-M   'P 1'
_cell_length_a   6.65552142
_cell_length_b   11.54542302
_cell_length_c   9.83181878
_cell_angle_alpha   90.00000000
_cell_angle_beta   90.00000000
_cell_angle_gamma   90.00000000
_symmetry_Int_Tables_number   1
_chemical_formula_structural   Y4S3N2
_chemical_formula_sum   'Y16 S12 N8'
_cell_volume   755.48492092
_cell_formula_units_Z   4
loop_
 _symmetry_equiv_pos_site_id
 _symmetry_equiv_pos_as_xyz
  1  'x, y, z'
loop_
 _atom_site_type_symbol
 _atom_site_label
 _atom_site_symmetry_multiplicity
 _atom_site_fract_x
 _atom_site_fract_y
 _atom_site_fract_z
 _atom_site_occupancy
  Y  Y0  1  0.61980734  0.25000000  0.86412920  1
  Y  Y1  1  0.11980734  0.25000000  0.63587080  1
  Y  Y2  1  0.38019266  0.75000000  0.13587080  1
  Y  Y3  1  0.88019266  0.75000000  0.36412920  1
  Y  Y4  1  0.72064045  0.25000000  0.43963664  1
  Y  Y5  1  0.22064045  0.25000000  0.06036336  1
  Y  Y6  1  0.27935955  0.75000000  0.56036336  1
  Y  Y7  1  0.77935955  0.75000000  0.93963664  1
  Y  Y8  1  0.67585917  0.47225899  0.11610209  1
  Y  Y9  1  0.17585917  0.02774101  0.38389791  1
  Y  Y10  1  0.32414083  0.97225899  0.88389791  1
  Y  Y11  1  0.82414083  0.52774101  0.61610209  1
  Y  Y12  1  0.32414083  0.52774101  0.88389791  1
  Y  Y13  1  0.82414083  0.97225899  0.61610209  1
  Y  Y14  1  0.67585917  0.02774101  0.11610209  1
  Y  Y15  1  0.17585917  0.47225899  0.38389791  1
  S  S16  1  0.83973503  0.25000000  0.17402722  1
  S  S17  1  0.33973503  0.25000000  0.32597278  1
  S  S18  1  0.16026497  0.75000000  0.82597278  1
  S  S19  1  0.66026497  0.75000000  0.67402722  1
  S  S20  1  0.54628293  0.59242115  0.35115064  1
  S  S21  1  0.04628293  0.90757885  0.14884936  1
  S  S22  1  0.45371707  0.09242115  0.64884936  1
  S  S23  1  0.95371707  0.40757885  0.85115064  1
  S  S24  1  0.45371707  0.40757885  0.64884936  1
  S  S25  1  0.95371707  0.09242115  0.85115064  1
  S  S26  1  0.54628293  0.90757885  0.35115064  1
  S  S27  1  0.04628293  0.59242115  0.14884936  1
  N  N28  1  0.55540925  0.62334938  0.00837964  1
  N  N29  1  0.05540925  0.87665062  0.49162036  1
  N  N30  1  0.44459075  0.12334938  0.99162036  1
  N  N31  1  0.94459075  0.37665062  0.50837964  1
  N  N32  1  0.44459075  0.37665062  0.99162036  1
  N  N33  1  0.94459075  0.12334938  0.50837964  1
  N  N34  1  0.55540925  0.87665062  0.00837964  1
  N  N35  1  0.05540925  0.62334938  0.49162036  1
