# generated using pymatgen
data_TaWN3
_symmetry_space_group_name_H-M   'P 1'
_cell_length_a   5.88507527
_cell_length_b   9.57288785
_cell_length_c   7.88604412
_cell_angle_alpha   123.85719219
_cell_angle_beta   76.09126996
_cell_angle_gamma   119.13311914
_symmetry_Int_Tables_number   1
_chemical_formula_structural   TaWN3
_chemical_formula_sum   'Ta4 W4 N12'
_cell_volume   321.97469324
_cell_formula_units_Z   4
loop_
 _symmetry_equiv_pos_site_id
 _symmetry_equiv_pos_as_xyz
  1  'x, y, z'
loop_
 _atom_site_type_symbol
 _atom_site_label
 _atom_site_symmetry_multiplicity
 _atom_site_fract_x
 _atom_site_fract_y
 _atom_site_fract_z
 _atom_site_occupancy
  Ta  Ta0  1  0.12206000  0.38249100  0.53724300  1
  Ta  Ta1  1  0.87794000  0.61750900  0.46275700  1
  Ta  Ta2  1  0.03122500  0.94347800  0.26837400  1
  Ta  Ta3  1  0.96877500  0.05652200  0.73162600  1
  W  W4  1  0.72502800  0.77762200  0.86089200  1
  W  W5  1  0.27497200  0.22237800  0.13910800  1
  W  W6  1  0.76176000  0.20170600  0.17896000  1
  W  W7  1  0.23824000  0.79829400  0.82104000  1
  N  N8  1  0.36800900  0.03940100  0.16352500  1
  N  N9  1  0.63199100  0.96059900  0.83647500  1
  N  N10  1  0.91986200  0.71902900  0.97583800  1
  N  N11  1  0.08013800  0.28097100  0.02416200  1
  N  N12  1  0.85700500  0.03069300  0.17227300  1
  N  N13  1  0.14299500  0.96930700  0.82772700  1
  N  N14  1  0.20728300  0.64222700  0.53368000  1
  N  N15  1  0.79271700  0.35777300  0.46632000  1
  N  N16  1  0.61653400  0.40587600  0.22461200  1
  N  N17  1  0.38346600  0.59412400  0.77538800  1
  N  N18  1  0.99050800  0.83102100  0.43115700  1
  N  N19  1  0.00949200  0.16897900  0.56884300  1
