# generated using pymatgen
data_Li3SbN2
_symmetry_space_group_name_H-M   'P 1'
_cell_length_a   9.16075700
_cell_length_b   10.57793123
_cell_length_c   10.57793020
_cell_angle_alpha   89.99999804
_cell_angle_beta   125.26439070
_cell_angle_gamma   54.73561327
_symmetry_Int_Tables_number   1
_chemical_formula_structural   Li3SbN2
_chemical_formula_sum   'Li24 Sb8 N16'
_cell_volume   591.79620753
_cell_formula_units_Z   8
loop_
 _symmetry_equiv_pos_site_id
 _symmetry_equiv_pos_as_xyz
  1  'x, y, z'
loop_
 _atom_site_type_symbol
 _atom_site_label
 _atom_site_symmetry_multiplicity
 _atom_site_fract_x
 _atom_site_fract_y
 _atom_site_fract_z
 _atom_site_occupancy
  Li  Li0  1  0.28566200  0.96854400  0.05181000  1
  Li  Li1  1  0.71433800  0.75420600  0.44819000  1
  Li  Li2  1  0.71433800  0.53145600  0.76614700  1
  Li  Li3  1  0.28566200  0.74579400  0.73385300  1
  Li  Li4  1  0.18204300  0.76614700  0.20239700  1
  Li  Li5  1  0.81795700  0.73385300  0.02035400  1
  Li  Li6  1  0.18204300  0.05181000  0.47964600  1
  Li  Li7  1  0.81795700  0.44819000  0.29760300  1
  Li  Li8  1  0.77725000  0.02035400  0.74579400  1
  Li  Li9  1  0.77725000  0.20239700  0.53145600  1
  Li  Li10  1  0.22275000  0.29760300  0.75420600  1
  Li  Li11  1  0.22275000  0.47964600  0.96854400  1
  Li  Li12  1  0.71433800  0.03145600  0.94819000  1
  Li  Li13  1  0.28566200  0.24579400  0.55181000  1
  Li  Li14  1  0.28566200  0.46854400  0.23385300  1
  Li  Li15  1  0.71433800  0.25420600  0.26614700  1
  Li  Li16  1  0.81795700  0.23385300  0.79760300  1
  Li  Li17  1  0.18204300  0.26614700  0.97964600  1
  Li  Li18  1  0.81795700  0.94819000  0.52035400  1
  Li  Li19  1  0.18204300  0.55181000  0.70239700  1
  Li  Li20  1  0.22275000  0.97964600  0.25420600  1
  Li  Li21  1  0.22275000  0.79760300  0.46854400  1
  Li  Li22  1  0.77725000  0.70239700  0.24579400  1
  Li  Li23  1  0.77725000  0.52035400  0.03145600  1
  Sb  Sb24  1  0.28880100  0.00000000  0.78880100  1
  Sb  Sb25  1  0.71119900  0.78880100  0.71119900  1
  Sb  Sb26  1  0.71119900  0.50000000  0.50000000  1
  Sb  Sb27  1  0.28880100  0.71119900  0.00000000  1
  Sb  Sb28  1  0.71119900  0.00000000  0.21119900  1
  Sb  Sb29  1  0.28880100  0.21119900  0.28880100  1
  Sb  Sb30  1  0.28880100  0.50000000  0.50000000  1
  Sb  Sb31  1  0.71119900  0.28880100  0.00000000  1
  N  N32  1  0.00000000  0.00000000  0.50000000  1
  N  N33  1  0.00000000  0.50000000  0.00000000  1
  N  N34  1  0.00000000  0.50000000  0.50000000  1
  N  N35  1  0.00000000  0.00000000  0.00000000  1
  N  N36  1  0.50000000  0.00446300  0.75000000  1
  N  N37  1  0.50000000  0.49553700  0.25000000  1
  N  N38  1  0.00000000  0.25000000  0.75446300  1
  N  N39  1  0.00000000  0.75000000  0.74553700  1
  N  N40  1  0.49107300  0.75446300  0.49553700  1
  N  N41  1  0.50892700  0.74553700  0.00446300  1
  N  N42  1  0.50000000  0.99553700  0.25000000  1
  N  N43  1  0.50000000  0.50446300  0.75000000  1
  N  N44  1  0.00000000  0.75000000  0.24553700  1
  N  N45  1  0.00000000  0.25000000  0.25446300  1
  N  N46  1  0.50892700  0.24553700  0.50446300  1
  N  N47  1  0.49107300  0.25446300  0.99553700  1
