# generated using pymatgen
data_Ga3Sn3N5
_symmetry_space_group_name_H-M   'P 1'
_cell_length_a   5.99640726
_cell_length_b   6.92955247
_cell_length_c   8.87225457
_cell_angle_alpha   102.66544316
_cell_angle_beta   98.48980215
_cell_angle_gamma   93.94504641
_symmetry_Int_Tables_number   1
_chemical_formula_structural   Ga3Sn3N5
_chemical_formula_sum   'Ga6 Sn6 N10'
_cell_volume   353.79090862
_cell_formula_units_Z   2
loop_
 _symmetry_equiv_pos_site_id
 _symmetry_equiv_pos_as_xyz
  1  'x, y, z'
loop_
 _atom_site_type_symbol
 _atom_site_label
 _atom_site_symmetry_multiplicity
 _atom_site_fract_x
 _atom_site_fract_y
 _atom_site_fract_z
 _atom_site_occupancy
  Ga  Ga0  1  0.89624300  0.30409300  0.96239500  1
  Ga  Ga1  1  0.10375700  0.69590700  0.03760500  1
  Ga  Ga2  1  0.69116900  0.99355400  0.61089500  1
  Ga  Ga3  1  0.30883100  0.00644600  0.38910500  1
  Ga  Ga4  1  0.13653900  0.91581000  0.72747800  1
  Ga  Ga5  1  0.86346100  0.08419000  0.27252200  1
  Sn  Sn6  1  0.72846000  0.49821400  0.65372300  1
  Sn  Sn7  1  0.27154000  0.50178600  0.34627700  1
  Sn  Sn8  1  0.61212100  0.83038300  0.88958100  1
  Sn  Sn9  1  0.38787900  0.16961700  0.11041900  1
  Sn  Sn10  1  0.78441600  0.67455000  0.32903200  1
  Sn  Sn11  1  0.21558400  0.32545000  0.67096800  1
  N  N12  1  0.94730400  0.15230300  0.75779000  1
  N  N13  1  0.05269600  0.84769700  0.24221000  1
  N  N14  1  0.88335000  0.75128000  0.58495500  1
  N  N15  1  0.11665000  0.24872000  0.41504500  1
  N  N16  1  0.80526300  0.56624500  0.91959700  1
  N  N17  1  0.19473700  0.43375500  0.08040300  1
  N  N18  1  0.36623000  0.03173800  0.62355400  1
  N  N19  1  0.63377000  0.96826200  0.37644600  1
  N  N20  1  0.26694300  0.87793900  0.93710600  1
  N  N21  1  0.73305700  0.12206100  0.06289400  1
