# generated using pymatgen
data_Si2AuN3
_symmetry_space_group_name_H-M   'P 1'
_cell_length_a   5.56558837
_cell_length_b   5.62012498
_cell_length_c   5.04820100
_cell_angle_alpha   90.00000000
_cell_angle_beta   90.00000000
_cell_angle_gamma   120.32468261
_symmetry_Int_Tables_number   1
_chemical_formula_structural   Si2AuN3
_chemical_formula_sum   'Si4 Au2 N6'
_cell_volume   136.29945519
_cell_formula_units_Z   2
loop_
 _symmetry_equiv_pos_site_id
 _symmetry_equiv_pos_as_xyz
  1  'x, y, z'
loop_
 _atom_site_type_symbol
 _atom_site_label
 _atom_site_symmetry_multiplicity
 _atom_site_fract_x
 _atom_site_fract_y
 _atom_site_fract_z
 _atom_site_occupancy
  Si  Si0  1  0.35475300  0.32149200  0.47604600  1
  Si  Si1  1  0.64524700  0.96674000  0.47604600  1
  Si  Si2  1  0.64524700  0.67850800  0.97604600  1
  Si  Si3  1  0.35475300  0.03326000  0.97604600  1
  Au  Au4  1  0.00000000  0.56949900  0.58260300  1
  Au  Au5  1  0.00000000  0.43050100  0.08260300  1
  N  N6  1  0.44078600  0.34922500  0.81863500  1
  N  N7  1  0.55921400  0.90843900  0.81863500  1
  N  N8  1  0.55921400  0.65077500  0.31863500  1
  N  N9  1  0.44078600  0.09156100  0.31863500  1
  N  N10  1  0.00000000  0.80255000  0.91603500  1
  N  N11  1  0.00000000  0.19745000  0.41603500  1
