# generated using pymatgen
data_NaReN2
_symmetry_space_group_name_H-M   'P 1'
_cell_length_a   5.93764532
_cell_length_b   12.36133411
_cell_length_c   14.17746939
_cell_angle_alpha   90.00000000
_cell_angle_beta   90.00000000
_cell_angle_gamma   90.00000000
_symmetry_Int_Tables_number   1
_chemical_formula_structural   NaReN2
_chemical_formula_sum   'Na16 Re16 N32'
_cell_volume   1040.58680622
_cell_formula_units_Z   16
loop_
 _symmetry_equiv_pos_site_id
 _symmetry_equiv_pos_as_xyz
  1  'x, y, z'
loop_
 _atom_site_type_symbol
 _atom_site_label
 _atom_site_symmetry_multiplicity
 _atom_site_fract_x
 _atom_site_fract_y
 _atom_site_fract_z
 _atom_site_occupancy
  Na  Na0  1  0.21681552  0.95717612  0.43497419  1
  Na  Na1  1  0.71681552  0.54282388  0.56502581  1
  Na  Na2  1  0.78318448  0.45717612  0.06502581  1
  Na  Na3  1  0.28318448  0.04282388  0.93497419  1
  Na  Na4  1  0.78318448  0.04282388  0.56502581  1
  Na  Na5  1  0.28318448  0.45717612  0.43497419  1
  Na  Na6  1  0.21681552  0.54282388  0.93497419  1
  Na  Na7  1  0.71681552  0.95717612  0.06502581  1
  Na  Na8  1  0.33106414  0.22097808  0.31371941  1
  Na  Na9  1  0.83106414  0.27902192  0.68628059  1
  Na  Na10  1  0.66893586  0.72097808  0.18628059  1
  Na  Na11  1  0.16893586  0.77902192  0.81371941  1
  Na  Na12  1  0.66893586  0.77902192  0.68628059  1
  Na  Na13  1  0.16893586  0.72097808  0.31371941  1
  Na  Na14  1  0.33106414  0.27902192  0.81371941  1
  Na  Na15  1  0.83106414  0.22097808  0.18628059  1
  Re  Re16  1  0.69852129  0.02578642  0.32143026  1
  Re  Re17  1  0.19852129  0.47421358  0.67856974  1
  Re  Re18  1  0.30147871  0.52578642  0.17856974  1
  Re  Re19  1  0.80147871  0.97421358  0.82143026  1
  Re  Re20  1  0.30147871  0.97421358  0.67856974  1
  Re  Re21  1  0.80147871  0.52578642  0.32143026  1
  Re  Re22  1  0.69852129  0.47421358  0.82143026  1
  Re  Re23  1  0.19852129  0.02578642  0.17856974  1
  Re  Re24  1  0.79839566  0.28012168  0.44478077  1
  Re  Re25  1  0.29839566  0.21987832  0.55521923  1
  Re  Re26  1  0.20160434  0.78012168  0.05521923  1
  Re  Re27  1  0.70160434  0.71987832  0.94478077  1
  Re  Re28  1  0.20160434  0.71987832  0.55521923  1
  Re  Re29  1  0.70160434  0.78012168  0.44478077  1
  Re  Re30  1  0.79839566  0.21987832  0.94478077  1
  Re  Re31  1  0.29839566  0.28012168  0.05521923  1
  N  N32  1  0.11999051  0.27048187  0.45466286  1
  N  N33  1  0.61999051  0.22951813  0.54533714  1
  N  N34  1  0.88000949  0.77048187  0.04533714  1
  N  N35  1  0.38000949  0.72951813  0.95466286  1
  N  N36  1  0.88000949  0.72951813  0.54533714  1
  N  N37  1  0.38000949  0.77048187  0.45466286  1
  N  N38  1  0.11999051  0.22951813  0.95466286  1
  N  N39  1  0.61999051  0.27048187  0.04533714  1
  N  N40  1  0.71923977  0.42648069  0.41693117  1
  N  N41  1  0.21923977  0.07351931  0.58306883  1
  N  N42  1  0.28076023  0.92648069  0.08306883  1
  N  N43  1  0.78076023  0.57351931  0.91693117  1
  N  N44  1  0.28076023  0.57351931  0.58306883  1
  N  N45  1  0.78076023  0.92648069  0.41693117  1
  N  N46  1  0.71923977  0.07351931  0.91693117  1
  N  N47  1  0.21923977  0.42648069  0.08306883  1
  N  N48  1  0.72900724  0.17193099  0.35503892  1
  N  N49  1  0.22900724  0.32806901  0.64496108  1
  N  N50  1  0.27099276  0.67193099  0.14496108  1
  N  N51  1  0.77099276  0.82806901  0.85503892  1
  N  N52  1  0.27099276  0.82806901  0.64496108  1
  N  N53  1  0.77099276  0.67193099  0.35503892  1
  N  N54  1  0.72900724  0.32806901  0.85503892  1
  N  N55  1  0.22900724  0.17193099  0.14496108  1
  N  N56  1  0.59824999  0.50610535  0.22108787  1
  N  N57  1  0.09824999  0.99389465  0.77891213  1
  N  N58  1  0.40175001  0.00610535  0.27891213  1
  N  N59  1  0.90175001  0.49389465  0.72108787  1
  N  N60  1  0.40175001  0.49389465  0.77891213  1
  N  N61  1  0.90175001  0.00610535  0.22108787  1
  N  N62  1  0.59824999  0.99389465  0.72108787  1
  N  N63  1  0.09824999  0.50610535  0.27891213  1
