# generated using pymatgen
data_Mn3(SeN)2
_symmetry_space_group_name_H-M   'P 1'
_cell_length_a   16.75778400
_cell_length_b   16.12160700
_cell_length_c   3.38937300
_cell_angle_alpha   90.00000000
_cell_angle_beta   90.00000000
_cell_angle_gamma   90.00000000
_symmetry_Int_Tables_number   1
_chemical_formula_structural   Mn3(SeN)2
_chemical_formula_sum   'Mn24 Se16 N16'
_cell_volume   915.68117074
_cell_formula_units_Z   8
loop_
 _symmetry_equiv_pos_site_id
 _symmetry_equiv_pos_as_xyz
  1  'x, y, z'
loop_
 _atom_site_type_symbol
 _atom_site_label
 _atom_site_symmetry_multiplicity
 _atom_site_fract_x
 _atom_site_fract_y
 _atom_site_fract_z
 _atom_site_occupancy
  Mn  Mn0  1  0.06620000  0.01968300  0.03051200  1
  Mn  Mn1  1  0.93380000  0.98031700  0.53051200  1
  Mn  Mn2  1  0.43380000  0.51968300  0.53051200  1
  Mn  Mn3  1  0.56620000  0.48031700  0.03051200  1
  Mn  Mn4  1  0.01321300  0.55667000  0.53037700  1
  Mn  Mn5  1  0.98678700  0.44333000  0.03037700  1
  Mn  Mn6  1  0.48678700  0.05667000  0.03037700  1
  Mn  Mn7  1  0.51321300  0.94333000  0.53037700  1
  Mn  Mn8  1  0.14355300  0.42544100  0.03047100  1
  Mn  Mn9  1  0.85644700  0.57455900  0.53047100  1
  Mn  Mn10  1  0.35644700  0.92544100  0.53047100  1
  Mn  Mn11  1  0.64355300  0.07455900  0.03047100  1
  Mn  Mn12  1  0.10100600  0.87549400  0.53048800  1
  Mn  Mn13  1  0.89899400  0.12450600  0.03048800  1
  Mn  Mn14  1  0.39899400  0.37549400  0.03048800  1
  Mn  Mn15  1  0.60100600  0.62450600  0.53048800  1
  Mn  Mn16  1  0.73726300  0.53423100  0.03051300  1
  Mn  Mn17  1  0.26273700  0.46576900  0.53051300  1
  Mn  Mn18  1  0.76273700  0.03423100  0.53051300  1
  Mn  Mn19  1  0.23726300  0.96576900  0.03051300  1
  Mn  Mn20  1  0.37899000  0.12951800  0.53044900  1
  Mn  Mn21  1  0.62101000  0.87048200  0.03044900  1
  Mn  Mn22  1  0.12101000  0.62951800  0.03044900  1
  Mn  Mn23  1  0.87899000  0.37048200  0.53044900  1
  Se  Se24  1  0.76266200  0.93058300  0.03049300  1
  Se  Se25  1  0.23733800  0.06941700  0.53049300  1
  Se  Se26  1  0.73733800  0.43058300  0.53049300  1
  Se  Se27  1  0.26266200  0.56941700  0.03049300  1
  Se  Se28  1  0.98154800  0.66314900  0.03031000  1
  Se  Se29  1  0.01845200  0.33685100  0.53031000  1
  Se  Se30  1  0.51845200  0.16314900  0.53031000  1
  Se  Se31  1  0.48154800  0.83685100  0.03031000  1
  Se  Se32  1  0.04278200  0.16608100  0.03059600  1
  Se  Se33  1  0.95721800  0.83391900  0.53059600  1
  Se  Se34  1  0.45721800  0.66608100  0.53059600  1
  Se  Se35  1  0.54278200  0.33391900  0.03059600  1
  Se  Se36  1  0.84037200  0.27015400  0.03050700  1
  Se  Se37  1  0.15962800  0.72984600  0.53050700  1
  Se  Se38  1  0.65962800  0.77015400  0.53050700  1
  Se  Se39  1  0.34037200  0.22984600  0.03050700  1
  N  N40  1  0.14483100  0.91470800  0.03050000  1
  N  N41  1  0.85516900  0.08529200  0.53050000  1
  N  N42  1  0.35516900  0.41470800  0.53050000  1
  N  N43  1  0.64483100  0.58529200  0.03050000  1
  N  N44  1  0.18183700  0.39807700  0.53047500  1
  N  N45  1  0.81816300  0.60192300  0.03047500  1
  N  N46  1  0.31816300  0.89807700  0.03047500  1
  N  N47  1  0.68183700  0.10192300  0.53047500  1
  N  N48  1  0.44971300  0.48121900  0.03055200  1
  N  N49  1  0.55028700  0.51878100  0.53055200  1
  N  N50  1  0.05028700  0.98121900  0.53055200  1
  N  N51  1  0.94971300  0.01878100  0.03055200  1
  N  N52  1  0.42757700  0.01895100  0.53035900  1
  N  N53  1  0.57242300  0.98104900  0.03035900  1
  N  N54  1  0.07242300  0.51895100  0.03035900  1
  N  N55  1  0.92757700  0.48104900  0.53035900  1
