# generated using pymatgen
data_Ru(C2N3)3
_symmetry_space_group_name_H-M   'P 1'
_cell_length_a   7.60986415
_cell_length_b   13.46441121
_cell_length_c   11.36810900
_cell_angle_alpha   90.00000000
_cell_angle_beta   90.00000000
_cell_angle_gamma   27.78927781
_symmetry_Int_Tables_number   1
_chemical_formula_structural   Ru(C2N3)3
_chemical_formula_sum   'Ru2 C12 N18'
_cell_volume   543.05575268
_cell_formula_units_Z   2
loop_
 _symmetry_equiv_pos_site_id
 _symmetry_equiv_pos_as_xyz
  1  'x, y, z'
loop_
 _atom_site_type_symbol
 _atom_site_label
 _atom_site_symmetry_multiplicity
 _atom_site_fract_x
 _atom_site_fract_y
 _atom_site_fract_z
 _atom_site_occupancy
  Ru  Ru0  1  0.00000000  0.28091500  0.25000000  1
  Ru  Ru1  1  0.00000000  0.71908500  0.75000000  1
  C  C2  1  0.68189700  0.78877200  0.25000000  1
  C  C3  1  0.68189700  0.52933100  0.75000000  1
  C  C4  1  0.31810300  0.21122800  0.75000000  1
  C  C5  1  0.31810300  0.47066900  0.25000000  1
  C  C6  1  0.68175800  0.30244400  0.90469300  1
  C  C7  1  0.68175800  0.01579800  0.09530700  1
  C  C8  1  0.68175800  0.30244400  0.59530700  1
  C  C9  1  0.68175800  0.01579800  0.40469300  1
  C  C10  1  0.31824200  0.69755600  0.09530700  1
  C  C11  1  0.31824200  0.98420200  0.90469300  1
  C  C12  1  0.31824200  0.69755600  0.40469300  1
  C  C13  1  0.31824200  0.98420200  0.59530700  1
  N  N14  1  0.00000000  0.58328100  0.25000000  1
  N  N15  1  0.00000000  0.41671900  0.75000000  1
  N  N16  1  0.38092400  0.97634500  0.25000000  1
  N  N17  1  0.38092400  0.64273100  0.75000000  1
  N  N18  1  0.61907600  0.02365500  0.75000000  1
  N  N19  1  0.61907600  0.35726900  0.25000000  1
  N  N20  1  0.00000000  0.11977800  0.95170200  1
  N  N21  1  0.00000000  0.88022200  0.04829800  1
  N  N22  1  0.00000000  0.11977800  0.54829800  1
  N  N23  1  0.00000000  0.88022200  0.45170200  1
  N  N24  1  0.38011200  0.47200100  0.86724300  1
  N  N25  1  0.38011200  0.14788500  0.13275700  1
  N  N26  1  0.38011200  0.47200100  0.63275700  1
  N  N27  1  0.38011200  0.14788500  0.36724300  1
  N  N28  1  0.61988800  0.52799900  0.13275700  1
  N  N29  1  0.61988800  0.85211500  0.86724300  1
  N  N30  1  0.61988800  0.52799900  0.36724300  1
  N  N31  1  0.61988800  0.85211500  0.63275700  1
