# generated using pymatgen
data_Ca2SbN3
_symmetry_space_group_name_H-M   'P 1'
_cell_length_a   6.26443628
_cell_length_b   11.07283855
_cell_length_c   12.22008987
_cell_angle_alpha   90.00000260
_cell_angle_beta   91.82294125
_cell_angle_gamma   152.10247016
_symmetry_Int_Tables_number   1
_chemical_formula_structural   Ca2SbN3
_chemical_formula_sum   'Ca8 Sb4 N12'
_cell_volume   395.68961875
_cell_formula_units_Z   4
loop_
 _symmetry_equiv_pos_site_id
 _symmetry_equiv_pos_as_xyz
  1  'x, y, z'
loop_
 _atom_site_type_symbol
 _atom_site_label
 _atom_site_symmetry_multiplicity
 _atom_site_fract_x
 _atom_site_fract_y
 _atom_site_fract_z
 _atom_site_occupancy
  Ca  Ca0  1  0.47516100  0.03641300  0.86634400  1
  Ca  Ca1  1  0.52483900  0.56125300  0.63365600  1
  Ca  Ca2  1  0.52483900  0.96358700  0.13365600  1
  Ca  Ca3  1  0.47516100  0.43874700  0.36634400  1
  Ca  Ca4  1  0.55784800  0.90202400  0.57666200  1
  Ca  Ca5  1  0.44215200  0.34417700  0.92333800  1
  Ca  Ca6  1  0.44215200  0.09797600  0.42333800  1
  Ca  Ca7  1  0.55784800  0.65582300  0.07666200  1
  Sb  Sb8  1  0.53144900  0.25951600  0.65573700  1
  Sb  Sb9  1  0.46855100  0.72806700  0.84426300  1
  Sb  Sb10  1  0.46855100  0.74048400  0.34426300  1
  Sb  Sb11  1  0.53144900  0.27193300  0.15573700  1
  N  N12  1  0.00000000  0.59547400  0.75000000  1
  N  N13  1  0.00000000  0.40452600  0.25000000  1
  N  N14  1  0.70044100  0.17755600  0.61597700  1
  N  N15  1  0.29955900  0.47711500  0.88402300  1
  N  N16  1  0.29955900  0.82244400  0.38402300  1
  N  N17  1  0.70044100  0.52288500  0.11597700  1
  N  N18  1  0.37078200  0.07707300  0.03546700  1
  N  N19  1  0.62921800  0.70629200  0.46453300  1
  N  N20  1  0.62921800  0.92292700  0.96453300  1
  N  N21  1  0.37078200  0.29370800  0.53546700  1
  N  N22  1  0.00000000  0.95827000  0.75000000  1
  N  N23  1  0.00000000  0.04173000  0.25000000  1
