# generated using pymatgen
data_Ge3W5N9
_symmetry_space_group_name_H-M   'P 1'
_cell_length_a   8.40990693
_cell_length_b   13.79670865
_cell_length_c   13.44335600
_cell_angle_alpha   90.00000000
_cell_angle_beta   90.00000000
_cell_angle_gamma   145.11135105
_symmetry_Int_Tables_number   1
_chemical_formula_structural   Ge3W5N9
_chemical_formula_sum   'Ge12 W20 N36'
_cell_volume   892.19090469
_cell_formula_units_Z   4
loop_
 _symmetry_equiv_pos_site_id
 _symmetry_equiv_pos_as_xyz
  1  'x, y, z'
loop_
 _atom_site_type_symbol
 _atom_site_label
 _atom_site_symmetry_multiplicity
 _atom_site_fract_x
 _atom_site_fract_y
 _atom_site_fract_z
 _atom_site_occupancy
  Ge  Ge0  1  0.00000000  0.70678100  0.99083500  1
  Ge  Ge1  1  0.00000000  0.29321900  0.00916500  1
  Ge  Ge2  1  0.00000000  0.79321900  0.49083500  1
  Ge  Ge3  1  0.00000000  0.20678100  0.50916500  1
  Ge  Ge4  1  0.00000000  0.23055300  0.78331800  1
  Ge  Ge5  1  0.00000000  0.76944700  0.21668200  1
  Ge  Ge6  1  0.00000000  0.26944700  0.28331800  1
  Ge  Ge7  1  0.00000000  0.73055300  0.71668200  1
  Ge  Ge8  1  0.50000000  0.89631800  0.75000000  1
  Ge  Ge9  1  0.50000000  0.60368200  0.25000000  1
  Ge  Ge10  1  0.50000000  0.10368200  0.25000000  1
  Ge  Ge11  1  0.50000000  0.39631800  0.75000000  1
  W  W12  1  0.00000000  0.47451000  0.83705200  1
  W  W13  1  0.00000000  0.52549000  0.16294800  1
  W  W14  1  0.00000000  0.02549000  0.33705200  1
  W  W15  1  0.00000000  0.97451000  0.66294800  1
  W  W16  1  0.28935500  0.01570000  0.89149200  1
  W  W17  1  0.28935500  0.27365400  0.10850800  1
  W  W18  1  0.28935500  0.77365400  0.39149200  1
  W  W19  1  0.28935500  0.51570000  0.60850800  1
  W  W20  1  0.71064500  0.98430000  0.10850800  1
  W  W21  1  0.71064500  0.72634600  0.89149200  1
  W  W22  1  0.71064500  0.22634600  0.60850800  1
  W  W23  1  0.71064500  0.48430000  0.39149200  1
  W  W24  1  0.00000000  0.57053100  0.58231200  1
  W  W25  1  0.00000000  0.42946900  0.41768800  1
  W  W26  1  0.00000000  0.92946900  0.08231200  1
  W  W27  1  0.00000000  0.07053100  0.91768800  1
  W  W28  1  0.60334500  0.30167200  0.00000000  1
  W  W29  1  0.60334500  0.80167200  0.50000000  1
  W  W30  1  0.39665500  0.69832800  0.00000000  1
  W  W31  1  0.39665500  0.19832800  0.50000000  1
  N  N32  1  0.00000000  0.45654300  0.68379700  1
  N  N33  1  0.00000000  0.54345700  0.31620300  1
  N  N34  1  0.00000000  0.04345700  0.18379700  1
  N  N35  1  0.00000000  0.95654300  0.81620300  1
  N  N36  1  0.00000000  0.33070600  0.87641100  1
  N  N37  1  0.00000000  0.66929400  0.12358900  1
  N  N38  1  0.00000000  0.16929400  0.37641100  1
  N  N39  1  0.00000000  0.83070600  0.62358900  1
  N  N40  1  0.70585800  0.60709000  0.81551000  1
  N  N41  1  0.70585800  0.09876700  0.18449000  1
  N  N42  1  0.70585800  0.59876700  0.31551000  1
  N  N43  1  0.70585800  0.10709000  0.68449000  1
  N  N44  1  0.29414200  0.39291000  0.18449000  1
  N  N45  1  0.29414200  0.90123300  0.81551000  1
  N  N46  1  0.29414200  0.40123300  0.68449000  1
  N  N47  1  0.29414200  0.89291000  0.31551000  1
  N  N48  1  0.59472700  0.25052400  0.85027100  1
  N  N49  1  0.59472700  0.34420400  0.14972900  1
  N  N50  1  0.59472700  0.84420400  0.35027100  1
  N  N51  1  0.59472700  0.75052400  0.64972900  1
  N  N52  1  0.40527300  0.74947600  0.14972900  1
  N  N53  1  0.40527300  0.65579600  0.85027100  1
  N  N54  1  0.40527300  0.15579600  0.64972900  1
  N  N55  1  0.40527300  0.24947600  0.35027100  1
  N  N56  1  0.37027200  0.06369400  0.03763200  1
  N  N57  1  0.37027200  0.30657800  0.96236800  1
  N  N58  1  0.37027200  0.80657800  0.53763200  1
  N  N59  1  0.37027200  0.56369400  0.46236800  1
  N  N60  1  0.62972800  0.93630600  0.96236800  1
  N  N61  1  0.62972800  0.69342200  0.03763200  1
  N  N62  1  0.62972800  0.19342200  0.46236800  1
  N  N63  1  0.62972800  0.43630600  0.53763200  1
  N  N64  1  0.00000000  0.57556500  0.94323600  1
  N  N65  1  0.00000000  0.42443500  0.05676400  1
  N  N66  1  0.00000000  0.92443500  0.44323600  1
  N  N67  1  0.00000000  0.07556500  0.55676400  1
