# generated using pymatgen
data_YMgMnS4
_symmetry_space_group_name_H-M   'P 1'
_cell_length_a   7.77808370
_cell_length_b   7.57930602
_cell_length_c   7.57577201
_cell_angle_alpha   60.09598937
_cell_angle_beta   59.10929296
_cell_angle_gamma   59.13601525
_symmetry_Int_Tables_number   1
_chemical_formula_structural   YMgMnS4
_chemical_formula_sum   'Y2 Mg2 Mn2 S8'
_cell_volume   311.76757762
_cell_formula_units_Z   2
loop_
 _symmetry_equiv_pos_site_id
 _symmetry_equiv_pos_as_xyz
  1  'x, y, z'
loop_
 _atom_site_type_symbol
 _atom_site_label
 _atom_site_symmetry_multiplicity
 _atom_site_fract_x
 _atom_site_fract_y
 _atom_site_fract_z
 _atom_site_occupancy
  Y  Y0  1  0.50011400  0.49987200  0.50006800  1
  Y  Y1  1  0.99994700  0.49984400  0.50008200  1
  Mg  Mg2  1  0.87579000  0.87414800  0.87432900  1
  Mg  Mg3  1  0.12418700  0.12596700  0.12560200  1
  Mn  Mn4  1  0.50023500  0.49986300  0.99985900  1
  Mn  Mn5  1  0.49991900  0.00001300  0.49999100  1
  S  S6  1  0.71452500  0.75574400  0.75579400  1
  S  S7  1  0.27074700  0.23278800  0.72569300  1
  S  S8  1  0.27071900  0.72580400  0.23283500  1
  S  S9  1  0.72595700  0.24423400  0.24426600  1
  S  S10  1  0.72905100  0.27447900  0.76731100  1
  S  S11  1  0.27401600  0.75578200  0.75571700  1
  S  S12  1  0.28548900  0.24429600  0.24419800  1
  S  S13  1  0.72930600  0.76716100  0.27425500  1
