# generated using pymatgen
data_Li3IrN2
_symmetry_space_group_name_H-M   'P 1'
_cell_length_a   8.51680400
_cell_length_b   9.83435812
_cell_length_c   9.83435776
_cell_angle_alpha   89.99999689
_cell_angle_beta   125.26438895
_cell_angle_gamma   54.73561252
_symmetry_Int_Tables_number   1
_chemical_formula_structural   Li3IrN2
_chemical_formula_sum   'Li24 Ir8 N16'
_cell_volume   475.56299767
_cell_formula_units_Z   8
loop_
 _symmetry_equiv_pos_site_id
 _symmetry_equiv_pos_as_xyz
  1  'x, y, z'
loop_
 _atom_site_type_symbol
 _atom_site_label
 _atom_site_symmetry_multiplicity
 _atom_site_fract_x
 _atom_site_fract_y
 _atom_site_fract_z
 _atom_site_occupancy
  Li  Li0  1  0.23023900  0.03188200  0.99063300  1
  Li  Li1  1  0.76976100  0.76212100  0.50936700  1
  Li  Li2  1  0.76976100  0.46811800  0.76039400  1
  Li  Li3  1  0.23023900  0.73787900  0.73960600  1
  Li  Li4  1  0.24897400  0.76039400  0.27148800  1
  Li  Li5  1  0.75102600  0.73960600  0.02251400  1
  Li  Li6  1  0.24897400  0.99063300  0.47748600  1
  Li  Li7  1  0.75102600  0.50936700  0.22851200  1
  Li  Li8  1  0.70599800  0.02251400  0.73787900  1
  Li  Li9  1  0.70599800  0.27148800  0.46811800  1
  Li  Li10  1  0.29400200  0.22851200  0.76212100  1
  Li  Li11  1  0.29400200  0.47748600  0.03188200  1
  Li  Li12  1  0.76976100  0.96811800  0.00936700  1
  Li  Li13  1  0.23023900  0.23787900  0.49063300  1
  Li  Li14  1  0.23023900  0.53188200  0.23960600  1
  Li  Li15  1  0.76976100  0.26212100  0.26039400  1
  Li  Li16  1  0.75102600  0.23960600  0.72851200  1
  Li  Li17  1  0.24897400  0.26039400  0.97748600  1
  Li  Li18  1  0.75102600  0.00936700  0.52251400  1
  Li  Li19  1  0.24897400  0.49063300  0.77148800  1
  Li  Li20  1  0.29400200  0.97748600  0.26212100  1
  Li  Li21  1  0.29400200  0.72851200  0.53188200  1
  Li  Li22  1  0.70599800  0.77148800  0.23787900  1
  Li  Li23  1  0.70599800  0.52251400  0.96811800  1
  Ir  Ir24  1  0.23455200  0.00000000  0.73455200  1
  Ir  Ir25  1  0.76544800  0.73455200  0.76544800  1
  Ir  Ir26  1  0.76544800  0.50000000  0.50000000  1
  Ir  Ir27  1  0.23455200  0.76544800  0.00000000  1
  Ir  Ir28  1  0.76544800  0.00000000  0.26544800  1
  Ir  Ir29  1  0.23455200  0.26544800  0.23455200  1
  Ir  Ir30  1  0.23455200  0.50000000  0.50000000  1
  Ir  Ir31  1  0.76544800  0.23455200  0.00000000  1
  N  N32  1  0.00000000  0.00000000  0.50000000  1
  N  N33  1  0.00000000  0.50000000  0.00000000  1
  N  N34  1  0.00000000  0.50000000  0.50000000  1
  N  N35  1  0.00000000  0.00000000  0.00000000  1
  N  N36  1  0.50000000  0.98467000  0.75000000  1
  N  N37  1  0.50000000  0.51533000  0.25000000  1
  N  N38  1  0.00000000  0.25000000  0.73467000  1
  N  N39  1  0.00000000  0.75000000  0.76533000  1
  N  N40  1  0.53066100  0.73467000  0.51533000  1
  N  N41  1  0.46933900  0.76533000  0.98467000  1
  N  N42  1  0.50000000  0.01533000  0.25000000  1
  N  N43  1  0.50000000  0.48467000  0.75000000  1
  N  N44  1  0.00000000  0.75000000  0.26533000  1
  N  N45  1  0.00000000  0.25000000  0.23467000  1
  N  N46  1  0.46933900  0.26533000  0.48467000  1
  N  N47  1  0.53066100  0.23467000  0.01533000  1
