# generated using pymatgen
data_Mg2AlCr3S8
_symmetry_space_group_name_H-M   'P 1'
_cell_length_a   7.22476635
_cell_length_b   7.22468108
_cell_length_c   7.22469060
_cell_angle_alpha   60.10360136
_cell_angle_beta   60.10231759
_cell_angle_gamma   60.10476871
_symmetry_Int_Tables_number   1
_chemical_formula_structural   Mg2AlCr3S8
_chemical_formula_sum   'Mg2 Al1 Cr3 S8'
_cell_volume   267.27886243
_cell_formula_units_Z   1
loop_
 _symmetry_equiv_pos_site_id
 _symmetry_equiv_pos_as_xyz
  1  'x, y, z'
loop_
 _atom_site_type_symbol
 _atom_site_label
 _atom_site_symmetry_multiplicity
 _atom_site_fract_x
 _atom_site_fract_y
 _atom_site_fract_z
 _atom_site_occupancy
  Mg  Mg0  1  0.87521593  0.87522735  0.87524225  1
  Mg  Mg1  1  0.12479262  0.12477132  0.12476437  1
  Al  Al2  1  0.50000201  0.50003062  0.49996168  1
  Cr  Cr3  1  0.49998770  0.49999732  0.00000325  1
  Cr  Cr4  1  0.00000915  0.49998717  0.50001797  1
  Cr  Cr5  1  0.49998747  -0.00001258  0.49999812  1
  S  S6  1  0.73671425  0.73669658  0.73667883  1
  S  S7  1  0.26301562  0.26303923  0.71084279  1
  S  S8  1  0.26300377  0.71086088  0.26305040  1
  S  S9  1  0.71086247  0.26301735  0.26304132  1
  S  S10  1  0.73698408  0.28914947  0.73694291  1
  S  S11  1  0.28914456  0.73697086  0.73696660  1
  S  S12  1  0.26328589  0.26329588  0.26333360  1
  S  S13  1  0.73699848  0.73696354  0.28915691  1
