# generated using pymatgen
data_In3Si6N11
_symmetry_space_group_name_H-M   'P 1'
_cell_length_a   9.84527700
_cell_length_b   9.84527700
_cell_length_c   4.92484400
_cell_angle_alpha   90.00000000
_cell_angle_beta   90.00000000
_cell_angle_gamma   90.00000000
_symmetry_Int_Tables_number   1
_chemical_formula_structural   In3Si6N11
_chemical_formula_sum   'In6 Si12 N22'
_cell_volume   477.36256409
_cell_formula_units_Z   2
loop_
 _symmetry_equiv_pos_site_id
 _symmetry_equiv_pos_as_xyz
  1  'x, y, z'
loop_
 _atom_site_type_symbol
 _atom_site_label
 _atom_site_symmetry_multiplicity
 _atom_site_fract_x
 _atom_site_fract_y
 _atom_site_fract_z
 _atom_site_occupancy
  In  In0  1  0.32031200  0.82031200  0.95332500  1
  In  In1  1  0.67968800  0.17968800  0.95332500  1
  In  In2  1  0.17968800  0.32031200  0.95332500  1
  In  In3  1  0.82031200  0.67968800  0.95332500  1
  In  In4  1  0.50000000  0.50000000  0.98293000  1
  In  In5  1  0.00000000  0.00000000  0.98293000  1
  Si  Si6  1  0.41797900  0.29149100  0.53457900  1
  Si  Si7  1  0.58202100  0.70850900  0.53457900  1
  Si  Si8  1  0.08202100  0.79149100  0.53457900  1
  Si  Si9  1  0.91797900  0.20850900  0.53457900  1
  Si  Si10  1  0.29149100  0.58202100  0.53457900  1
  Si  Si11  1  0.70850900  0.41797900  0.53457900  1
  Si  Si12  1  0.79149100  0.91797900  0.53457900  1
  Si  Si13  1  0.20850900  0.08202100  0.53457900  1
  Si  Si14  1  0.87758000  0.37758000  0.04445600  1
  Si  Si15  1  0.12242000  0.62242000  0.04445600  1
  Si  Si16  1  0.62242000  0.87758000  0.04445600  1
  Si  Si17  1  0.37758000  0.12242000  0.04445600  1
  N  N18  1  0.31684200  0.42173900  0.66209400  1
  N  N19  1  0.68315800  0.57826100  0.66209400  1
  N  N20  1  0.18315800  0.92173900  0.66209400  1
  N  N21  1  0.81684200  0.07826100  0.66209400  1
  N  N22  1  0.42173900  0.68315800  0.66209400  1
  N  N23  1  0.57826100  0.31684200  0.66209400  1
  N  N24  1  0.92173900  0.81684200  0.66209400  1
  N  N25  1  0.07826100  0.18315800  0.66209400  1
  N  N26  1  0.41117100  0.28431000  0.18206100  1
  N  N27  1  0.58882900  0.71569000  0.18206100  1
  N  N28  1  0.08882900  0.78431000  0.18206100  1
  N  N29  1  0.91117100  0.21569000  0.18206100  1
  N  N30  1  0.28431000  0.58882900  0.18206100  1
  N  N31  1  0.71569000  0.41117100  0.18206100  1
  N  N32  1  0.78431000  0.91117100  0.18206100  1
  N  N33  1  0.21569000  0.08882900  0.18206100  1
  N  N34  1  0.85309900  0.35309900  0.69261800  1
  N  N35  1  0.14690100  0.64690100  0.69261800  1
  N  N36  1  0.64690100  0.85309900  0.69261800  1
  N  N37  1  0.35309900  0.14690100  0.69261800  1
  N  N38  1  0.50000000  0.00000000  0.08987400  1
  N  N39  1  0.00000000  0.50000000  0.08987400  1
