# generated using pymatgen
data_Sr5(FeN2)2
_symmetry_space_group_name_H-M   'P 1'
_cell_length_a   8.73104400
_cell_length_b   8.73104400
_cell_length_c   12.41935200
_cell_angle_alpha   90.00000000
_cell_angle_beta   90.00000000
_cell_angle_gamma   90.00000000
_symmetry_Int_Tables_number   1
_chemical_formula_structural   Sr5(FeN2)2
_chemical_formula_sum   'Sr20 Fe8 N16'
_cell_volume   946.74122851
_cell_formula_units_Z   4
loop_
 _symmetry_equiv_pos_site_id
 _symmetry_equiv_pos_as_xyz
  1  'x, y, z'
loop_
 _atom_site_type_symbol
 _atom_site_label
 _atom_site_symmetry_multiplicity
 _atom_site_fract_x
 _atom_site_fract_y
 _atom_site_fract_z
 _atom_site_occupancy
  Sr  Sr0  1  0.75000000  0.75000000  0.33762100  1
  Sr  Sr1  1  0.75000000  0.75000000  0.83762100  1
  Sr  Sr2  1  0.25000000  0.25000000  0.66237900  1
  Sr  Sr3  1  0.25000000  0.25000000  0.16237900  1
  Sr  Sr4  1  0.13674500  0.56929300  0.39838000  1
  Sr  Sr5  1  0.36325500  0.56929300  0.89838000  1
  Sr  Sr6  1  0.13674500  0.93070700  0.89838000  1
  Sr  Sr7  1  0.36325500  0.93070700  0.39838000  1
  Sr  Sr8  1  0.56929300  0.13674500  0.89838000  1
  Sr  Sr9  1  0.93070700  0.13674500  0.39838000  1
  Sr  Sr10  1  0.56929300  0.36325500  0.39838000  1
  Sr  Sr11  1  0.93070700  0.36325500  0.89838000  1
  Sr  Sr12  1  0.86325500  0.43070700  0.60162000  1
  Sr  Sr13  1  0.63674500  0.43070700  0.10162000  1
  Sr  Sr14  1  0.86325500  0.06929300  0.10162000  1
  Sr  Sr15  1  0.63674500  0.06929300  0.60162000  1
  Sr  Sr16  1  0.43070700  0.86325500  0.10162000  1
  Sr  Sr17  1  0.06929300  0.86325500  0.60162000  1
  Sr  Sr18  1  0.43070700  0.63674500  0.60162000  1
  Sr  Sr19  1  0.06929300  0.63674500  0.10162000  1
  Fe  Fe20  1  0.09187500  0.90812500  0.25000000  1
  Fe  Fe21  1  0.40812500  0.90812500  0.75000000  1
  Fe  Fe22  1  0.09187500  0.59187500  0.75000000  1
  Fe  Fe23  1  0.40812500  0.59187500  0.25000000  1
  Fe  Fe24  1  0.90812500  0.09187500  0.75000000  1
  Fe  Fe25  1  0.59187500  0.09187500  0.25000000  1
  Fe  Fe26  1  0.90812500  0.40812500  0.25000000  1
  Fe  Fe27  1  0.59187500  0.40812500  0.75000000  1
  N  N28  1  0.64219000  0.05819200  0.38353200  1
  N  N29  1  0.85781000  0.05819200  0.88353200  1
  N  N30  1  0.64219000  0.44180800  0.88353200  1
  N  N31  1  0.85781000  0.44180800  0.38353200  1
  N  N32  1  0.05819200  0.64219000  0.88353200  1
  N  N33  1  0.44180800  0.64219000  0.38353200  1
  N  N34  1  0.05819200  0.85781000  0.38353200  1
  N  N35  1  0.44180800  0.85781000  0.88353200  1
  N  N36  1  0.35781000  0.94180800  0.61646800  1
  N  N37  1  0.14219000  0.94180800  0.11646800  1
  N  N38  1  0.35781000  0.55819200  0.11646800  1
  N  N39  1  0.14219000  0.55819200  0.61646800  1
  N  N40  1  0.94180800  0.35781000  0.11646800  1
  N  N41  1  0.55819200  0.35781000  0.61646800  1
  N  N42  1  0.94180800  0.14219000  0.61646800  1
  N  N43  1  0.55819200  0.14219000  0.11646800  1
