# generated using pymatgen
data_In3Ga3N5
_symmetry_space_group_name_H-M   'P 1'
_cell_length_a   6.00248460
_cell_length_b   6.61484879
_cell_length_c   8.77310342
_cell_angle_alpha   106.28564921
_cell_angle_beta   96.68028642
_cell_angle_gamma   92.52352949
_symmetry_Int_Tables_number   1
_chemical_formula_structural   In3Ga3N5
_chemical_formula_sum   'In6 Ga6 N10'
_cell_volume   331.01851242
_cell_formula_units_Z   2
loop_
 _symmetry_equiv_pos_site_id
 _symmetry_equiv_pos_as_xyz
  1  'x, y, z'
loop_
 _atom_site_type_symbol
 _atom_site_label
 _atom_site_symmetry_multiplicity
 _atom_site_fract_x
 _atom_site_fract_y
 _atom_site_fract_z
 _atom_site_occupancy
  In  In0  1  0.80033100  0.42634100  0.60723600  1
  In  In1  1  0.19966900  0.57365900  0.39276400  1
  In  In2  1  0.67431700  0.84304100  0.92430000  1
  In  In3  1  0.32568300  0.15695900  0.07570000  1
  In  In4  1  0.66060000  0.63110900  0.25343100  1
  In  In5  1  0.33940000  0.36889100  0.74656900  1
  Ga  Ga6  1  0.86173400  0.30684500  0.96919700  1
  Ga  Ga7  1  0.13826600  0.69315500  0.03080300  1
  Ga  Ga8  1  0.68279400  0.93472300  0.58779200  1
  Ga  Ga9  1  0.31720600  0.06527700  0.41220800  1
  Ga  Ga10  1  0.12663200  0.88018500  0.71166300  1
  Ga  Ga11  1  0.87336800  0.11981500  0.28833700  1
  N  N12  1  0.86773900  0.03808700  0.79765300  1
  N  N13  1  0.13226100  0.96191300  0.20234700  1
  N  N14  1  0.88340100  0.69946000  0.52228900  1
  N  N15  1  0.11659900  0.30054000  0.47771100  1
  N  N16  1  0.85135100  0.55504300  0.88326200  1
  N  N17  1  0.14864900  0.44495700  0.11673800  1
  N  N18  1  0.34738900  0.89232500  0.56449600  1
  N  N19  1  0.65261100  0.10767500  0.43550400  1
  N  N20  1  0.30639600  0.81856700  0.89287800  1
  N  N21  1  0.69360400  0.18143300  0.10712200  1
