# generated using pymatgen
data_FeSi7N10
_symmetry_space_group_name_H-M   'P 1'
_cell_length_a   6.69398715
_cell_length_b   6.89897900
_cell_length_c   9.71610000
_cell_angle_alpha   90.00000000
_cell_angle_beta   104.10941621
_cell_angle_gamma   90.00000000
_symmetry_Int_Tables_number   1
_chemical_formula_structural   FeSi7N10
_chemical_formula_sum   'Fe2 Si14 N20'
_cell_volume   435.16921798
_cell_formula_units_Z   2
loop_
 _symmetry_equiv_pos_site_id
 _symmetry_equiv_pos_as_xyz
  1  'x, y, z'
loop_
 _atom_site_type_symbol
 _atom_site_label
 _atom_site_symmetry_multiplicity
 _atom_site_fract_x
 _atom_site_fract_y
 _atom_site_fract_z
 _atom_site_occupancy
  Fe  Fe0  1  0.99884600  0.91944900  0.70422800  1
  Fe  Fe1  1  0.99884600  0.08055100  0.20422800  1
  Si  Si2  1  0.54299700  0.98154700  0.82266600  1
  Si  Si3  1  0.54299700  0.01845300  0.32266600  1
  Si  Si4  1  0.34891000  0.02197300  0.02023000  1
  Si  Si5  1  0.34891000  0.97802700  0.52023000  1
  Si  Si6  1  0.10927200  0.40098100  0.07421800  1
  Si  Si7  1  0.10927200  0.59901900  0.57421800  1
  Si  Si8  1  0.65906600  0.36300100  0.98896500  1
  Si  Si9  1  0.65906600  0.63699900  0.48896500  1
  Si  Si10  1  0.84616800  0.61670300  0.80662200  1
  Si  Si11  1  0.84616800  0.38329700  0.30662200  1
  Si  Si12  1  0.29684600  0.62062400  0.88110700  1
  Si  Si13  1  0.29684600  0.37937600  0.38110700  1
  Si  Si14  1  0.48474000  0.36648600  0.68464600  1
  Si  Si15  1  0.48474000  0.63351400  0.18464600  1
  N  N16  1  0.75340100  0.84907000  0.80752400  1
  N  N17  1  0.75340100  0.15093000  0.30752400  1
  N  N18  1  0.55226900  0.13729300  0.96750400  1
  N  N19  1  0.55226900  0.86270700  0.46750400  1
  N  N20  1  0.31281100  0.87170500  0.86463100  1
  N  N21  1  0.31281100  0.12829500  0.36463100  1
  N  N22  1  0.15014900  0.15732100  0.04991300  1
  N  N23  1  0.15014900  0.84267900  0.54991300  1
  N  N24  1  0.28903000  0.50629900  0.72204000  1
  N  N25  1  0.28903000  0.49370100  0.22204000  1
  N  N26  1  0.44609900  0.11984700  0.67003700  1
  N  N27  1  0.44609900  0.88015300  0.17003700  1
  N  N28  1  0.87933800  0.38439300  0.12887800  1
  N  N29  1  0.87933800  0.61560700  0.62887800  1
  N  N30  1  0.07509400  0.56772200  0.93451100  1
  N  N31  1  0.07509400  0.43227800  0.43451100  1
  N  N32  1  0.69988100  0.41456400  0.82193400  1
  N  N33  1  0.69988100  0.58543600  0.32193400  1
  N  N34  1  0.49738300  0.54366000  0.01964600  1
  N  N35  1  0.49738300  0.45634000  0.51964600  1
