# generated using pymatgen
data_KMnN
_symmetry_space_group_name_H-M   'P 1'
_cell_length_a   6.08327300
_cell_length_b   4.30289277
_cell_length_c   3.62502800
_cell_angle_alpha   90.00000000
_cell_angle_beta   90.00000000
_cell_angle_gamma   134.98178085
_symmetry_Int_Tables_number   1
_chemical_formula_structural   KMnN
_chemical_formula_sum   'K1 Mn1 N1'
_cell_volume   67.11695614
_cell_formula_units_Z   1
loop_
 _symmetry_equiv_pos_site_id
 _symmetry_equiv_pos_as_xyz
  1  'x, y, z'
loop_
 _atom_site_type_symbol
 _atom_site_label
 _atom_site_symmetry_multiplicity
 _atom_site_fract_x
 _atom_site_fract_y
 _atom_site_fract_z
 _atom_site_occupancy
  K  K0  1  0.11113500  0.22227000  0.50000000  1
  Mn  Mn1  1  0.61113800  0.22227600  0.00000000  1
  N  N2  1  0.61112700  0.22225400  0.50000000  1
