# generated using pymatgen
data_In5(GeN3)2
_symmetry_space_group_name_H-M   'P 1'
_cell_length_a   6.12823726
_cell_length_b   6.11145535
_cell_length_c   13.17059945
_cell_angle_alpha   90.00000059
_cell_angle_beta   93.89978021
_cell_angle_gamma   119.90945738
_symmetry_Int_Tables_number   1
_chemical_formula_structural   In5(GeN3)2
_chemical_formula_sum   'In10 Ge4 N12'
_cell_volume   426.25645627
_cell_formula_units_Z   2
loop_
 _symmetry_equiv_pos_site_id
 _symmetry_equiv_pos_as_xyz
  1  'x, y, z'
loop_
 _atom_site_type_symbol
 _atom_site_label
 _atom_site_symmetry_multiplicity
 _atom_site_fract_x
 _atom_site_fract_y
 _atom_site_fract_z
 _atom_site_occupancy
  In  In0  1  0.00000000  0.45834700  0.75000000  1
  In  In1  1  0.00000000  0.54165300  0.25000000  1
  In  In2  1  0.14148800  0.72720200  0.95084500  1
  In  In3  1  0.85851200  0.58571400  0.54915500  1
  In  In4  1  0.85851200  0.27279800  0.04915500  1
  In  In5  1  0.14148800  0.41428600  0.45084500  1
  In  In6  1  0.29201800  0.12082300  0.69491100  1
  In  In7  1  0.70798200  0.82880500  0.80508900  1
  In  In8  1  0.70798200  0.87917700  0.30508900  1
  In  In9  1  0.29201800  0.17119500  0.19491100  1
  Ge  Ge10  1  0.60922300  0.94771500  0.58754300  1
  Ge  Ge11  1  0.39077700  0.33849200  0.91245700  1
  Ge  Ge12  1  0.39077700  0.05228500  0.41245700  1
  Ge  Ge13  1  0.60922300  0.66150800  0.08754300  1
  N  N14  1  0.42579300  0.84912200  0.70241400  1
  N  N15  1  0.57420700  0.42332900  0.79758600  1
  N  N16  1  0.57420700  0.15087800  0.29758600  1
  N  N17  1  0.42579300  0.57667100  0.20241400  1
  N  N18  1  0.51490200  0.20868400  0.54520500  1
  N  N19  1  0.48509800  0.69378200  0.95479500  1
  N  N20  1  0.48509800  0.79131600  0.45479500  1
  N  N21  1  0.51490200  0.30621800  0.04520500  1
  N  N22  1  0.89243900  0.91452200  0.63010600  1
  N  N23  1  0.10756100  0.02208200  0.86989400  1
  N  N24  1  0.10756100  0.08547800  0.36989400  1
  N  N25  1  0.89243900  0.97791800  0.13010600  1
