# generated using pymatgen
data_Sr4GeN4
_symmetry_space_group_name_H-M   'P 1'
_cell_length_a   6.13252900
_cell_length_b   11.90901900
_cell_length_c   9.94429500
_cell_angle_alpha   90.00000000
_cell_angle_beta   90.00000000
_cell_angle_gamma   90.00000000
_symmetry_Int_Tables_number   1
_chemical_formula_structural   Sr4GeN4
_chemical_formula_sum   'Sr16 Ge4 N16'
_cell_volume   726.25577370
_cell_formula_units_Z   4
loop_
 _symmetry_equiv_pos_site_id
 _symmetry_equiv_pos_as_xyz
  1  'x, y, z'
loop_
 _atom_site_type_symbol
 _atom_site_label
 _atom_site_symmetry_multiplicity
 _atom_site_fract_x
 _atom_site_fract_y
 _atom_site_fract_z
 _atom_site_occupancy
  Sr  Sr0  1  0.11837200  0.37409500  0.60375500  1
  Sr  Sr1  1  0.38162800  0.62590500  0.60375500  1
  Sr  Sr2  1  0.11837200  0.12590500  0.89624500  1
  Sr  Sr3  1  0.38162800  0.87409500  0.89624500  1
  Sr  Sr4  1  0.88162800  0.62590500  0.39624500  1
  Sr  Sr5  1  0.61837200  0.37409500  0.39624500  1
  Sr  Sr6  1  0.88162800  0.87409500  0.10375500  1
  Sr  Sr7  1  0.61837200  0.12590500  0.10375500  1
  Sr  Sr8  1  0.75000000  0.50000000  0.06973900  1
  Sr  Sr9  1  0.75000000  0.00000000  0.43026100  1
  Sr  Sr10  1  0.25000000  0.50000000  0.93026100  1
  Sr  Sr11  1  0.25000000  0.00000000  0.56973900  1
  Sr  Sr12  1  0.64773200  0.25000000  0.75000000  1
  Sr  Sr13  1  0.85226800  0.75000000  0.75000000  1
  Sr  Sr14  1  0.35226800  0.75000000  0.25000000  1
  Sr  Sr15  1  0.14773200  0.25000000  0.25000000  1
  Ge  Ge16  1  0.75000000  0.50000000  0.75252300  1
  Ge  Ge17  1  0.75000000  0.00000000  0.74747700  1
  Ge  Ge18  1  0.25000000  0.50000000  0.24747700  1
  Ge  Ge19  1  0.25000000  0.00000000  0.25252300  1
  N  N20  1  0.51735300  0.42775500  0.64598800  1
  N  N21  1  0.98264700  0.57224500  0.64598800  1
  N  N22  1  0.51735300  0.07224500  0.85401200  1
  N  N23  1  0.98264700  0.92775500  0.85401200  1
  N  N24  1  0.48264700  0.57224500  0.35401200  1
  N  N25  1  0.01735300  0.42775500  0.35401200  1
  N  N26  1  0.48264700  0.92775500  0.14598800  1
  N  N27  1  0.01735300  0.07224500  0.14598800  1
  N  N28  1  0.90405400  0.11159500  0.64376600  1
  N  N29  1  0.59594600  0.88840500  0.64376600  1
  N  N30  1  0.90405400  0.38840500  0.85623400  1
  N  N31  1  0.59594600  0.61159500  0.85623400  1
  N  N32  1  0.09594600  0.88840500  0.35623400  1
  N  N33  1  0.40405400  0.11159500  0.35623400  1
  N  N34  1  0.09594600  0.61159500  0.14376600  1
  N  N35  1  0.40405400  0.38840500  0.14376600  1
