# generated using pymatgen
data_LiSbN2
_symmetry_space_group_name_H-M   'P 1'
_cell_length_a   5.96238000
_cell_length_b   12.13719800
_cell_length_c   15.15073900
_cell_angle_alpha   90.00000000
_cell_angle_beta   90.00000000
_cell_angle_gamma   90.00000000
_symmetry_Int_Tables_number   1
_chemical_formula_structural   LiSbN2
_chemical_formula_sum   'Li16 Sb16 N32'
_cell_volume   1096.40726607
_cell_formula_units_Z   16
loop_
 _symmetry_equiv_pos_site_id
 _symmetry_equiv_pos_as_xyz
  1  'x, y, z'
loop_
 _atom_site_type_symbol
 _atom_site_label
 _atom_site_symmetry_multiplicity
 _atom_site_fract_x
 _atom_site_fract_y
 _atom_site_fract_z
 _atom_site_occupancy
  Li  Li0  1  0.48043800  0.05150400  0.23994400  1
  Li  Li1  1  0.98043800  0.44849600  0.76005600  1
  Li  Li2  1  0.51956200  0.55150400  0.26005600  1
  Li  Li3  1  0.01956200  0.94849600  0.73994400  1
  Li  Li4  1  0.51956200  0.94849600  0.76005600  1
  Li  Li5  1  0.01956200  0.55150400  0.23994400  1
  Li  Li6  1  0.48043800  0.44849600  0.73994400  1
  Li  Li7  1  0.98043800  0.05150400  0.26005600  1
  Li  Li8  1  0.88472400  0.31445600  0.01736900  1
  Li  Li9  1  0.38472400  0.18554400  0.98263100  1
  Li  Li10  1  0.11527600  0.81445600  0.48263100  1
  Li  Li11  1  0.61527600  0.68554400  0.51736900  1
  Li  Li12  1  0.11527600  0.68554400  0.98263100  1
  Li  Li13  1  0.61527600  0.81445600  0.01736900  1
  Li  Li14  1  0.88472400  0.18554400  0.51736900  1
  Li  Li15  1  0.38472400  0.31445600  0.48263100  1
  Sb  Sb16  1  0.63474700  0.94307000  0.43725500  1
  Sb  Sb17  1  0.13474700  0.55693000  0.56274500  1
  Sb  Sb18  1  0.36525300  0.44307000  0.06274500  1
  Sb  Sb19  1  0.86525300  0.05693000  0.93725500  1
  Sb  Sb20  1  0.36525300  0.05693000  0.56274500  1
  Sb  Sb21  1  0.86525300  0.44307000  0.43725500  1
  Sb  Sb22  1  0.63474700  0.55693000  0.93725500  1
  Sb  Sb23  1  0.13474700  0.94307000  0.06274500  1
  Sb  Sb24  1  0.69577500  0.29564100  0.30202100  1
  Sb  Sb25  1  0.19577500  0.20435900  0.69797800  1
  Sb  Sb26  1  0.30422500  0.79564100  0.19797900  1
  Sb  Sb27  1  0.80422500  0.70435900  0.80202200  1
  Sb  Sb28  1  0.30422500  0.70435900  0.69797800  1
  Sb  Sb29  1  0.80422500  0.79564100  0.30202100  1
  Sb  Sb30  1  0.69577500  0.20435900  0.80202200  1
  Sb  Sb31  1  0.19577500  0.29564100  0.19797900  1
  N  N32  1  0.78198500  0.46147300  0.30610900  1
  N  N33  1  0.28198500  0.03852700  0.69389100  1
  N  N34  1  0.21801500  0.96147300  0.19389100  1
  N  N35  1  0.71801500  0.53852700  0.80610900  1
  N  N36  1  0.21801500  0.53852700  0.69389100  1
  N  N37  1  0.71801500  0.96147300  0.30610900  1
  N  N38  1  0.78198500  0.03852700  0.80610900  1
  N  N39  1  0.28198500  0.46147300  0.19389100  1
  N  N40  1  0.72102900  0.29113900  0.43722900  1
  N  N41  1  0.22102900  0.20886100  0.56277100  1
  N  N42  1  0.27897100  0.79113900  0.06277100  1
  N  N43  1  0.77897100  0.70886100  0.93722900  1
  N  N44  1  0.27897100  0.70886100  0.56277100  1
  N  N45  1  0.77897100  0.79113900  0.43722900  1
  N  N46  1  0.72102900  0.20886100  0.93722900  1
  N  N47  1  0.22102900  0.29113900  0.06277100  1
  N  N48  1  0.70460000  0.45321700  0.03849100  1
  N  N49  1  0.20460000  0.04678300  0.96150900  1
  N  N50  1  0.29540000  0.95321700  0.46150900  1
  N  N51  1  0.79540000  0.54678300  0.53849100  1
  N  N52  1  0.29540000  0.54678300  0.96150900  1
  N  N53  1  0.79540000  0.95321700  0.03849100  1
  N  N54  1  0.70460000  0.04678300  0.53849100  1
  N  N55  1  0.20460000  0.45321700  0.46150900  1
  N  N56  1  0.41465900  0.21436800  0.27357700  1
  N  N57  1  0.91465900  0.28563200  0.72642300  1
  N  N58  1  0.58534100  0.71436800  0.22642300  1
  N  N59  1  0.08534100  0.78563200  0.77357700  1
  N  N60  1  0.58534100  0.78563200  0.72642300  1
  N  N61  1  0.08534100  0.71436800  0.27357700  1
  N  N62  1  0.41465900  0.28563200  0.77357700  1
  N  N63  1  0.91465900  0.21436800  0.22642300  1
