# generated using pymatgen
data_Sr7SeN6
_symmetry_space_group_name_H-M   'P 1'
_cell_length_a   12.71480200
_cell_length_b   6.85551800
_cell_length_c   13.50715000
_cell_angle_alpha   90.00000000
_cell_angle_beta   90.00000000
_cell_angle_gamma   90.00000000
_symmetry_Int_Tables_number   1
_chemical_formula_structural   Sr7SeN6
_chemical_formula_sum   'Sr28 Se4 N24'
_cell_volume   1177.37171956
_cell_formula_units_Z   4
loop_
 _symmetry_equiv_pos_site_id
 _symmetry_equiv_pos_as_xyz
  1  'x, y, z'
loop_
 _atom_site_type_symbol
 _atom_site_label
 _atom_site_symmetry_multiplicity
 _atom_site_fract_x
 _atom_site_fract_y
 _atom_site_fract_z
 _atom_site_occupancy
  Sr  Sr0  1  0.05976100  0.71033000  0.00083300  1
  Sr  Sr1  1  0.44023900  0.78967000  0.50083300  1
  Sr  Sr2  1  0.55976100  0.78967000  0.99916700  1
  Sr  Sr3  1  0.94023900  0.71033000  0.49916700  1
  Sr  Sr4  1  0.94023900  0.28967000  0.99916700  1
  Sr  Sr5  1  0.55976100  0.21033000  0.49916700  1
  Sr  Sr6  1  0.44023900  0.21033000  0.00083300  1
  Sr  Sr7  1  0.05976100  0.28967000  0.50083300  1
  Sr  Sr8  1  0.21871900  0.88380400  0.65380300  1
  Sr  Sr9  1  0.28128100  0.61619600  0.15380300  1
  Sr  Sr10  1  0.71871900  0.61619600  0.34619700  1
  Sr  Sr11  1  0.78128100  0.88380400  0.84619700  1
  Sr  Sr12  1  0.78128100  0.11619600  0.34619700  1
  Sr  Sr13  1  0.71871900  0.38380400  0.84619700  1
  Sr  Sr14  1  0.28128100  0.38380400  0.65380300  1
  Sr  Sr15  1  0.21871900  0.11619600  0.15380300  1
  Sr  Sr16  1  0.30464100  0.65502200  0.88602600  1
  Sr  Sr17  1  0.19535900  0.84497800  0.38602600  1
  Sr  Sr18  1  0.80464100  0.84497800  0.11397400  1
  Sr  Sr19  1  0.69535900  0.65502200  0.61397400  1
  Sr  Sr20  1  0.69535900  0.34497800  0.11397400  1
  Sr  Sr21  1  0.80464100  0.15502200  0.61397400  1
  Sr  Sr22  1  0.19535900  0.15502200  0.88602600  1
  Sr  Sr23  1  0.30464100  0.34497800  0.38602600  1
  Sr  Sr24  1  0.00000000  0.56583300  0.75000000  1
  Sr  Sr25  1  0.50000000  0.93416700  0.25000000  1
  Sr  Sr26  1  0.00000000  0.43416700  0.25000000  1
  Sr  Sr27  1  0.50000000  0.06583300  0.75000000  1
  Se  Se28  1  0.00000000  0.06208700  0.75000000  1
  Se  Se29  1  0.50000000  0.43791300  0.25000000  1
  Se  Se30  1  0.00000000  0.93791300  0.25000000  1
  Se  Se31  1  0.50000000  0.56208700  0.75000000  1
  N  N32  1  0.13942900  0.79644200  0.83080000  1
  N  N33  1  0.36057100  0.70355800  0.33080000  1
  N  N34  1  0.63942900  0.70355800  0.16920000  1
  N  N35  1  0.86057100  0.79644200  0.66920000  1
  N  N36  1  0.86057100  0.20355800  0.16920000  1
  N  N37  1  0.63942900  0.29644200  0.66920000  1
  N  N38  1  0.36057100  0.29644200  0.83080000  1
  N  N39  1  0.13942900  0.20355800  0.33080000  1
  N  N40  1  0.13534500  0.63536000  0.53572600  1
  N  N41  1  0.36465500  0.86464000  0.03572600  1
  N  N42  1  0.63534500  0.86464000  0.46427400  1
  N  N43  1  0.86465500  0.63536000  0.96427400  1
  N  N44  1  0.86465500  0.36464000  0.46427400  1
  N  N45  1  0.63534500  0.13536000  0.96427400  1
  N  N46  1  0.36465500  0.13536000  0.53572600  1
  N  N47  1  0.13534500  0.36464000  0.03572600  1
  N  N48  1  0.39882300  0.71738700  0.69710800  1
  N  N49  1  0.10117700  0.78261300  0.19710800  1
  N  N50  1  0.89882300  0.78261300  0.30289200  1
  N  N51  1  0.60117700  0.71738700  0.80289200  1
  N  N52  1  0.60117700  0.28261300  0.30289200  1
  N  N53  1  0.89882300  0.21738700  0.80289200  1
  N  N54  1  0.10117700  0.21738700  0.69710800  1
  N  N55  1  0.39882300  0.28261300  0.19710800  1
