# generated using pymatgen
data_Cr4S3N2
_symmetry_space_group_name_H-M   'P 1'
_cell_length_a   5.83232442
_cell_length_b   3.13694321
_cell_length_c   8.46675858
_cell_angle_alpha   90.00000459
_cell_angle_beta   52.93332022
_cell_angle_gamma   74.39955333
_symmetry_Int_Tables_number   1
_chemical_formula_structural   Cr4S3N2
_chemical_formula_sum   'Cr4 S3 N2'
_cell_volume   116.37251427
_cell_formula_units_Z   1
loop_
 _symmetry_equiv_pos_site_id
 _symmetry_equiv_pos_as_xyz
  1  'x, y, z'
loop_
 _atom_site_type_symbol
 _atom_site_label
 _atom_site_symmetry_multiplicity
 _atom_site_fract_x
 _atom_site_fract_y
 _atom_site_fract_z
 _atom_site_occupancy
  Cr  Cr0  1  0.32043200  0.83978400  0.64495600  1
  Cr  Cr1  1  0.67956800  0.16021600  0.35504400  1
  Cr  Cr2  1  0.53904200  0.73047900  0.11445100  1
  Cr  Cr3  1  0.46095800  0.26952100  0.88554900  1
  S  S4  1  0.00000000  0.00000000  0.00000000  1
  S  S5  1  0.82469500  0.58765200  0.77375700  1
  S  S6  1  0.17530500  0.41234800  0.22624300  1
  N  N7  1  0.48229000  0.75885400  0.36808700  1
  N  N8  1  0.51771000  0.24114600  0.63191300  1
