# generated using pymatgen
data_Ca3Ga3N5
_symmetry_space_group_name_H-M   'P 1'
_cell_length_a   5.91046539
_cell_length_b   6.88336151
_cell_length_c   8.47565363
_cell_angle_alpha   107.47635134
_cell_angle_beta   105.46495590
_cell_angle_gamma   95.17475627
_symmetry_Int_Tables_number   1
_chemical_formula_structural   Ca3Ga3N5
_chemical_formula_sum   'Ca6 Ga6 N10'
_cell_volume   311.51243786
_cell_formula_units_Z   2
loop_
 _symmetry_equiv_pos_site_id
 _symmetry_equiv_pos_as_xyz
  1  'x, y, z'
loop_
 _atom_site_type_symbol
 _atom_site_label
 _atom_site_symmetry_multiplicity
 _atom_site_fract_x
 _atom_site_fract_y
 _atom_site_fract_z
 _atom_site_occupancy
  Ca  Ca0  1  0.81833900  0.41169800  0.60731200  1
  Ca  Ca1  1  0.18166100  0.58830200  0.39268800  1
  Ca  Ca2  1  0.65918400  0.86530300  0.87845300  1
  Ca  Ca3  1  0.34081600  0.13469700  0.12154700  1
  Ca  Ca4  1  0.65527100  0.63744600  0.19693200  1
  Ca  Ca5  1  0.34472900  0.36255400  0.80306800  1
  Ga  Ga6  1  0.90592100  0.31138300  0.96886300  1
  Ga  Ga7  1  0.09407900  0.68861700  0.03113700  1
  Ga  Ga8  1  0.71200700  0.94406100  0.56312800  1
  Ga  Ga9  1  0.28799300  0.05593900  0.43687200  1
  Ga  Ga10  1  0.13499100  0.86718000  0.71585400  1
  Ga  Ga11  1  0.86500900  0.13282000  0.28414600  1
  N  N12  1  0.97010900  0.10525000  0.77916600  1
  N  N13  1  0.02989200  0.89475000  0.22083400  1
  N  N14  1  0.84955000  0.69483900  0.50924600  1
  N  N15  1  0.15045000  0.30516100  0.49075400  1
  N  N16  1  0.75647700  0.52955200  0.88984500  1
  N  N17  1  0.24352300  0.47044800  0.11015500  1
  N  N18  1  0.39595200  0.93161100  0.61762700  1
  N  N19  1  0.60404800  0.06838900  0.38237300  1
  N  N20  1  0.28454300  0.77141200  0.90299900  1
  N  N21  1  0.71545700  0.22858800  0.09700100  1
