# generated using pymatgen
data_Ca2Ni2SF6
_symmetry_space_group_name_H-M   'P 1'
_cell_length_a   7.82746418
_cell_length_b   7.82746418
_cell_length_c   7.82746418
_cell_angle_alpha   60.00000000
_cell_angle_beta   60.00000000
_cell_angle_gamma   60.00000000
_symmetry_Int_Tables_number   1
_chemical_formula_structural   Ca2Ni2SF6
_chemical_formula_sum   'Ca4 Ni4 S2 F12'
_cell_volume   339.11599032
_cell_formula_units_Z   2
loop_
 _symmetry_equiv_pos_site_id
 _symmetry_equiv_pos_as_xyz
  1  'x, y, z'
loop_
 _atom_site_type_symbol
 _atom_site_label
 _atom_site_symmetry_multiplicity
 _atom_site_fract_x
 _atom_site_fract_y
 _atom_site_fract_z
 _atom_site_occupancy
  Ca  Ca0  1  0.37500000  0.37500000  0.37500000  1
  Ca  Ca1  1  0.37500000  0.37500000  0.87500000  1
  Ca  Ca2  1  0.37500000  0.87500000  0.37500000  1
  Ca  Ca3  1  0.87500000  0.37500000  0.37500000  1
  Ni  Ni4  1  0.87500000  0.87500000  0.87500000  1
  Ni  Ni5  1  0.87500000  0.87500000  0.37500000  1
  Ni  Ni6  1  0.87500000  0.37500000  0.87500000  1
  Ni  Ni7  1  0.37500000  0.87500000  0.87500000  1
  S  S8  1  0.25000000  0.25000000  0.25000000  1
  S  S9  1  0.50000000  0.50000000  0.50000000  1
  F  F10  1  0.55264600  0.94735400  0.94735400  1
  F  F11  1  0.94735400  0.55264600  0.94735400  1
  F  F12  1  0.94735400  0.94735400  0.55264600  1
  F  F13  1  0.94735400  0.55264600  0.55264600  1
  F  F14  1  0.55264600  0.94735400  0.55264600  1
  F  F15  1  0.55264600  0.55264600  0.94735400  1
  F  F16  1  0.19735400  0.80264600  0.80264600  1
  F  F17  1  0.80264600  0.19735400  0.80264600  1
  F  F18  1  0.80264600  0.80264600  0.19735400  1
  F  F19  1  0.80264600  0.19735400  0.19735400  1
  F  F20  1  0.19735400  0.80264600  0.19735400  1
  F  F21  1  0.19735400  0.19735400  0.80264600  1
