# generated using pymatgen
data_Sr5CdN4
_symmetry_space_group_name_H-M   'P 1'
_cell_length_a   11.24315096
_cell_length_b   15.84664533
_cell_length_c   11.21345495
_cell_angle_alpha   90.00000000
_cell_angle_beta   99.17360809
_cell_angle_gamma   90.00000000
_symmetry_Int_Tables_number   1
_chemical_formula_structural   Sr5CdN4
_chemical_formula_sum   'Sr40 Cd8 N32'
_cell_volume   1972.30594168
_cell_formula_units_Z   8
loop_
 _symmetry_equiv_pos_site_id
 _symmetry_equiv_pos_as_xyz
  1  'x, y, z'
loop_
 _atom_site_type_symbol
 _atom_site_label
 _atom_site_symmetry_multiplicity
 _atom_site_fract_x
 _atom_site_fract_y
 _atom_site_fract_z
 _atom_site_occupancy
  Sr  Sr0  1  0.52316108  0.75000000  0.75936734  1
  Sr  Sr1  1  0.47683892  0.25000000  0.24063266  1
  Sr  Sr2  1  0.43054481  0.75000000  0.22794430  1
  Sr  Sr3  1  0.56945519  0.25000000  0.77205570  1
  Sr  Sr4  1  0.18675783  0.61799396  0.75378295  1
  Sr  Sr5  1  0.81324217  0.11799396  0.24621705  1
  Sr  Sr6  1  0.81324217  0.38200604  0.24621705  1
  Sr  Sr7  1  0.18675783  0.88200604  0.75378295  1
  Sr  Sr8  1  0.72775407  0.37924828  0.61944223  1
  Sr  Sr9  1  0.27224593  0.87924828  0.38055777  1
  Sr  Sr10  1  0.27224593  0.62075172  0.38055777  1
  Sr  Sr11  1  0.72775407  0.12075172  0.61944223  1
  Sr  Sr12  1  0.94971530  0.25000000  0.85930260  1
  Sr  Sr13  1  0.05028470  0.75000000  0.14069740  1
  Sr  Sr14  1  0.23178795  0.48325060  0.04843048  1
  Sr  Sr15  1  0.76821205  0.98325060  0.95156952  1
  Sr  Sr16  1  0.76821205  0.51674940  0.95156952  1
  Sr  Sr17  1  0.23178795  0.01674940  0.04843048  1
  Sr  Sr18  1  0.00000000  0.50000000  0.50000000  1
  Sr  Sr19  1  0.00000000  0.00000000  0.50000000  1
  Sr  Sr20  1  0.50249966  0.39236274  0.97749019  1
  Sr  Sr21  1  0.49750034  0.89236274  0.02250981  1
  Sr  Sr22  1  0.49750034  0.60763726  0.02250981  1
  Sr  Sr23  1  0.50249966  0.10763726  0.97749019  1
  Sr  Sr24  1  0.26122119  0.36740562  0.74499668  1
  Sr  Sr25  1  0.73877881  0.86740562  0.25500332  1
  Sr  Sr26  1  0.73877881  0.63259438  0.25500332  1
  Sr  Sr27  1  0.26122119  0.13259438  0.74499668  1
  Sr  Sr28  1  0.81684575  0.63964785  0.66861800  1
  Sr  Sr29  1  0.18315425  0.13964785  0.33138200  1
  Sr  Sr30  1  0.18315425  0.36035215  0.33138200  1
  Sr  Sr31  1  0.81684575  0.86035215  0.66861800  1
  Sr  Sr32  1  0.76388603  0.75000000  0.97784930  1
  Sr  Sr33  1  0.23611397  0.25000000  0.02215070  1
  Sr  Sr34  1  0.49417064  0.47630762  0.28088863  1
  Sr  Sr35  1  0.50582936  0.97630762  0.71911137  1
  Sr  Sr36  1  0.50582936  0.52369238  0.71911137  1
  Sr  Sr37  1  0.49417064  0.02369238  0.28088863  1
  Sr  Sr38  1  0.99481688  0.25000000  0.51951733  1
  Sr  Sr39  1  0.00518312  0.75000000  0.48048267  1
  Cd  Cd40  1  0.99590467  0.45533220  0.78940302  1
  Cd  Cd41  1  0.00409533  0.95533220  0.21059698  1
  Cd  Cd42  1  0.00409533  0.54466780  0.21059698  1
  Cd  Cd43  1  0.99590467  0.04466780  0.78940302  1
  Cd  Cd44  1  0.59162300  0.75000000  0.48466176  1
  Cd  Cd45  1  0.40837700  0.25000000  0.51533824  1
  Cd  Cd46  1  0.72580815  0.25000000  0.03249507  1
  Cd  Cd47  1  0.27419185  0.75000000  0.96750493  1
  N  N48  1  0.83713818  0.25000000  0.65454979  1
  N  N49  1  0.16286182  0.75000000  0.34545021  1
  N  N50  1  0.04121346  0.75000000  0.70283042  1
  N  N51  1  0.95878654  0.25000000  0.29716958  1
  N  N52  1  0.34001065  0.36614281  0.18967213  1
  N  N53  1  0.65998935  0.86614281  0.81032787  1
  N  N54  1  0.65998935  0.63385719  0.81032787  1
  N  N55  1  0.34001065  0.13385719  0.18967213  1
  N  N56  1  0.35642848  0.51393068  0.86729366  1
  N  N57  1  0.64357152  0.01393068  0.13270634  1
  N  N58  1  0.64357152  0.48606932  0.13270634  1
  N  N59  1  0.35642848  0.98606932  0.86729366  1
  N  N60  1  0.77370437  0.52657395  0.50144324  1
  N  N61  1  0.22629563  0.02657395  0.49855676  1
  N  N62  1  0.22629563  0.47342605  0.49855676  1
  N  N63  1  0.77370437  0.97342605  0.50144324  1
  N  N64  1  0.63289880  0.40517889  0.80597093  1
  N  N65  1  0.36710120  0.90517889  0.19402907  1
  N  N66  1  0.36710120  0.59482111  0.19402907  1
  N  N67  1  0.63289880  0.09482111  0.80597093  1
  N  N68  1  0.89184235  0.63310932  0.10699258  1
  N  N69  1  0.10815765  0.13310932  0.89300742  1
  N  N70  1  0.10815765  0.36689068  0.89300742  1
  N  N71  1  0.89184235  0.86689068  0.10699258  1
  N  N72  1  0.60929975  0.75000000  0.12353736  1
  N  N73  1  0.39070025  0.25000000  0.87646264  1
  N  N74  1  0.77147465  0.47397818  0.41876579  1
  N  N75  1  0.22852535  0.97397818  0.58123421  1
  N  N76  1  0.22852535  0.52602182  0.58123421  1
  N  N77  1  0.77147465  0.02602182  0.41876579  1
  N  N78  1  0.77779879  0.75000000  0.46744196  1
  N  N79  1  0.22220121  0.25000000  0.53255804  1
