# generated using pymatgen
data_NaIrN2
_symmetry_space_group_name_H-M   'P 1'
_cell_length_a   5.56077300
_cell_length_b   11.21492200
_cell_length_c   15.25989600
_cell_angle_alpha   90.00000000
_cell_angle_beta   90.00000000
_cell_angle_gamma   90.00000000
_symmetry_Int_Tables_number   1
_chemical_formula_structural   NaIrN2
_chemical_formula_sum   'Na16 Ir16 N32'
_cell_volume   951.66259122
_cell_formula_units_Z   16
loop_
 _symmetry_equiv_pos_site_id
 _symmetry_equiv_pos_as_xyz
  1  'x, y, z'
loop_
 _atom_site_type_symbol
 _atom_site_label
 _atom_site_symmetry_multiplicity
 _atom_site_fract_x
 _atom_site_fract_y
 _atom_site_fract_z
 _atom_site_occupancy
  Na  Na0  1  0.27312100  0.99851500  0.44673100  1
  Na  Na1  1  0.77312100  0.50148500  0.55326900  1
  Na  Na2  1  0.72687900  0.49851500  0.05326900  1
  Na  Na3  1  0.22687900  0.00148500  0.94673100  1
  Na  Na4  1  0.72687900  0.00148500  0.55326900  1
  Na  Na5  1  0.22687900  0.49851500  0.44673100  1
  Na  Na6  1  0.27312100  0.50148500  0.94673100  1
  Na  Na7  1  0.77312100  0.99851500  0.05326900  1
  Na  Na8  1  0.25970900  0.27470600  0.31803800  1
  Na  Na9  1  0.75970900  0.22529400  0.68196200  1
  Na  Na10  1  0.74029100  0.77470600  0.18196200  1
  Na  Na11  1  0.24029100  0.72529400  0.81803800  1
  Na  Na12  1  0.74029100  0.72529400  0.68196200  1
  Na  Na13  1  0.24029100  0.77470600  0.31803800  1
  Na  Na14  1  0.25970900  0.22529400  0.81803800  1
  Na  Na15  1  0.75970900  0.27470600  0.18196200  1
  Ir  Ir16  1  0.79922100  0.01900300  0.30498700  1
  Ir  Ir17  1  0.29922100  0.48099700  0.69501300  1
  Ir  Ir18  1  0.20077900  0.51900300  0.19501300  1
  Ir  Ir19  1  0.70077900  0.98099700  0.80498700  1
  Ir  Ir20  1  0.20077900  0.98099700  0.69501300  1
  Ir  Ir21  1  0.70077900  0.51900300  0.30498700  1
  Ir  Ir22  1  0.79922100  0.48099700  0.80498700  1
  Ir  Ir23  1  0.29922100  0.01900300  0.19501300  1
  Ir  Ir24  1  0.74977200  0.26962600  0.43417100  1
  Ir  Ir25  1  0.24977200  0.23037400  0.56582900  1
  Ir  Ir26  1  0.25022800  0.76962600  0.06582900  1
  Ir  Ir27  1  0.75022800  0.73037400  0.93417100  1
  Ir  Ir28  1  0.25022800  0.73037400  0.56582900  1
  Ir  Ir29  1  0.75022800  0.76962600  0.43417100  1
  Ir  Ir30  1  0.74977200  0.23037400  0.93417100  1
  Ir  Ir31  1  0.24977200  0.26962600  0.06582900  1
  N  N32  1  0.99914200  0.32176200  0.50973500  1
  N  N33  1  0.49914200  0.17823800  0.49026500  1
  N  N34  1  0.00085800  0.82176200  0.99026500  1
  N  N35  1  0.50085800  0.67823800  0.00973500  1
  N  N36  1  0.00085800  0.67823800  0.49026500  1
  N  N37  1  0.50085800  0.82176200  0.50973500  1
  N  N38  1  0.99914200  0.17823800  0.00973500  1
  N  N39  1  0.49914200  0.32176200  0.99026500  1
  N  N40  1  0.59041100  0.41323200  0.39518100  1
  N  N41  1  0.09041100  0.08676800  0.60481900  1
  N  N42  1  0.40958900  0.91323200  0.10481900  1
  N  N43  1  0.90958900  0.58676800  0.89518100  1
  N  N44  1  0.40958900  0.58676800  0.60481900  1
  N  N45  1  0.90958900  0.91323200  0.39518100  1
  N  N46  1  0.59041100  0.08676800  0.89518100  1
  N  N47  1  0.09041100  0.41323200  0.10481900  1
  N  N48  1  0.83703600  0.18488200  0.33004100  1
  N  N49  1  0.33703600  0.31511800  0.66995900  1
  N  N50  1  0.16296400  0.68488200  0.16995900  1
  N  N51  1  0.66296400  0.81511800  0.83004100  1
  N  N52  1  0.16296400  0.81511800  0.66995900  1
  N  N53  1  0.66296400  0.68488200  0.33004100  1
  N  N54  1  0.83703600  0.31511800  0.83004100  1
  N  N55  1  0.33703600  0.18488200  0.16995900  1
  N  N56  1  0.53952600  0.47855100  0.19896900  1
  N  N57  1  0.03952600  0.02144900  0.80103100  1
  N  N58  1  0.46047400  0.97855100  0.30103100  1
  N  N59  1  0.96047400  0.52144900  0.69896900  1
  N  N60  1  0.46047400  0.52144900  0.80103100  1
  N  N61  1  0.96047400  0.97855100  0.19896900  1
  N  N62  1  0.53952600  0.02144900  0.69896900  1
  N  N63  1  0.03952600  0.47855100  0.30103100  1
