# generated using pymatgen
data_Ca3(MoN2)2
_symmetry_space_group_name_H-M   'P 1'
_cell_length_a   5.77195700
_cell_length_b   10.28560600
_cell_length_c   9.27574700
_cell_angle_alpha   90.00000000
_cell_angle_beta   90.00000000
_cell_angle_gamma   90.00000000
_symmetry_Int_Tables_number   1
_chemical_formula_structural   Ca3(MoN2)2
_chemical_formula_sum   'Ca12 Mo8 N16'
_cell_volume   550.68324869
_cell_formula_units_Z   4
loop_
 _symmetry_equiv_pos_site_id
 _symmetry_equiv_pos_as_xyz
  1  'x, y, z'
loop_
 _atom_site_type_symbol
 _atom_site_label
 _atom_site_symmetry_multiplicity
 _atom_site_fract_x
 _atom_site_fract_y
 _atom_site_fract_z
 _atom_site_occupancy
  Ca  Ca0  1  0.62014800  0.15703200  0.42085600  1
  Ca  Ca1  1  0.87985200  0.84296800  0.42085600  1
  Ca  Ca2  1  0.62014800  0.34296800  0.07914400  1
  Ca  Ca3  1  0.87985200  0.65703200  0.07914400  1
  Ca  Ca4  1  0.37985200  0.84296800  0.57914400  1
  Ca  Ca5  1  0.12014800  0.15703200  0.57914400  1
  Ca  Ca6  1  0.37985200  0.65703200  0.92085600  1
  Ca  Ca7  1  0.12014800  0.34296800  0.92085600  1
  Ca  Ca8  1  0.75000000  0.50000000  0.39745300  1
  Ca  Ca9  1  0.75000000  0.00000000  0.10254700  1
  Ca  Ca10  1  0.25000000  0.50000000  0.60254700  1
  Ca  Ca11  1  0.25000000  0.00000000  0.89745300  1
  Mo  Mo12  1  0.75000000  0.50000000  0.73438400  1
  Mo  Mo13  1  0.75000000  0.00000000  0.76561600  1
  Mo  Mo14  1  0.25000000  0.50000000  0.26561600  1
  Mo  Mo15  1  0.25000000  0.00000000  0.23438400  1
  Mo  Mo16  1  0.62665300  0.25000000  0.75000000  1
  Mo  Mo17  1  0.87334700  0.75000000  0.75000000  1
  Mo  Mo18  1  0.37334700  0.75000000  0.25000000  1
  Mo  Mo19  1  0.12665300  0.25000000  0.25000000  1
  N  N20  1  0.85405500  0.34589500  0.61704700  1
  N  N21  1  0.64594500  0.65410500  0.61704700  1
  N  N22  1  0.85405500  0.15410500  0.88295300  1
  N  N23  1  0.64594500  0.84589500  0.88295300  1
  N  N24  1  0.14594500  0.65410500  0.38295300  1
  N  N25  1  0.35405500  0.34589500  0.38295300  1
  N  N26  1  0.14594500  0.84589500  0.11704700  1
  N  N27  1  0.35405500  0.15410500  0.11704700  1
  N  N28  1  0.49336700  0.41850200  0.84289500  1
  N  N29  1  0.00663300  0.58149800  0.84289500  1
  N  N30  1  0.49336700  0.08149800  0.65710500  1
  N  N31  1  0.00663300  0.91850200  0.65710500  1
  N  N32  1  0.50663300  0.58149800  0.15710500  1
  N  N33  1  0.99336700  0.41850200  0.15710500  1
  N  N34  1  0.50663300  0.91850200  0.34289500  1
  N  N35  1  0.99336700  0.08149800  0.34289500  1
