# generated using pymatgen
data_W2(CN2)3
_symmetry_space_group_name_H-M   'P 1'
_cell_length_a   10.72646168
_cell_length_b   5.08501970
_cell_length_c   30.94938149
_cell_angle_alpha   90.00000389
_cell_angle_beta   164.11864387
_cell_angle_gamma   76.28858939
_symmetry_Int_Tables_number   1
_chemical_formula_structural   W2(CN2)3
_chemical_formula_sum   'W4 C6 N12'
_cell_volume   230.83534107
_cell_formula_units_Z   2
loop_
 _symmetry_equiv_pos_site_id
 _symmetry_equiv_pos_as_xyz
  1  'x, y, z'
loop_
 _atom_site_type_symbol
 _atom_site_label
 _atom_site_symmetry_multiplicity
 _atom_site_fract_x
 _atom_site_fract_y
 _atom_site_fract_z
 _atom_site_occupancy
  W  W0  1  0.00083900  0.99958000  0.16692700  1
  W  W1  1  0.00083900  0.99958100  0.66692700  1
  W  W2  1  0.99916400  0.00043600  0.83309300  1
  W  W3  1  0.99916400  0.00040000  0.33309300  1
  C  C4  1  0.00439500  0.66501000  0.08485400  1
  C  C5  1  0.99998300  0.66549500  0.75000300  1
  C  C6  1  0.99562100  0.66940100  0.41517000  1
  C  C7  1  0.00439500  0.33059400  0.58485400  1
  C  C8  1  0.99562100  0.33497700  0.91517000  1
  C  C9  1  0.99998300  0.33452200  0.25000300  1
  N  N10  1  0.96357400  0.69682900  0.11109000  1
  N  N11  1  0.05405000  0.64285800  0.80786800  1
  N  N12  1  0.98194500  0.66047400  0.45044300  1
  N  N13  1  0.96357400  0.33959800  0.61109000  1
  N  N14  1  0.98194500  0.35758000  0.95044300  1
  N  N15  1  0.05405000  0.30309200  0.30786800  1
  N  N16  1  0.03638900  0.30319600  0.88891600  1
  N  N17  1  0.94592100  0.35719400  0.19214000  1
  N  N18  1  0.01811800  0.33951100  0.54959700  1
  N  N19  1  0.03638900  0.66041600  0.38891600  1
  N  N20  1  0.01811800  0.64237100  0.04959700  1
  N  N21  1  0.94592100  0.69688400  0.69214000  1
