# generated using pymatgen
data_InBN2
_symmetry_space_group_name_H-M   'P 1'
_cell_length_a   3.45862700
_cell_length_b   3.45866203
_cell_length_c   9.88992400
_cell_angle_alpha   90.00000000
_cell_angle_beta   90.00000000
_cell_angle_gamma   119.99967457
_symmetry_Int_Tables_number   1
_chemical_formula_structural   InBN2
_chemical_formula_sum   'In2 B2 N4'
_cell_volume   102.45587419
_cell_formula_units_Z   2
loop_
 _symmetry_equiv_pos_site_id
 _symmetry_equiv_pos_as_xyz
  1  'x, y, z'
loop_
 _atom_site_type_symbol
 _atom_site_label
 _atom_site_symmetry_multiplicity
 _atom_site_fract_x
 _atom_site_fract_y
 _atom_site_fract_z
 _atom_site_occupancy
  In  In0  1  0.00000000  0.00000000  0.00000000  1
  In  In1  1  0.00000000  0.00000000  0.50000000  1
  B  B2  1  0.66668500  0.33336900  0.25000000  1
  B  B3  1  0.33331500  0.66663100  0.75000000  1
  N  N4  1  0.66667800  0.33335500  0.11427700  1
  N  N5  1  0.33332200  0.66664500  0.88572300  1
  N  N6  1  0.33332200  0.66664500  0.61427700  1
  N  N7  1  0.66667800  0.33335500  0.38572300  1
