# generated using pymatgen
data_Sr2MgN2
_symmetry_space_group_name_H-M   'P 1'
_cell_length_a   3.86284998
_cell_length_b   5.46216555
_cell_length_c   7.39813368
_cell_angle_alpha   90.00000394
_cell_angle_beta   74.86694902
_cell_angle_gamma   134.99236484
_symmetry_Int_Tables_number   1
_chemical_formula_structural   Sr2MgN2
_chemical_formula_sum   'Sr2 Mg1 N2'
_cell_volume   102.59514562
_cell_formula_units_Z   1
loop_
 _symmetry_equiv_pos_site_id
 _symmetry_equiv_pos_as_xyz
  1  'x, y, z'
loop_
 _atom_site_type_symbol
 _atom_site_label
 _atom_site_symmetry_multiplicity
 _atom_site_fract_x
 _atom_site_fract_y
 _atom_site_fract_z
 _atom_site_occupancy
  Sr  Sr0  1  0.67012500  0.33506200  0.32974400  1
  Sr  Sr1  1  0.32987500  0.66493800  0.67025600  1
  Mg  Mg2  1  0.00000000  0.00000000  0.00000000  1
  N  N3  1  0.28810500  0.14405200  0.71188700  1
  N  N4  1  0.71189500  0.85594800  0.28811300  1
