# generated using pymatgen
data_Mg2Cr3FeS8
_symmetry_space_group_name_H-M   'P 1'
_cell_length_a   7.14066467
_cell_length_b   7.12757996
_cell_length_c   7.14772814
_cell_angle_alpha   60.44425587
_cell_angle_beta   60.27274359
_cell_angle_gamma   60.31309722
_symmetry_Int_Tables_number   1
_chemical_formula_structural   Mg2Cr3FeS8
_chemical_formula_sum   'Mg2 Cr3 Fe1 S8'
_cell_volume   259.23413600
_cell_formula_units_Z   1
loop_
 _symmetry_equiv_pos_site_id
 _symmetry_equiv_pos_as_xyz
  1  'x, y, z'
loop_
 _atom_site_type_symbol
 _atom_site_label
 _atom_site_symmetry_multiplicity
 _atom_site_fract_x
 _atom_site_fract_y
 _atom_site_fract_z
 _atom_site_occupancy
  Mg  Mg0  1  0.87542500  0.87527500  0.87531000  1
  Mg  Mg1  1  0.12457800  0.12471400  0.12470900  1
  Cr  Cr2  1  0.50000800  0.49999400  0.99997200  1
  Cr  Cr3  1  0.00000100  0.50000800  0.50000700  1
  Cr  Cr4  1  0.49999300  0.00000200  0.50001000  1
  Fe  Fe5  1  0.50000300  0.50000900  0.49998600  1
  S  S6  1  0.73707500  0.73710100  0.73673000  1
  S  S7  1  0.26899500  0.26919900  0.70665000  1
  S  S8  1  0.26928900  0.70652000  0.26900800  1
  S  S9  1  0.70664500  0.26942100  0.26892600  1
  S  S10  1  0.73071200  0.29348300  0.73097200  1
  S  S11  1  0.29336700  0.73057100  0.73107500  1
  S  S12  1  0.26290400  0.26288400  0.26329500  1
  S  S13  1  0.73101000  0.73081300  0.29335100  1
