# generated using pymatgen
data_Sn5(GeN3)2
_symmetry_space_group_name_H-M   'P 1'
_cell_length_a   5.74280684
_cell_length_b   7.10310906
_cell_length_c   14.77184995
_cell_angle_alpha   90.00000051
_cell_angle_beta   94.04329731
_cell_angle_gamma   128.20196149
_symmetry_Int_Tables_number   1
_chemical_formula_structural   Sn5(GeN3)2
_chemical_formula_sum   'Sn10 Ge4 N12'
_cell_volume   471.61113586
_cell_formula_units_Z   2
loop_
 _symmetry_equiv_pos_site_id
 _symmetry_equiv_pos_as_xyz
  1  'x, y, z'
loop_
 _atom_site_type_symbol
 _atom_site_label
 _atom_site_symmetry_multiplicity
 _atom_site_fract_x
 _atom_site_fract_y
 _atom_site_fract_z
 _atom_site_occupancy
  Sn  Sn0  1  0.14997900  0.78959000  0.97159100  1
  Sn  Sn1  1  0.85002100  0.63961100  0.52840900  1
  Sn  Sn2  1  0.85002100  0.21041000  0.02840900  1
  Sn  Sn3  1  0.14997900  0.36038900  0.47159100  1
  Sn  Sn4  1  0.26428000  0.21878200  0.68339600  1
  Sn  Sn5  1  0.73572000  0.95450100  0.81660400  1
  Sn  Sn6  1  0.73572000  0.78121800  0.31660400  1
  Sn  Sn7  1  0.26428000  0.04549900  0.18339600  1
  Sn  Sn8  1  0.00000000  0.59913100  0.75000000  1
  Sn  Sn9  1  0.00000000  0.40086900  0.25000000  1
  Ge  Ge10  1  0.52948300  0.97471300  0.59316600  1
  Ge  Ge11  1  0.47051700  0.44523000  0.90683400  1
  Ge  Ge12  1  0.47051700  0.02528700  0.40683400  1
  Ge  Ge13  1  0.52948300  0.55477000  0.09316600  1
  N  N14  1  0.78971300  0.98950800  0.67337000  1
  N  N15  1  0.21028700  0.19979500  0.82663000  1
  N  N16  1  0.21028700  0.01049200  0.32663000  1
  N  N17  1  0.78971300  0.80020500  0.17337000  1
  N  N18  1  0.19377500  0.88231500  0.65108500  1
  N  N19  1  0.80622500  0.68854000  0.84891500  1
  N  N20  1  0.80622500  0.11768500  0.34891500  1
  N  N21  1  0.19377500  0.31146000  0.15108500  1
  N  N22  1  0.70030600  0.24334500  0.51547700  1
  N  N23  1  0.29969400  0.54303800  0.98452300  1
  N  N24  1  0.29969400  0.75665500  0.48452300  1
  N  N25  1  0.70030600  0.45696200  0.01547700  1
