# generated using pymatgen
data_ZrCrCuS4
_symmetry_space_group_name_H-M   'P 1'
_cell_length_a   11.41140000
_cell_length_b   3.56445600
_cell_length_c   12.72961800
_cell_angle_alpha   90.00000000
_cell_angle_beta   90.00000000
_cell_angle_gamma   90.00000000
_symmetry_Int_Tables_number   1
_chemical_formula_structural   ZrCrCuS4
_chemical_formula_sum   'Zr4 Cr4 Cu4 S16'
_cell_volume   517.78272660
_cell_formula_units_Z   4
loop_
 _symmetry_equiv_pos_site_id
 _symmetry_equiv_pos_as_xyz
  1  'x, y, z'
loop_
 _atom_site_type_symbol
 _atom_site_label
 _atom_site_symmetry_multiplicity
 _atom_site_fract_x
 _atom_site_fract_y
 _atom_site_fract_z
 _atom_site_occupancy
  Zr  Zr0  1  0.93811400  0.75000000  0.88843300  1
  Zr  Zr1  1  0.56188600  0.25000000  0.38843300  1
  Zr  Zr2  1  0.10792500  0.25000000  0.57634400  1
  Zr  Zr3  1  0.39207500  0.75000000  0.07634400  1
  Cr  Cr4  1  0.04049500  0.25000000  0.11835200  1
  Cr  Cr5  1  0.45950500  0.75000000  0.61835200  1
  Cr  Cr6  1  0.92739500  0.75000000  0.40704300  1
  Cr  Cr7  1  0.57260500  0.25000000  0.90704300  1
  Cu  Cu8  1  0.26617600  0.25000000  0.35957800  1
  Cu  Cu9  1  0.71194300  0.75000000  0.68815100  1
  Cu  Cu10  1  0.23382400  0.75000000  0.85957800  1
  Cu  Cu11  1  0.78805700  0.25000000  0.18815100  1
  S  S12  1  0.08488200  0.75000000  0.71898300  1
  S  S13  1  0.95325200  0.25000000  0.28880000  1
  S  S14  1  0.41511800  0.25000000  0.21898300  1
  S  S15  1  0.54674800  0.75000000  0.78880000  1
  S  S16  1  0.09025000  0.25000000  0.93761300  1
  S  S17  1  0.89011600  0.75000000  0.07897500  1
  S  S18  1  0.40975000  0.75000000  0.43761300  1
  S  S19  1  0.60988400  0.25000000  0.57897500  1
  S  S20  1  0.13637100  0.75000000  0.42924200  1
  S  S21  1  0.89376400  0.25000000  0.53288800  1
  S  S22  1  0.36362900  0.25000000  0.92924200  1
  S  S23  1  0.60623600  0.75000000  0.03288800  1
  S  S24  1  0.17255700  0.75000000  0.14960400  1
  S  S25  1  0.79232900  0.25000000  0.82599400  1
  S  S26  1  0.32744300  0.25000000  0.64960400  1
  S  S27  1  0.70767100  0.75000000  0.32599400  1
