# generated using pymatgen
data_Mn(PbN)4
_symmetry_space_group_name_H-M   'P 1'
_cell_length_a   6.33738228
_cell_length_b   6.44306880
_cell_length_c   9.33427265
_cell_angle_alpha   82.62031217
_cell_angle_beta   83.99192831
_cell_angle_gamma   69.87798287
_symmetry_Int_Tables_number   1
_chemical_formula_structural   Mn(PbN)4
_chemical_formula_sum   'Mn2 Pb8 N8'
_cell_volume   354.16112296
_cell_formula_units_Z   2
loop_
 _symmetry_equiv_pos_site_id
 _symmetry_equiv_pos_as_xyz
  1  'x, y, z'
loop_
 _atom_site_type_symbol
 _atom_site_label
 _atom_site_symmetry_multiplicity
 _atom_site_fract_x
 _atom_site_fract_y
 _atom_site_fract_z
 _atom_site_occupancy
  Mn  Mn0  1  0.73085100  0.91389200  0.78961300  1
  Mn  Mn1  1  0.26914900  0.08610800  0.21038700  1
  Pb  Pb2  1  0.80743100  0.62832000  0.17738500  1
  Pb  Pb3  1  0.19256900  0.37168000  0.82261500  1
  Pb  Pb4  1  0.72516600  0.23137900  0.01353200  1
  Pb  Pb5  1  0.27483400  0.76862100  0.98646800  1
  Pb  Pb6  1  0.71918000  0.47159000  0.62524100  1
  Pb  Pb7  1  0.28082000  0.52841000  0.37475900  1
  Pb  Pb8  1  0.24100700  0.99147800  0.59172500  1
  Pb  Pb9  1  0.75899300  0.00852200  0.40827500  1
  N  N10  1  0.93709400  0.85030600  0.65468500  1
  N  N11  1  0.06290600  0.14969400  0.34531500  1
  N  N12  1  0.84343100  0.86164800  0.96281300  1
  N  N13  1  0.15656900  0.13835200  0.03718700  1
  N  N14  1  0.54953600  0.76665600  0.78023900  1
  N  N15  1  0.45046400  0.23334400  0.21976000  1
  N  N16  1  0.41724700  0.79713500  0.22777300  1
  N  N17  1  0.58275300  0.20286500  0.77222700  1
