# generated using pymatgen
data_Dy3Mg2WS8
_symmetry_space_group_name_H-M   'P 1'
_cell_length_a   7.83676656
_cell_length_b   7.67694422
_cell_length_c   7.83690700
_cell_angle_alpha   59.30940870
_cell_angle_beta   59.99752272
_cell_angle_gamma   59.31115653
_symmetry_Int_Tables_number   1
_chemical_formula_structural   Dy3Mg2WS8
_chemical_formula_sum   'Dy3 Mg2 W1 S8'
_cell_volume   329.86779977
_cell_formula_units_Z   1
loop_
 _symmetry_equiv_pos_site_id
 _symmetry_equiv_pos_as_xyz
  1  'x, y, z'
loop_
 _atom_site_type_symbol
 _atom_site_label
 _atom_site_symmetry_multiplicity
 _atom_site_fract_x
 _atom_site_fract_y
 _atom_site_fract_z
 _atom_site_occupancy
  Dy  Dy0  1  0.50000000  0.50002200  0.49998000  1
  Dy  Dy1  1  0.50000000  0.49999100  0.00000000  1
  Dy  Dy2  1  0.00000400  0.49998700  0.50001300  1
  Mg  Mg3  1  0.87486500  0.87539700  0.87487300  1
  Mg  Mg4  1  0.12513300  0.12460700  0.12512900  1
  W  W5  1  0.49999900  0.99999700  0.50000500  1
  S  S6  1  0.73259400  0.76695100  0.73259200  1
  S  S7  1  0.26739400  0.23306600  0.73213300  1
  S  S8  1  0.25487900  0.73540100  0.25485900  1
  S  S9  1  0.73213400  0.23308100  0.26738200  1
  S  S10  1  0.74510700  0.26460000  0.74512600  1
  S  S11  1  0.26786100  0.76691800  0.73262000  1
  S  S12  1  0.26740400  0.23303900  0.26742200  1
  S  S13  1  0.73263100  0.76693700  0.26786700  1
