# generated using pymatgen
data_NbCr3(AgS4)2
_symmetry_space_group_name_H-M   'P 1'
_cell_length_a   13.88764096
_cell_length_b   3.40162300
_cell_length_c   5.83111399
_cell_angle_alpha   90.00000000
_cell_angle_beta   112.59278490
_cell_angle_gamma   90.00000000
_symmetry_Int_Tables_number   1
_chemical_formula_structural   NbCr3(AgS4)2
_chemical_formula_sum   'Nb1 Cr3 Ag2 S8'
_cell_volume   254.32529309
_cell_formula_units_Z   1
loop_
 _symmetry_equiv_pos_site_id
 _symmetry_equiv_pos_as_xyz
  1  'x, y, z'
loop_
 _atom_site_type_symbol
 _atom_site_label
 _atom_site_symmetry_multiplicity
 _atom_site_fract_x
 _atom_site_fract_y
 _atom_site_fract_z
 _atom_site_occupancy
  Nb  Nb0  1  0.74710100  0.50000000  0.20552700  1
  Cr  Cr1  1  0.24678000  0.00000000  0.19774200  1
  Cr  Cr2  1  0.75526000  0.00000000  0.79457300  1
  Cr  Cr3  1  0.25265300  0.50000000  0.80057500  1
  Ag  Ag4  1  0.00271200  0.50000000  0.49664100  1
  Ag  Ag5  1  0.49458800  0.00000000  0.48752200  1
  S  S6  1  0.13492300  0.50000000  0.98477500  1
  S  S7  1  0.87391600  0.50000000  0.01620300  1
  S  S8  1  0.62294200  0.00000000  0.96528300  1
  S  S9  1  0.36482900  0.00000000  0.01263100  1
  S  S10  1  0.15901100  0.00000000  0.50024600  1
  S  S11  1  0.85244100  0.00000000  0.52936500  1
  S  S12  1  0.65387500  0.50000000  0.51188800  1
  S  S13  1  0.33897000  0.50000000  0.49703200  1
