# generated using pymatgen
data_V8Fe3N8
_symmetry_space_group_name_H-M   'P 1'
_cell_length_a   8.22422529
_cell_length_b   4.02993909
_cell_length_c   5.91279600
_cell_angle_alpha   90.00000115
_cell_angle_beta   75.41294993
_cell_angle_gamma   75.81792799
_symmetry_Int_Tables_number   1
_chemical_formula_structural   V8Fe3N8
_chemical_formula_sum   'V8 Fe3 N8'
_cell_volume   183.47348324
_cell_formula_units_Z   1
loop_
 _symmetry_equiv_pos_site_id
 _symmetry_equiv_pos_as_xyz
  1  'x, y, z'
loop_
 _atom_site_type_symbol
 _atom_site_label
 _atom_site_symmetry_multiplicity
 _atom_site_fract_x
 _atom_site_fract_y
 _atom_site_fract_z
 _atom_site_occupancy
  V  V0  1  0.07484600  0.96257700  0.74921800  1
  V  V1  1  0.92515400  0.03742300  0.25078200  1
  V  V2  1  0.69508100  0.65245900  0.49023300  1
  V  V3  1  0.30491900  0.34754100  0.50976700  1
  V  V4  1  0.81489300  0.59255300  0.95333200  1
  V  V5  1  0.18510700  0.40744700  0.04666800  1
  V  V6  1  0.58067400  0.20966300  0.82075300  1
  V  V7  1  0.41932600  0.79033700  0.17924700  1
  Fe  Fe8  1  0.00000000  0.50000000  0.50000000  1
  Fe  Fe9  1  0.37879600  0.81060200  0.77120200  1
  Fe  Fe10  1  0.62120400  0.18939800  0.22879800  1
  N  N11  1  0.18803700  0.90598100  0.04071600  1
  N  N12  1  0.81196300  0.09401900  0.95928400  1
  N  N13  1  0.29491800  0.85254100  0.50670900  1
  N  N14  1  0.70508200  0.14745900  0.49329100  1
  N  N15  1  0.59450800  0.70274600  0.83869300  1
  N  N16  1  0.40549200  0.29725400  0.16130700  1
  N  N17  1  0.07109000  0.46445500  0.77228500  1
  N  N18  1  0.92891000  0.53554500  0.22771500  1
