# generated using pymatgen
data_In4Se3N2
_symmetry_space_group_name_H-M   'P 1'
_cell_length_a   7.22433700
_cell_length_b   14.52743800
_cell_length_c   3.74449400
_cell_angle_alpha   90.00000000
_cell_angle_beta   90.00000000
_cell_angle_gamma   90.00000000
_symmetry_Int_Tables_number   1
_chemical_formula_structural   In4Se3N2
_chemical_formula_sum   'In8 Se6 N4'
_cell_volume   392.98879367
_cell_formula_units_Z   2
loop_
 _symmetry_equiv_pos_site_id
 _symmetry_equiv_pos_as_xyz
  1  'x, y, z'
loop_
 _atom_site_type_symbol
 _atom_site_label
 _atom_site_symmetry_multiplicity
 _atom_site_fract_x
 _atom_site_fract_y
 _atom_site_fract_z
 _atom_site_occupancy
  In  In0  1  0.69513900  0.93565300  0.50000000  1
  In  In1  1  0.30486100  0.06434700  0.50000000  1
  In  In2  1  0.19513900  0.56434700  0.00000000  1
  In  In3  1  0.80486100  0.43565300  0.00000000  1
  In  In4  1  0.80189500  0.64868200  0.50000000  1
  In  In5  1  0.19810500  0.35131800  0.50000000  1
  In  In6  1  0.30189500  0.85131800  0.00000000  1
  In  In7  1  0.69810500  0.14868200  0.00000000  1
  Se  Se8  1  0.50000000  0.50000000  0.50000000  1
  Se  Se9  1  0.00000000  0.00000000  0.00000000  1
  Se  Se10  1  0.82722200  0.28905200  0.50000000  1
  Se  Se11  1  0.17277800  0.71094800  0.50000000  1
  Se  Se12  1  0.32722200  0.21094800  0.00000000  1
  Se  Se13  1  0.67277800  0.78905200  0.00000000  1
  N  N14  1  0.61969400  0.08047500  0.50000000  1
  N  N15  1  0.38030600  0.91952500  0.50000000  1
  N  N16  1  0.11969400  0.41952500  0.00000000  1
  N  N17  1  0.88030600  0.58047500  0.00000000  1
