# generated using pymatgen
data_NbCr3(AgS4)2
_symmetry_space_group_name_H-M   'P 1'
_cell_length_a   6.63800164
_cell_length_b   13.70394678
_cell_length_c   5.78529600
_cell_angle_alpha   90.00000000
_cell_angle_beta   90.00000000
_cell_angle_gamma   89.69683044
_symmetry_Int_Tables_number   1
_chemical_formula_structural   NbCr3(AgS4)2
_chemical_formula_sum   'Nb2 Cr6 Ag4 S16'
_cell_volume   526.26261946
_cell_formula_units_Z   2
loop_
 _symmetry_equiv_pos_site_id
 _symmetry_equiv_pos_as_xyz
  1  'x, y, z'
loop_
 _atom_site_type_symbol
 _atom_site_label
 _atom_site_symmetry_multiplicity
 _atom_site_fract_x
 _atom_site_fract_y
 _atom_site_fract_z
 _atom_site_occupancy
  Nb  Nb0  1  0.25000000  0.25000000  0.50000000  1
  Nb  Nb1  1  0.75000000  0.75000000  0.50000000  1
  Cr  Cr2  1  0.03941600  0.24907600  0.98670800  1
  Cr  Cr3  1  0.96058400  0.75092400  0.98670800  1
  Cr  Cr4  1  0.46058400  0.25092400  0.01329200  1
  Cr  Cr5  1  0.53941600  0.74907600  0.01329200  1
  Cr  Cr6  1  0.75000000  0.25000000  0.50000000  1
  Cr  Cr7  1  0.25000000  0.75000000  0.50000000  1
  Ag  Ag8  1  0.00000000  0.00000000  0.34563700  1
  Ag  Ag9  1  0.50000000  0.50000000  0.65436300  1
  Ag  Ag10  1  0.00000000  0.50000000  0.02316200  1
  Ag  Ag11  1  0.50000000  0.00000000  0.97683800  1
  S  S12  1  0.25553500  0.36505600  0.83947900  1
  S  S13  1  0.74446500  0.63494400  0.83947900  1
  S  S14  1  0.75381800  0.15858800  0.15704300  1
  S  S15  1  0.24618200  0.84141200  0.15704300  1
  S  S16  1  0.24446500  0.13494400  0.16052100  1
  S  S17  1  0.75553500  0.86505600  0.16052100  1
  S  S18  1  0.74618200  0.34141200  0.84295700  1
  S  S19  1  0.25381800  0.65858800  0.84295700  1
  S  S20  1  0.98915100  0.14395500  0.67538400  1
  S  S21  1  0.01084900  0.85604500  0.67538400  1
  S  S22  1  0.51084900  0.35604500  0.32461600  1
  S  S23  1  0.48915100  0.64395500  0.32461600  1
  S  S24  1  0.99190300  0.35369300  0.32204200  1
  S  S25  1  0.00809700  0.64630700  0.32204200  1
  S  S26  1  0.50809700  0.14630700  0.67795800  1
  S  S27  1  0.49190300  0.85369300  0.67795800  1
