# generated using pymatgen
data_Y3Mg2MoS8
_symmetry_space_group_name_H-M   'P 1'
_cell_length_a   7.83836780
_cell_length_b   7.71401683
_cell_length_c   7.83841900
_cell_angle_alpha   59.46553212
_cell_angle_beta   59.99855798
_cell_angle_gamma   59.46530586
_symmetry_Int_Tables_number   1
_chemical_formula_structural   Y3Mg2MoS8
_chemical_formula_sum   'Y3 Mg2 Mo1 S8'
_cell_volume   332.39783725
_cell_formula_units_Z   1
loop_
 _symmetry_equiv_pos_site_id
 _symmetry_equiv_pos_as_xyz
  1  'x, y, z'
loop_
 _atom_site_type_symbol
 _atom_site_label
 _atom_site_symmetry_multiplicity
 _atom_site_fract_x
 _atom_site_fract_y
 _atom_site_fract_z
 _atom_site_occupancy
  Y  Y0  1  0.49999900  0.50002300  0.49997900  1
  Y  Y1  1  0.50000000  0.49998800  0.00000200  1
  Y  Y2  1  0.00000400  0.49998800  0.50001200  1
  Mg  Mg3  1  0.87466800  0.87597900  0.87468100  1
  Mg  Mg4  1  0.12532900  0.12403200  0.12531700  1
  Mo  Mo5  1  0.50000100  0.99999600  0.50000600  1
  S  S6  1  0.73395300  0.76419600  0.73396200  1
  S  S7  1  0.26604400  0.23581000  0.73210800  1
  S  S8  1  0.25487700  0.73536000  0.25487700  1
  S  S9  1  0.73211400  0.23580600  0.26603500  1
  S  S10  1  0.74511000  0.26464300  0.74510900  1
  S  S11  1  0.26788500  0.76419200  0.73396700  1
  S  S12  1  0.26604600  0.23578400  0.26605600  1
  S  S13  1  0.73397400  0.76419800  0.26789000  1
