# generated using pymatgen
data_Mn2Pb3N4
_symmetry_space_group_name_H-M   'P 1'
_cell_length_a   7.07315100
_cell_length_b   8.78935700
_cell_length_c   10.94722600
_cell_angle_alpha   90.00000000
_cell_angle_beta   90.00000000
_cell_angle_gamma   90.00000000
_symmetry_Int_Tables_number   1
_chemical_formula_structural   Mn2Pb3N4
_chemical_formula_sum   'Mn8 Pb12 N16'
_cell_volume   680.57206405
_cell_formula_units_Z   4
loop_
 _symmetry_equiv_pos_site_id
 _symmetry_equiv_pos_as_xyz
  1  'x, y, z'
loop_
 _atom_site_type_symbol
 _atom_site_label
 _atom_site_symmetry_multiplicity
 _atom_site_fract_x
 _atom_site_fract_y
 _atom_site_fract_z
 _atom_site_occupancy
  Mn  Mn0  1  0.75000000  0.50000000  0.69818600  1
  Mn  Mn1  1  0.75000000  0.00000000  0.80181400  1
  Mn  Mn2  1  0.25000000  0.50000000  0.30181400  1
  Mn  Mn3  1  0.25000000  0.00000000  0.19818600  1
  Mn  Mn4  1  0.65770400  0.25000000  0.75000000  1
  Mn  Mn5  1  0.84229600  0.75000000  0.75000000  1
  Mn  Mn6  1  0.34229600  0.75000000  0.25000000  1
  Mn  Mn7  1  0.15770400  0.25000000  0.25000000  1
  Pb  Pb8  1  0.56745700  0.16653400  0.44359100  1
  Pb  Pb9  1  0.93254300  0.83346600  0.44359100  1
  Pb  Pb10  1  0.56745700  0.33346600  0.05640900  1
  Pb  Pb11  1  0.93254300  0.66653400  0.05640900  1
  Pb  Pb12  1  0.43254300  0.83346600  0.55640900  1
  Pb  Pb13  1  0.06745700  0.16653400  0.55640900  1
  Pb  Pb14  1  0.43254300  0.66653400  0.94359100  1
  Pb  Pb15  1  0.06745700  0.33346600  0.94359100  1
  Pb  Pb16  1  0.75000000  0.50000000  0.30914600  1
  Pb  Pb17  1  0.75000000  0.00000000  0.19085400  1
  Pb  Pb18  1  0.25000000  0.50000000  0.69085400  1
  Pb  Pb19  1  0.25000000  0.00000000  0.80914600  1
  N  N20  1  0.80854600  0.31732300  0.63178600  1
  N  N21  1  0.69145400  0.68267700  0.63178600  1
  N  N22  1  0.80854600  0.18267700  0.86821400  1
  N  N23  1  0.69145400  0.81732300  0.86821400  1
  N  N24  1  0.19145400  0.68267700  0.36821400  1
  N  N25  1  0.30854600  0.31732300  0.36821400  1
  N  N26  1  0.19145400  0.81732300  0.13178600  1
  N  N27  1  0.30854600  0.18267700  0.13178600  1
  N  N28  1  0.56250000  0.43807400  0.79403200  1
  N  N29  1  0.93750000  0.56192600  0.79403200  1
  N  N30  1  0.56250000  0.06192600  0.70596800  1
  N  N31  1  0.93750000  0.93807400  0.70596800  1
  N  N32  1  0.43750000  0.56192600  0.20596800  1
  N  N33  1  0.06250000  0.43807400  0.20596800  1
  N  N34  1  0.43750000  0.93807400  0.29403200  1
  N  N35  1  0.06250000  0.06192600  0.29403200  1
