# generated using pymatgen
data_HfCrAgS4
_symmetry_space_group_name_H-M   'P 1'
_cell_length_a   14.18340408
_cell_length_b   3.61061300
_cell_length_c   6.10042465
_cell_angle_alpha   90.00000000
_cell_angle_beta   114.28212723
_cell_angle_gamma   90.00000000
_symmetry_Int_Tables_number   1
_chemical_formula_structural   HfCrAgS4
_chemical_formula_sum   'Hf2 Cr2 Ag2 S8'
_cell_volume   284.76932981
_cell_formula_units_Z   2
loop_
 _symmetry_equiv_pos_site_id
 _symmetry_equiv_pos_as_xyz
  1  'x, y, z'
loop_
 _atom_site_type_symbol
 _atom_site_label
 _atom_site_symmetry_multiplicity
 _atom_site_fract_x
 _atom_site_fract_y
 _atom_site_fract_z
 _atom_site_occupancy
  Hf  Hf0  1  0.74675100  0.50000000  0.23410900  1
  Hf  Hf1  1  0.25324900  0.50000000  0.76589100  1
  Cr  Cr2  1  0.24522900  0.00000000  0.23101900  1
  Cr  Cr3  1  0.75477100  0.00000000  0.76898100  1
  Ag  Ag4  1  0.00000000  0.50000000  0.50000000  1
  Ag  Ag5  1  0.50000000  0.00000000  0.50000000  1
  S  S6  1  0.13823400  0.50000000  0.98521700  1
  S  S7  1  0.86176600  0.50000000  0.01478300  1
  S  S8  1  0.63334900  0.00000000  0.96740000  1
  S  S9  1  0.36665100  0.00000000  0.03260000  1
  S  S10  1  0.14248100  0.00000000  0.46744300  1
  S  S11  1  0.85751900  0.00000000  0.53255700  1
  S  S12  1  0.64996900  0.50000000  0.50904100  1
  S  S13  1  0.35003100  0.50000000  0.49095900  1
