# generated using pymatgen
data_VMoN3
_symmetry_space_group_name_H-M   'P 1'
_cell_length_a   7.75945911
_cell_length_b   5.31690375
_cell_length_c   10.93950166
_cell_angle_alpha   136.17770227
_cell_angle_beta   119.77696452
_cell_angle_gamma   73.21333554
_symmetry_Int_Tables_number   1
_chemical_formula_structural   VMoN3
_chemical_formula_sum   'V4 Mo4 N12'
_cell_volume   269.42546589
_cell_formula_units_Z   4
loop_
 _symmetry_equiv_pos_site_id
 _symmetry_equiv_pos_as_xyz
  1  'x, y, z'
loop_
 _atom_site_type_symbol
 _atom_site_label
 _atom_site_symmetry_multiplicity
 _atom_site_fract_x
 _atom_site_fract_y
 _atom_site_fract_z
 _atom_site_occupancy
  V  V0  1  0.57991865  0.69853253  0.36675710  1
  V  V1  1  0.42008135  0.30146747  0.63324290  1
  V  V2  1  0.60886296  0.80389300  0.69158550  1
  V  V3  1  0.39113704  0.19610700  0.30841450  1
  Mo  Mo4  1  0.93570939  0.78840850  0.64658607  1
  Mo  Mo5  1  0.06429061  0.21159150  0.35341393  1
  Mo  Mo6  1  0.61221204  0.76002081  0.04277087  1
  Mo  Mo7  1  0.38778796  0.23997919  0.95722913  1
  N  N8  1  0.68244356  0.05156551  0.64346692  1
  N  N9  1  0.31755644  0.94843449  0.35653308  1
  N  N10  1  0.81346539  0.47858313  0.35714550  1
  N  N11  1  0.18653461  0.52141687  0.64285450  1
  N  N12  1  0.84666649  0.62430533  0.70898407  1
  N  N13  1  0.15333351  0.37569467  0.29101593  1
  N  N14  1  0.56626701  0.79878784  0.85032445  1
  N  N15  1  0.43373299  0.20121216  0.14967555  1
  N  N16  1  0.87349783  0.74646591  0.13309206  1
  N  N17  1  0.12650217  0.25353409  0.86690794  1
  N  N18  1  0.46200447  0.25062687  0.80473075  1
  N  N19  1  0.53799553  0.74937313  0.19526925  1
