# generated using pymatgen
data_MgZn5N4
_symmetry_space_group_name_H-M   'P 1'
_cell_length_a   7.37223800
_cell_length_b   6.65204400
_cell_length_c   4.96477300
_cell_angle_alpha   90.00000000
_cell_angle_beta   90.00000000
_cell_angle_gamma   90.00000000
_symmetry_Int_Tables_number   1
_chemical_formula_structural   MgZn5N4
_chemical_formula_sum   'Mg2 Zn10 N8'
_cell_volume   243.47470979
_cell_formula_units_Z   2
loop_
 _symmetry_equiv_pos_site_id
 _symmetry_equiv_pos_as_xyz
  1  'x, y, z'
loop_
 _atom_site_type_symbol
 _atom_site_label
 _atom_site_symmetry_multiplicity
 _atom_site_fract_x
 _atom_site_fract_y
 _atom_site_fract_z
 _atom_site_occupancy
  Mg  Mg0  1  0.75000000  0.25000000  0.72457400  1
  Mg  Mg1  1  0.25000000  0.75000000  0.27542600  1
  Zn  Zn2  1  0.56684700  0.49992000  0.25202000  1
  Zn  Zn3  1  0.93315300  0.49992000  0.25202000  1
  Zn  Zn4  1  0.56684700  0.00008000  0.25202000  1
  Zn  Zn5  1  0.93315300  0.00008000  0.25202000  1
  Zn  Zn6  1  0.43315300  0.50008000  0.74798000  1
  Zn  Zn7  1  0.06684700  0.50008000  0.74798000  1
  Zn  Zn8  1  0.43315300  0.99992000  0.74798000  1
  Zn  Zn9  1  0.06684700  0.99992000  0.74798000  1
  Zn  Zn10  1  0.75000000  0.75000000  0.73650500  1
  Zn  Zn11  1  0.25000000  0.25000000  0.26349500  1
  N  N12  1  0.75000000  0.00118700  0.96230000  1
  N  N13  1  0.75000000  0.49881300  0.96230000  1
  N  N14  1  0.25000000  0.99881300  0.03770000  1
  N  N15  1  0.25000000  0.50118700  0.03770000  1
  N  N16  1  0.49929000  0.75000000  0.49861400  1
  N  N17  1  0.00071000  0.75000000  0.49861400  1
  N  N18  1  0.50071000  0.25000000  0.50138600  1
  N  N19  1  0.99929000  0.25000000  0.50138600  1
