data_image0
_chemical_formula_structural       Al2Hf6Pt
_chemical_formula_sum              "Al2 Hf6 Pt1"
_cell_length_a       7.93844
_cell_length_b       7.93844
_cell_length_c       3.33743
_cell_angle_alpha    90
_cell_angle_beta     90
_cell_angle_gamma    120.003

_space_group_name_H-M_alt    "P 1"
_space_group_IT_number       1

loop_
  _space_group_symop_operation_xyz
  'x, y, z'

loop_
  _atom_site_type_symbol
  _atom_site_label
  _atom_site_symmetry_multiplicity
  _atom_site_fract_x
  _atom_site_fract_y
  _atom_site_fract_z
  _atom_site_occupancy
  Al  Al1       1.0  0.66700  0.33300  0.50000  1.0000
  Al  Al2       1.0  0.33300  0.66700  0.50000  1.0000
  Hf  Hf1       1.0  0.60200  0.00003  0.00000  1.0000
  Hf  Hf2       1.0  0.39800  0.39800  0.00000  1.0000
  Hf  Hf3       1.0  0.00002  0.60200  0.00000  1.0000
  Hf  Hf4       1.0  0.26900  0.00001  0.50000  1.0000
  Hf  Hf5       1.0  0.00001  0.26900  0.50000  1.0000
  Hf  Hf6       1.0  0.73100  0.73100  0.50000  1.0000
  Pt  Pt1       1.0  0.00000  0.00000  0.00000  1.0000
