# generated using pymatgen
data_Ca4SN4
_symmetry_space_group_name_H-M   'P 1'
_cell_length_a   11.62952200
_cell_length_b   3.55263300
_cell_length_c   14.65412300
_cell_angle_alpha   90.00000000
_cell_angle_beta   90.00000000
_cell_angle_gamma   90.00000000
_symmetry_Int_Tables_number   1
_chemical_formula_structural   Ca4SN4
_chemical_formula_sum   'Ca16 S4 N16'
_cell_volume   605.44129969
_cell_formula_units_Z   4
loop_
 _symmetry_equiv_pos_site_id
 _symmetry_equiv_pos_as_xyz
  1  'x, y, z'
loop_
 _atom_site_type_symbol
 _atom_site_label
 _atom_site_symmetry_multiplicity
 _atom_site_fract_x
 _atom_site_fract_y
 _atom_site_fract_z
 _atom_site_occupancy
  Ca  Ca0  1  0.11081600  0.25000000  0.17140600  1
  Ca  Ca1  1  0.61081600  0.25000000  0.32859400  1
  Ca  Ca2  1  0.88918400  0.75000000  0.82859400  1
  Ca  Ca3  1  0.38918400  0.75000000  0.67140600  1
  Ca  Ca4  1  0.88069700  0.25000000  0.03833500  1
  Ca  Ca5  1  0.38069700  0.25000000  0.46166500  1
  Ca  Ca6  1  0.11930300  0.75000000  0.96166500  1
  Ca  Ca7  1  0.61930300  0.75000000  0.53833500  1
  Ca  Ca8  1  0.37710000  0.25000000  0.87450800  1
  Ca  Ca9  1  0.87710000  0.25000000  0.62549200  1
  Ca  Ca10  1  0.62290000  0.75000000  0.12549200  1
  Ca  Ca11  1  0.12290000  0.75000000  0.37450800  1
  Ca  Ca12  1  0.14123300  0.25000000  0.76672900  1
  Ca  Ca13  1  0.64123300  0.25000000  0.73327100  1
  Ca  Ca14  1  0.85876700  0.75000000  0.23327100  1
  Ca  Ca15  1  0.35876700  0.75000000  0.26672900  1
  S  S16  1  0.38686700  0.25000000  0.06381700  1
  S  S17  1  0.88686700  0.25000000  0.43618300  1
  S  S18  1  0.61313300  0.75000000  0.93618300  1
  S  S19  1  0.11313300  0.75000000  0.56381700  1
  N  N20  1  0.73083500  0.25000000  0.18433200  1
  N  N21  1  0.23083500  0.25000000  0.31566800  1
  N  N22  1  0.26916500  0.75000000  0.81566800  1
  N  N23  1  0.76916500  0.75000000  0.68433200  1
  N  N24  1  0.00103200  0.25000000  0.88688300  1
  N  N25  1  0.50103200  0.25000000  0.61311700  1
  N  N26  1  0.99896800  0.75000000  0.11311700  1
  N  N27  1  0.49896800  0.75000000  0.38688300  1
  N  N28  1  0.25612700  0.25000000  0.04884700  1
  N  N29  1  0.75612700  0.25000000  0.45115300  1
  N  N30  1  0.74387300  0.75000000  0.95115300  1
  N  N31  1  0.24387300  0.75000000  0.54884700  1
  N  N32  1  0.44936600  0.25000000  0.15655600  1
  N  N33  1  0.94936600  0.25000000  0.34344400  1
  N  N34  1  0.55063400  0.75000000  0.84344400  1
  N  N35  1  0.05063400  0.75000000  0.65655600  1
