# generated using pymatgen
data_La3Mg2MnS8
_symmetry_space_group_name_H-M   'P 1'
_cell_length_a   8.09915764
_cell_length_b   7.90075535
_cell_length_c   8.12438005
_cell_angle_alpha   59.06647388
_cell_angle_beta   59.90942035
_cell_angle_gamma   59.49675446
_symmetry_Int_Tables_number   1
_chemical_formula_structural   La3Mg2MnS8
_chemical_formula_sum   'La3 Mg2 Mn1 S8'
_cell_volume   363.31035960
_cell_formula_units_Z   1
loop_
 _symmetry_equiv_pos_site_id
 _symmetry_equiv_pos_as_xyz
  1  'x, y, z'
loop_
 _atom_site_type_symbol
 _atom_site_label
 _atom_site_symmetry_multiplicity
 _atom_site_fract_x
 _atom_site_fract_y
 _atom_site_fract_z
 _atom_site_occupancy
  La  La0  1  0.50004500  0.50003700  0.49994500  1
  La  La1  1  0.49998500  0.50002700  0.99994000  1
  La  La2  1  0.00002000  0.49999400  0.50004500  1
  Mg  Mg3  1  0.87357300  0.87717700  0.87453400  1
  Mg  Mg4  1  0.12640800  0.12283200  0.12548100  1
  Mn  Mn5  1  0.49996500  0.00000100  0.50001600  1
  S  S6  1  0.73067500  0.77597700  0.73000500  1
  S  S7  1  0.26929700  0.22400400  0.73659600  1
  S  S8  1  0.25294400  0.74412500  0.25151400  1
  S  S9  1  0.73357100  0.22094900  0.27268800  1
  S  S10  1  0.74705400  0.25580800  0.74848400  1
  S  S11  1  0.26641700  0.77908200  0.72730200  1
  S  S12  1  0.26932600  0.22397100  0.27004900  1
  S  S13  1  0.73072400  0.77600900  0.26340100  1
