# generated using pymatgen
data_MgCrGaS4
_symmetry_space_group_name_H-M   'P 1'
_cell_length_a   7.26832859
_cell_length_b   7.28257706
_cell_length_c   7.28245492
_cell_angle_alpha   59.88811832
_cell_angle_beta   60.06395678
_cell_angle_gamma   60.06457536
_symmetry_Int_Tables_number   1
_chemical_formula_structural   MgCrGaS4
_chemical_formula_sum   'Mg2 Cr2 Ga2 S8'
_cell_volume   272.60534136
_cell_formula_units_Z   2
loop_
 _symmetry_equiv_pos_site_id
 _symmetry_equiv_pos_as_xyz
  1  'x, y, z'
loop_
 _atom_site_type_symbol
 _atom_site_label
 _atom_site_symmetry_multiplicity
 _atom_site_fract_x
 _atom_site_fract_y
 _atom_site_fract_z
 _atom_site_occupancy
  Mg  Mg0  1  0.87442728  0.87557768  0.87557797  1
  Mg  Mg1  1  0.12559197  0.12441768  0.12441555  1
  Cr  Cr2  1  0.50001675  0.50001071  -0.00002822  1
  Cr  Cr3  1  0.49999200  -0.00004266  0.50003255  1
  Ga  Ga4  1  0.50001737  0.50001055  0.49998750  1
  Ga  Ga5  1  -0.00002239  0.50001340  0.50004376  1
  S  S6  1  0.73135798  0.74037184  0.74037070  1
  S  S7  1  0.26569551  0.25501680  0.71360526  1
  S  S8  1  0.26569750  0.71361329  0.25500481  1
  S  S9  1  0.71213569  0.25963278  0.25962082  1
  S  S10  1  0.73430520  0.28638144  0.74499335  1
  S  S11  1  0.28786259  0.74036833  0.74038380  1
  S  S12  1  0.26859255  0.25961485  0.25962625  1
  S  S13  1  0.73433398  0.74500834  0.28636689  1
