# generated using pymatgen
data_YGa2N3
_symmetry_space_group_name_H-M   'P 1'
_cell_length_a   5.96970617
_cell_length_b   5.93442909
_cell_length_c   5.29934800
_cell_angle_alpha   90.00000000
_cell_angle_beta   90.00000000
_cell_angle_gamma   119.80471591
_symmetry_Int_Tables_number   1
_chemical_formula_structural   YGa2N3
_chemical_formula_sum   'Y2 Ga4 N6'
_cell_volume   162.90567834
_cell_formula_units_Z   2
loop_
 _symmetry_equiv_pos_site_id
 _symmetry_equiv_pos_as_xyz
  1  'x, y, z'
loop_
 _atom_site_type_symbol
 _atom_site_label
 _atom_site_symmetry_multiplicity
 _atom_site_fract_x
 _atom_site_fract_y
 _atom_site_fract_z
 _atom_site_occupancy
  Y  Y0  1  0.00000000  0.68828000  0.47206000  1
  Y  Y1  1  0.00000000  0.31172000  0.97206000  1
  Ga  Ga2  1  0.34743700  0.33986900  0.48991700  1
  Ga  Ga3  1  0.65256300  0.99243100  0.48991700  1
  Ga  Ga4  1  0.65256300  0.66013100  0.98991700  1
  Ga  Ga5  1  0.34743700  0.00756900  0.98991700  1
  N  N6  1  0.37627800  0.33019700  0.85883200  1
  N  N7  1  0.62372200  0.95391900  0.85883200  1
  N  N8  1  0.62372200  0.66980300  0.35883200  1
  N  N9  1  0.37627800  0.04608100  0.35883200  1
  N  N10  1  0.00000000  0.69551600  0.91844300  1
  N  N11  1  0.00000000  0.30448400  0.41844300  1
