# generated using pymatgen
data_Li4MnCo2O7
_symmetry_space_group_name_H-M   'P 1'
_cell_length_a   2.92340600
_cell_length_b   10.74062798
_cell_length_c   8.33923671
_cell_angle_alpha   78.13666448
_cell_angle_beta   90.00000000
_cell_angle_gamma   82.17828708
_symmetry_Int_Tables_number   1
_chemical_formula_structural   Li4MnCo2O7
_chemical_formula_sum   'Li8 Mn2 Co4 O14'
_cell_volume   253.76286332
_cell_formula_units_Z   2
loop_
 _symmetry_equiv_pos_site_id
 _symmetry_equiv_pos_as_xyz
  1  'x, y, z'
loop_
 _atom_site_type_symbol
 _atom_site_label
 _atom_site_symmetry_multiplicity
 _atom_site_fract_x
 _atom_site_fract_y
 _atom_site_fract_z
 _atom_site_occupancy
  Li  Li0  1  0.42484200  0.15031600  0.22675600  1
  Li  Li1  1  0.28944300  0.42111200  0.63038700  1
  Li  Li2  1  0.14643200  0.70713600  0.07675900  1
  Li  Li3  1  0.99740300  0.00519400  0.49880100  1
  Li  Li4  1  0.85714300  0.28571400  0.92857100  1
  Li  Li5  1  0.71688300  0.56623500  0.35834200  1
  Li  Li6  1  0.56785400  0.86429300  0.78038400  1
  Li  Li7  1  0.85714300  0.28571400  0.42857100  1
  Mn  Mn8  1  0.99922100  0.00155800  0.99885300  1
  Mn  Mn9  1  0.71506500  0.56987100  0.85829000  1
  Co  Co10  1  0.57206800  0.85586400  0.29211100  1
  Co  Co11  1  0.42456300  0.15087400  0.68843800  1
  Co  Co12  1  0.28972200  0.42055400  0.16870600  1
  Co  Co13  1  0.14221800  0.71556500  0.56503200  1
  O  O14  1  0.43794000  0.12412100  0.97078000  1
  O  O15  1  0.28310700  0.43378500  0.37939200  1
  O  O16  1  0.15126500  0.69747100  0.82524000  1
  O  O17  1  0.00554900  0.98890300  0.23858100  1
  O  O18  1  0.86260700  0.27478600  0.68832300  1
  O  O19  1  0.71799200  0.56401500  0.08869400  1
  O  O20  1  0.57607600  0.84784900  0.53732900  1
  O  O21  1  0.43117900  0.13764300  0.47775000  1
  O  O22  1  0.27634600  0.44730800  0.88636300  1
  O  O23  1  0.13821000  0.72358000  0.31981400  1
  O  O24  1  0.99629300  0.00741300  0.76844900  1
  O  O25  1  0.85167800  0.29664200  0.16882000  1
  O  O26  1  0.70873700  0.58252600  0.61856200  1
  O  O27  1  0.56302100  0.87395800  0.03190300  1
