# generated using pymatgen
data_DyMgVS4
_symmetry_space_group_name_H-M   'P 1'
_cell_length_a   7.67164325
_cell_length_b   7.57441058
_cell_length_c   7.57477506
_cell_angle_alpha   59.71988202
_cell_angle_beta   59.56144940
_cell_angle_gamma   59.61557759
_symmetry_Int_Tables_number   1
_chemical_formula_structural   DyMgVS4
_chemical_formula_sum   'Dy2 Mg2 V2 S8'
_cell_volume   308.63571437
_cell_formula_units_Z   2
loop_
 _symmetry_equiv_pos_site_id
 _symmetry_equiv_pos_as_xyz
  1  'x, y, z'
loop_
 _atom_site_type_symbol
 _atom_site_label
 _atom_site_symmetry_multiplicity
 _atom_site_fract_x
 _atom_site_fract_y
 _atom_site_fract_z
 _atom_site_occupancy
  Dy  Dy0  1  0.50000200  0.50001300  0.49998400  1
  Dy  Dy1  1  0.00000200  0.49998800  0.50001000  1
  Mg  Mg2  1  0.87709200  0.87263900  0.87308500  1
  Mg  Mg3  1  0.12291000  0.12735700  0.12690900  1
  V  V4  1  0.49997600  0.50000900  0.00000900  1
  V  V5  1  0.50000800  0.99999300  0.50002900  1
  S  S6  1  0.71210300  0.75384100  0.75431500  1
  S  S7  1  0.26867800  0.23154900  0.73132300  1
  S  S8  1  0.26826600  0.73154800  0.23174200  1
  S  S9  1  0.72029600  0.24590000  0.24584100  1
  S  S10  1  0.73171600  0.26845700  0.76825300  1
  S  S11  1  0.27970700  0.75410000  0.75414200  1
  S  S12  1  0.28790300  0.24615000  0.24568700  1
  S  S13  1  0.73134400  0.76845200  0.26867200  1
