# generated using pymatgen
data_Ca2MgN2
_symmetry_space_group_name_H-M   'P 1'
_cell_length_a   6.36792861
_cell_length_b   8.23989600
_cell_length_c   6.23493615
_cell_angle_alpha   90.00000000
_cell_angle_beta   98.27939143
_cell_angle_gamma   90.00000000
_symmetry_Int_Tables_number   1
_chemical_formula_structural   Ca2MgN2
_chemical_formula_sum   'Ca8 Mg4 N8'
_cell_volume   323.74405625
_cell_formula_units_Z   4
loop_
 _symmetry_equiv_pos_site_id
 _symmetry_equiv_pos_as_xyz
  1  'x, y, z'
loop_
 _atom_site_type_symbol
 _atom_site_label
 _atom_site_symmetry_multiplicity
 _atom_site_fract_x
 _atom_site_fract_y
 _atom_site_fract_z
 _atom_site_occupancy
  Ca  Ca0  1  0.07567600  0.13401100  0.69074500  1
  Ca  Ca1  1  0.92432400  0.63401100  0.80925500  1
  Ca  Ca2  1  0.92432400  0.86598900  0.30925500  1
  Ca  Ca3  1  0.07567600  0.36598900  0.19074500  1
  Ca  Ca4  1  0.66522100  0.36555400  0.55405400  1
  Ca  Ca5  1  0.33477900  0.86555400  0.94594600  1
  Ca  Ca6  1  0.33477900  0.63444600  0.44594600  1
  Ca  Ca7  1  0.66522100  0.13444600  0.05405400  1
  Mg  Mg8  1  0.37462800  0.38889500  0.88146200  1
  Mg  Mg9  1  0.62537200  0.88889500  0.61853800  1
  Mg  Mg10  1  0.62537200  0.61110500  0.11853800  1
  Mg  Mg11  1  0.37462800  0.11110500  0.38146200  1
  N  N12  1  0.27166100  0.90724600  0.55557000  1
  N  N13  1  0.72833900  0.40724600  0.94443000  1
  N  N14  1  0.72833900  0.09275400  0.44443000  1
  N  N15  1  0.27166100  0.59275400  0.05557000  1
  N  N16  1  0.28382400  0.34134100  0.54459500  1
  N  N17  1  0.71617600  0.84134100  0.95540500  1
  N  N18  1  0.71617600  0.65865900  0.45540500  1
  N  N19  1  0.28382400  0.15865900  0.04459500  1
