# generated using pymatgen
data_Mg2CoMo3S8
_symmetry_space_group_name_H-M   'P 1'
_cell_length_a   7.25860237
_cell_length_b   7.25897897
_cell_length_c   7.25897496
_cell_angle_alpha   61.13433832
_cell_angle_beta   61.13255843
_cell_angle_gamma   61.13546657
_symmetry_Int_Tables_number   1
_chemical_formula_structural   Mg2CoMo3S8
_chemical_formula_sum   'Mg2 Co1 Mo3 S8'
_cell_volume   277.35378677
_cell_formula_units_Z   1
loop_
 _symmetry_equiv_pos_site_id
 _symmetry_equiv_pos_as_xyz
  1  'x, y, z'
loop_
 _atom_site_type_symbol
 _atom_site_label
 _atom_site_symmetry_multiplicity
 _atom_site_fract_x
 _atom_site_fract_y
 _atom_site_fract_z
 _atom_site_occupancy
  Mg  Mg0  1  0.87805000  0.87802100  0.87803000  1
  Mg  Mg1  1  0.12194800  0.12198400  0.12196900  1
  Co  Co2  1  0.50000200  0.50000400  0.49999300  1
  Mo  Mo3  1  0.50000300  0.49999500  0.00000100  1
  Mo  Mo4  1  0.00000100  0.49999400  0.50000900  1
  Mo  Mo5  1  0.50000200  0.99999600  0.50000600  1
  S  S6  1  0.73990500  0.73993100  0.73993100  1
  S  S7  1  0.27032800  0.27029100  0.71187300  1
  S  S8  1  0.27034100  0.71187300  0.27030000  1
  S  S9  1  0.71185900  0.27030700  0.27029900  1
  S  S10  1  0.72964800  0.28813300  0.72968700  1
  S  S11  1  0.28814100  0.72968800  0.72969400  1
  S  S12  1  0.26009300  0.26006400  0.26008100  1
  S  S13  1  0.72968500  0.72971300  0.28812800  1
