# generated using pymatgen
data_Mg2Sc3VS8
_symmetry_space_group_name_H-M   'P 1'
_cell_length_a   7.52530927
_cell_length_b   7.46340436
_cell_length_c   7.51697409
_cell_angle_alpha   59.78732040
_cell_angle_beta   59.96793968
_cell_angle_gamma   59.73776834
_symmetry_Int_Tables_number   1
_chemical_formula_structural   Mg2Sc3VS8
_chemical_formula_sum   'Mg2 Sc3 V1 S8'
_cell_volume   297.38327351
_cell_formula_units_Z   1
loop_
 _symmetry_equiv_pos_site_id
 _symmetry_equiv_pos_as_xyz
  1  'x, y, z'
loop_
 _atom_site_type_symbol
 _atom_site_label
 _atom_site_symmetry_multiplicity
 _atom_site_fract_x
 _atom_site_fract_y
 _atom_site_fract_z
 _atom_site_occupancy
  Mg  Mg0  1  0.87509400  0.87446900  0.87522800  1
  Mg  Mg1  1  0.12491700  0.12553100  0.12477000  1
  Sc  Sc2  1  0.50001100  0.49999500  0.49998600  1
  Sc  Sc3  1  0.49999200  0.49999900  0.00000000  1
  Sc  Sc4  1  0.99998100  0.50001200  0.50001700  1
  V  V5  1  0.50000000  0.99999800  0.50000400  1
  S  S6  1  0.73526900  0.75319700  0.73520000  1
  S  S7  1  0.26496600  0.24644700  0.72347400  1
  S  S8  1  0.25784000  0.72672500  0.25783500  1
  S  S9  1  0.72353900  0.24641100  0.26497900  1
  S  S10  1  0.74215200  0.27327100  0.74215000  1
  S  S11  1  0.27646500  0.75358300  0.73501700  1
  S  S12  1  0.26472700  0.24679700  0.26482100  1
  S  S13  1  0.73505100  0.75355900  0.27652100  1
