# generated using pymatgen
data_DyMg2W3S8
_symmetry_space_group_name_H-M   'P 1'
_cell_length_a   7.57482848
_cell_length_b   7.57459679
_cell_length_c   7.43027461
_cell_angle_alpha   57.78741806
_cell_angle_beta   57.78341449
_cell_angle_gamma   60.08082782
_symmetry_Int_Tables_number   1
_chemical_formula_structural   DyMg2W3S8
_chemical_formula_sum   'Dy1 Mg2 W3 S8'
_cell_volume   291.13084126
_cell_formula_units_Z   1
loop_
 _symmetry_equiv_pos_site_id
 _symmetry_equiv_pos_as_xyz
  1  'x, y, z'
loop_
 _atom_site_type_symbol
 _atom_site_label
 _atom_site_symmetry_multiplicity
 _atom_site_fract_x
 _atom_site_fract_y
 _atom_site_fract_z
 _atom_site_occupancy
  Dy  Dy0  1  0.49999800  0.50001100  0.49998100  1
  Mg  Mg1  1  0.87675800  0.87676400  0.86789100  1
  Mg  Mg2  1  0.12323900  0.12322700  0.13215200  1
  W  W3  1  0.50019600  0.50017900  0.99961600  1
  W  W4  1  0.99982400  0.49999300  0.50019200  1
  W  W5  1  0.49999800  0.99983700  0.50017600  1
  S  S6  1  0.74302100  0.74301900  0.73443700  1
  S  S7  1  0.24342200  0.24342300  0.72347100  1
  S  S8  1  0.24894600  0.72796300  0.24301400  1
  S  S9  1  0.72797300  0.24894800  0.24301900  1
  S  S10  1  0.75105100  0.27192500  0.75695900  1
  S  S11  1  0.27192800  0.75105400  0.75696400  1
  S  S12  1  0.25708800  0.25709200  0.26555000  1
  S  S13  1  0.75656100  0.75655900  0.27657900  1
