# generated using pymatgen
data_Ba4CN4
_symmetry_space_group_name_H-M   'P 1'
_cell_length_a   13.19043000
_cell_length_b   4.05985900
_cell_length_c   15.62327900
_cell_angle_alpha   90.00000000
_cell_angle_beta   90.00000000
_cell_angle_gamma   90.00000000
_symmetry_Int_Tables_number   1
_chemical_formula_structural   Ba4CN4
_chemical_formula_sum   'Ba16 C4 N16'
_cell_volume   836.64668120
_cell_formula_units_Z   4
loop_
 _symmetry_equiv_pos_site_id
 _symmetry_equiv_pos_as_xyz
  1  'x, y, z'
loop_
 _atom_site_type_symbol
 _atom_site_label
 _atom_site_symmetry_multiplicity
 _atom_site_fract_x
 _atom_site_fract_y
 _atom_site_fract_z
 _atom_site_occupancy
  Ba  Ba0  1  0.59890600  0.25000000  0.90408100  1
  Ba  Ba1  1  0.09890600  0.25000000  0.59591900  1
  Ba  Ba2  1  0.40109400  0.75000000  0.09591900  1
  Ba  Ba3  1  0.90109400  0.75000000  0.40408100  1
  Ba  Ba4  1  0.64022700  0.25000000  0.45214300  1
  Ba  Ba5  1  0.14022700  0.25000000  0.04785700  1
  Ba  Ba6  1  0.35977300  0.75000000  0.54785700  1
  Ba  Ba7  1  0.85977300  0.75000000  0.95214300  1
  Ba  Ba8  1  0.82333300  0.25000000  0.74573100  1
  Ba  Ba9  1  0.32333300  0.25000000  0.75426900  1
  Ba  Ba10  1  0.17666700  0.75000000  0.25426900  1
  Ba  Ba11  1  0.67666700  0.75000000  0.24573100  1
  Ba  Ba12  1  0.91467900  0.25000000  0.18022800  1
  Ba  Ba13  1  0.41467900  0.25000000  0.31977300  1
  Ba  Ba14  1  0.08532100  0.75000000  0.81977300  1
  Ba  Ba15  1  0.58532100  0.75000000  0.68022700  1
  C  C16  1  0.65816500  0.25000000  0.08823100  1
  C  C17  1  0.15816500  0.25000000  0.41176900  1
  C  C18  1  0.34183500  0.75000000  0.91176900  1
  C  C19  1  0.84183500  0.75000000  0.58823100  1
  N  N20  1  0.56928300  0.25000000  0.11493200  1
  N  N21  1  0.06928300  0.25000000  0.38506800  1
  N  N22  1  0.43071700  0.75000000  0.88506800  1
  N  N23  1  0.93071700  0.75000000  0.61493200  1
  N  N24  1  0.74616000  0.25000000  0.05920200  1
  N  N25  1  0.24616000  0.25000000  0.44079800  1
  N  N26  1  0.25384000  0.75000000  0.94079800  1
  N  N27  1  0.75384000  0.75000000  0.55920200  1
  N  N28  1  0.79374900  0.25000000  0.32986800  1
  N  N29  1  0.29374900  0.25000000  0.17013200  1
  N  N30  1  0.20625100  0.75000000  0.67013200  1
  N  N31  1  0.70625100  0.75000000  0.82986800  1
  N  N32  1  0.96190300  0.25000000  0.85932800  1
  N  N33  1  0.46190300  0.25000000  0.64067200  1
  N  N34  1  0.03809700  0.75000000  0.14067200  1
  N  N35  1  0.53809700  0.75000000  0.35932800  1
