# generated using pymatgen
data_MgCrFeS4
_symmetry_space_group_name_H-M   'P 1'
_cell_length_a   7.13569203
_cell_length_b   7.12495486
_cell_length_c   7.12515933
_cell_angle_alpha   60.19447850
_cell_angle_beta   59.87981955
_cell_angle_gamma   59.87926378
_symmetry_Int_Tables_number   1
_chemical_formula_structural   MgCrFeS4
_chemical_formula_sum   'Mg2 Cr2 Fe2 S8'
_cell_volume   256.05694916
_cell_formula_units_Z   2
loop_
 _symmetry_equiv_pos_site_id
 _symmetry_equiv_pos_as_xyz
  1  'x, y, z'
loop_
 _atom_site_type_symbol
 _atom_site_label
 _atom_site_symmetry_multiplicity
 _atom_site_fract_x
 _atom_site_fract_y
 _atom_site_fract_z
 _atom_site_occupancy
  Mg  Mg0  1  0.87317500  0.87675800  0.87680000  1
  Mg  Mg1  1  0.12681800  0.12322200  0.12324500  1
  Cr  Cr2  1  0.50001600  0.49993700  0.00001700  1
  Cr  Cr3  1  0.49998100  0.00004600  0.49996500  1
  Fe  Fe4  1  0.49999600  0.50001200  0.49999100  1
  Fe  Fe5  1  0.00001800  0.50000900  0.49999500  1
  S  S6  1  0.74472100  0.73174700  0.73172900  1
  S  S7  1  0.25988600  0.27901600  0.70116500  1
  S  S8  1  0.25989200  0.70113600  0.27900700  1
  S  S9  1  0.70903200  0.26804500  0.26800000  1
  S  S10  1  0.74012700  0.29881500  0.72096200  1
  S  S11  1  0.29094500  0.73200100  0.73196500  1
  S  S12  1  0.25528900  0.26827100  0.26827800  1
  S  S13  1  0.74010900  0.72097900  0.29888300  1
