# generated using pymatgen
data_DyMg2V3S8
_symmetry_space_group_name_H-M   'P 1'
_cell_length_a   7.44845125
_cell_length_b   7.45461163
_cell_length_c   7.45578173
_cell_angle_alpha   59.29958851
_cell_angle_beta   59.33978468
_cell_angle_gamma   59.19571073
_symmetry_Int_Tables_number   1
_chemical_formula_structural   DyMg2V3S8
_chemical_formula_sum   'Dy1 Mg2 V3 S8'
_cell_volume   287.91961241
_cell_formula_units_Z   1
loop_
 _symmetry_equiv_pos_site_id
 _symmetry_equiv_pos_as_xyz
  1  'x, y, z'
loop_
 _atom_site_type_symbol
 _atom_site_label
 _atom_site_symmetry_multiplicity
 _atom_site_fract_x
 _atom_site_fract_y
 _atom_site_fract_z
 _atom_site_occupancy
  Dy  Dy0  1  0.50000100  0.50001700  0.49997600  1
  Mg  Mg1  1  0.87379700  0.87382900  0.87387500  1
  Mg  Mg2  1  0.12620400  0.12616800  0.12613600  1
  V  V3  1  0.50001800  0.50000000  0.99997400  1
  V  V4  1  0.99999600  0.49998400  0.50002500  1
  V  V5  1  0.49998900  0.99999100  0.50002200  1
  S  S6  1  0.73826000  0.73808300  0.73785100  1
  S  S7  1  0.24485400  0.24485700  0.72224100  1
  S  S8  1  0.24459400  0.72240600  0.24479900  1
  S  S9  1  0.72239900  0.24474500  0.24494300  1
  S  S10  1  0.75539500  0.27758200  0.75518800  1
  S  S11  1  0.27759700  0.75525200  0.75505200  1
  S  S12  1  0.26174800  0.26193100  0.26214800  1
  S  S13  1  0.75515400  0.75515100  0.27777100  1
