# generated using pymatgen
data_Mn3Pb3N5
_symmetry_space_group_name_H-M   'P 1'
_cell_length_a   5.67606007
_cell_length_b   7.46271747
_cell_length_c   8.30526047
_cell_angle_alpha   103.36373374
_cell_angle_beta   99.71001811
_cell_angle_gamma   96.42720417
_symmetry_Int_Tables_number   1
_chemical_formula_structural   Mn3Pb3N5
_chemical_formula_sum   'Mn6 Pb6 N10'
_cell_volume   333.16753250
_cell_formula_units_Z   2
loop_
 _symmetry_equiv_pos_site_id
 _symmetry_equiv_pos_as_xyz
  1  'x, y, z'
loop_
 _atom_site_type_symbol
 _atom_site_label
 _atom_site_symmetry_multiplicity
 _atom_site_fract_x
 _atom_site_fract_y
 _atom_site_fract_z
 _atom_site_occupancy
  Mn  Mn0  1  0.93461300  0.32286700  0.97118100  1
  Mn  Mn1  1  0.06538700  0.67713300  0.02881900  1
  Mn  Mn2  1  0.68329800  0.99069800  0.59687500  1
  Mn  Mn3  1  0.31670200  0.00930200  0.40312500  1
  Mn  Mn4  1  0.07926200  0.92577900  0.72341400  1
  Mn  Mn5  1  0.92073800  0.07422100  0.27658600  1
  Pb  Pb6  1  0.76073200  0.43696800  0.54227300  1
  Pb  Pb7  1  0.23926800  0.56303200  0.45772700  1
  Pb  Pb8  1  0.56889000  0.80533000  0.86493400  1
  Pb  Pb9  1  0.43111000  0.19467000  0.13506600  1
  Pb  Pb10  1  0.62215800  0.66819700  0.22802800  1
  Pb  Pb11  1  0.37784200  0.33180300  0.77197200  1
  N  N12  1  0.92298800  0.13748600  0.77547600  1
  N  N13  1  0.07701200  0.86251400  0.22452400  1
  N  N14  1  0.82343300  0.78731000  0.57346100  1
  N  N15  1  0.17656700  0.21269000  0.42653900  1
  N  N16  1  0.77163700  0.52349800  0.97043700  1
  N  N17  1  0.22836300  0.47650200  0.02956300  1
  N  N18  1  0.34612200  0.94962200  0.60755800  1
  N  N19  1  0.65387800  0.05037800  0.39244200  1
  N  N20  1  0.11853200  0.80965600  0.88722700  1
  N  N21  1  0.88146800  0.19034400  0.11277300  1
