# generated using pymatgen
data_Sm3Mg2WS8
_symmetry_space_group_name_H-M   'P 1'
_cell_length_a   7.94966372
_cell_length_b   7.77404247
_cell_length_c   7.94980685
_cell_angle_alpha   59.24991304
_cell_angle_beta   59.99770530
_cell_angle_gamma   59.25168248
_symmetry_Int_Tables_number   1
_chemical_formula_structural   Sm3Mg2WS8
_chemical_formula_sum   'Sm3 Mg2 W1 S8'
_cell_volume   343.41391833
_cell_formula_units_Z   1
loop_
 _symmetry_equiv_pos_site_id
 _symmetry_equiv_pos_as_xyz
  1  'x, y, z'
loop_
 _atom_site_type_symbol
 _atom_site_label
 _atom_site_symmetry_multiplicity
 _atom_site_fract_x
 _atom_site_fract_y
 _atom_site_fract_z
 _atom_site_occupancy
  Sm  Sm0  1  0.50000233  0.50002322  0.49997779  1
  Sm  Sm1  1  0.49999895  0.49998943  0.00000130  1
  Sm  Sm2  1  0.00000199  0.49999072  0.50001231  1
  Mg  Mg3  1  0.87462929  0.87610037  0.87463874  1
  Mg  Mg4  1  0.12537184  0.12390745  0.12535892  1
  W  W5  1  0.49999921  0.99999431  0.50000741  1
  S  S6  1  0.73094027  0.77231407  0.73093168  1
  S  S7  1  0.26905044  0.22770156  0.73418414  1
  S  S8  1  0.25357390  0.73931748  0.25355461  1
  S  S9  1  0.73418876  0.22771511  0.26903692  1
  S  S10  1  0.74641032  0.26068542  0.74643168  1
  S  S11  1  0.26580835  0.77227943  0.73096663  1
  S  S12  1  0.26905761  0.22767246  0.26908569  1
  S  S13  1  0.73097075  0.77230396  0.26581318  1
