# generated using pymatgen
data_Zn2BiN3
_symmetry_space_group_name_H-M   'P 1'
_cell_length_a   5.95831538
_cell_length_b   5.92041960
_cell_length_c   5.60066800
_cell_angle_alpha   90.00000000
_cell_angle_beta   90.00000000
_cell_angle_gamma   119.78983682
_symmetry_Int_Tables_number   1
_chemical_formula_structural   Zn2BiN3
_chemical_formula_sum   'Zn4 Bi2 N6'
_cell_volume   171.45978323
_cell_formula_units_Z   2
loop_
 _symmetry_equiv_pos_site_id
 _symmetry_equiv_pos_as_xyz
  1  'x, y, z'
loop_
 _atom_site_type_symbol
 _atom_site_label
 _atom_site_symmetry_multiplicity
 _atom_site_fract_x
 _atom_site_fract_y
 _atom_site_fract_z
 _atom_site_occupancy
  Zn  Zn0  1  0.34736800  0.33927800  0.49600600  1
  Zn  Zn1  1  0.65263200  0.99191000  0.49600600  1
  Zn  Zn2  1  0.65263200  0.66072200  0.99600600  1
  Zn  Zn3  1  0.34736800  0.00809000  0.99600600  1
  Bi  Bi4  1  0.00000000  0.68614400  0.48678300  1
  Bi  Bi5  1  0.00000000  0.31385600  0.98678300  1
  N  N6  1  0.34699400  0.33050600  0.86334600  1
  N  N7  1  0.65300600  0.98351200  0.86334600  1
  N  N8  1  0.65300600  0.66949400  0.36334600  1
  N  N9  1  0.34699400  0.01648800  0.36334600  1
  N  N10  1  0.00000000  0.67498700  0.88251500  1
  N  N11  1  0.00000000  0.32501300  0.38251500  1
