# generated using pymatgen
data_Mg2CrFe3S8
_symmetry_space_group_name_H-M   'P 1'
_cell_length_a   7.02862133
_cell_length_b   7.04087304
_cell_length_c   7.05954246
_cell_angle_alpha   59.82467118
_cell_angle_beta   60.10960087
_cell_angle_gamma   60.04773412
_symmetry_Int_Tables_number   1
_chemical_formula_structural   Mg2CrFe3S8
_chemical_formula_sum   'Mg2 Cr1 Fe3 S8'
_cell_volume   246.99787393
_cell_formula_units_Z   1
loop_
 _symmetry_equiv_pos_site_id
 _symmetry_equiv_pos_as_xyz
  1  'x, y, z'
loop_
 _atom_site_type_symbol
 _atom_site_label
 _atom_site_symmetry_multiplicity
 _atom_site_fract_x
 _atom_site_fract_y
 _atom_site_fract_z
 _atom_site_occupancy
  Mg  Mg0  1  0.87427200  0.87621500  0.87481600  1
  Mg  Mg1  1  0.12575700  0.12380600  0.12516000  1
  Cr  Cr2  1  0.49987500  0.99993100  0.50010600  1
  Fe  Fe3  1  0.50001100  0.50001300  0.49996600  1
  Fe  Fe4  1  0.50003000  0.49999800  0.00000000  1
  Fe  Fe5  1  0.00000600  0.50000400  0.49999900  1
  S  S6  1  0.74097300  0.72296600  0.73924900  1
  S  S7  1  0.26052000  0.27564800  0.70307800  1
  S  S8  1  0.26811800  0.69607500  0.26737400  1
  S  S9  1  0.70331800  0.27697400  0.26061600  1
  S  S10  1  0.73187100  0.30395000  0.73259400  1
  S  S11  1  0.29670000  0.72300100  0.73938800  1
  S  S12  1  0.25904900  0.27704500  0.26074500  1
  S  S13  1  0.73950500  0.72436900  0.29690900  1
