# generated using pymatgen
data_La3Mg2MoS8
_symmetry_space_group_name_H-M   'P 1'
_cell_length_a   8.12839413
_cell_length_b   7.91748451
_cell_length_c   8.12843604
_cell_angle_alpha   59.11589487
_cell_angle_beta   59.99878054
_cell_angle_gamma   59.11526466
_symmetry_Int_Tables_number   1
_chemical_formula_structural   La3Mg2MoS8
_chemical_formula_sum   'La3 Mg2 Mo1 S8'
_cell_volume   364.87422877
_cell_formula_units_Z   1
loop_
 _symmetry_equiv_pos_site_id
 _symmetry_equiv_pos_as_xyz
  1  'x, y, z'
loop_
 _atom_site_type_symbol
 _atom_site_label
 _atom_site_symmetry_multiplicity
 _atom_site_fract_x
 _atom_site_fract_y
 _atom_site_fract_z
 _atom_site_occupancy
  La  La0  1  0.49999982  0.50002527  0.49997467  1
  La  La1  1  0.49999785  0.49998970  0.00000502  1
  La  La2  1  0.00000152  0.49998913  0.50001331  1
  Mg  Mg3  1  0.87435915  0.87691488  0.87437217  1
  Mg  Mg4  1  0.12564220  0.12309426  0.12562490  1
  Mo  Mo5  1  0.50000023  0.99999820  0.50000562  1
  S  S6  1  0.73000970  0.77702417  0.73003187  1
  S  S7  1  0.26997023  0.22300717  0.73706479  1
  S  S8  1  0.25187852  0.74435037  0.25188348  1
  S  S9  1  0.73706446  0.22298198  0.26996239  1
  S  S10  1  0.74810479  0.25564981  0.74809808  1
  S  S11  1  0.26293491  0.77700522  0.73004266  1
  S  S12  1  0.26998943  0.22296145  0.26998843  1
  S  S13  1  0.73005120  0.77700337  0.26293362  1
