# generated using pymatgen
data_In4CN4
_symmetry_space_group_name_H-M   'P 1'
_cell_length_a   10.93595400
_cell_length_b   3.58103200
_cell_length_c   18.53614700
_cell_angle_alpha   90.00000000
_cell_angle_beta   90.00000000
_cell_angle_gamma   90.00000000
_symmetry_Int_Tables_number   1
_chemical_formula_structural   In4CN4
_chemical_formula_sum   'In16 C4 N16'
_cell_volume   725.91261151
_cell_formula_units_Z   4
loop_
 _symmetry_equiv_pos_site_id
 _symmetry_equiv_pos_as_xyz
  1  'x, y, z'
loop_
 _atom_site_type_symbol
 _atom_site_label
 _atom_site_symmetry_multiplicity
 _atom_site_fract_x
 _atom_site_fract_y
 _atom_site_fract_z
 _atom_site_occupancy
  In  In0  1  0.13717100  0.25000000  0.20788100  1
  In  In1  1  0.63717100  0.25000000  0.29211900  1
  In  In2  1  0.86282900  0.75000000  0.79211900  1
  In  In3  1  0.36282900  0.75000000  0.70788100  1
  In  In4  1  0.88120500  0.25000000  0.95270700  1
  In  In5  1  0.38120500  0.25000000  0.54729300  1
  In  In6  1  0.11879500  0.75000000  0.04729300  1
  In  In7  1  0.61879500  0.75000000  0.45270700  1
  In  In8  1  0.37600300  0.25000000  0.91706400  1
  In  In9  1  0.87600300  0.25000000  0.58293600  1
  In  In10  1  0.62399700  0.75000000  0.08293600  1
  In  In11  1  0.12399700  0.75000000  0.41706400  1
  In  In12  1  0.14121100  0.25000000  0.80778100  1
  In  In13  1  0.64121100  0.25000000  0.69221900  1
  In  In14  1  0.85878900  0.75000000  0.19221900  1
  In  In15  1  0.35878900  0.75000000  0.30778100  1
  C  C16  1  0.36885000  0.25000000  0.10674200  1
  C  C17  1  0.86885000  0.25000000  0.39325800  1
  C  C18  1  0.63115000  0.75000000  0.89325800  1
  C  C19  1  0.13115000  0.75000000  0.60674200  1
  N  N20  1  0.75694300  0.25000000  0.20235300  1
  N  N21  1  0.25694300  0.25000000  0.29764700  1
  N  N22  1  0.24305700  0.75000000  0.79764700  1
  N  N23  1  0.74305700  0.75000000  0.70235300  1
  N  N24  1  0.95257500  0.25000000  0.83044000  1
  N  N25  1  0.45257500  0.25000000  0.66956000  1
  N  N26  1  0.04742500  0.75000000  0.16956000  1
  N  N27  1  0.54742500  0.75000000  0.33044000  1
  N  N28  1  0.25520800  0.25000000  0.10546700  1
  N  N29  1  0.75520800  0.25000000  0.39453300  1
  N  N30  1  0.74479200  0.75000000  0.89453300  1
  N  N31  1  0.24479200  0.75000000  0.60546700  1
  N  N32  1  0.48141300  0.25000000  0.10800000  1
  N  N33  1  0.98141300  0.25000000  0.39200000  1
  N  N34  1  0.51858700  0.75000000  0.89200000  1
  N  N35  1  0.01858700  0.75000000  0.60800000  1
