# generated using pymatgen
data_Cs3BN2
_symmetry_space_group_name_H-M   'P 1'
_cell_length_a   10.03632936
_cell_length_b   9.46795684
_cell_length_c   14.95417222
_cell_angle_alpha   90.00000326
_cell_angle_beta   138.15927359
_cell_angle_gamma   118.14367517
_symmetry_Int_Tables_number   1
_chemical_formula_structural   Cs3BN2
_chemical_formula_sum   'Cs12 B4 N8'
_cell_volume   670.26242391
_cell_formula_units_Z   4
loop_
 _symmetry_equiv_pos_site_id
 _symmetry_equiv_pos_as_xyz
  1  'x, y, z'
loop_
 _atom_site_type_symbol
 _atom_site_label
 _atom_site_symmetry_multiplicity
 _atom_site_fract_x
 _atom_site_fract_y
 _atom_site_fract_z
 _atom_site_occupancy
  Cs  Cs0  1  0.00000000  0.50000000  0.37647300  1
  Cs  Cs1  1  0.00000000  0.00000000  0.87352700  1
  Cs  Cs2  1  0.00000000  0.50000000  0.12352700  1
  Cs  Cs3  1  0.00000000  0.00000000  0.12647300  1
  Cs  Cs4  1  0.60359400  0.50000000  0.55179600  1
  Cs  Cs5  1  0.39640600  0.50000000  0.94820400  1
  Cs  Cs6  1  0.60359400  0.00000000  0.30179600  1
  Cs  Cs7  1  0.39640600  0.00000000  0.69820400  1
  Cs  Cs8  1  0.39640600  0.89640600  0.94820400  1
  Cs  Cs9  1  0.60359400  0.10359400  0.55179600  1
  Cs  Cs10  1  0.39640600  0.39640600  0.69820400  1
  Cs  Cs11  1  0.60359400  0.60359400  0.30179600  1
  B  B12  1  0.00000000  0.50000000  0.58043900  1
  B  B13  1  0.00000000  0.00000000  0.66956100  1
  B  B14  1  0.00000000  0.50000000  0.91956100  1
  B  B15  1  0.00000000  0.00000000  0.33043900  1
  N  N16  1  0.28813000  0.64406500  0.72067000  1
  N  N17  1  0.71187000  0.35593500  0.43254000  1
  N  N18  1  0.28813000  0.14406500  0.81746000  1
  N  N19  1  0.71187000  0.85593500  0.52933000  1
  N  N20  1  0.00000000  0.35593500  0.92339500  1
  N  N21  1  0.00000000  0.64406500  0.92339500  1
  N  N22  1  0.00000000  0.85593500  0.32660500  1
  N  N23  1  0.00000000  0.14406500  0.32660500  1
