# generated using pymatgen
data_Mg2MnMo3S8
_symmetry_space_group_name_H-M   'P 1'
_cell_length_a   7.44935495
_cell_length_b   7.38089196
_cell_length_c   7.44909101
_cell_angle_alpha   59.69980141
_cell_angle_beta   60.00516702
_cell_angle_gamma   59.69179099
_symmetry_Int_Tables_number   1
_chemical_formula_structural   Mg2MnMo3S8
_chemical_formula_sum   'Mg2 Mn1 Mo3 S8'
_cell_volume   288.28384879
_cell_formula_units_Z   1
loop_
 _symmetry_equiv_pos_site_id
 _symmetry_equiv_pos_as_xyz
  1  'x, y, z'
loop_
 _atom_site_type_symbol
 _atom_site_label
 _atom_site_symmetry_multiplicity
 _atom_site_fract_x
 _atom_site_fract_y
 _atom_site_fract_z
 _atom_site_occupancy
  Mg  Mg0  1  0.87683700  0.86953000  0.87683900  1
  Mg  Mg1  1  0.12316100  0.13053100  0.12312400  1
  Mn  Mn2  1  0.49986300  0.99982400  0.50023300  1
  Mo  Mo3  1  0.50010100  0.50000100  0.49987900  1
  Mo  Mo4  1  0.49998600  0.49998400  0.00001200  1
  Mo  Mo5  1  0.00002500  0.50001500  0.50002600  1
  S  S6  1  0.74031500  0.73666000  0.74028600  1
  S  S7  1  0.25981000  0.26326700  0.71724400  1
  S  S8  1  0.26052700  0.71843500  0.26046800  1
  S  S9  1  0.71722500  0.26322000  0.25980800  1
  S  S10  1  0.73950600  0.28160900  0.73946300  1
  S  S11  1  0.28272300  0.73675600  0.74019800  1
  S  S12  1  0.25969100  0.26336900  0.25970400  1
  S  S13  1  0.74023500  0.73679400  0.28271600  1
