# generated using pymatgen
data_RbSbN2
_symmetry_space_group_name_H-M   'P 1'
_cell_length_a   6.06948900
_cell_length_b   12.13873200
_cell_length_c   17.15431800
_cell_angle_alpha   90.00000000
_cell_angle_beta   90.00000000
_cell_angle_gamma   90.00000000
_symmetry_Int_Tables_number   1
_chemical_formula_structural   RbSbN2
_chemical_formula_sum   'Rb16 Sb16 N32'
_cell_volume   1263.85982351
_cell_formula_units_Z   16
loop_
 _symmetry_equiv_pos_site_id
 _symmetry_equiv_pos_as_xyz
  1  'x, y, z'
loop_
 _atom_site_type_symbol
 _atom_site_label
 _atom_site_symmetry_multiplicity
 _atom_site_fract_x
 _atom_site_fract_y
 _atom_site_fract_z
 _atom_site_occupancy
  Rb  Rb0  1  0.25462100  0.01181900  0.43843600  1
  Rb  Rb1  1  0.75462100  0.48818100  0.56156400  1
  Rb  Rb2  1  0.74537900  0.51181900  0.06156400  1
  Rb  Rb3  1  0.24537900  0.98818100  0.93843600  1
  Rb  Rb4  1  0.74537900  0.98818100  0.56156400  1
  Rb  Rb5  1  0.24537900  0.51181900  0.43843600  1
  Rb  Rb6  1  0.25462100  0.48818100  0.93843600  1
  Rb  Rb7  1  0.75462100  0.01181900  0.06156400  1
  Rb  Rb8  1  0.30033200  0.26098000  0.31588600  1
  Rb  Rb9  1  0.80033200  0.23902000  0.68411400  1
  Rb  Rb10  1  0.69966800  0.76098000  0.18411400  1
  Rb  Rb11  1  0.19966800  0.73902000  0.81588600  1
  Rb  Rb12  1  0.69966800  0.73902000  0.68411400  1
  Rb  Rb13  1  0.19966800  0.76098000  0.31588600  1
  Rb  Rb14  1  0.30033200  0.23902000  0.81588600  1
  Rb  Rb15  1  0.80033200  0.26098000  0.18411400  1
  Sb  Sb16  1  0.76523000  0.00603900  0.31180500  1
  Sb  Sb17  1  0.26523000  0.49396100  0.68819500  1
  Sb  Sb18  1  0.23477000  0.50603900  0.18819500  1
  Sb  Sb19  1  0.73477000  0.99396100  0.81180500  1
  Sb  Sb20  1  0.23477000  0.99396100  0.68819500  1
  Sb  Sb21  1  0.73477000  0.50603900  0.31180500  1
  Sb  Sb22  1  0.76523000  0.49396100  0.81180500  1
  Sb  Sb23  1  0.26523000  0.00603900  0.18819500  1
  Sb  Sb24  1  0.78107200  0.25872200  0.43633800  1
  Sb  Sb25  1  0.28107200  0.24127800  0.56366200  1
  Sb  Sb26  1  0.21892800  0.75872200  0.06366200  1
  Sb  Sb27  1  0.71892800  0.74127800  0.93633800  1
  Sb  Sb28  1  0.21892800  0.74127800  0.56366200  1
  Sb  Sb29  1  0.71892800  0.75872200  0.43633800  1
  Sb  Sb30  1  0.78107200  0.24127800  0.93633800  1
  Sb  Sb31  1  0.28107200  0.25872200  0.06366200  1
  N  N32  1  0.05476500  0.31007800  0.49300100  1
  N  N33  1  0.55476500  0.18992200  0.50699900  1
  N  N34  1  0.94523500  0.81007800  0.00699900  1
  N  N35  1  0.44523500  0.68992200  0.99300100  1
  N  N36  1  0.94523500  0.68992200  0.50699900  1
  N  N37  1  0.44523500  0.81007800  0.49300100  1
  N  N38  1  0.05476500  0.18992200  0.99300100  1
  N  N39  1  0.55476500  0.31007800  0.00699900  1
  N  N40  1  0.65239800  0.40252300  0.39904000  1
  N  N41  1  0.15239800  0.09747700  0.60096000  1
  N  N42  1  0.34760200  0.90252300  0.10096000  1
  N  N43  1  0.84760200  0.59747700  0.89904000  1
  N  N44  1  0.34760200  0.59747700  0.60096000  1
  N  N45  1  0.84760200  0.90252300  0.39904000  1
  N  N46  1  0.65239800  0.09747700  0.89904000  1
  N  N47  1  0.15239800  0.40252300  0.10096000  1
  N  N48  1  0.85694800  0.15984000  0.34492600  1
  N  N49  1  0.35694800  0.34016000  0.65507400  1
  N  N50  1  0.14305200  0.65984000  0.15507400  1
  N  N51  1  0.64305200  0.84016000  0.84492600  1
  N  N52  1  0.14305200  0.84016000  0.65507400  1
  N  N53  1  0.64305200  0.65984000  0.34492600  1
  N  N54  1  0.85694800  0.34016000  0.84492600  1
  N  N55  1  0.35694800  0.15984000  0.15507400  1
  N  N56  1  0.55410600  0.47574700  0.21482500  1
  N  N57  1  0.05410600  0.02425300  0.78517500  1
  N  N58  1  0.44589400  0.97574700  0.28517500  1
  N  N59  1  0.94589400  0.52425300  0.71482500  1
  N  N60  1  0.44589400  0.52425300  0.78517500  1
  N  N61  1  0.94589400  0.97574700  0.21482500  1
  N  N62  1  0.55410600  0.02425300  0.71482500  1
  N  N63  1  0.05410600  0.47574700  0.28517500  1
