# generated using pymatgen
data_Mg2In3WS8
_symmetry_space_group_name_H-M   'P 1'
_cell_length_a   7.49208726
_cell_length_b   7.59212118
_cell_length_c   7.49831257
_cell_angle_alpha   60.25672949
_cell_angle_beta   59.92363741
_cell_angle_gamma   60.41093900
_symmetry_Int_Tables_number   1
_chemical_formula_structural   Mg2In3WS8
_chemical_formula_sum   'Mg2 In3 W1 S8'
_cell_volume   302.92299794
_cell_formula_units_Z   1
loop_
 _symmetry_equiv_pos_site_id
 _symmetry_equiv_pos_as_xyz
  1  'x, y, z'
loop_
 _atom_site_type_symbol
 _atom_site_label
 _atom_site_symmetry_multiplicity
 _atom_site_fract_x
 _atom_site_fract_y
 _atom_site_fract_z
 _atom_site_occupancy
  Mg  Mg0  1  0.87381100  0.87794900  0.87422000  1
  Mg  Mg1  1  0.12628700  0.12194300  0.12569400  1
  In  In2  1  0.49965400  0.50025700  0.50025100  1
  In  In3  1  0.50054400  0.50016600  0.99947800  1
  In  In4  1  0.99936800  0.50020300  0.50006600  1
  W  W5  1  0.50059600  0.99978500  0.49959300  1
  S  S6  1  0.73224600  0.75992800  0.73251800  1
  S  S7  1  0.26798300  0.24054300  0.72399500  1
  S  S8  1  0.25634900  0.73060300  0.25638300  1
  S  S9  1  0.72389500  0.24001900  0.26830900  1
  S  S10  1  0.74353800  0.26930600  0.74310100  1
  S  S11  1  0.27558200  0.75998700  0.73213400  1
  S  S12  1  0.26783600  0.24036300  0.26789100  1
  S  S13  1  0.73231800  0.75894200  0.27636900  1
