# generated using pymatgen
data_MgSi7N10
_symmetry_space_group_name_H-M   'P 1'
_cell_length_a   6.73170544
_cell_length_b   6.88612200
_cell_length_c   9.71682766
_cell_angle_alpha   90.00000000
_cell_angle_beta   105.14950699
_cell_angle_gamma   90.00000000
_symmetry_Int_Tables_number   1
_chemical_formula_structural   MgSi7N10
_chemical_formula_sum   'Mg2 Si14 N20'
_cell_volume   434.77329240
_cell_formula_units_Z   2
loop_
 _symmetry_equiv_pos_site_id
 _symmetry_equiv_pos_as_xyz
  1  'x, y, z'
loop_
 _atom_site_type_symbol
 _atom_site_label
 _atom_site_symmetry_multiplicity
 _atom_site_fract_x
 _atom_site_fract_y
 _atom_site_fract_z
 _atom_site_occupancy
  Mg  Mg0  1  0.99522900  0.93125000  0.69617600  1
  Mg  Mg1  1  0.99522900  0.06875000  0.19617600  1
  Si  Si2  1  0.54109100  0.97901400  0.82323100  1
  Si  Si3  1  0.54109100  0.02098600  0.32323100  1
  Si  Si4  1  0.34889700  0.02219300  0.01830000  1
  Si  Si5  1  0.34889700  0.97780700  0.51830000  1
  Si  Si6  1  0.11014800  0.39820500  0.07230300  1
  Si  Si7  1  0.11014800  0.60179500  0.57230300  1
  Si  Si8  1  0.66159600  0.36087300  0.99202800  1
  Si  Si9  1  0.66159600  0.63912700  0.49202800  1
  Si  Si10  1  0.84317400  0.61754000  0.80861800  1
  Si  Si11  1  0.84317400  0.38246000  0.30861800  1
  Si  Si12  1  0.29815000  0.61892000  0.88216600  1
  Si  Si13  1  0.29815000  0.38108000  0.38216600  1
  Si  Si14  1  0.48366500  0.36781900  0.68594700  1
  Si  Si15  1  0.48366500  0.63218100  0.18594700  1
  N  N16  1  0.74921900  0.84754500  0.81163100  1
  N  N17  1  0.74921900  0.15245500  0.31163100  1
  N  N18  1  0.55774200  0.13274500  0.97060600  1
  N  N19  1  0.55774200  0.86725500  0.47060600  1
  N  N20  1  0.31000600  0.87081400  0.86234400  1
  N  N21  1  0.31000600  0.12918600  0.36234400  1
  N  N22  1  0.15062000  0.15859400  0.03908700  1
  N  N23  1  0.15062000  0.84140600  0.53908700  1
  N  N24  1  0.28887000  0.50655900  0.72233400  1
  N  N25  1  0.28887000  0.49344100  0.22233400  1
  N  N26  1  0.44305700  0.12057700  0.67030000  1
  N  N27  1  0.44305700  0.87942300  0.17030000  1
  N  N28  1  0.88503600  0.37882500  0.13265000  1
  N  N29  1  0.88503600  0.62117500  0.63265000  1
  N  N30  1  0.07634400  0.57040800  0.93483100  1
  N  N31  1  0.07634400  0.42959200  0.43483100  1
  N  N32  1  0.69996900  0.41428000  0.82476200  1
  N  N33  1  0.69996900  0.58572000  0.32476200  1
  N  N34  1  0.49948600  0.54129100  0.02198500  1
  N  N35  1  0.49948600  0.45870900  0.52198500  1
