# generated using pymatgen
data_Sr5(VN3)2
_symmetry_space_group_name_H-M   'P 1'
_cell_length_a   6.15980896
_cell_length_b   6.59909535
_cell_length_c   13.72769360
_cell_angle_alpha   90.00000058
_cell_angle_beta   99.63832578
_cell_angle_gamma   122.38850833
_symmetry_Int_Tables_number   1
_chemical_formula_structural   Sr5(VN3)2
_chemical_formula_sum   'Sr10 V4 N12'
_cell_volume   461.85626196
_cell_formula_units_Z   2
loop_
 _symmetry_equiv_pos_site_id
 _symmetry_equiv_pos_as_xyz
  1  'x, y, z'
loop_
 _atom_site_type_symbol
 _atom_site_label
 _atom_site_symmetry_multiplicity
 _atom_site_fract_x
 _atom_site_fract_y
 _atom_site_fract_z
 _atom_site_occupancy
  Sr  Sr0  1  0.13801900  0.80984500  0.99775700  1
  Sr  Sr1  1  0.86198100  0.67182600  0.50224300  1
  Sr  Sr2  1  0.86198100  0.19015500  0.00224300  1
  Sr  Sr3  1  0.13801900  0.32817400  0.49775700  1
  Sr  Sr4  1  0.31507600  0.07039000  0.71726600  1
  Sr  Sr5  1  0.68492400  0.75531300  0.78273400  1
  Sr  Sr6  1  0.68492400  0.92961000  0.28273400  1
  Sr  Sr7  1  0.31507600  0.24468700  0.21726600  1
  Sr  Sr8  1  0.00000000  0.38158200  0.75000000  1
  Sr  Sr9  1  0.00000000  0.61841800  0.25000000  1
  V  V10  1  0.55124700  0.91159900  0.57416100  1
  V  V11  1  0.44875300  0.36035200  0.92583900  1
  V  V12  1  0.44875300  0.08840100  0.42583900  1
  V  V13  1  0.55124700  0.63964800  0.07416100  1
  N  N14  1  0.88011000  0.99117800  0.62839700  1
  N  N15  1  0.11989000  0.11106800  0.87160300  1
  N  N16  1  0.11989000  0.00882200  0.37160300  1
  N  N17  1  0.88011000  0.88893200  0.12839700  1
  N  N18  1  0.30065600  0.69878400  0.64242400  1
  N  N19  1  0.69934400  0.39812800  0.85757600  1
  N  N20  1  0.69934400  0.30121600  0.35757600  1
  N  N21  1  0.30065600  0.60187200  0.14242400  1
  N  N22  1  0.54581700  0.20648400  0.56498100  1
  N  N23  1  0.45418300  0.66066800  0.93501900  1
  N  N24  1  0.45418300  0.79351600  0.43501900  1
  N  N25  1  0.54581700  0.33933200  0.06498100  1
