# generated using pymatgen
data_SmMgMoS4
_symmetry_space_group_name_H-M   'P 1'
_cell_length_a   7.79725402
_cell_length_b   7.70501384
_cell_length_c   7.70506922
_cell_angle_alpha   59.75720581
_cell_angle_beta   59.60241588
_cell_angle_gamma   59.60361683
_symmetry_Int_Tables_number   1
_chemical_formula_structural   SmMgMoS4
_chemical_formula_sum   'Sm2 Mg2 Mo2 S8'
_cell_volume   324.75131296
_cell_formula_units_Z   2
loop_
 _symmetry_equiv_pos_site_id
 _symmetry_equiv_pos_as_xyz
  1  'x, y, z'
loop_
 _atom_site_type_symbol
 _atom_site_label
 _atom_site_symmetry_multiplicity
 _atom_site_fract_x
 _atom_site_fract_y
 _atom_site_fract_z
 _atom_site_occupancy
  Sm  Sm0  1  0.50000200  0.50001900  0.49997300  1
  Sm  Sm1  1  0.00000000  0.49998600  0.50001600  1
  Mg  Mg2  1  0.87314500  0.87685600  0.87685900  1
  Mg  Mg3  1  0.12685400  0.12315100  0.12315000  1
  Mo  Mo4  1  0.49999900  0.49999600  0.00000100  1
  Mo  Mo5  1  0.49999900  0.99999800  0.50000600  1
  S  S6  1  0.71283500  0.75665000  0.75664800  1
  S  S7  1  0.26719400  0.23055200  0.73506800  1
  S  S8  1  0.26719200  0.73506900  0.23053400  1
  S  S9  1  0.72613600  0.24335400  0.24334500  1
  S  S10  1  0.73278900  0.26493500  0.76944400  1
  S  S11  1  0.27386700  0.75663800  0.75665500  1
  S  S12  1  0.28716500  0.24333700  0.24336500  1
  S  S13  1  0.73282700  0.76945400  0.26493500  1
