# generated using pymatgen
data_LaMgWS4
_symmetry_space_group_name_H-M   'P 1'
_cell_length_a   8.10158593
_cell_length_b   7.75685883
_cell_length_c   7.76096393
_cell_angle_alpha   54.99969341
_cell_angle_beta   58.52833636
_cell_angle_gamma   58.52720194
_symmetry_Int_Tables_number   1
_chemical_formula_structural   LaMgWS4
_chemical_formula_sum   'La2 Mg2 W2 S8'
_cell_volume   322.98201435
_cell_formula_units_Z   2
loop_
 _symmetry_equiv_pos_site_id
 _symmetry_equiv_pos_as_xyz
  1  'x, y, z'
loop_
 _atom_site_type_symbol
 _atom_site_label
 _atom_site_symmetry_multiplicity
 _atom_site_fract_x
 _atom_site_fract_y
 _atom_site_fract_z
 _atom_site_occupancy
  La  La0  1  0.50217800  0.49429800  0.49430600  1
  La  La1  1  0.00920800  0.49426900  0.49434900  1
  Mg  Mg2  1  0.86177200  0.88813200  0.88834400  1
  Mg  Mg3  1  0.11188000  0.13816300  0.13809200  1
  W  W4  1  0.50138000  0.55418500  0.94299900  1
  W  W5  1  0.50142700  0.94314800  0.55405100  1
  S  S6  1  0.74144100  0.75516700  0.75500500  1
  S  S7  1  0.28092000  0.19283600  0.74528300  1
  S  S8  1  0.28097900  0.74523300  0.19284900  1
  S  S9  1  0.71796700  0.24021700  0.24023400  1
  S  S10  1  0.72036400  0.27745800  0.78166200  1
  S  S11  1  0.24839400  0.75506400  0.75509800  1
  S  S12  1  0.30158000  0.24014900  0.24030500  1
  S  S13  1  0.72051400  0.78167800  0.27742300  1
