# generated using pymatgen
data_Mg2Mn3FeS8
_symmetry_space_group_name_H-M   'P 1'
_cell_length_a   7.18527075
_cell_length_b   7.18615197
_cell_length_c   7.18629256
_cell_angle_alpha   59.84061445
_cell_angle_beta   59.84946735
_cell_angle_gamma   59.85104894
_symmetry_Int_Tables_number   1
_chemical_formula_structural   Mg2Mn3FeS8
_chemical_formula_sum   'Mg2 Mn3 Fe1 S8'
_cell_volume   261.46843347
_cell_formula_units_Z   1
loop_
 _symmetry_equiv_pos_site_id
 _symmetry_equiv_pos_as_xyz
  1  'x, y, z'
loop_
 _atom_site_type_symbol
 _atom_site_label
 _atom_site_symmetry_multiplicity
 _atom_site_fract_x
 _atom_site_fract_y
 _atom_site_fract_z
 _atom_site_occupancy
  Mg  Mg0  1  0.87562300  0.87564700  0.87568500  1
  Mg  Mg1  1  0.12437200  0.12435500  0.12432100  1
  Mn  Mn2  1  0.50001700  0.49997000  0.99999900  1
  Mn  Mn3  1  0.00000900  0.50003000  0.49996700  1
  Mn  Mn4  1  0.49999000  0.99999600  0.50003100  1
  Fe  Fe5  1  0.50000200  0.49999200  0.50000200  1
  S  S6  1  0.73731300  0.73726400  0.73726500  1
  S  S7  1  0.27196500  0.27194000  0.70837600  1
  S  S8  1  0.27202800  0.70836800  0.27194700  1
  S  S9  1  0.70829800  0.27203500  0.27203300  1
  S  S10  1  0.72798800  0.29164200  0.72802600  1
  S  S11  1  0.29169500  0.72794900  0.72797500  1
  S  S12  1  0.26268000  0.26273500  0.26274900  1
  S  S13  1  0.72802500  0.72807000  0.29162600  1
