# generated using pymatgen
data_Sr3Os3N5
_symmetry_space_group_name_H-M   'P 1'
_cell_length_a   5.93787433
_cell_length_b   7.19815964
_cell_length_c   9.53414098
_cell_angle_alpha   110.55589156
_cell_angle_beta   105.04899146
_cell_angle_gamma   92.33880046
_symmetry_Int_Tables_number   1
_chemical_formula_structural   Sr3Os3N5
_chemical_formula_sum   'Sr6 Os6 N10'
_cell_volume   364.52834117
_cell_formula_units_Z   2
loop_
 _symmetry_equiv_pos_site_id
 _symmetry_equiv_pos_as_xyz
  1  'x, y, z'
loop_
 _atom_site_type_symbol
 _atom_site_label
 _atom_site_symmetry_multiplicity
 _atom_site_fract_x
 _atom_site_fract_y
 _atom_site_fract_z
 _atom_site_occupancy
  Sr  Sr0  1  0.82275800  0.42203300  0.61633300  1
  Sr  Sr1  1  0.17724200  0.57796700  0.38366700  1
  Sr  Sr2  1  0.65988100  0.86506300  0.89318600  1
  Sr  Sr3  1  0.34011900  0.13493700  0.10681400  1
  Sr  Sr4  1  0.66116200  0.69287800  0.21245200  1
  Sr  Sr5  1  0.33883800  0.30712200  0.78754800  1
  Os  Os6  1  0.88308300  0.32471300  0.96950000  1
  Os  Os7  1  0.11691700  0.67528700  0.03050000  1
  Os  Os8  1  0.64603600  0.91512400  0.58866800  1
  Os  Os9  1  0.35396400  0.08487600  0.41133200  1
  Os  Os10  1  0.09298300  0.87255500  0.70864700  1
  Os  Os11  1  0.90701700  0.12744500  0.29135300  1
  N  N12  1  0.89770800  0.10463400  0.78302800  1
  N  N13  1  0.10229200  0.89536600  0.21697200  1
  N  N14  1  0.82148100  0.70380400  0.50015300  1
  N  N15  1  0.17851800  0.29619600  0.49984700  1
  N  N16  1  0.73196100  0.54179200  0.92779100  1
  N  N17  1  0.26803900  0.45820800  0.07220900  1
  N  N18  1  0.35957100  0.90267600  0.64471800  1
  N  N19  1  0.64042900  0.09732400  0.35528200  1
  N  N20  1  0.12817000  0.75698100  0.86474100  1
  N  N21  1  0.87183000  0.24301900  0.13525900  1
