# generated using pymatgen
data_CaC7N10
_symmetry_space_group_name_H-M   'P 1'
_cell_length_a   5.83237450
_cell_length_b   5.65559300
_cell_length_c   8.09806171
_cell_angle_alpha   90.00000000
_cell_angle_beta   106.28687737
_cell_angle_gamma   90.00000000
_symmetry_Int_Tables_number   1
_chemical_formula_structural   CaC7N10
_chemical_formula_sum   'Ca2 C14 N20'
_cell_volume   256.39930709
_cell_formula_units_Z   2
loop_
 _symmetry_equiv_pos_site_id
 _symmetry_equiv_pos_as_xyz
  1  'x, y, z'
loop_
 _atom_site_type_symbol
 _atom_site_label
 _atom_site_symmetry_multiplicity
 _atom_site_fract_x
 _atom_site_fract_y
 _atom_site_fract_z
 _atom_site_occupancy
  Ca  Ca0  1  0.96886500  0.11488800  0.67265200  1
  Ca  Ca1  1  0.96886500  0.88511200  0.17265200  1
  C  C2  1  0.54141300  0.97506700  0.82839100  1
  C  C3  1  0.54141300  0.02493300  0.32839200  1
  C  C4  1  0.35543600  0.02897000  0.02032600  1
  C  C5  1  0.35543600  0.97103000  0.52032600  1
  C  C6  1  0.10906100  0.39065900  0.07333200  1
  C  C7  1  0.10906100  0.60934100  0.57333200  1
  C  C8  1  0.66341600  0.36723700  0.98976300  1
  C  C9  1  0.66341600  0.63276300  0.48976300  1
  C  C10  1  0.84280400  0.63140000  0.80836600  1
  C  C11  1  0.84280400  0.36860000  0.30836600  1
  C  C12  1  0.29624200  0.62372300  0.88592100  1
  C  C13  1  0.29624200  0.37627700  0.38592100  1
  C  C14  1  0.48372500  0.37540200  0.68588400  1
  C  C15  1  0.48372500  0.62459800  0.18588400  1
  N  N16  1  0.75363200  0.84983900  0.83628400  1
  N  N17  1  0.75363200  0.15016100  0.33628400  1
  N  N18  1  0.57862500  0.12423000  0.98306600  1
  N  N19  1  0.57862500  0.87577000  0.48306600  1
  N  N20  1  0.31724600  0.87564800  0.86572700  1
  N  N21  1  0.31724600  0.12435200  0.36572700  1
  N  N22  1  0.14977700  0.16757700  0.00835100  1
  N  N23  1  0.14977700  0.83242300  0.50835100  1
  N  N24  1  0.28266700  0.50306700  0.72597800  1
  N  N25  1  0.28266700  0.49693300  0.22597800  1
  N  N26  1  0.43521800  0.11854300  0.67589400  1
  N  N27  1  0.43521800  0.88145700  0.17589400  1
  N  N28  1  0.88215300  0.40863000  0.12495000  1
  N  N29  1  0.88215300  0.59137000  0.62495000  1
  N  N30  1  0.07956600  0.59424800  0.94220400  1
  N  N31  1  0.07956600  0.40575200  0.44220400  1
  N  N32  1  0.70559100  0.41010700  0.82125700  1
  N  N33  1  0.70559100  0.58989300  0.32125700  1
  N  N34  1  0.49686400  0.54086100  0.02095200  1
  N  N35  1  0.49686400  0.45913900  0.52095200  1
