# generated using pymatgen
data_Ca3Nb3N5
_symmetry_space_group_name_H-M   'P 1'
_cell_length_a   6.03487687
_cell_length_b   7.44502471
_cell_length_c   8.46260425
_cell_angle_alpha   106.73505720
_cell_angle_beta   103.91453795
_cell_angle_gamma   99.88899953
_symmetry_Int_Tables_number   1
_chemical_formula_structural   Ca3Nb3N5
_chemical_formula_sum   'Ca6 Nb6 N10'
_cell_volume   341.35073294
_cell_formula_units_Z   2
loop_
 _symmetry_equiv_pos_site_id
 _symmetry_equiv_pos_as_xyz
  1  'x, y, z'
loop_
 _atom_site_type_symbol
 _atom_site_label
 _atom_site_symmetry_multiplicity
 _atom_site_fract_x
 _atom_site_fract_y
 _atom_site_fract_z
 _atom_site_occupancy
  Ca  Ca0  1  0.80041100  0.45828500  0.61333800  1
  Ca  Ca1  1  0.19958900  0.54171500  0.38666200  1
  Ca  Ca2  1  0.68545200  0.85031000  0.89128200  1
  Ca  Ca3  1  0.31454800  0.14969000  0.10871800  1
  Ca  Ca4  1  0.66463600  0.63034100  0.20039100  1
  Ca  Ca5  1  0.33536400  0.36965900  0.79960900  1
  Nb  Nb6  1  0.88209700  0.30477600  0.94791400  1
  Nb  Nb7  1  0.11790300  0.69522400  0.05208600  1
  Nb  Nb8  1  0.74288800  0.98788400  0.56846700  1
  Nb  Nb9  1  0.25711200  0.01211600  0.43153300  1
  Nb  Nb10  1  0.17194000  0.87848900  0.70173000  1
  Nb  Nb11  1  0.82806000  0.12151100  0.29827000  1
  N  N12  1  0.01168500  0.08171800  0.81866100  1
  N  N13  1  0.98831500  0.91828200  0.18133900  1
  N  N14  1  0.89262800  0.72480600  0.50138500  1
  N  N15  1  0.10737200  0.27519400  0.49861500  1
  N  N16  1  0.75726100  0.54085200  0.89689500  1
  N  N17  1  0.24273900  0.45914800  0.10310500  1
  N  N18  1  0.44298200  0.85148200  0.59437300  1
  N  N19  1  0.55701800  0.14851800  0.40562700  1
  N  N20  1  0.28716900  0.76826800  0.90093500  1
  N  N21  1  0.71283100  0.23173200  0.09906500  1
