# generated using pymatgen
data_SmMg2V3S8
_symmetry_space_group_name_H-M   'P 1'
_cell_length_a   7.52417429
_cell_length_b   7.52500692
_cell_length_c   7.53805910
_cell_angle_alpha   58.54249801
_cell_angle_beta   58.56006213
_cell_angle_gamma   58.47845755
_symmetry_Int_Tables_number   1
_chemical_formula_structural   SmMg2V3S8
_chemical_formula_sum   'Sm1 Mg2 V3 S8'
_cell_volume   291.62573965
_cell_formula_units_Z   1
loop_
 _symmetry_equiv_pos_site_id
 _symmetry_equiv_pos_as_xyz
  1  'x, y, z'
loop_
 _atom_site_type_symbol
 _atom_site_label
 _atom_site_symmetry_multiplicity
 _atom_site_fract_x
 _atom_site_fract_y
 _atom_site_fract_z
 _atom_site_occupancy
  Sm  Sm0  1  0.49998500  0.50000200  0.50000300  1
  Mg  Mg1  1  0.87185300  0.87324400  0.87326700  1
  Mg  Mg2  1  0.12814500  0.12679800  0.12670700  1
  V  V3  1  0.49989400  0.50003400  0.00003800  1
  V  V4  1  0.00000900  0.49998400  0.50001300  1
  V  V5  1  0.50010900  0.99995400  0.49995200  1
  S  S6  1  0.73888000  0.73786600  0.73954600  1
  S  S7  1  0.24221900  0.24050100  0.72388700  1
  S  S8  1  0.24205600  0.72271700  0.24158600  1
  S  S9  1  0.72418300  0.24110400  0.24127900  1
  S  S10  1  0.75785200  0.27733200  0.75847500  1
  S  S11  1  0.27581900  0.75897300  0.75865500  1
  S  S12  1  0.26113600  0.26206100  0.26052000  1
  S  S13  1  0.75786300  0.75942500  0.27607300  1
