# generated using pymatgen
data_Mg2V3InS8
_symmetry_space_group_name_H-M   'P 1'
_cell_length_a   7.45866656
_cell_length_b   7.44554828
_cell_length_c   7.45460804
_cell_angle_alpha   58.43617644
_cell_angle_beta   58.40643413
_cell_angle_gamma   58.43459510
_symmetry_Int_Tables_number   1
_chemical_formula_structural   Mg2V3InS8
_chemical_formula_sum   'Mg2 V3 In1 S8'
_cell_volume   282.18388108
_cell_formula_units_Z   1
loop_
 _symmetry_equiv_pos_site_id
 _symmetry_equiv_pos_as_xyz
  1  'x, y, z'
loop_
 _atom_site_type_symbol
 _atom_site_label
 _atom_site_symmetry_multiplicity
 _atom_site_fract_x
 _atom_site_fract_y
 _atom_site_fract_z
 _atom_site_occupancy
  Mg  Mg0  1  0.87347400  0.87360400  0.87350200  1
  Mg  Mg1  1  0.12652900  0.12639300  0.12651200  1
  V  V2  1  0.50003500  0.50000600  0.99996400  1
  V  V3  1  0.99999100  0.49997800  0.50004100  1
  V  V4  1  0.49998400  0.00000900  0.50001300  1
  In  In5  1  0.49999100  0.49998900  0.49998200  1
  S  S6  1  0.73878600  0.73839500  0.73850400  1
  S  S7  1  0.25047800  0.25063200  0.72044000  1
  S  S8  1  0.25058800  0.72043300  0.25049800  1
  S  S9  1  0.72059100  0.25066200  0.25048900  1
  S  S10  1  0.74939600  0.27955500  0.74948900  1
  S  S11  1  0.27940700  0.74933800  0.74950500  1
  S  S12  1  0.26122200  0.26162400  0.26149300  1
  S  S13  1  0.74953300  0.74937800  0.27956800  1
