# generated using pymatgen
data_Sm3Mg2MnS8
_symmetry_space_group_name_H-M   'P 1'
_cell_length_a   7.93442376
_cell_length_b   7.82397257
_cell_length_c   7.94059305
_cell_angle_alpha   59.31051715
_cell_angle_beta   60.13423413
_cell_angle_gamma   59.41976560
_symmetry_Int_Tables_number   1
_chemical_formula_structural   Sm3Mg2MnS8
_chemical_formula_sum   'Sm3 Mg2 Mn1 S8'
_cell_volume   345.52146016
_cell_formula_units_Z   1
loop_
 _symmetry_equiv_pos_site_id
 _symmetry_equiv_pos_as_xyz
  1  'x, y, z'
loop_
 _atom_site_type_symbol
 _atom_site_label
 _atom_site_symmetry_multiplicity
 _atom_site_fract_x
 _atom_site_fract_y
 _atom_site_fract_z
 _atom_site_occupancy
  Sm  Sm0  1  0.50000200  0.50001500  0.49998500  1
  Sm  Sm1  1  0.50000100  0.49998800  0.99999800  1
  Sm  Sm2  1  0.00000700  0.49999200  0.50000900  1
  Mg  Mg3  1  0.87496600  0.87557200  0.87502300  1
  Mg  Mg4  1  0.12501500  0.12443000  0.12498600  1
  Mn  Mn5  1  0.50000100  0.00002400  0.50000100  1
  S  S6  1  0.72953300  0.77281500  0.72944500  1
  S  S7  1  0.26825700  0.22989300  0.73429900  1
  S  S8  1  0.25284000  0.74054300  0.25265900  1
  S  S9  1  0.73305900  0.22821700  0.26975400  1
  S  S10  1  0.74714700  0.25945700  0.74732600  1
  S  S11  1  0.26695100  0.77177900  0.73023900  1
  S  S12  1  0.27046100  0.22716500  0.27058000  1
  S  S13  1  0.73176300  0.77010500  0.26569700  1
