# generated using pymatgen
data_Co(C2N3)3
_symmetry_space_group_name_H-M   'P 1'
_cell_length_a   7.35489322
_cell_length_b   12.84788161
_cell_length_c   12.11214500
_cell_angle_alpha   90.00000000
_cell_angle_beta   90.00000000
_cell_angle_gamma   29.14099116
_symmetry_Int_Tables_number   1
_chemical_formula_structural   Co(C2N3)3
_chemical_formula_sum   'Co2 C12 N18'
_cell_volume   557.34304542
_cell_formula_units_Z   2
loop_
 _symmetry_equiv_pos_site_id
 _symmetry_equiv_pos_as_xyz
  1  'x, y, z'
loop_
 _atom_site_type_symbol
 _atom_site_label
 _atom_site_symmetry_multiplicity
 _atom_site_fract_x
 _atom_site_fract_y
 _atom_site_fract_z
 _atom_site_occupancy
  Co  Co0  1  0.00000000  0.30266500  0.25000000  1
  Co  Co1  1  0.00000000  0.69733500  0.75000000  1
  C  C2  1  0.68024300  0.80327300  0.25000000  1
  C  C3  1  0.68024300  0.51648300  0.75000000  1
  C  C4  1  0.31975700  0.19672700  0.75000000  1
  C  C5  1  0.31975700  0.48351700  0.25000000  1
  C  C6  1  0.68075700  0.30387600  0.89905800  1
  C  C7  1  0.68075700  0.01536700  0.10094200  1
  C  C8  1  0.68075700  0.30387600  0.60094200  1
  C  C9  1  0.68075700  0.01536700  0.39905800  1
  C  C10  1  0.31924300  0.69612400  0.10094200  1
  C  C11  1  0.31924300  0.98463300  0.89905800  1
  C  C12  1  0.31924300  0.69612400  0.39905800  1
  C  C13  1  0.31924300  0.98463300  0.60094200  1
  N  N14  1  0.00000000  0.59758400  0.25000000  1
  N  N15  1  0.00000000  0.40241600  0.75000000  1
  N  N16  1  0.37585100  0.99084300  0.25000000  1
  N  N17  1  0.37585100  0.63330600  0.75000000  1
  N  N18  1  0.62414900  0.00915700  0.75000000  1
  N  N19  1  0.62414900  0.36669400  0.25000000  1
  N  N20  1  0.00000000  0.15863600  0.94623100  1
  N  N21  1  0.00000000  0.84136400  0.05376900  1
  N  N22  1  0.00000000  0.15863600  0.55376900  1
  N  N23  1  0.00000000  0.84136400  0.44623100  1
  N  N24  1  0.37865300  0.44370800  0.86175000  1
  N  N25  1  0.37865300  0.17763900  0.13825000  1
  N  N26  1  0.37865300  0.44370800  0.63825000  1
  N  N27  1  0.37865300  0.17763900  0.36175000  1
  N  N28  1  0.62134700  0.55629200  0.13825000  1
  N  N29  1  0.62134700  0.82236100  0.86175000  1
  N  N30  1  0.62134700  0.55629200  0.36175000  1
  N  N31  1  0.62134700  0.82236100  0.63825000  1
