# generated using pymatgen
data_Ti3Si6N11
_symmetry_space_group_name_H-M   'P 1'
_cell_length_a   9.72253620
_cell_length_b   9.72253620
_cell_length_c   4.81054727
_cell_angle_alpha   90.00000000
_cell_angle_beta   90.00000000
_cell_angle_gamma   90.00000000
_symmetry_Int_Tables_number   1
_chemical_formula_structural   Ti3Si6N11
_chemical_formula_sum   'Ti6 Si12 N22'
_cell_volume   454.73001805
_cell_formula_units_Z   2
loop_
 _symmetry_equiv_pos_site_id
 _symmetry_equiv_pos_as_xyz
  1  'x, y, z'
loop_
 _atom_site_type_symbol
 _atom_site_label
 _atom_site_symmetry_multiplicity
 _atom_site_fract_x
 _atom_site_fract_y
 _atom_site_fract_z
 _atom_site_occupancy
  Ti  Ti0  1  0.30306674  0.80306674  0.93566537  1
  Ti  Ti1  1  0.69693326  0.19693326  0.93566537  1
  Ti  Ti2  1  0.19693326  0.30306674  0.93566537  1
  Ti  Ti3  1  0.80306674  0.69693326  0.93566537  1
  Ti  Ti4  1  0.50000000  0.50000000  0.96880027  1
  Ti  Ti5  1  0.00000000  -0.00000000  0.96880027  1
  Si  Si6  1  0.41722538  0.29695266  0.53043105  1
  Si  Si7  1  0.58277462  0.70304734  0.53043105  1
  Si  Si8  1  0.08277462  0.79695266  0.53043105  1
  Si  Si9  1  0.91722538  0.20304734  0.53043105  1
  Si  Si10  1  0.29695266  0.58277462  0.53043105  1
  Si  Si11  1  0.70304734  0.41722538  0.53043105  1
  Si  Si12  1  0.79695266  0.91722538  0.53043105  1
  Si  Si13  1  0.20304734  0.08277462  0.53043105  1
  Si  Si14  1  0.88033141  0.38033141  0.04913662  1
  Si  Si15  1  0.11966859  0.61966859  0.04913662  1
  Si  Si16  1  0.61966859  0.88033141  0.04913662  1
  Si  Si17  1  0.38033141  0.11966859  0.04913662  1
  N  N18  1  0.31815360  0.42482372  0.68018125  1
  N  N19  1  0.68184640  0.57517628  0.68018125  1
  N  N20  1  0.18184640  0.92482372  0.68018125  1
  N  N21  1  0.81815360  0.07517628  0.68018125  1
  N  N22  1  0.42482372  0.68184640  0.68018125  1
  N  N23  1  0.57517628  0.31815360  0.68018125  1
  N  N24  1  0.92482372  0.81815360  0.68018125  1
  N  N25  1  0.07517628  0.18184640  0.68018125  1
  N  N26  1  0.41051175  0.28808942  0.17391245  1
  N  N27  1  0.58948825  0.71191058  0.17391245  1
  N  N28  1  0.08948825  0.78808942  0.17391245  1
  N  N29  1  0.91051175  0.21191058  0.17391245  1
  N  N30  1  0.28808942  0.58948825  0.17391245  1
  N  N31  1  0.71191058  0.41051175  0.17391245  1
  N  N32  1  0.78808942  0.91051175  0.17391245  1
  N  N33  1  0.21191058  0.08948825  0.17391245  1
  N  N34  1  0.84294686  0.34294686  0.69866367  1
  N  N35  1  0.15705314  0.65705314  0.69866367  1
  N  N36  1  0.65705314  0.84294686  0.69866367  1
  N  N37  1  0.34294686  0.15705314  0.69866367  1
  N  N38  1  0.50000000  -0.00000000  0.09470740  1
  N  N39  1  0.00000000  0.50000000  0.09470740  1
