# generated using pymatgen
data_Fe4IrN4
_symmetry_space_group_name_H-M   'P 1'
_cell_length_a   5.64608659
_cell_length_b   5.75338325
_cell_length_c   7.58775019
_cell_angle_alpha   57.59445630
_cell_angle_beta   67.19623710
_cell_angle_gamma   56.72039645
_symmetry_Int_Tables_number   1
_chemical_formula_structural   Fe4IrN4
_chemical_formula_sum   'Fe8 Ir2 N8'
_cell_volume   172.43714613
_cell_formula_units_Z   2
loop_
 _symmetry_equiv_pos_site_id
 _symmetry_equiv_pos_as_xyz
  1  'x, y, z'
loop_
 _atom_site_type_symbol
 _atom_site_label
 _atom_site_symmetry_multiplicity
 _atom_site_fract_x
 _atom_site_fract_y
 _atom_site_fract_z
 _atom_site_occupancy
  Fe  Fe0  1  0.74393900  0.59159300  0.21845100  1
  Fe  Fe1  1  0.25606100  0.40840700  0.78154900  1
  Fe  Fe2  1  0.68322400  0.19999500  0.02928300  1
  Fe  Fe3  1  0.31677600  0.80000500  0.97071700  1
  Fe  Fe4  1  0.75322900  0.51258600  0.57604100  1
  Fe  Fe5  1  0.24677100  0.48741400  0.42395900  1
  Fe  Fe6  1  0.28658200  0.94241800  0.59188200  1
  Fe  Fe7  1  0.71341800  0.05758200  0.40811800  1
  Ir  Ir8  1  0.79727000  0.93093200  0.77780900  1
  Ir  Ir9  1  0.20273000  0.06906800  0.22219100  1
  N  N10  1  0.94895700  0.66636800  0.61228400  1
  N  N11  1  0.05104300  0.33363200  0.38771600  1
  N  N12  1  0.94981100  0.81680600  0.01613700  1
  N  N13  1  0.05018900  0.18319400  0.98386300  1
  N  N14  1  0.46946400  0.54741900  0.80963700  1
  N  N15  1  0.53053600  0.45258100  0.19036300  1
  N  N16  1  0.57025500  0.89182300  0.33519100  1
  N  N17  1  0.42974500  0.10817700  0.66481000  1
