# generated using pymatgen
data_Ba3(OsN2)2
_symmetry_space_group_name_H-M   'P 1'
_cell_length_a   6.48364760
_cell_length_b   10.83467092
_cell_length_c   9.79439592
_cell_angle_alpha   90.00000000
_cell_angle_beta   90.00000000
_cell_angle_gamma   90.00000000
_symmetry_Int_Tables_number   1
_chemical_formula_structural   Ba3(OsN2)2
_chemical_formula_sum   'Ba12 Os8 N16'
_cell_volume   688.03856699
_cell_formula_units_Z   4
loop_
 _symmetry_equiv_pos_site_id
 _symmetry_equiv_pos_as_xyz
  1  'x, y, z'
loop_
 _atom_site_type_symbol
 _atom_site_label
 _atom_site_symmetry_multiplicity
 _atom_site_fract_x
 _atom_site_fract_y
 _atom_site_fract_z
 _atom_site_occupancy
  Ba  Ba0  1  0.63599183  0.15876929  0.42354238  1
  Ba  Ba1  1  0.86400817  0.84123071  0.42354238  1
  Ba  Ba2  1  0.63599183  0.34123071  0.07645762  1
  Ba  Ba3  1  0.86400817  0.65876929  0.07645762  1
  Ba  Ba4  1  0.36400817  0.84123071  0.57645762  1
  Ba  Ba5  1  0.13599183  0.15876929  0.57645762  1
  Ba  Ba6  1  0.36400817  0.65876929  0.92354238  1
  Ba  Ba7  1  0.13599183  0.34123071  0.92354238  1
  Ba  Ba8  1  0.75000000  0.50000000  0.40891227  1
  Ba  Ba9  1  0.75000000  -0.00000000  0.09108773  1
  Ba  Ba10  1  0.25000000  0.50000000  0.59108773  1
  Ba  Ba11  1  0.25000000  -0.00000000  0.90891227  1
  Os  Os12  1  0.75000000  0.50000000  0.74219460  1
  Os  Os13  1  0.75000000  -0.00000000  0.75780540  1
  Os  Os14  1  0.25000000  0.50000000  0.25780540  1
  Os  Os15  1  0.25000000  -0.00000000  0.24219460  1
  Os  Os16  1  0.70038439  0.25000000  0.75000000  1
  Os  Os17  1  0.79961561  0.75000000  0.75000000  1
  Os  Os18  1  0.29961561  0.75000000  0.25000000  1
  Os  Os19  1  0.20038439  0.25000000  0.25000000  1
  N  N20  1  0.89722070  0.35796305  0.65768322  1
  N  N21  1  0.60277930  0.64203695  0.65768322  1
  N  N22  1  0.89722070  0.14203695  0.84231678  1
  N  N23  1  0.60277930  0.85796305  0.84231678  1
  N  N24  1  0.10277930  0.64203695  0.34231678  1
  N  N25  1  0.39722070  0.35796305  0.34231678  1
  N  N26  1  0.10277930  0.85796305  0.15768322  1
  N  N27  1  0.39722070  0.14203695  0.15768322  1
  N  N28  1  0.49220055  0.39171005  0.79121319  1
  N  N29  1  0.00779945  0.60828995  0.79121319  1
  N  N30  1  0.49220055  0.10828995  0.70878681  1
  N  N31  1  0.00779945  0.89171005  0.70878681  1
  N  N32  1  0.50779945  0.60828995  0.20878681  1
  N  N33  1  0.99220055  0.39171005  0.20878681  1
  N  N34  1  0.50779945  0.89171005  0.29121319  1
  N  N35  1  0.99220055  0.10828995  0.29121319  1
