# generated using pymatgen
data_Ca4PtN4
_symmetry_space_group_name_H-M   'P 1'
_cell_length_a   6.12284073
_cell_length_b   6.00353906
_cell_length_c   8.56734962
_cell_angle_alpha   67.36597667
_cell_angle_beta   81.32011450
_cell_angle_gamma   74.47808113
_symmetry_Int_Tables_number   1
_chemical_formula_structural   Ca4PtN4
_chemical_formula_sum   'Ca8 Pt2 N8'
_cell_volume   279.66156176
_cell_formula_units_Z   2
loop_
 _symmetry_equiv_pos_site_id
 _symmetry_equiv_pos_as_xyz
  1  'x, y, z'
loop_
 _atom_site_type_symbol
 _atom_site_label
 _atom_site_symmetry_multiplicity
 _atom_site_fract_x
 _atom_site_fract_y
 _atom_site_fract_z
 _atom_site_occupancy
  Ca  Ca0  1  0.80396473  0.56714021  0.14870513  1
  Ca  Ca1  1  0.19603527  0.43285979  0.85129487  1
  Ca  Ca2  1  0.70000851  0.17205818  0.98557839  1
  Ca  Ca3  1  0.29999149  0.82794182  0.01442161  1
  Ca  Ca4  1  0.73959364  0.45561065  0.58204550  1
  Ca  Ca5  1  0.26040636  0.54438935  0.41795450  1
  Ca  Ca6  1  0.21169788  0.97019258  0.62693444  1
  Ca  Ca7  1  0.78830212  0.02980742  0.37306556  1
  Pt  Pt8  1  0.72250291  0.84068100  0.75797394  1
  Pt  Pt9  1  0.27749709  0.15931900  0.24202606  1
  N  N10  1  0.99064223  0.67502256  0.60963023  1
  N  N11  1  0.00935777  0.32497744  0.39036977  1
  N  N12  1  0.97148642  0.86077387  0.88148276  1
  N  N13  1  0.02851358  0.13922613  0.11851724  1
  N  N14  1  0.50976356  0.62396331  0.77870809  1
  N  N15  1  0.49023644  0.37603669  0.22129191  1
  N  N16  1  0.53831827  0.86708512  0.24054455  1
  N  N17  1  0.46168173  0.13291488  0.75945545  1
