# generated using pymatgen
data_Sr3Re3N5
_symmetry_space_group_name_H-M   'P 1'
_cell_length_a   6.05484380
_cell_length_b   7.09009237
_cell_length_c   9.16828779
_cell_angle_alpha   106.94219771
_cell_angle_beta   103.37325202
_cell_angle_gamma   94.84105975
_symmetry_Int_Tables_number   1
_chemical_formula_structural   Sr3Re3N5
_chemical_formula_sum   'Sr6 Re6 N10'
_cell_volume   361.39264523
_cell_formula_units_Z   2
loop_
 _symmetry_equiv_pos_site_id
 _symmetry_equiv_pos_as_xyz
  1  'x, y, z'
loop_
 _atom_site_type_symbol
 _atom_site_label
 _atom_site_symmetry_multiplicity
 _atom_site_fract_x
 _atom_site_fract_y
 _atom_site_fract_z
 _atom_site_occupancy
  Sr  Sr0  1  0.81168300  0.42945300  0.61686700  1
  Sr  Sr1  1  0.18831700  0.57054700  0.38313300  1
  Sr  Sr2  1  0.64162500  0.86801200  0.88344900  1
  Sr  Sr3  1  0.35837500  0.13198800  0.11655100  1
  Sr  Sr4  1  0.66099500  0.65285200  0.20341800  1
  Sr  Sr5  1  0.33900500  0.34714800  0.79658200  1
  Re  Re6  1  0.90040700  0.31568300  0.97024900  1
  Re  Re7  1  0.09959300  0.68431700  0.02975100  1
  Re  Re8  1  0.68137200  0.92956800  0.56369400  1
  Re  Re9  1  0.31862800  0.07043200  0.43630600  1
  Re  Re10  1  0.10491500  0.89094900  0.69403600  1
  Re  Re11  1  0.89508500  0.10905100  0.30596400  1
  N  N12  1  0.90496400  0.10968600  0.77870700  1
  N  N13  1  0.09503600  0.89031400  0.22129300  1
  N  N14  1  0.86991800  0.71989300  0.49626300  1
  N  N15  1  0.13008200  0.28010700  0.50373700  1
  N  N16  1  0.75647000  0.54151700  0.92101500  1
  N  N17  1  0.24353000  0.45848300  0.07898500  1
  N  N18  1  0.37329200  0.94458000  0.61883900  1
  N  N19  1  0.62670800  0.05542000  0.38116100  1
  N  N20  1  0.15775000  0.77747000  0.86249100  1
  N  N21  1  0.84225000  0.22253000  0.13750900  1
