# generated using pymatgen
data_HfCrAgS4
_symmetry_space_group_name_H-M   'P 1'
_cell_length_a   11.34455700
_cell_length_b   3.59526900
_cell_length_c   13.19479700
_cell_angle_alpha   90.00000000
_cell_angle_beta   90.00000000
_cell_angle_gamma   90.00000000
_symmetry_Int_Tables_number   1
_chemical_formula_structural   HfCrAgS4
_chemical_formula_sum   'Hf4 Cr4 Ag4 S16'
_cell_volume   538.17267675
_cell_formula_units_Z   4
loop_
 _symmetry_equiv_pos_site_id
 _symmetry_equiv_pos_as_xyz
  1  'x, y, z'
loop_
 _atom_site_type_symbol
 _atom_site_label
 _atom_site_symmetry_multiplicity
 _atom_site_fract_x
 _atom_site_fract_y
 _atom_site_fract_z
 _atom_site_occupancy
  Hf  Hf0  1  0.95323100  0.75000000  0.88568900  1
  Hf  Hf1  1  0.54676900  0.25000000  0.38568900  1
  Hf  Hf2  1  0.92828700  0.75000000  0.41181600  1
  Hf  Hf3  1  0.57171300  0.25000000  0.91181600  1
  Cr  Cr4  1  0.06203000  0.25000000  0.11019700  1
  Cr  Cr5  1  0.43797000  0.75000000  0.61019700  1
  Cr  Cr6  1  0.09208600  0.25000000  0.59454500  1
  Cr  Cr7  1  0.40791400  0.75000000  0.09454500  1
  Ag  Ag8  1  0.24391700  0.25000000  0.30958900  1
  Ag  Ag9  1  0.74709900  0.75000000  0.66637400  1
  Ag  Ag10  1  0.25608300  0.75000000  0.80958900  1
  Ag  Ag11  1  0.75290100  0.25000000  0.16637400  1
  S  S12  1  0.04535600  0.75000000  0.71021100  1
  S  S13  1  0.97737700  0.25000000  0.28547200  1
  S  S14  1  0.45464400  0.25000000  0.21021100  1
  S  S15  1  0.52262300  0.75000000  0.78547200  1
  S  S16  1  0.09943400  0.25000000  0.93226900  1
  S  S17  1  0.91928300  0.75000000  0.07633100  1
  S  S18  1  0.40056600  0.75000000  0.43226900  1
  S  S19  1  0.58071700  0.25000000  0.57633100  1
  S  S20  1  0.13133500  0.75000000  0.47824600  1
  S  S21  1  0.88390300  0.25000000  0.54301400  1
  S  S22  1  0.36866500  0.25000000  0.97824600  1
  S  S23  1  0.61609700  0.75000000  0.04301400  1
  S  S24  1  0.19986600  0.75000000  0.14970900  1
  S  S25  1  0.79727200  0.25000000  0.84653700  1
  S  S26  1  0.30013400  0.25000000  0.64970900  1
  S  S27  1  0.70272800  0.75000000  0.34653700  1
