# generated using pymatgen
data_Ca3(CN2)2
_symmetry_space_group_name_H-M   'P 1'
_cell_length_a   7.11911419
_cell_length_b   10.53388155
_cell_length_c   5.37811981
_cell_angle_alpha   90.00000021
_cell_angle_beta   99.23058416
_cell_angle_gamma   137.71702006
_symmetry_Int_Tables_number   1
_chemical_formula_structural   Ca3(CN2)2
_chemical_formula_sum   'Ca6 C4 N8'
_cell_volume   263.52255063
_cell_formula_units_Z   2
loop_
 _symmetry_equiv_pos_site_id
 _symmetry_equiv_pos_as_xyz
  1  'x, y, z'
loop_
 _atom_site_type_symbol
 _atom_site_label
 _atom_site_symmetry_multiplicity
 _atom_site_fract_x
 _atom_site_fract_y
 _atom_site_fract_z
 _atom_site_occupancy
  Ca  Ca0  1  0.25182100  0.99360500  0.06525000  1
  Ca  Ca1  1  0.74817900  0.74178500  0.43475000  1
  Ca  Ca2  1  0.74817900  0.00639500  0.93475000  1
  Ca  Ca3  1  0.25182100  0.25821500  0.56525000  1
  Ca  Ca4  1  0.00000000  0.55006300  0.75000000  1
  Ca  Ca5  1  0.00000000  0.44993700  0.25000000  1
  C  C6  1  0.52102100  0.15034700  0.67074900  1
  C  C7  1  0.47897900  0.62932600  0.82925100  1
  C  C8  1  0.47897900  0.84965300  0.32925100  1
  C  C9  1  0.52102100  0.37067400  0.17074900  1
  N  N10  1  0.25465700  0.01544000  0.55119500  1
  N  N11  1  0.74534300  0.76078300  0.94880500  1
  N  N12  1  0.74534300  0.98456000  0.44880500  1
  N  N13  1  0.25465700  0.23921700  0.05119500  1
  N  N14  1  0.70471000  0.21925900  0.88384700  1
  N  N15  1  0.29529000  0.51454900  0.61615300  1
  N  N16  1  0.29529000  0.78074100  0.11615300  1
  N  N17  1  0.70471000  0.48545100  0.38384700  1
