# generated using pymatgen
data_CoGe7N10
_symmetry_space_group_name_H-M   'P 1'
_cell_length_a   6.84741276
_cell_length_b   7.44678300
_cell_length_c   10.28667839
_cell_angle_alpha   90.00000000
_cell_angle_beta   103.57647107
_cell_angle_gamma   90.00000000
_symmetry_Int_Tables_number   1
_chemical_formula_structural   CoGe7N10
_chemical_formula_sum   'Co2 Ge14 N20'
_cell_volume   509.87335301
_cell_formula_units_Z   2
loop_
 _symmetry_equiv_pos_site_id
 _symmetry_equiv_pos_as_xyz
  1  'x, y, z'
loop_
 _atom_site_type_symbol
 _atom_site_label
 _atom_site_symmetry_multiplicity
 _atom_site_fract_x
 _atom_site_fract_y
 _atom_site_fract_z
 _atom_site_occupancy
  Co  Co0  1  0.99975000  0.87520100  0.70671500  1
  Co  Co1  1  0.99975000  0.12479900  0.20671500  1
  Ge  Ge2  1  0.54251900  0.98105000  0.81468300  1
  Ge  Ge3  1  0.54251900  0.01895000  0.31468300  1
  Ge  Ge4  1  0.32941000  0.01667500  0.01717000  1
  Ge  Ge5  1  0.32941000  0.98332500  0.51717000  1
  Ge  Ge6  1  0.11598700  0.39600500  0.07365700  1
  Ge  Ge7  1  0.11598700  0.60399500  0.57365700  1
  Ge  Ge8  1  0.65510000  0.35005200  0.98873800  1
  Ge  Ge9  1  0.65510000  0.64994800  0.48873800  1
  Ge  Ge10  1  0.84140700  0.62004800  0.81829300  1
  Ge  Ge11  1  0.84140700  0.37995200  0.31829300  1
  Ge  Ge12  1  0.30326000  0.62599700  0.87928800  1
  Ge  Ge13  1  0.30326000  0.37400300  0.37928800  1
  Ge  Ge14  1  0.49322500  0.36252200  0.68246900  1
  Ge  Ge15  1  0.49322500  0.63747800  0.18246900  1
  N  N16  1  0.77546100  0.85824100  0.81597300  1
  N  N17  1  0.77546100  0.14175900  0.31597300  1
  N  N18  1  0.53273400  0.13429300  0.95823300  1
  N  N19  1  0.53273400  0.86570700  0.45823300  1
  N  N20  1  0.28981900  0.87587400  0.85305700  1
  N  N21  1  0.28981900  0.12412600  0.35305700  1
  N  N22  1  0.13035600  0.14974800  0.05776000  1
  N  N23  1  0.13035600  0.85025200  0.55776000  1
  N  N24  1  0.29788700  0.51211100  0.72038700  1
  N  N25  1  0.29788700  0.48788900  0.22038700  1
  N  N26  1  0.44595500  0.12200400  0.66444100  1
  N  N27  1  0.44595500  0.87799600  0.16444100  1
  N  N28  1  0.87948700  0.35688100  0.13583500  1
  N  N29  1  0.87948700  0.64311900  0.63583500  1
  N  N30  1  0.08024500  0.57173700  0.94283800  1
  N  N31  1  0.08024500  0.42826300  0.44283800  1
  N  N32  1  0.71321400  0.40178200  0.82347300  1
  N  N33  1  0.71321400  0.59821800  0.32347300  1
  N  N34  1  0.51648500  0.55441100  0.01628800  1
  N  N35  1  0.51648500  0.44558900  0.51628800  1
