# generated using pymatgen
data_Si2AgN3
_symmetry_space_group_name_H-M   'P 1'
_cell_length_a   2.85677600
_cell_length_b   2.85677549
_cell_length_c   25.74472700
_cell_angle_alpha   90.00000000
_cell_angle_beta   90.00000000
_cell_angle_gamma   120.00000591
_symmetry_Int_Tables_number   1
_chemical_formula_structural   Si2AgN3
_chemical_formula_sum   'Si6 Ag3 N9'
_cell_volume   181.95801755
_cell_formula_units_Z   3
loop_
 _symmetry_equiv_pos_site_id
 _symmetry_equiv_pos_as_xyz
  1  'x, y, z'
loop_
 _atom_site_type_symbol
 _atom_site_label
 _atom_site_symmetry_multiplicity
 _atom_site_fract_x
 _atom_site_fract_y
 _atom_site_fract_z
 _atom_site_occupancy
  Si  Si0  1  0.33137600  0.02246100  0.11506900  1
  Si  Si1  1  0.69108400  0.66862400  0.78173500  1
  Si  Si2  1  0.97753900  0.30891600  0.44840200  1
  Si  Si3  1  0.66862400  0.69108400  0.21826500  1
  Si  Si4  1  0.02246100  0.33137600  0.88493100  1
  Si  Si5  1  0.30891600  0.97753900  0.55159800  1
  Ag  Ag6  1  0.00000000  0.35092200  0.66666700  1
  Ag  Ag7  1  0.35092200  0.00000000  0.33333300  1
  Ag  Ag8  1  0.64907800  0.64907800  0.00000000  1
  N  N9  1  0.00000000  0.20616300  0.16666700  1
  N  N10  1  0.20616300  0.00000000  0.83333300  1
  N  N11  1  0.79383700  0.79383700  0.50000000  1
  N  N12  1  0.32795800  0.98434200  0.41839000  1
  N  N13  1  0.65638500  0.67204200  0.08505600  1
  N  N14  1  0.01565800  0.34361500  0.75172300  1
  N  N15  1  0.67204200  0.65638500  0.91494400  1
  N  N16  1  0.98434200  0.32795800  0.58161000  1
  N  N17  1  0.34361500  0.01565800  0.24827700  1
