# generated using pymatgen
data_Mg4SiN4
_symmetry_space_group_name_H-M   'P 1'
_cell_length_a   5.22345200
_cell_length_b   10.27480600
_cell_length_c   8.37497900
_cell_angle_alpha   90.00000000
_cell_angle_beta   90.00000000
_cell_angle_gamma   90.00000000
_symmetry_Int_Tables_number   1
_chemical_formula_structural   Mg4SiN4
_chemical_formula_sum   'Mg16 Si4 N16'
_cell_volume   449.48475401
_cell_formula_units_Z   4
loop_
 _symmetry_equiv_pos_site_id
 _symmetry_equiv_pos_as_xyz
  1  'x, y, z'
loop_
 _atom_site_type_symbol
 _atom_site_label
 _atom_site_symmetry_multiplicity
 _atom_site_fract_x
 _atom_site_fract_y
 _atom_site_fract_z
 _atom_site_occupancy
  Mg  Mg0  1  0.14894100  0.37073100  0.60847100  1
  Mg  Mg1  1  0.35105900  0.62926900  0.60847100  1
  Mg  Mg2  1  0.14894100  0.12926900  0.89152900  1
  Mg  Mg3  1  0.35105900  0.87073100  0.89152900  1
  Mg  Mg4  1  0.85105900  0.62926900  0.39152900  1
  Mg  Mg5  1  0.64894100  0.37073100  0.39152900  1
  Mg  Mg6  1  0.85105900  0.87073100  0.10847100  1
  Mg  Mg7  1  0.64894100  0.12926900  0.10847100  1
  Mg  Mg8  1  0.75000000  0.50000000  0.05423400  1
  Mg  Mg9  1  0.75000000  0.00000000  0.44576600  1
  Mg  Mg10  1  0.25000000  0.50000000  0.94576600  1
  Mg  Mg11  1  0.25000000  0.00000000  0.55423400  1
  Mg  Mg12  1  0.69200200  0.25000000  0.75000000  1
  Mg  Mg13  1  0.80799800  0.75000000  0.75000000  1
  Mg  Mg14  1  0.30799800  0.75000000  0.25000000  1
  Mg  Mg15  1  0.19200200  0.25000000  0.25000000  1
  Si  Si16  1  0.75000000  0.50000000  0.73400100  1
  Si  Si17  1  0.75000000  0.00000000  0.76599900  1
  Si  Si18  1  0.25000000  0.50000000  0.26599900  1
  Si  Si19  1  0.25000000  0.00000000  0.23400100  1
  N  N20  1  0.53559000  0.39984500  0.62714000  1
  N  N21  1  0.96441000  0.60015500  0.62714000  1
  N  N22  1  0.53559000  0.10015500  0.87286000  1
  N  N23  1  0.96441000  0.89984500  0.87286000  1
  N  N24  1  0.46441000  0.60015500  0.37286000  1
  N  N25  1  0.03559000  0.39984500  0.37286000  1
  N  N26  1  0.46441000  0.89984500  0.12714000  1
  N  N27  1  0.03559000  0.10015500  0.12714000  1
  N  N28  1  0.94602100  0.10729200  0.65165900  1
  N  N29  1  0.55397900  0.89270700  0.65165900  1
  N  N30  1  0.94602100  0.39270700  0.84834100  1
  N  N31  1  0.55397900  0.60729300  0.84834100  1
  N  N32  1  0.05397900  0.89270700  0.34834100  1
  N  N33  1  0.44602100  0.10729200  0.34834100  1
  N  N34  1  0.05397900  0.60729300  0.15165900  1
  N  N35  1  0.44602100  0.39270700  0.15165900  1
