# generated using pymatgen
data_Re(PbN)3
_symmetry_space_group_name_H-M   'P 1'
_cell_length_a   8.26931766
_cell_length_b   7.07661821
_cell_length_c   5.82403600
_cell_angle_alpha   90.00000000
_cell_angle_beta   90.00000000
_cell_angle_gamma   114.38121965
_symmetry_Int_Tables_number   1
_chemical_formula_structural   Re(PbN)3
_chemical_formula_sum   'Re2 Pb6 N6'
_cell_volume   310.42134958
_cell_formula_units_Z   2
loop_
 _symmetry_equiv_pos_site_id
 _symmetry_equiv_pos_as_xyz
  1  'x, y, z'
loop_
 _atom_site_type_symbol
 _atom_site_label
 _atom_site_symmetry_multiplicity
 _atom_site_fract_x
 _atom_site_fract_y
 _atom_site_fract_z
 _atom_site_occupancy
  Re  Re0  1  0.77892300  0.38024900  0.75000000  1
  Re  Re1  1  0.22107700  0.61975100  0.25000000  1
  Pb  Pb2  1  0.79398800  0.65438200  0.25000000  1
  Pb  Pb3  1  0.79833500  0.16487700  0.25000000  1
  Pb  Pb4  1  0.31087600  0.15873500  0.25000000  1
  Pb  Pb5  1  0.20601200  0.34561800  0.75000000  1
  Pb  Pb6  1  0.20166500  0.83512300  0.75000000  1
  Pb  Pb7  1  0.68912400  0.84126500  0.75000000  1
  N  N8  1  0.88063400  0.67064200  0.75000000  1
  N  N9  1  0.88557300  0.19232500  0.75000000  1
  N  N10  1  0.54736600  0.26602300  0.75000000  1
  N  N11  1  0.11936600  0.32935800  0.25000000  1
  N  N12  1  0.11442700  0.80767500  0.25000000  1
  N  N13  1  0.45263400  0.73397700  0.25000000  1
