# generated using pymatgen
data_Ga4Te3N2
_symmetry_space_group_name_H-M   'P 1'
_cell_length_a   6.37351300
_cell_length_b   11.34036400
_cell_length_c   11.99517500
_cell_angle_alpha   90.00001488
_cell_angle_beta   90.00000000
_cell_angle_gamma   90.00000000
_symmetry_Int_Tables_number   1
_chemical_formula_structural   Ga4Te3N2
_chemical_formula_sum   'Ga16 Te12 N8'
_cell_volume   866.98674740
_cell_formula_units_Z   4
loop_
 _symmetry_equiv_pos_site_id
 _symmetry_equiv_pos_as_xyz
  1  'x, y, z'
loop_
 _atom_site_type_symbol
 _atom_site_label
 _atom_site_symmetry_multiplicity
 _atom_site_fract_x
 _atom_site_fract_y
 _atom_site_fract_z
 _atom_site_occupancy
  Ga  Ga0  1  0.56751400  0.25000000  0.88257800  1
  Ga  Ga1  1  0.06751500  0.25000000  0.61742200  1
  Ga  Ga2  1  0.43248600  0.75000000  0.11742200  1
  Ga  Ga3  1  0.93248500  0.75000000  0.38257800  1
  Ga  Ga4  1  0.94370600  0.25000000  0.38366700  1
  Ga  Ga5  1  0.44370600  0.25000000  0.11633300  1
  Ga  Ga6  1  0.05629400  0.75000000  0.61633300  1
  Ga  Ga7  1  0.55629400  0.75000000  0.88366700  1
  Ga  Ga8  1  0.71402800  0.50001400  0.00941800  1
  Ga  Ga9  1  0.21402800  0.99998600  0.49058200  1
  Ga  Ga10  1  0.28597100  0.00001400  0.99058200  1
  Ga  Ga11  1  0.78597100  0.49998600  0.50941800  1
  Ga  Ga12  1  0.28597200  0.49998600  0.99058200  1
  Ga  Ga13  1  0.78597200  0.00001400  0.50941800  1
  Ga  Ga14  1  0.71402900  0.99998600  0.00941800  1
  Ga  Ga15  1  0.21402900  0.50001400  0.49058200  1
  Te  Te16  1  0.01650200  0.25000000  0.15786300  1
  Te  Te17  1  0.51650200  0.25000000  0.34213700  1
  Te  Te18  1  0.98349800  0.75000000  0.84213700  1
  Te  Te19  1  0.48349800  0.75000000  0.65786300  1
  Te  Te20  1  0.51362600  0.52196500  0.33584300  1
  Te  Te21  1  0.01362600  0.97803500  0.16415700  1
  Te  Te22  1  0.48637400  0.02196500  0.66415700  1
  Te  Te23  1  0.98637400  0.47803500  0.83584300  1
  Te  Te24  1  0.48637400  0.47803500  0.66415700  1
  Te  Te25  1  0.98637400  0.02196500  0.83584300  1
  Te  Te26  1  0.51362600  0.97803500  0.33584300  1
  Te  Te27  1  0.01362600  0.52196500  0.16415700  1
  N  N28  1  0.50192700  0.62302500  0.98533100  1
  N  N29  1  0.00192700  0.87697500  0.51466900  1
  N  N30  1  0.49807300  0.12302500  0.01466900  1
  N  N31  1  0.99807300  0.37697500  0.48533100  1
  N  N32  1  0.49807300  0.37697500  0.01466900  1
  N  N33  1  0.99807300  0.12302500  0.48533100  1
  N  N34  1  0.50192700  0.87697500  0.98533100  1
  N  N35  1  0.00192700  0.62302500  0.51466900  1
