# generated using pymatgen
data_Rb3BN2
_symmetry_space_group_name_H-M   'P 1'
_cell_length_a   6.90224686
_cell_length_b   9.18725100
_cell_length_c   9.52527017
_cell_angle_alpha   90.00000000
_cell_angle_beta   111.60440008
_cell_angle_gamma   90.00000000
_symmetry_Int_Tables_number   1
_chemical_formula_structural   Rb3BN2
_chemical_formula_sum   'Rb12 B4 N8'
_cell_volume   561.58917077
_cell_formula_units_Z   4
loop_
 _symmetry_equiv_pos_site_id
 _symmetry_equiv_pos_as_xyz
  1  'x, y, z'
loop_
 _atom_site_type_symbol
 _atom_site_label
 _atom_site_symmetry_multiplicity
 _atom_site_fract_x
 _atom_site_fract_y
 _atom_site_fract_z
 _atom_site_occupancy
  Rb  Rb0  1  0.25325600  0.04695800  0.99554400  1
  Rb  Rb1  1  0.74674400  0.54695800  0.50445600  1
  Rb  Rb2  1  0.74674400  0.95304200  0.00445600  1
  Rb  Rb3  1  0.25325600  0.45304200  0.49554400  1
  Rb  Rb4  1  0.23332400  0.46143500  0.88620800  1
  Rb  Rb5  1  0.76667500  0.96143500  0.61379200  1
  Rb  Rb6  1  0.76667500  0.53856500  0.11379200  1
  Rb  Rb7  1  0.23332400  0.03856500  0.38620800  1
  Rb  Rb8  1  0.74167700  0.29535200  0.81062600  1
  Rb  Rb9  1  0.25832300  0.79535200  0.68937400  1
  Rb  Rb10  1  0.25832300  0.70464800  0.18937400  1
  Rb  Rb11  1  0.74167700  0.20464800  0.31062600  1
  B  B12  1  0.20750500  0.17474500  0.68122500  1
  B  B13  1  0.79249500  0.67474500  0.81877500  1
  B  B14  1  0.79249500  0.82525500  0.31877500  1
  B  B15  1  0.20750500  0.32525500  0.18122500  1
  N  N16  1  0.39013800  0.09902700  0.72921300  1
  N  N17  1  0.60986200  0.59902700  0.77078700  1
  N  N18  1  0.60986200  0.90097300  0.27078700  1
  N  N19  1  0.39013800  0.40097300  0.22921300  1
  N  N20  1  0.02542700  0.25109000  0.63404900  1
  N  N21  1  0.97457300  0.75109000  0.86595100  1
  N  N22  1  0.97457300  0.74891000  0.36595100  1
  N  N23  1  0.02542700  0.24891000  0.13404900  1
