# generated using pymatgen
data_Ca5(TiN3)2
_symmetry_space_group_name_H-M   'P 1'
_cell_length_a   6.10657585
_cell_length_b   6.55391355
_cell_length_c   12.89618797
_cell_angle_alpha   89.99999739
_cell_angle_beta   101.44651375
_cell_angle_gamma   122.45435589
_symmetry_Int_Tables_number   1
_chemical_formula_structural   Ca5(TiN3)2
_chemical_formula_sum   'Ca10 Ti4 N12'
_cell_volume   423.30510327
_cell_formula_units_Z   2
loop_
 _symmetry_equiv_pos_site_id
 _symmetry_equiv_pos_as_xyz
  1  'x, y, z'
loop_
 _atom_site_type_symbol
 _atom_site_label
 _atom_site_symmetry_multiplicity
 _atom_site_fract_x
 _atom_site_fract_y
 _atom_site_fract_z
 _atom_site_occupancy
  Ca  Ca0  1  0.05613900  0.77284000  0.00733500  1
  Ca  Ca1  1  0.94386100  0.71670100  0.49266500  1
  Ca  Ca2  1  0.94386100  0.22716000  0.99266500  1
  Ca  Ca3  1  0.05613900  0.28329900  0.50733500  1
  Ca  Ca4  1  0.31309800  0.00886700  0.72567300  1
  Ca  Ca5  1  0.68690200  0.69576900  0.77432700  1
  Ca  Ca6  1  0.68690200  0.99113300  0.27432700  1
  Ca  Ca7  1  0.31309800  0.30423100  0.22567300  1
  Ca  Ca8  1  0.00000000  0.34208500  0.75000000  1
  Ca  Ca9  1  0.00000000  0.65791500  0.25000000  1
  Ti  Ti10  1  0.54875800  0.86386400  0.56843700  1
  Ti  Ti11  1  0.45124200  0.31510600  0.93156300  1
  Ti  Ti12  1  0.45124200  0.13613600  0.43156300  1
  Ti  Ti13  1  0.54875800  0.68489400  0.06843700  1
  N  N14  1  0.90049400  0.93991700  0.62378700  1
  N  N15  1  0.09950600  0.03942300  0.87621300  1
  N  N16  1  0.09950600  0.06008300  0.37621300  1
  N  N17  1  0.90049400  0.96057700  0.12378700  1
  N  N18  1  0.28485700  0.64281500  0.64257700  1
  N  N19  1  0.71514300  0.35795900  0.85742300  1
  N  N20  1  0.71514300  0.35718500  0.35742300  1
  N  N21  1  0.28485700  0.64204100  0.14257700  1
  N  N22  1  0.57961900  0.17329500  0.58614600  1
  N  N23  1  0.42038100  0.59367600  0.91385400  1
  N  N24  1  0.42038100  0.82670500  0.41385400  1
  N  N25  1  0.57961900  0.40632400  0.08614600  1
