# generated using pymatgen
data_Li4MnCo2O7
_symmetry_space_group_name_H-M   'P 1'
_cell_length_a   5.91705784
_cell_length_b   6.56705454
_cell_length_c   7.73161936
_cell_angle_alpha   115.58486619
_cell_angle_beta   111.81371649
_cell_angle_gamma   75.85785138
_symmetry_Int_Tables_number   1
_chemical_formula_structural   Li4MnCo2O7
_chemical_formula_sum   'Li8 Mn2 Co4 O14'
_cell_volume   250.30679300
_cell_formula_units_Z   2
loop_
 _symmetry_equiv_pos_site_id
 _symmetry_equiv_pos_as_xyz
  1  'x, y, z'
loop_
 _atom_site_type_symbol
 _atom_site_label
 _atom_site_symmetry_multiplicity
 _atom_site_fract_x
 _atom_site_fract_y
 _atom_site_fract_z
 _atom_site_occupancy
  Li  Li0  1  0.20667900  0.42520300  0.13433400  1
  Li  Li1  1  0.92334300  0.85234600  0.28255300  1
  Li  Li2  1  0.64724700  0.29006700  0.42496500  1
  Li  Li3  1  0.35463800  0.71139600  0.56903700  1
  Li  Li4  1  0.07207200  0.14626800  0.71280800  1
  Li  Li5  1  0.78421500  0.56766100  0.86518900  1
  Li  Li6  1  0.50797900  0.00812300  0.00925900  1
  Li  Li7  1  0.71516100  0.42933000  0.14482000  1
  Mn  Mn8  1  0.99773000  0.00359400  0.00108300  1
  Mn  Mn9  1  0.85513400  0.70912400  0.56969000  1
  Co  Co10  1  0.44119200  0.84572300  0.28096800  1
  Co  Co11  1  0.13830800  0.28271600  0.42127700  1
  Co  Co12  1  0.56929600  0.15739300  0.72497000  1
  Co  Co13  1  0.28982600  0.56991600  0.85995800  1
  O  O14  1  0.89213700  0.26039700  0.92512500  1
  O  O15  1  0.59232500  0.72202800  0.07733900  1
  O  O16  1  0.29577000  0.13539400  0.19791100  1
  O  O17  1  0.03209000  0.56943000  0.37724200  1
  O  O18  1  0.74558500  0.98523700  0.50862800  1
  O  O19  1  0.44800400  0.43134600  0.65285400  1
  O  O20  1  0.15623200  0.84235700  0.78548900  1
  O  O21  1  0.55750600  0.58942600  0.37825600  1
  O  O22  1  0.26133000  0.01419200  0.49142600  1
  O  O23  1  0.96068300  0.44408700  0.63625700  1
  O  O24  1  0.70543400  0.86375200  0.79097700  1
  O  O25  1  0.38913600  0.29115100  0.91210700  1
  O  O26  1  0.11975600  0.72064100  0.06189800  1
  O  O27  1  0.84119100  0.13170200  0.20358200  1
