# generated using pymatgen
data_HfCrCuS4
_symmetry_space_group_name_H-M   'P 1'
_cell_length_a   7.15128594
_cell_length_b   6.04970641
_cell_length_c   5.96790969
_cell_angle_alpha   92.57791409
_cell_angle_beta   89.99817083
_cell_angle_gamma   90.00133721
_symmetry_Int_Tables_number   1
_chemical_formula_structural   HfCrCuS4
_chemical_formula_sum   'Hf2 Cr2 Cu2 S8'
_cell_volume   257.92945948
_cell_formula_units_Z   2
loop_
 _symmetry_equiv_pos_site_id
 _symmetry_equiv_pos_as_xyz
  1  'x, y, z'
loop_
 _atom_site_type_symbol
 _atom_site_label
 _atom_site_symmetry_multiplicity
 _atom_site_fract_x
 _atom_site_fract_y
 _atom_site_fract_z
 _atom_site_occupancy
  Hf  Hf0  1  0.25005200  0.50000300  0.50001000  1
  Hf  Hf1  1  0.74994100  0.50000000  0.50001000  1
  Cr  Cr2  1  0.99997500  0.99992700  0.49987500  1
  Cr  Cr3  1  0.50000700  0.00003800  0.50003300  1
  Cu  Cu4  1  0.00000000  0.00002400  0.99997700  1
  Cu  Cu5  1  0.49999500  0.00001000  0.00003400  1
  S  S6  1  0.00000800  0.31253300  0.25756500  1
  S  S7  1  0.50000000  0.31261200  0.25753300  1
  S  S8  1  0.25000700  0.83855600  0.26371500  1
  S  S9  1  0.75001300  0.83856400  0.26370700  1
  S  S10  1  0.24989400  0.16142900  0.73628800  1
  S  S11  1  0.75011900  0.16142600  0.73628300  1
  S  S12  1  0.49999600  0.68739000  0.74254700  1
  S  S13  1  0.99999300  0.68748700  0.74242300  1
