# generated using pymatgen
data_K2TiN2
_symmetry_space_group_name_H-M   'P 1'
_cell_length_a   3.21184700
_cell_length_b   3.21184803
_cell_length_c   10.45136800
_cell_angle_alpha   90.00000126
_cell_angle_beta   89.99992385
_cell_angle_gamma   119.99999965
_symmetry_Int_Tables_number   1
_chemical_formula_structural   K2TiN2
_chemical_formula_sum   'K2 Ti1 N2'
_cell_volume   93.37134415
_cell_formula_units_Z   1
loop_
 _symmetry_equiv_pos_site_id
 _symmetry_equiv_pos_as_xyz
  1  'x, y, z'
loop_
 _atom_site_type_symbol
 _atom_site_label
 _atom_site_symmetry_multiplicity
 _atom_site_fract_x
 _atom_site_fract_y
 _atom_site_fract_z
 _atom_site_occupancy
  K  K0  1  0.66666400  0.33333200  0.27928300  1
  K  K1  1  0.33333600  0.66666800  0.72071700  1
  Ti  Ti2  1  0.00000000  0.00000000  0.00000000  1
  N  N3  1  0.66666700  0.33333400  0.89875000  1
  N  N4  1  0.33333300  0.66666600  0.10125000  1
