# generated using pymatgen
data_SrCr7N10
_symmetry_space_group_name_H-M   'P 1'
_cell_length_a   7.09448701
_cell_length_b   6.85983400
_cell_length_c   10.27249127
_cell_angle_alpha   90.00000000
_cell_angle_beta   104.52593524
_cell_angle_gamma   90.00000000
_symmetry_Int_Tables_number   1
_chemical_formula_structural   SrCr7N10
_chemical_formula_sum   'Sr2 Cr14 N20'
_cell_volume   483.95066210
_cell_formula_units_Z   2
loop_
 _symmetry_equiv_pos_site_id
 _symmetry_equiv_pos_as_xyz
  1  'x, y, z'
loop_
 _atom_site_type_symbol
 _atom_site_label
 _atom_site_symmetry_multiplicity
 _atom_site_fract_x
 _atom_site_fract_y
 _atom_site_fract_z
 _atom_site_occupancy
  Sr  Sr0  1  0.90968700  0.03066400  0.60943200  1
  Sr  Sr1  1  0.90968700  0.96933600  0.10943200  1
  Cr  Cr2  1  0.54466400  0.01639600  0.83247500  1
  Cr  Cr3  1  0.54466400  0.98360400  0.33247500  1
  Cr  Cr4  1  0.35994800  0.02098600  0.01507300  1
  Cr  Cr5  1  0.35994800  0.97901400  0.51507300  1
  Cr  Cr6  1  0.09689200  0.41441000  0.07523500  1
  Cr  Cr7  1  0.09689200  0.58559000  0.57523500  1
  Cr  Cr8  1  0.68048300  0.38710300  0.97630700  1
  Cr  Cr9  1  0.68048300  0.61289700  0.47630700  1
  Cr  Cr10  1  0.86598500  0.65201800  0.81366700  1
  Cr  Cr11  1  0.86598500  0.34798200  0.31366700  1
  Cr  Cr12  1  0.31345000  0.61446900  0.90071200  1
  Cr  Cr13  1  0.31345000  0.38553100  0.40071200  1
  Cr  Cr14  1  0.46110000  0.38057700  0.69383700  1
  Cr  Cr15  1  0.46110000  0.61942300  0.19383700  1
  N  N16  1  0.75778600  0.88331900  0.83624800  1
  N  N17  1  0.75778600  0.11668100  0.33624800  1
  N  N18  1  0.56891400  0.15327800  0.99250100  1
  N  N19  1  0.56891400  0.84672200  0.49250100  1
  N  N20  1  0.34824700  0.86695200  0.86483000  1
  N  N21  1  0.34824700  0.13304800  0.36483000  1
  N  N22  1  0.17340700  0.18330900  0.02464800  1
  N  N23  1  0.17340700  0.81669100  0.52464800  1
  N  N24  1  0.25127700  0.49648300  0.73415900  1
  N  N25  1  0.25127700  0.50351700  0.23415900  1
  N  N26  1  0.42778600  0.12148700  0.66870300  1
  N  N27  1  0.42778600  0.87851300  0.16870300  1
  N  N28  1  0.88190100  0.36127700  0.13752400  1
  N  N29  1  0.88190100  0.63872300  0.63752400  1
  N  N30  1  0.07955400  0.60469200  0.94886700  1
  N  N31  1  0.07955400  0.39530800  0.44886700  1
  N  N32  1  0.68845000  0.46631800  0.80476600  1
  N  N33  1  0.68845000  0.53368200  0.30476600  1
  N  N34  1  0.53277000  0.54972100  0.04031400  1
  N  N35  1  0.53277000  0.45027900  0.54031400  1
