# generated using pymatgen
data_Sr7CoN6
_symmetry_space_group_name_H-M   'P 1'
_cell_length_a   11.79455614
_cell_length_b   6.68132718
_cell_length_c   13.73541058
_cell_angle_alpha   90.00000000
_cell_angle_beta   90.00000000
_cell_angle_gamma   90.00000000
_symmetry_Int_Tables_number   1
_chemical_formula_structural   Sr7CoN6
_chemical_formula_sum   'Sr28 Co4 N24'
_cell_volume   1082.39552280
_cell_formula_units_Z   4
loop_
 _symmetry_equiv_pos_site_id
 _symmetry_equiv_pos_as_xyz
  1  'x, y, z'
loop_
 _atom_site_type_symbol
 _atom_site_label
 _atom_site_symmetry_multiplicity
 _atom_site_fract_x
 _atom_site_fract_y
 _atom_site_fract_z
 _atom_site_occupancy
  Sr  Sr0  1  0.03938891  0.73554639  0.97864859  1
  Sr  Sr1  1  0.46061109  0.76445361  0.47864859  1
  Sr  Sr2  1  0.53938891  0.76445361  0.02135141  1
  Sr  Sr3  1  0.96061109  0.73554639  0.52135141  1
  Sr  Sr4  1  0.96061109  0.26445361  0.02135141  1
  Sr  Sr5  1  0.53938891  0.23554639  0.52135141  1
  Sr  Sr6  1  0.46061109  0.23554639  0.97864859  1
  Sr  Sr7  1  0.03938891  0.26445361  0.47864859  1
  Sr  Sr8  1  0.21791333  0.86170445  0.62308736  1
  Sr  Sr9  1  0.28208667  0.63829555  0.12308736  1
  Sr  Sr10  1  0.71791333  0.63829555  0.37691264  1
  Sr  Sr11  1  0.78208667  0.86170445  0.87691264  1
  Sr  Sr12  1  0.78208667  0.13829555  0.37691264  1
  Sr  Sr13  1  0.71791333  0.36170445  0.87691264  1
  Sr  Sr14  1  0.28208667  0.36170445  0.62308736  1
  Sr  Sr15  1  0.21791333  0.13829555  0.12308736  1
  Sr  Sr16  1  0.29565961  0.61406697  0.87065723  1
  Sr  Sr17  1  0.20434039  0.88593303  0.37065723  1
  Sr  Sr18  1  0.79565961  0.88593303  0.12934277  1
  Sr  Sr19  1  0.70434039  0.61406697  0.62934277  1
  Sr  Sr20  1  0.70434039  0.38593303  0.12934277  1
  Sr  Sr21  1  0.79565961  0.11406697  0.62934277  1
  Sr  Sr22  1  0.20434039  0.11406697  0.87065723  1
  Sr  Sr23  1  0.29565961  0.38593303  0.37065723  1
  Sr  Sr24  1  -0.00000000  0.44018343  0.75000000  1
  Sr  Sr25  1  0.50000000  0.05981657  0.25000000  1
  Sr  Sr26  1  -0.00000000  0.55981657  0.25000000  1
  Sr  Sr27  1  0.50000000  0.94018343  0.75000000  1
  Co  Co28  1  -0.00000000  0.92827237  0.75000000  1
  Co  Co29  1  0.50000000  0.57172763  0.25000000  1
  Co  Co30  1  -0.00000000  0.07172763  0.25000000  1
  Co  Co31  1  0.50000000  0.42827237  0.75000000  1
  N  N32  1  0.12046110  0.76763614  0.78884926  1
  N  N33  1  0.37953890  0.73236386  0.28884926  1
  N  N34  1  0.62046110  0.73236386  0.21115074  1
  N  N35  1  0.87953890  0.76763614  0.71115074  1
  N  N36  1  0.87953890  0.23236386  0.21115074  1
  N  N37  1  0.62046110  0.26763614  0.71115074  1
  N  N38  1  0.37953890  0.26763614  0.78884926  1
  N  N39  1  0.12046110  0.23236386  0.28884926  1
  N  N40  1  0.16591973  0.59145846  0.49890121  1
  N  N41  1  0.33408027  0.90854154  0.99890121  1
  N  N42  1  0.66591973  0.90854154  0.50109879  1
  N  N43  1  0.83408027  0.59145846  0.00109879  1
  N  N44  1  0.83408027  0.40854154  0.50109879  1
  N  N45  1  0.66591973  0.09145846  0.00109879  1
  N  N46  1  0.33408027  0.09145846  0.49890121  1
  N  N47  1  0.16591973  0.40854154  0.99890121  1
  N  N48  1  0.46076657  0.58871908  0.64684959  1
  N  N49  1  0.03923343  0.91128092  0.14684959  1
  N  N50  1  0.96076657  0.91128092  0.35315041  1
  N  N51  1  0.53923343  0.58871908  0.85315041  1
  N  N52  1  0.53923343  0.41128092  0.35315041  1
  N  N53  1  0.96076657  0.08871908  0.85315041  1
  N  N54  1  0.03923343  0.08871908  0.64684959  1
  N  N55  1  0.46076657  0.41128092  0.14684959  1
