# generated using pymatgen
data_CdGe7N10
_symmetry_space_group_name_H-M   'P 1'
_cell_length_a   7.13652690
_cell_length_b   7.28806000
_cell_length_c   10.32072984
_cell_angle_alpha   90.00000000
_cell_angle_beta   104.35980830
_cell_angle_gamma   90.00000000
_symmetry_Int_Tables_number   1
_chemical_formula_structural   CdGe7N10
_chemical_formula_sum   'Cd2 Ge14 N20'
_cell_volume   520.02506556
_cell_formula_units_Z   2
loop_
 _symmetry_equiv_pos_site_id
 _symmetry_equiv_pos_as_xyz
  1  'x, y, z'
loop_
 _atom_site_type_symbol
 _atom_site_label
 _atom_site_symmetry_multiplicity
 _atom_site_fract_x
 _atom_site_fract_y
 _atom_site_fract_z
 _atom_site_occupancy
  Cd  Cd0  1  0.99485600  0.95201100  0.70265400  1
  Cd  Cd1  1  0.99485600  0.04798900  0.20265400  1
  Ge  Ge2  1  0.54676000  0.97864200  0.82371600  1
  Ge  Ge3  1  0.54676000  0.02135800  0.32371600  1
  Ge  Ge4  1  0.34633700  0.02317000  0.02125300  1
  Ge  Ge5  1  0.34633700  0.97683000  0.52125300  1
  Ge  Ge6  1  0.10821600  0.39773800  0.07202900  1
  Ge  Ge7  1  0.10821600  0.60226200  0.57202900  1
  Ge  Ge8  1  0.66142600  0.36065200  0.99288300  1
  Ge  Ge9  1  0.66142600  0.63934800  0.49288300  1
  Ge  Ge10  1  0.84488900  0.61458900  0.80722900  1
  Ge  Ge11  1  0.84488900  0.38541100  0.30722900  1
  Ge  Ge12  1  0.29961000  0.62043600  0.88100500  1
  Ge  Ge13  1  0.29961000  0.37956400  0.38100500  1
  Ge  Ge14  1  0.48512500  0.36682000  0.68515600  1
  Ge  Ge15  1  0.48512500  0.63318000  0.18515600  1
  N  N16  1  0.76090200  0.85472600  0.80548400  1
  N  N17  1  0.76090200  0.14527400  0.30548400  1
  N  N18  1  0.55718000  0.13115400  0.97184700  1
  N  N19  1  0.55718000  0.86884600  0.47184700  1
  N  N20  1  0.31468700  0.87391300  0.86398400  1
  N  N21  1  0.31468700  0.12608700  0.36398400  1
  N  N22  1  0.13384800  0.14902200  0.03912100  1
  N  N23  1  0.13384800  0.85097800  0.53912100  1
  N  N24  1  0.28955900  0.50967600  0.72006100  1
  N  N25  1  0.28955900  0.49032400  0.22006100  1
  N  N26  1  0.44019900  0.11943200  0.67299500  1
  N  N27  1  0.44019900  0.88056800  0.17299500  1
  N  N28  1  0.88138000  0.39305500  0.13031600  1
  N  N29  1  0.88138000  0.60694500  0.63031600  1
  N  N30  1  0.07675000  0.57300200  0.93542500  1
  N  N31  1  0.07675000  0.42699800  0.43542500  1
  N  N32  1  0.70165700  0.40965800  0.82408000  1
  N  N33  1  0.70165700  0.59034200  0.32408000  1
  N  N34  1  0.49892000  0.54434700  0.02006400  1
  N  N35  1  0.49892000  0.45565300  0.52006400  1
