# generated using pymatgen
data_Sr5(PtN3)2
_symmetry_space_group_name_H-M   'P 1'
_cell_length_a   6.41933030
_cell_length_b   7.36064503
_cell_length_c   12.79083926
_cell_angle_alpha   89.99999818
_cell_angle_beta   102.02255141
_cell_angle_gamma   124.98197483
_symmetry_Int_Tables_number   1
_chemical_formula_structural   Sr5(PtN3)2
_chemical_formula_sum   'Sr10 Pt4 N12'
_cell_volume   478.91248913
_cell_formula_units_Z   2
loop_
 _symmetry_equiv_pos_site_id
 _symmetry_equiv_pos_as_xyz
  1  'x, y, z'
loop_
 _atom_site_type_symbol
 _atom_site_label
 _atom_site_symmetry_multiplicity
 _atom_site_fract_x
 _atom_site_fract_y
 _atom_site_fract_z
 _atom_site_occupancy
  Sr  Sr0  1  0.12420400  0.80704200  0.00023200  1
  Sr  Sr1  1  0.87579600  0.68283800  0.49976800  1
  Sr  Sr2  1  0.87579600  0.19295800  0.99976800  1
  Sr  Sr3  1  0.12420400  0.31716200  0.50023200  1
  Sr  Sr4  1  0.32844100  0.04800600  0.72549700  1
  Sr  Sr5  1  0.67155900  0.71956500  0.77450300  1
  Sr  Sr6  1  0.67155900  0.95199400  0.27450300  1
  Sr  Sr7  1  0.32844100  0.28043500  0.22549700  1
  Sr  Sr8  1  0.00000000  0.38731100  0.75000000  1
  Sr  Sr9  1  0.00000000  0.61268900  0.25000000  1
  Pt  Pt10  1  0.53001200  0.82445800  0.54739200  1
  Pt  Pt11  1  0.46998800  0.29444600  0.95260800  1
  Pt  Pt12  1  0.46998800  0.17554200  0.45260800  1
  Pt  Pt13  1  0.53001200  0.70555400  0.04739200  1
  N  N14  1  0.89635300  0.00161700  0.62471400  1
  N  N15  1  0.10364700  0.10526300  0.87528600  1
  N  N16  1  0.10364700  0.99838300  0.37528600  1
  N  N17  1  0.89635300  0.89473700  0.12471400  1
  N  N18  1  0.26999300  0.68488100  0.63228300  1
  N  N19  1  0.73000700  0.41488800  0.86771700  1
  N  N20  1  0.73000700  0.31511900  0.36771700  1
  N  N21  1  0.26999300  0.58511200  0.13228300  1
  N  N22  1  0.57540100  0.31548000  0.59876500  1
  N  N23  1  0.42459900  0.74007800  0.90123500  1
  N  N24  1  0.42459900  0.68452000  0.40123500  1
  N  N25  1  0.57540100  0.25992200  0.09876500  1
