# generated using pymatgen
data_CsIrN2
_symmetry_space_group_name_H-M   'P 1'
_cell_length_a   6.19305900
_cell_length_b   12.35611100
_cell_length_c   16.66595900
_cell_angle_alpha   90.00000000
_cell_angle_beta   90.00000000
_cell_angle_gamma   90.00000000
_symmetry_Int_Tables_number   1
_chemical_formula_structural   CsIrN2
_chemical_formula_sum   'Cs16 Ir16 N32'
_cell_volume   1275.31458840
_cell_formula_units_Z   16
loop_
 _symmetry_equiv_pos_site_id
 _symmetry_equiv_pos_as_xyz
  1  'x, y, z'
loop_
 _atom_site_type_symbol
 _atom_site_label
 _atom_site_symmetry_multiplicity
 _atom_site_fract_x
 _atom_site_fract_y
 _atom_site_fract_z
 _atom_site_occupancy
  Cs  Cs0  1  0.24485100  0.99953000  0.43603000  1
  Cs  Cs1  1  0.74485100  0.50047000  0.56397000  1
  Cs  Cs2  1  0.75514900  0.49953000  0.06397000  1
  Cs  Cs3  1  0.25514900  0.00047000  0.93603000  1
  Cs  Cs4  1  0.75514900  0.00047000  0.56397000  1
  Cs  Cs5  1  0.25514900  0.49953000  0.43603000  1
  Cs  Cs6  1  0.24485100  0.50047000  0.93603000  1
  Cs  Cs7  1  0.74485100  0.99953000  0.06397000  1
  Cs  Cs8  1  0.36199400  0.25131800  0.31058300  1
  Cs  Cs9  1  0.86199400  0.24868200  0.68941700  1
  Cs  Cs10  1  0.63800600  0.75131800  0.18941700  1
  Cs  Cs11  1  0.13800600  0.74868200  0.81058300  1
  Cs  Cs12  1  0.63800600  0.74868200  0.68941700  1
  Cs  Cs13  1  0.13800600  0.75131800  0.31058300  1
  Cs  Cs14  1  0.36199400  0.24868200  0.81058300  1
  Cs  Cs15  1  0.86199400  0.25131800  0.18941700  1
  Ir  Ir16  1  0.74737900  0.00073200  0.31343200  1
  Ir  Ir17  1  0.24737900  0.49926800  0.68656800  1
  Ir  Ir18  1  0.25262100  0.50073200  0.18656800  1
  Ir  Ir19  1  0.75262100  0.99926800  0.81343200  1
  Ir  Ir20  1  0.25262100  0.99926800  0.68656800  1
  Ir  Ir21  1  0.75262100  0.50073200  0.31343200  1
  Ir  Ir22  1  0.74737900  0.49926800  0.81343200  1
  Ir  Ir23  1  0.24737900  0.00073200  0.18656800  1
  Ir  Ir24  1  0.83463600  0.25326800  0.43754400  1
  Ir  Ir25  1  0.33463600  0.24673200  0.56245600  1
  Ir  Ir26  1  0.16536400  0.75326800  0.06245600  1
  Ir  Ir27  1  0.66536400  0.74673200  0.93754400  1
  Ir  Ir28  1  0.16536400  0.74673200  0.56245600  1
  Ir  Ir29  1  0.66536400  0.75326800  0.43754400  1
  Ir  Ir30  1  0.83463600  0.24673200  0.93754400  1
  Ir  Ir31  1  0.33463600  0.25326800  0.06245600  1
  N  N32  1  0.12062000  0.25532900  0.47582300  1
  N  N33  1  0.62062000  0.24467100  0.52417700  1
  N  N34  1  0.87938000  0.75532900  0.02417700  1
  N  N35  1  0.37938000  0.74467100  0.97582300  1
  N  N36  1  0.87938000  0.74467100  0.52417700  1
  N  N37  1  0.37938000  0.75532900  0.47582300  1
  N  N38  1  0.12062000  0.24467100  0.97582300  1
  N  N39  1  0.62062000  0.25532900  0.02417700  1
  N  N40  1  0.73758900  0.38866400  0.39338500  1
  N  N41  1  0.23758900  0.11133600  0.60661500  1
  N  N42  1  0.26241100  0.88866400  0.10661500  1
  N  N43  1  0.76241100  0.61133600  0.89338500  1
  N  N44  1  0.26241100  0.61133600  0.60661500  1
  N  N45  1  0.76241100  0.88866400  0.39338500  1
  N  N46  1  0.73758900  0.11133600  0.89338500  1
  N  N47  1  0.23758900  0.38866400  0.10661500  1
  N  N48  1  0.78689100  0.13497900  0.36788200  1
  N  N49  1  0.28689100  0.36502100  0.63211800  1
  N  N50  1  0.21310900  0.63497900  0.13211800  1
  N  N51  1  0.71310900  0.86502100  0.86788200  1
  N  N52  1  0.21310900  0.86502100  0.63211800  1
  N  N53  1  0.71310900  0.63497900  0.36788200  1
  N  N54  1  0.78689100  0.36502100  0.86788200  1
  N  N55  1  0.28689100  0.13497900  0.13211800  1
  N  N56  1  0.52835800  0.48583200  0.23640300  1
  N  N57  1  0.02835800  0.01416800  0.76359700  1
  N  N58  1  0.47164200  0.98583200  0.26359700  1
  N  N59  1  0.97164200  0.51416800  0.73640300  1
  N  N60  1  0.47164200  0.51416800  0.76359700  1
  N  N61  1  0.97164200  0.98583200  0.23640300  1
  N  N62  1  0.52835800  0.01416800  0.73640300  1
  N  N63  1  0.02835800  0.48583200  0.26359700  1
