# generated using pymatgen
data_Ca3(NbN2)2
_symmetry_space_group_name_H-M   'P 1'
_cell_length_a   8.44004346
_cell_length_b   7.96209503
_cell_length_c   5.37042262
_cell_angle_alpha   89.99999735
_cell_angle_beta   93.07768409
_cell_angle_gamma   118.14377073
_symmetry_Int_Tables_number   1
_chemical_formula_structural   Ca3(NbN2)2
_chemical_formula_sum   'Ca6 Nb4 N8'
_cell_volume   317.63450544
_cell_formula_units_Z   2
loop_
 _symmetry_equiv_pos_site_id
 _symmetry_equiv_pos_as_xyz
  1  'x, y, z'
loop_
 _atom_site_type_symbol
 _atom_site_label
 _atom_site_symmetry_multiplicity
 _atom_site_fract_x
 _atom_site_fract_y
 _atom_site_fract_z
 _atom_site_occupancy
  Ca  Ca0  1  0.26850700  0.00933800  0.00673500  1
  Ca  Ca1  1  0.73149300  0.74083100  0.49326500  1
  Ca  Ca2  1  0.73149300  0.99066200  0.99326500  1
  Ca  Ca3  1  0.26850700  0.25916900  0.50673500  1
  Ca  Ca4  1  0.00000000  0.60274500  0.75000000  1
  Ca  Ca5  1  0.00000000  0.39725500  0.25000000  1
  Nb  Nb6  1  0.62144700  0.20575200  0.56503300  1
  Nb  Nb7  1  0.37855300  0.58430500  0.93496700  1
  Nb  Nb8  1  0.37855300  0.79424800  0.43496700  1
  Nb  Nb9  1  0.62144700  0.41569500  0.06503300  1
  N  N10  1  0.33599100  0.00221800  0.56014200  1
  N  N11  1  0.66400900  0.66622800  0.93985800  1
  N  N12  1  0.66400900  0.99778200  0.43985800  1
  N  N13  1  0.33599100  0.33377200  0.06014200  1
  N  N14  1  0.77154500  0.30965600  0.89797600  1
  N  N15  1  0.22845500  0.53811100  0.60202400  1
  N  N16  1  0.22845500  0.69034400  0.10202400  1
  N  N17  1  0.77154500  0.46188900  0.39797600  1
