# generated using pymatgen
data_Na3TiN2
_symmetry_space_group_name_H-M   'P 1'
_cell_length_a   9.73595600
_cell_length_b   11.24211316
_cell_length_c   11.24211332
_cell_angle_alpha   90.00000156
_cell_angle_beta   125.26438874
_cell_angle_gamma   54.73561069
_symmetry_Int_Tables_number   1
_chemical_formula_structural   Na3TiN2
_chemical_formula_sum   'Na24 Ti8 N16'
_cell_volume   710.41792705
_cell_formula_units_Z   8
loop_
 _symmetry_equiv_pos_site_id
 _symmetry_equiv_pos_as_xyz
  1  'x, y, z'
loop_
 _atom_site_type_symbol
 _atom_site_label
 _atom_site_symmetry_multiplicity
 _atom_site_fract_x
 _atom_site_fract_y
 _atom_site_fract_z
 _atom_site_occupancy
  Na  Na0  1  0.17673600  0.07628100  0.94370100  1
  Na  Na1  1  0.82326400  0.75301600  0.55629900  1
  Na  Na2  1  0.82326400  0.42371900  0.76696600  1
  Na  Na3  1  0.17673600  0.74698400  0.73303400  1
  Na  Na4  1  0.28933400  0.76696600  0.30931500  1
  Na  Na5  1  0.71066600  0.73303400  0.01998200  1
  Na  Na6  1  0.28933400  0.94370100  0.48001800  1
  Na  Na7  1  0.71066600  0.55629900  0.19068500  1
  Na  Na8  1  0.67070300  0.01998200  0.74698400  1
  Na  Na9  1  0.67070300  0.30931500  0.42371900  1
  Na  Na10  1  0.32929700  0.19068500  0.75301600  1
  Na  Na11  1  0.32929700  0.48001800  0.07628100  1
  Na  Na12  1  0.82326400  0.92371900  0.05629900  1
  Na  Na13  1  0.17673600  0.24698400  0.44370100  1
  Na  Na14  1  0.17673600  0.57628100  0.23303400  1
  Na  Na15  1  0.82326400  0.25301600  0.26696600  1
  Na  Na16  1  0.71066600  0.23303400  0.69068500  1
  Na  Na17  1  0.28933400  0.26696600  0.98001800  1
  Na  Na18  1  0.71066600  0.05629900  0.51998200  1
  Na  Na19  1  0.28933400  0.44370100  0.80931500  1
  Na  Na20  1  0.32929700  0.98001800  0.25301600  1
  Na  Na21  1  0.32929700  0.69068500  0.57628100  1
  Na  Na22  1  0.67070300  0.80931500  0.24698400  1
  Na  Na23  1  0.67070300  0.51998200  0.92371900  1
  Ti  Ti24  1  0.20341100  0.00000000  0.70341100  1
  Ti  Ti25  1  0.79658900  0.70341100  0.79658900  1
  Ti  Ti26  1  0.79658900  0.50000000  0.50000000  1
  Ti  Ti27  1  0.20341100  0.79658900  0.00000000  1
  Ti  Ti28  1  0.79658900  0.00000000  0.29658900  1
  Ti  Ti29  1  0.20341100  0.29658900  0.20341100  1
  Ti  Ti30  1  0.20341100  0.50000000  0.50000000  1
  Ti  Ti31  1  0.79658900  0.20341100  0.00000000  1
  N  N32  1  0.00000000  0.00000000  0.50000000  1
  N  N33  1  0.00000000  0.50000000  0.00000000  1
  N  N34  1  0.00000000  0.50000000  0.50000000  1
  N  N35  1  0.00000000  0.00000000  0.00000000  1
  N  N36  1  0.50000000  0.89846600  0.75000000  1
  N  N37  1  0.50000000  0.60153400  0.25000000  1
  N  N38  1  0.00000000  0.25000000  0.64846600  1
  N  N39  1  0.00000000  0.75000000  0.85153400  1
  N  N40  1  0.70306800  0.64846600  0.60153400  1
  N  N41  1  0.29693200  0.85153400  0.89846600  1
  N  N42  1  0.50000000  0.10153400  0.25000000  1
  N  N43  1  0.50000000  0.39846600  0.75000000  1
  N  N44  1  0.00000000  0.75000000  0.35153400  1
  N  N45  1  0.00000000  0.25000000  0.14846600  1
  N  N46  1  0.29693200  0.35153400  0.39846600  1
  N  N47  1  0.70306800  0.14846600  0.10153400  1
