# generated using pymatgen
data_Ca3(WN2)2
_symmetry_space_group_name_H-M   'P 1'
_cell_length_a   7.00895095
_cell_length_b   8.60193596
_cell_length_c   5.62115716
_cell_angle_alpha   89.99999859
_cell_angle_beta   89.89530613
_cell_angle_gamma   127.85312180
_symmetry_Int_Tables_number   1
_chemical_formula_structural   Ca3(WN2)2
_chemical_formula_sum   'Ca6 W4 N8'
_cell_volume   267.59220498
_cell_formula_units_Z   2
loop_
 _symmetry_equiv_pos_site_id
 _symmetry_equiv_pos_as_xyz
  1  'x, y, z'
loop_
 _atom_site_type_symbol
 _atom_site_label
 _atom_site_symmetry_multiplicity
 _atom_site_fract_x
 _atom_site_fract_y
 _atom_site_fract_z
 _atom_site_occupancy
  Ca  Ca0  1  0.22803500  0.98572100  0.02845300  1
  Ca  Ca1  1  0.77196500  0.75768600  0.47154700  1
  Ca  Ca2  1  0.77196500  0.01427900  0.97154700  1
  Ca  Ca3  1  0.22803500  0.24231400  0.52845300  1
  Ca  Ca4  1  0.00000000  0.60637500  0.75000000  1
  Ca  Ca5  1  0.00000000  0.39362500  0.25000000  1
  W  W6  1  0.60468900  0.17517600  0.60014600  1
  W  W7  1  0.39531100  0.57048700  0.89985400  1
  W  W8  1  0.39531100  0.82482400  0.39985400  1
  W  W9  1  0.60468900  0.42951300  0.10014600  1
  N  N10  1  0.24453100  0.95782400  0.49880600  1
  N  N11  1  0.75546900  0.71329300  0.00119400  1
  N  N12  1  0.75546900  0.04217600  0.50119400  1
  N  N13  1  0.24453100  0.28670700  0.99880600  1
  N  N14  1  0.68158500  0.26523500  0.93070000  1
  N  N15  1  0.31841500  0.58364900  0.56930000  1
  N  N16  1  0.31841500  0.73476500  0.06930000  1
  N  N17  1  0.68158500  0.41635100  0.43070000  1
