# generated using pymatgen
data_Sr3Zr3N5
_symmetry_space_group_name_H-M   'P 1'
_cell_length_a   6.08122570
_cell_length_b   8.40140762
_cell_length_c   9.12832095
_cell_angle_alpha   110.20769752
_cell_angle_beta   101.64015240
_cell_angle_gamma   103.01915358
_symmetry_Int_Tables_number   1
_chemical_formula_structural   Sr3Zr3N5
_chemical_formula_sum   'Sr6 Zr6 N10'
_cell_volume   405.99234916
_cell_formula_units_Z   2
loop_
 _symmetry_equiv_pos_site_id
 _symmetry_equiv_pos_as_xyz
  1  'x, y, z'
loop_
 _atom_site_type_symbol
 _atom_site_label
 _atom_site_symmetry_multiplicity
 _atom_site_fract_x
 _atom_site_fract_y
 _atom_site_fract_z
 _atom_site_occupancy
  Sr  Sr0  1  0.74562600  0.44023000  0.59702900  1
  Sr  Sr1  1  0.25437400  0.55977000  0.40297100  1
  Sr  Sr2  1  0.64740600  0.80556200  0.90222100  1
  Sr  Sr3  1  0.35259400  0.19443800  0.09777900  1
  Sr  Sr4  1  0.72775700  0.68379600  0.25013000  1
  Sr  Sr5  1  0.27224300  0.31620400  0.74987000  1
  Zr  Zr6  1  0.87717800  0.31388900  0.99159900  1
  Zr  Zr7  1  0.12282200  0.68611100  0.00840100  1
  Zr  Zr8  1  0.67149800  0.98591200  0.63786500  1
  Zr  Zr9  1  0.32850200  0.01408800  0.36213500  1
  Zr  Zr10  1  0.10806600  0.86541700  0.70056500  1
  Zr  Zr11  1  0.89193400  0.13458300  0.29943500  1
  N  N12  1  0.99806900  0.09180700  0.84151700  1
  N  N13  1  0.00193100  0.90819300  0.15848300  1
  N  N14  1  0.73280200  0.73568500  0.55894600  1
  N  N15  1  0.26719800  0.26431500  0.44105400  1
  N  N16  1  0.76451100  0.50376100  0.91566100  1
  N  N17  1  0.23548900  0.49623900  0.08433900  1
  N  N18  1  0.27628300  0.89556300  0.52498500  1
  N  N19  1  0.72371700  0.10443700  0.47501500  1
  N  N20  1  0.18207200  0.67083200  0.78246800  1
  N  N21  1  0.81792800  0.32916800  0.21753200  1
