# generated using pymatgen
data_Ba3Al3N5
_symmetry_space_group_name_H-M   'P 1'
_cell_length_a   5.94966085
_cell_length_b   7.63520041
_cell_length_c   8.87668851
_cell_angle_alpha   108.78877227
_cell_angle_beta   100.95176136
_cell_angle_gamma   96.57420279
_symmetry_Int_Tables_number   1
_chemical_formula_structural   Ba3Al3N5
_chemical_formula_sum   'Ba6 Al6 N10'
_cell_volume   368.04393345
_cell_formula_units_Z   2
loop_
 _symmetry_equiv_pos_site_id
 _symmetry_equiv_pos_as_xyz
  1  'x, y, z'
loop_
 _atom_site_type_symbol
 _atom_site_label
 _atom_site_symmetry_multiplicity
 _atom_site_fract_x
 _atom_site_fract_y
 _atom_site_fract_z
 _atom_site_occupancy
  Ba  Ba0  1  0.81081600  0.42706500  0.60994900  1
  Ba  Ba1  1  0.18918400  0.57293500  0.39005100  1
  Ba  Ba2  1  0.66605300  0.85700800  0.88018700  1
  Ba  Ba3  1  0.33394700  0.14299200  0.11981300  1
  Ba  Ba4  1  0.66114900  0.66076300  0.21591200  1
  Ba  Ba5  1  0.33885100  0.33923700  0.78408800  1
  Al  Al6  1  0.91622000  0.31983100  0.97724900  1
  Al  Al7  1  0.08378000  0.68016900  0.02275100  1
  Al  Al8  1  0.69796500  0.97020100  0.57983400  1
  Al  Al9  1  0.30203500  0.02979900  0.42016600  1
  Al  Al10  1  0.09886500  0.89196500  0.70756400  1
  Al  Al11  1  0.90113500  0.10803500  0.29243600  1
  N  N12  1  0.93593900  0.11145000  0.78084300  1
  N  N13  1  0.06406100  0.88855000  0.21915700  1
  N  N14  1  0.82128100  0.74444800  0.54443300  1
  N  N15  1  0.17871900  0.25555200  0.45556700  1
  N  N16  1  0.78113900  0.51596300  0.92190600  1
  N  N17  1  0.21886100  0.48403700  0.07809400  1
  N  N18  1  0.36943000  0.95203400  0.61001000  1
  N  N19  1  0.63057000  0.04796600  0.38999000  1
  N  N20  1  0.18685800  0.78210600  0.86989100  1
  N  N21  1  0.81314200  0.21789400  0.13010900  1
