# generated using pymatgen
data_SrCa7Mn6Cr2O21
_symmetry_space_group_name_H-M   'P 1'
_cell_length_a   10.99698345
_cell_length_b   15.51484050
_cell_length_c   10.99101734
_cell_angle_alpha   90.01747414
_cell_angle_beta   91.18018027
_cell_angle_gamma   90.53755932
_symmetry_Int_Tables_number   1
_chemical_formula_structural   SrCa7Mn6Cr2O21
_chemical_formula_sum   'Sr4 Ca28 Mn24 Cr8 O84'
_cell_volume   1874.76774701
_cell_formula_units_Z   4
loop_
 _symmetry_equiv_pos_site_id
 _symmetry_equiv_pos_as_xyz
  1  'x, y, z'
loop_
 _atom_site_type_symbol
 _atom_site_label
 _atom_site_symmetry_multiplicity
 _atom_site_fract_x
 _atom_site_fract_y
 _atom_site_fract_z
 _atom_site_occupancy
  Sr  Sr0  1  0.00021280  0.11453712  0.50393813  1
  Sr  Sr1  1  0.50950071  0.38495038  0.98620692  1
  Sr  Sr2  1  0.23806236  0.38666744  0.24607903  1
  Sr  Sr3  1  0.22867707  0.11993098  0.23837918  1
  Ca  Ca4  1  0.99535983  0.10812923  0.00404275  1
  Ca  Ca5  1  0.00892661  0.62436690  0.50948831  1
  Ca  Ca6  1  0.01414519  0.62239810  0.99187429  1
  Ca  Ca7  1  0.54528749  0.12619849  0.47910973  1
  Ca  Ca8  1  0.54638203  0.12893430  0.98680559  1
  Ca  Ca9  1  0.53032068  0.63007945  0.51111830  1
  Ca  Ca10  1  0.53289265  0.62178133  0.97423959  1
  Ca  Ca11  1  0.50216068  0.38077942  0.51555058  1
  Ca  Ca12  1  0.51768211  0.85989230  0.98629640  1
  Ca  Ca13  1  0.49429837  0.86699388  0.51026859  1
  Ca  Ca14  1  0.96369240  0.38822122  0.00633497  1
  Ca  Ca15  1  0.95771147  0.38798867  0.50022522  1
  Ca  Ca16  1  0.95614993  0.87976154  0.99914261  1
  Ca  Ca17  1  0.96879409  0.87162219  0.50894175  1
  Ca  Ca18  1  0.23295926  0.40535149  0.76014293  1
  Ca  Ca19  1  0.22688894  0.88778897  0.27152508  1
  Ca  Ca20  1  0.21886854  0.87166252  0.73748997  1
  Ca  Ca21  1  0.75285210  0.38307995  0.25069273  1
  Ca  Ca22  1  0.73419057  0.38536751  0.74913692  1
  Ca  Ca23  1  0.76348410  0.86943338  0.25666519  1
  Ca  Ca24  1  0.73966578  0.86562229  0.75015399  1
  Ca  Ca25  1  0.22270365  0.10970385  0.74103506  1
  Ca  Ca26  1  0.23694201  0.62591782  0.26065358  1
  Ca  Ca27  1  0.26759565  0.63034920  0.73797295  1
  Ca  Ca28  1  0.77681180  0.11801131  0.25167789  1
  Ca  Ca29  1  0.78182240  0.11801427  0.75302705  1
  Ca  Ca30  1  0.78169586  0.62147046  0.25259597  1
  Ca  Ca31  1  0.77224790  0.62328637  0.75680723  1
  Mn  Mn32  1  0.00173660  0.50223023  0.25122489  1
  Mn  Mn33  1  0.99548355  0.50046681  0.75406271  1
  Mn  Mn34  1  0.50713225  0.98254085  0.23341769  1
  Mn  Mn35  1  0.50787013  0.99057351  0.73695269  1
  Mn  Mn36  1  0.50753999  0.49645602  0.24527321  1
  Mn  Mn37  1  0.49604433  0.50313134  0.74625867  1
  Mn  Mn38  1  0.25143208  0.52075543  0.00777823  1
  Mn  Mn39  1  0.23637366  0.49795245  0.51007122  1
  Mn  Mn40  1  0.74297393  0.99960203  0.99687121  1
  Mn  Mn41  1  0.74483090  0.99740722  0.49720050  1
  Mn  Mn42  1  0.75217661  0.50412171  0.99974601  1
  Mn  Mn43  1  0.74464114  0.50478922  0.50118397  1
  Mn  Mn44  1  0.25889266  0.75572117  0.97412237  1
  Mn  Mn45  1  0.24955818  0.75181591  0.49812636  1
  Mn  Mn46  1  0.75619731  0.24956812  0.00320459  1
  Mn  Mn47  1  0.75071647  0.24995421  0.50235801  1
  Mn  Mn48  1  0.75382849  0.74597878  0.00004515  1
  Mn  Mn49  1  0.75355048  0.74626671  0.50523195  1
  Mn  Mn50  1  0.99767394  0.75055829  0.26139003  1
  Mn  Mn51  1  0.99708299  0.75002615  0.74898103  1
  Mn  Mn52  1  0.51539799  0.25801038  0.25727062  1
  Mn  Mn53  1  0.51623332  0.24821995  0.74885988  1
  Mn  Mn54  1  0.52083564  0.74861950  0.26328420  1
  Mn  Mn55  1  0.50331460  0.74748260  0.74819529  1
  Cr  Cr56  1  0.99404934  0.99644926  0.25211539  1
  Cr  Cr57  1  0.99498137  0.99356362  0.75427478  1
  Cr  Cr58  1  0.23866601  0.99214908  0.01203387  1
  Cr  Cr59  1  0.23938386  0.99822656  0.51697859  1
  Cr  Cr60  1  0.26677865  0.23332590  0.94051258  1
  Cr  Cr61  1  0.26948078  0.24125643  0.45915662  1
  Cr  Cr62  1  0.98296104  0.25371993  0.26553666  1
  Cr  Cr63  1  0.98827726  0.25668105  0.76836975  1
  O  O64  1  0.09940246  0.77026529  0.60741846  1
  O  O65  1  0.59006775  0.25492712  0.09530162  1
  O  O66  1  0.58758749  0.25278978  0.58731668  1
  O  O67  1  0.59618139  0.75407072  0.10868866  1
  O  O68  1  0.60387872  0.76304945  0.60444653  1
  O  O69  1  0.39547601  0.19284110  0.35937451  1
  O  O70  1  0.39466953  0.18514535  0.85419833  1
  O  O71  1  0.40640164  0.69622810  0.35977546  1
  O  O72  1  0.40959067  0.73022640  0.89735934  1
  O  O73  1  0.90508738  0.24302341  0.41603814  1
  O  O74  1  0.92030245  0.23700845  0.92350738  1
  O  O75  1  0.89350177  0.73052319  0.40659883  1
  O  O76  1  0.89748003  0.73287197  0.90065451  1
  O  O77  1  0.15220378  0.24855855  0.33215800  1
  O  O78  1  0.17240230  0.25270688  0.80668904  1
  O  O79  1  0.15899336  0.74956349  0.33598544  1
  O  O80  1  0.14494810  0.73526947  0.84710442  1
  O  O81  1  0.66055678  0.22375146  0.35367855  1
  O  O82  1  0.66188997  0.22624062  0.85504481  1
  O  O83  1  0.65800011  0.72099086  0.35557153  1
  O  O84  1  0.64947991  0.72755201  0.85528553  1
  O  O85  1  0.35706099  0.76674346  0.64354434  1
  O  O86  1  0.85371031  0.27800226  0.14865419  1
  O  O87  1  0.85843230  0.27914536  0.65088161  1
  O  O88  1  0.86585603  0.77009737  0.14078013  1
  O  O89  1  0.85347349  0.77063393  0.64695026  1
  O  O90  1  0.35987863  0.51753281  0.15860872  1
  O  O91  1  0.35323803  0.49443753  0.63912888  1
  O  O92  1  0.35215105  0.00253543  0.16161942  1
  O  O93  1  0.34948367  0.99641521  0.66927401  1
  O  O94  1  0.85962677  0.48560578  0.14405881  1
  O  O95  1  0.85500771  0.48020325  0.64591706  1
  O  O96  1  0.84587625  0.97816998  0.13996763  1
  O  O97  1  0.84513303  0.97734235  0.64347461  1
  O  O98  1  0.14487431  0.00989785  0.36421457  1
  O  O99  1  0.14933681  0.00309826  0.86069860  1
  O  O100  1  0.14917438  0.51052495  0.35715182  1
  O  O101  1  0.14752914  0.52730819  0.85931303  1
  O  O102  1  0.62999118  0.02401877  0.34491340  1
  O  O103  1  0.63079938  0.03069145  0.84719882  1
  O  O104  1  0.62480770  0.53085201  0.36255532  1
  O  O105  1  0.64091617  0.51620433  0.85780209  1
  O  O106  1  0.38739494  0.51288399  0.89814961  1
  O  O107  1  0.87921562  0.01284226  0.38810032  1
  O  O108  1  0.88402501  0.01164722  0.89479014  1
  O  O109  1  0.89137326  0.51972861  0.38892898  1
  O  O110  1  0.89266027  0.51846558  0.89604999  1
  O  O111  1  0.11082509  0.48271247  0.10389727  1
  O  O112  1  0.09656357  0.47509042  0.61665659  1
  O  O113  1  0.09956795  0.97424083  0.10844348  1
  O  O114  1  0.10119578  0.97521075  0.61220876  1
  O  O115  1  0.61455133  0.49380740  0.10925220  1
  O  O116  1  0.60254210  0.49006434  0.60957508  1
  O  O117  1  0.58971800  0.99217701  0.08104073  1
  O  O118  1  0.58939366  0.99445236  0.58229822  1
  O  O119  1  0.00228896  0.38067914  0.28544627  1
  O  O120  1  0.01563548  0.38081502  0.80141009  1
  O  O121  1  0.99888444  0.87208446  0.29091547  1
  O  O122  1  0.00316009  0.87009643  0.79347380  1
  O  O123  1  0.47219051  0.38151868  0.29776274  1
  O  O124  1  0.48955255  0.37506014  0.75984282  1
  O  O125  1  0.47742451  0.86953662  0.29307598  1
  O  O126  1  0.51872954  0.87196867  0.78026149  1
  O  O127  1  0.48745810  0.62640403  0.71940019  1
  O  O128  1  0.99385044  0.12851237  0.21723238  1
  O  O129  1  0.00089126  0.12777342  0.73027349  1
  O  O130  1  0.00589610  0.62840101  0.21529937  1
  O  O131  1  0.98565868  0.62488809  0.71575826  1
  O  O132  1  0.21839746  0.13482875  0.01643683  1
  O  O133  1  0.23837846  0.13141419  0.53714847  1
  O  O134  1  0.22592742  0.65460590  0.05474745  1
  O  O135  1  0.22985638  0.62623246  0.52369249  1
  O  O136  1  0.75359782  0.12411621  0.03843913  1
  O  O137  1  0.75410338  0.12387754  0.53901772  1
  O  O138  1  0.74824961  0.62551002  0.03730586  1
  O  O139  1  0.74637978  0.62562142  0.54539406  1
  O  O140  1  0.28095007  0.35956220  0.49918989  1
  O  O141  1  0.29088921  0.32752557  0.02456598  1
  O  O142  1  0.28348874  0.88072225  0.47325848  1
  O  O143  1  0.29521364  0.87588744  0.98899935  1
  O  O144  1  0.73819804  0.37936955  0.46447007  1
  O  O145  1  0.74867458  0.37730941  0.96605639  1
  O  O146  1  0.74388553  0.87156579  0.46478569  1
  O  O147  1  0.73932814  0.87240304  0.96595509  1
