# generated using pymatgen
data_Mn4Te3N2
_symmetry_space_group_name_H-M   'P 1'
_cell_length_a   6.42331362
_cell_length_b   10.67982085
_cell_length_c   9.72626554
_cell_angle_alpha   90.00000000
_cell_angle_beta   90.00000000
_cell_angle_gamma   90.00000000
_symmetry_Int_Tables_number   1
_chemical_formula_structural   Mn4Te3N2
_chemical_formula_sum   'Mn16 Te12 N8'
_cell_volume   667.22024744
_cell_formula_units_Z   4
loop_
 _symmetry_equiv_pos_site_id
 _symmetry_equiv_pos_as_xyz
  1  'x, y, z'
loop_
 _atom_site_type_symbol
 _atom_site_label
 _atom_site_symmetry_multiplicity
 _atom_site_fract_x
 _atom_site_fract_y
 _atom_site_fract_z
 _atom_site_occupancy
  Mn  Mn0  1  0.65509847  0.25000000  0.94159745  1
  Mn  Mn1  1  0.15509847  0.25000000  0.55840255  1
  Mn  Mn2  1  0.34490153  0.75000000  0.05840255  1
  Mn  Mn3  1  0.84490153  0.75000000  0.44159745  1
  Mn  Mn4  1  0.80839192  0.25000000  0.42696279  1
  Mn  Mn5  1  0.30839192  0.25000000  0.07303721  1
  Mn  Mn6  1  0.19160808  0.75000000  0.57303721  1
  Mn  Mn7  1  0.69160808  0.75000000  0.92696279  1
  Mn  Mn8  1  0.69603815  0.49177936  0.06048113  1
  Mn  Mn9  1  0.19603815  0.00822064  0.43951887  1
  Mn  Mn10  1  0.30396185  0.99177936  0.93951887  1
  Mn  Mn11  1  0.80396185  0.50822064  0.56048113  1
  Mn  Mn12  1  0.30396185  0.50822064  0.93951887  1
  Mn  Mn13  1  0.80396185  0.99177936  0.56048113  1
  Mn  Mn14  1  0.69603815  0.00822064  0.06048113  1
  Mn  Mn15  1  0.19603815  0.49177936  0.43951887  1
  Te  Te16  1  0.90964221  0.25000000  0.15598189  1
  Te  Te17  1  0.40964221  0.25000000  0.34401811  1
  Te  Te18  1  0.09035779  0.75000000  0.84401811  1
  Te  Te19  1  0.59035779  0.75000000  0.65598189  1
  Te  Te20  1  0.57441727  0.57080491  0.33042714  1
  Te  Te21  1  0.07441727  0.92919509  0.16957286  1
  Te  Te22  1  0.42558273  0.07080491  0.66957286  1
  Te  Te23  1  0.92558273  0.42919509  0.83042714  1
  Te  Te24  1  0.42558273  0.42919509  0.66957286  1
  Te  Te25  1  0.92558273  0.07080491  0.83042714  1
  Te  Te26  1  0.57441727  0.92919509  0.33042714  1
  Te  Te27  1  0.07441727  0.57080491  0.16957286  1
  N  N28  1  0.52711910  0.61981876  0.98424484  1
  N  N29  1  0.02711910  0.88018124  0.51575516  1
  N  N30  1  0.47288090  0.11981876  0.01575516  1
  N  N31  1  0.97288090  0.38018124  0.48424484  1
  N  N32  1  0.47288090  0.38018124  0.01575516  1
  N  N33  1  0.97288090  0.11981876  0.48424484  1
  N  N34  1  0.52711910  0.88018124  0.98424484  1
  N  N35  1  0.02711910  0.61981876  0.51575516  1
