# generated using pymatgen
data_SrCa7TiMn7O21
_symmetry_space_group_name_H-M   'P 1'
_cell_length_a   11.09261001
_cell_length_b   15.52343122
_cell_length_c   11.06793372
_cell_angle_alpha   90.19885375
_cell_angle_beta   91.22457581
_cell_angle_gamma   90.41195662
_symmetry_Int_Tables_number   1
_chemical_formula_structural   SrCa7TiMn7O21
_chemical_formula_sum   'Sr4 Ca28 Ti4 Mn28 O84'
_cell_volume   1905.34987400
_cell_formula_units_Z   4
loop_
 _symmetry_equiv_pos_site_id
 _symmetry_equiv_pos_as_xyz
  1  'x, y, z'
loop_
 _atom_site_type_symbol
 _atom_site_label
 _atom_site_symmetry_multiplicity
 _atom_site_fract_x
 _atom_site_fract_y
 _atom_site_fract_z
 _atom_site_occupancy
  Sr  Sr0  1  0.99510954  0.11319361  0.51292033  1
  Sr  Sr1  1  0.50991350  0.38511541  0.98726566  1
  Sr  Sr2  1  0.24336207  0.38609113  0.24369715  1
  Sr  Sr3  1  0.23149946  0.12147777  0.24640953  1
  Ca  Ca4  1  0.98468772  0.11636057  0.01202656  1
  Ca  Ca5  1  0.00526099  0.62336354  0.51192444  1
  Ca  Ca6  1  0.01466507  0.62078234  0.99418788  1
  Ca  Ca7  1  0.54277962  0.12693691  0.47275196  1
  Ca  Ca8  1  0.55120781  0.12622992  0.98385802  1
  Ca  Ca9  1  0.53035131  0.63038070  0.51300367  1
  Ca  Ca10  1  0.53453311  0.62146006  0.97230287  1
  Ca  Ca11  1  0.49982663  0.38021444  0.51236734  1
  Ca  Ca12  1  0.52027016  0.85909938  0.97976214  1
  Ca  Ca13  1  0.48737260  0.86437659  0.50813897  1
  Ca  Ca14  1  0.96639198  0.38990347  0.00351482  1
  Ca  Ca15  1  0.95752690  0.39098566  0.50360835  1
  Ca  Ca16  1  0.95516512  0.87532767  0.99649910  1
  Ca  Ca17  1  0.96560952  0.86984121  0.51536629  1
  Ca  Ca18  1  0.23525537  0.40676147  0.76505852  1
  Ca  Ca19  1  0.23252540  0.88022721  0.27883727  1
  Ca  Ca20  1  0.21996910  0.87107723  0.73138899  1
  Ca  Ca21  1  0.75607580  0.38509141  0.24992857  1
  Ca  Ca22  1  0.73842798  0.38506728  0.75471328  1
  Ca  Ca23  1  0.75474307  0.86305552  0.25398245  1
  Ca  Ca24  1  0.73323122  0.86586690  0.74742171  1
  Ca  Ca25  1  0.22189183  0.10888458  0.73322780  1
  Ca  Ca26  1  0.23859852  0.62399704  0.26462649  1
  Ca  Ca27  1  0.26778716  0.62944417  0.73702139  1
  Ca  Ca28  1  0.77237379  0.11707009  0.24800042  1
  Ca  Ca29  1  0.78069359  0.12454655  0.75110551  1
  Ca  Ca30  1  0.78098940  0.62074773  0.25565586  1
  Ca  Ca31  1  0.77173402  0.62282376  0.75568173  1
  Ti  Ti32  1  0.98686295  0.99022232  0.26095392  1
  Ti  Ti33  1  0.23679004  0.98479963  0.01858054  1
  Ti  Ti34  1  0.26598968  0.23140415  0.94141390  1
  Ti  Ti35  1  0.98412183  0.25443925  0.27360242  1
  Mn  Mn36  1  0.99043981  0.99333905  0.75488069  1
  Mn  Mn37  1  0.00296909  0.50191246  0.25155077  1
  Mn  Mn38  1  0.99694593  0.50099262  0.75429905  1
  Mn  Mn39  1  0.50730928  0.98454493  0.22303692  1
  Mn  Mn40  1  0.50510980  0.99384011  0.72814859  1
  Mn  Mn41  1  0.51011938  0.49561450  0.24405562  1
  Mn  Mn42  1  0.49573804  0.50199502  0.74714155  1
  Mn  Mn43  1  0.24035881  0.99941595  0.51230466  1
  Mn  Mn44  1  0.25356895  0.52050505  0.00961154  1
  Mn  Mn45  1  0.23755330  0.49665055  0.51042946  1
  Mn  Mn46  1  0.74622191  0.99869919  0.99144795  1
  Mn  Mn47  1  0.73998897  0.99631030  0.49741011  1
  Mn  Mn48  1  0.75326246  0.50450031  0.00112404  1
  Mn  Mn49  1  0.74299461  0.50344328  0.50309255  1
  Mn  Mn50  1  0.26887058  0.24693892  0.46488364  1
  Mn  Mn51  1  0.26107717  0.75101194  0.97683759  1
  Mn  Mn52  1  0.24620292  0.74922416  0.50044470  1
  Mn  Mn53  1  0.75924911  0.25035148  0.00405296  1
  Mn  Mn54  1  0.74636912  0.25107992  0.50640162  1
  Mn  Mn55  1  0.75538992  0.74567911  0.00058969  1
  Mn  Mn56  1  0.75144138  0.74684890  0.50506324  1
  Mn  Mn57  1  0.99573606  0.25813595  0.76497338  1
  Mn  Mn58  1  0.99768962  0.74800230  0.26375311  1
  Mn  Mn59  1  0.99748378  0.74983909  0.75034148  1
  Mn  Mn60  1  0.52232468  0.25619899  0.25405537  1
  Mn  Mn61  1  0.51452872  0.24787885  0.75158981  1
  Mn  Mn62  1  0.51669433  0.75238660  0.26337069  1
  Mn  Mn63  1  0.50306659  0.74684059  0.74828755  1
  O  O64  1  0.09797236  0.77064357  0.60863776  1
  O  O65  1  0.59273736  0.25469276  0.09841889  1
  O  O66  1  0.57908226  0.25150786  0.58749472  1
  O  O67  1  0.59733495  0.76084662  0.11223973  1
  O  O68  1  0.60450686  0.76341129  0.59985025  1
  O  O69  1  0.40387924  0.20136208  0.35081621  1
  O  O70  1  0.39694445  0.18174133  0.86253095  1
  O  O71  1  0.40529251  0.70245993  0.36589151  1
  O  O72  1  0.41024970  0.73075342  0.89939271  1
  O  O73  1  0.90651884  0.24170046  0.41274366  1
  O  O74  1  0.91190333  0.24024092  0.92366547  1
  O  O75  1  0.89261139  0.73031291  0.40797998  1
  O  O76  1  0.89971190  0.73313909  0.90281384  1
  O  O77  1  0.14766544  0.25139992  0.31849761  1
  O  O78  1  0.17588777  0.25308896  0.80275185  1
  O  O79  1  0.15771758  0.74724149  0.33820509  1
  O  O80  1  0.14497619  0.73810371  0.84942925  1
  O  O81  1  0.65532268  0.21960066  0.34423421  1
  O  O82  1  0.66119392  0.22948273  0.85835160  1
  O  O83  1  0.65775465  0.72539319  0.35134503  1
  O  O84  1  0.65071227  0.72888560  0.85775458  1
  O  O85  1  0.35311470  0.76254210  0.64113260  1
  O  O86  1  0.85663863  0.26846467  0.15405498  1
  O  O87  1  0.86030981  0.27434836  0.65624317  1
  O  O88  1  0.86902955  0.77065056  0.14261072  1
  O  O89  1  0.85120251  0.77171423  0.64697490  1
  O  O90  1  0.36267477  0.51741377  0.16106676  1
  O  O91  1  0.34954475  0.49667484  0.64383603  1
  O  O92  1  0.36159193  0.01927813  0.13584298  1
  O  O93  1  0.34626217  0.99726072  0.65722052  1
  O  O94  1  0.86250116  0.48688004  0.14489078  1
  O  O95  1  0.85332403  0.48051269  0.64411758  1
  O  O96  1  0.86029117  0.97697749  0.14944883  1
  O  O97  1  0.84286513  0.98096852  0.64165336  1
  O  O98  1  0.14715302  0.00567488  0.36225181  1
  O  O99  1  0.17754293  0.00490257  0.86799322  1
  O  O100  1  0.14928677  0.50796995  0.35707607  1
  O  O101  1  0.14907143  0.52647906  0.86322323  1
  O  O102  1  0.62935766  0.02069552  0.33505384  1
  O  O103  1  0.62824276  0.03334096  0.83455312  1
  O  O104  1  0.62437926  0.52959872  0.36319280  1
  O  O105  1  0.64043692  0.51365162  0.85696877  1
  O  O106  1  0.38989800  0.51440791  0.90035245  1
  O  O107  1  0.88464075  0.00930226  0.38948683  1
  O  O108  1  0.89309067  0.01151115  0.89716973  1
  O  O109  1  0.89165493  0.51849850  0.38988097  1
  O  O110  1  0.89213151  0.51756966  0.89627951  1
  O  O111  1  0.11076966  0.48089666  0.10607721  1
  O  O112  1  0.09681770  0.47503374  0.61748421  1
  O  O113  1  0.10630413  0.97082668  0.11237057  1
  O  O114  1  0.09580372  0.98010590  0.62054231  1
  O  O115  1  0.61784352  0.49347489  0.11005868  1
  O  O116  1  0.60133840  0.48709947  0.60975908  1
  O  O117  1  0.59482650  0.99043597  0.07711300  1
  O  O118  1  0.58441951  0.99328072  0.57428795  1
  O  O119  1  0.99364103  0.37870739  0.28095385  1
  O  O120  1  0.01579461  0.37957539  0.79954660  1
  O  O121  1  0.00395166  0.87134964  0.29172082  1
  O  O122  1  0.00581600  0.87307992  0.79380613  1
  O  O123  1  0.48163344  0.37826877  0.28945052  1
  O  O124  1  0.48404399  0.37453184  0.76273515  1
  O  O125  1  0.45919616  0.87452928  0.28789908  1
  O  O126  1  0.51426372  0.87251201  0.77456035  1
  O  O127  1  0.49006347  0.62513787  0.72045119  1
  O  O128  1  0.99356494  0.12533969  0.22789651  1
  O  O129  1  0.00223642  0.12802210  0.73611005  1
  O  O130  1  0.00580424  0.62710158  0.21624148  1
  O  O131  1  0.98538744  0.62588992  0.71781664  1
  O  O132  1  0.19703460  0.14670265  0.02952679  1
  O  O133  1  0.23183037  0.12827087  0.52827466  1
  O  O134  1  0.22246068  0.65197313  0.06033268  1
  O  O135  1  0.22530953  0.62370341  0.52332084  1
  O  O136  1  0.75833411  0.12338765  0.03701912  1
  O  O137  1  0.75047973  0.12456882  0.53412817  1
  O  O138  1  0.74643908  0.62723358  0.03989754  1
  O  O139  1  0.74444080  0.62540415  0.54460346  1
  O  O140  1  0.28565759  0.37373264  0.48212258  1
  O  O141  1  0.29542723  0.33076386  0.02098546  1
  O  O142  1  0.27792451  0.87965802  0.47798906  1
  O  O143  1  0.29506033  0.87453473  0.00023660  1
  O  O144  1  0.74089560  0.37726974  0.46360918  1
  O  O145  1  0.75219569  0.37558323  0.97208075  1
  O  O146  1  0.74637308  0.87168197  0.46223148  1
  O  O147  1  0.74381104  0.87277788  0.96277259  1
