# generated using pymatgen
data_K3ReN3
_symmetry_space_group_name_H-M   'P 1'
_cell_length_a   8.28430394
_cell_length_b   8.28238145
_cell_length_c   5.85481600
_cell_angle_alpha   90.00000000
_cell_angle_beta   90.00000000
_cell_angle_gamma   120.06229390
_symmetry_Int_Tables_number   1
_chemical_formula_structural   K3ReN3
_chemical_formula_sum   'K6 Re2 N6'
_cell_volume   347.68197798
_cell_formula_units_Z   2
loop_
 _symmetry_equiv_pos_site_id
 _symmetry_equiv_pos_as_xyz
  1  'x, y, z'
loop_
 _atom_site_type_symbol
 _atom_site_label
 _atom_site_symmetry_multiplicity
 _atom_site_fract_x
 _atom_site_fract_y
 _atom_site_fract_z
 _atom_site_occupancy
  K  K0  1  0.87817100  0.63286100  0.25000000  1
  K  K1  1  0.75451500  0.12183800  0.25000000  1
  K  K2  1  0.36712100  0.24515200  0.25000000  1
  K  K3  1  0.12182900  0.36713900  0.75000000  1
  K  K4  1  0.24548500  0.87816200  0.75000000  1
  K  K5  1  0.63287900  0.75484800  0.75000000  1
  Re  Re6  1  0.66658300  0.33334500  0.75000000  1
  Re  Re7  1  0.33341700  0.66665500  0.25000000  1
  N  N8  1  0.85348400  0.57451500  0.75000000  1
  N  N9  1  0.72103700  0.14645800  0.75000000  1
  N  N10  1  0.42549100  0.27902100  0.75000000  1
  N  N11  1  0.14651600  0.42548500  0.25000000  1
  N  N12  1  0.27896300  0.85354200  0.25000000  1
  N  N13  1  0.57450900  0.72097900  0.25000000  1
