# generated using pymatgen
data_SrCa7TiMn7O20
_symmetry_space_group_name_H-M   'P 1'
_cell_length_a   7.82583850
_cell_length_b   7.82583850
_cell_length_c   7.70377010
_cell_angle_alpha   88.89739502
_cell_angle_beta   88.89739502
_cell_angle_gamma   90.57959943
_symmetry_Int_Tables_number   1
_chemical_formula_structural   SrCa7TiMn7O20
_chemical_formula_sum   'Sr1 Ca7 Ti1 Mn7 O20'
_cell_volume   471.60710133
_cell_formula_units_Z   1
loop_
 _symmetry_equiv_pos_site_id
 _symmetry_equiv_pos_as_xyz
  1  'x, y, z'
loop_
 _atom_site_type_symbol
 _atom_site_label
 _atom_site_symmetry_multiplicity
 _atom_site_fract_x
 _atom_site_fract_y
 _atom_site_fract_z
 _atom_site_occupancy
  Sr  Sr0  1  0.25136500  0.25136500  0.25000000  1
  Ca  Ca1  1  0.27449300  0.27449300  0.70536100  1
  Ca  Ca2  1  0.25642900  0.73738000  0.26501900  1
  Ca  Ca3  1  0.26127500  0.73093000  0.71346500  1
  Ca  Ca4  1  0.73738000  0.25642900  0.26501900  1
  Ca  Ca5  1  0.73093000  0.26127500  0.71346500  1
  Ca  Ca6  1  0.74228000  0.74228000  0.26797700  1
  Ca  Ca7  1  0.73634800  0.73634800  0.71456200  1
  Ti  Ti8  1  0.99962400  0.99962400  0.99981400  1
  Mn  Mn9  1  0.00083700  0.00083700  0.51442500  1
  Mn  Mn10  1  0.99853800  0.49391400  0.00247500  1
  Mn  Mn11  1  0.00124900  0.50649400  0.49279100  1
  Mn  Mn12  1  0.49391400  0.99853800  0.00247500  1
  Mn  Mn13  1  0.50649400  0.00124900  0.49279100  1
  Mn  Mn14  1  0.50661200  0.50661200  0.99437300  1
  Mn  Mn15  1  0.50438800  0.50438800  0.49385600  1
  O  O16  1  0.94400700  0.94400700  0.78545800  1
  O  O17  1  0.01836900  0.52978500  0.24420700  1
  O  O18  1  0.99593500  0.51783300  0.75080600  1
  O  O19  1  0.52978500  0.01836900  0.24420700  1
  O  O20  1  0.51783300  0.99593500  0.75080600  1
  O  O21  1  0.50983400  0.50983400  0.74383600  1
  O  O22  1  0.21649300  0.95782200  0.05093800  1
  O  O23  1  0.25099800  0.00272000  0.51115700  1
  O  O24  1  0.25466900  0.50692000  0.00469300  1
  O  O25  1  0.26078900  0.50273000  0.48953600  1
  O  O26  1  0.75860700  0.00569000  0.47814100  1
  O  O27  1  0.74987800  0.51690800  0.03790000  1
  O  O28  1  0.74624800  0.50161000  0.47404100  1
  O  O29  1  0.95782200  0.21649300  0.05093800  1
  O  O30  1  0.00272000  0.25099800  0.51115700  1
  O  O31  1  0.00569000  0.75860700  0.47814100  1
  O  O32  1  0.50692000  0.25466900  0.00469300  1
  O  O33  1  0.50273000  0.26078900  0.48953600  1
  O  O34  1  0.51690800  0.74987800  0.03790000  1
  O  O35  1  0.50161000  0.74624800  0.47404100  1
