# generated using pymatgen
data_Fe(ReN2)3
_symmetry_space_group_name_H-M   'P 1'
_cell_length_a   4.80091432
_cell_length_b   5.29098400
_cell_length_c   7.61430794
_cell_angle_alpha   90.00000000
_cell_angle_beta   94.90924721
_cell_angle_gamma   90.00000000
_symmetry_Int_Tables_number   1
_chemical_formula_structural   Fe(ReN2)3
_chemical_formula_sum   'Fe2 Re6 N12'
_cell_volume   192.70576204
_cell_formula_units_Z   2
loop_
 _symmetry_equiv_pos_site_id
 _symmetry_equiv_pos_as_xyz
  1  'x, y, z'
loop_
 _atom_site_type_symbol
 _atom_site_label
 _atom_site_symmetry_multiplicity
 _atom_site_fract_x
 _atom_site_fract_y
 _atom_site_fract_z
 _atom_site_occupancy
  Fe  Fe0  1  0.50000000  0.00000000  0.50000000  1
  Fe  Fe1  1  0.00000000  0.50000000  0.00000000  1
  Re  Re2  1  0.46378700  0.58323900  0.26180500  1
  Re  Re3  1  0.96378700  0.91676100  0.76180500  1
  Re  Re4  1  0.53621300  0.41676100  0.73819500  1
  Re  Re5  1  0.03621300  0.08323900  0.23819500  1
  Re  Re6  1  0.00000000  0.50000000  0.50000000  1
  Re  Re7  1  0.50000000  0.00000000  0.00000000  1
  N  N8  1  0.16840900  0.82043900  0.41207200  1
  N  N9  1  0.66840900  0.67956100  0.91207200  1
  N  N10  1  0.83159100  0.17956100  0.58792800  1
  N  N11  1  0.33159100  0.32043900  0.08792800  1
  N  N12  1  0.16889000  0.80281800  0.08768100  1
  N  N13  1  0.66889000  0.69718200  0.58768100  1
  N  N14  1  0.83111000  0.19718200  0.91231900  1
  N  N15  1  0.33111000  0.30281800  0.41231900  1
  N  N16  1  0.83383800  0.43018300  0.24079100  1
  N  N17  1  0.33383800  0.06981700  0.74079100  1
  N  N18  1  0.16616200  0.56981700  0.75920900  1
  N  N19  1  0.66616200  0.93018300  0.25920900  1
