# generated using pymatgen
data_MoWN3
_symmetry_space_group_name_H-M   'P 1'
_cell_length_a   5.95601193
_cell_length_b   7.78997706
_cell_length_c   7.37657809
_cell_angle_alpha   104.02413772
_cell_angle_beta   106.30418315
_cell_angle_gamma   105.49973915
_symmetry_Int_Tables_number   1
_chemical_formula_structural   MoWN3
_chemical_formula_sum   'Mo4 W4 N12'
_cell_volume   297.32434919
_cell_formula_units_Z   4
loop_
 _symmetry_equiv_pos_site_id
 _symmetry_equiv_pos_as_xyz
  1  'x, y, z'
loop_
 _atom_site_type_symbol
 _atom_site_label
 _atom_site_symmetry_multiplicity
 _atom_site_fract_x
 _atom_site_fract_y
 _atom_site_fract_z
 _atom_site_occupancy
  Mo  Mo0  1  0.16525200  0.42610100  0.77019300  1
  Mo  Mo1  1  0.83474800  0.57389900  0.22980700  1
  Mo  Mo2  1  0.17249000  0.10129900  0.44304200  1
  Mo  Mo3  1  0.82751000  0.89870100  0.55695800  1
  W  W4  1  0.76475400  0.84173300  0.92100300  1
  W  W5  1  0.23524600  0.15826700  0.07899700  1
  W  W6  1  0.73706300  0.19464700  0.33894400  1
  W  W7  1  0.26293700  0.80535300  0.66105600  1
  N  N8  1  0.40291100  0.05686600  0.30040700  1
  N  N9  1  0.59708900  0.94313400  0.69959300  1
  N  N10  1  0.86369000  0.65832000  0.02399200  1
  N  N11  1  0.13631000  0.34168000  0.97600800  1
  N  N12  1  0.90680800  0.07219800  0.15409900  1
  N  N13  1  0.09319200  0.92780200  0.84590100  1
  N  N14  1  0.16165100  0.62008300  0.41360200  1
  N  N15  1  0.83834900  0.37991700  0.58639800  1
  N  N16  1  0.59834100  0.31646900  0.14197500  1
  N  N17  1  0.40165900  0.68353100  0.85802500  1
  N  N18  1  0.64485500  0.71493600  0.31958900  1
  N  N19  1  0.35514500  0.28506400  0.68041100  1
