# generated using pymatgen
data_Sr8PbN6
_symmetry_space_group_name_H-M   'P 1'
_cell_length_a   16.87827393
_cell_length_b   16.05675513
_cell_length_c   4.98539730
_cell_angle_alpha   91.63528682
_cell_angle_beta   89.22223535
_cell_angle_gamma   118.40255098
_symmetry_Int_Tables_number   1
_chemical_formula_structural   Sr8PbN6
_chemical_formula_sum   'Sr24 Pb3 N18'
_cell_volume   1187.97533856
_cell_formula_units_Z   3
loop_
 _symmetry_equiv_pos_site_id
 _symmetry_equiv_pos_as_xyz
  1  'x, y, z'
loop_
 _atom_site_type_symbol
 _atom_site_label
 _atom_site_symmetry_multiplicity
 _atom_site_fract_x
 _atom_site_fract_y
 _atom_site_fract_z
 _atom_site_occupancy
  Sr  Sr0  1  0.00000000  0.64915200  0.45118800  1
  Sr  Sr1  1  0.54543500  0.01032900  0.49357100  1
  Sr  Sr2  1  0.45456500  0.46489400  0.49357100  1
  Sr  Sr3  1  0.00000000  0.79849700  0.97329700  1
  Sr  Sr4  1  0.86574600  0.10128900  0.40731800  1
  Sr  Sr5  1  0.13425400  0.23554300  0.40731800  1
  Sr  Sr6  1  0.20320800  0.64607600  0.98707300  1
  Sr  Sr7  1  0.44802800  0.80991400  0.00339700  1
  Sr  Sr8  1  0.24501400  0.38884400  0.90894800  1
  Sr  Sr9  1  0.79679200  0.44286900  0.98707300  1
  Sr  Sr10  1  0.75498600  0.14383000  0.90894800  1
  Sr  Sr11  1  0.55197200  0.36188500  0.00339700  1
  Sr  Sr12  1  0.66660700  0.64971800  0.03244500  1
  Sr  Sr13  1  0.00000000  0.48419800  0.89281800  1
  Sr  Sr14  1  0.33339300  0.98311100  0.03244500  1
  Sr  Sr15  1  0.86431300  0.85088800  0.49795300  1
  Sr  Sr16  1  0.00000000  0.27211400  0.92357200  1
  Sr  Sr17  1  0.13568700  0.98657600  0.49795300  1
  Sr  Sr18  1  0.58423700  0.74719300  0.51837100  1
  Sr  Sr19  1  0.14177200  0.46465800  0.43504100  1
  Sr  Sr20  1  0.26249900  0.81466700  0.51001500  1
  Sr  Sr21  1  0.41576300  0.16295600  0.51837100  1
  Sr  Sr22  1  0.73750100  0.55216600  0.51001500  1
  Sr  Sr23  1  0.85822800  0.32288500  0.43504100  1
  Pb  Pb24  1  0.00000000  0.05777400  0.91323700  1
  Pb  Pb25  1  0.36623500  0.58858400  0.25890100  1
  Pb  Pb26  1  0.63376500  0.22234900  0.25890100  1
  N  N27  1  0.00000000  0.27601300  0.42457500  1
  N  N28  1  0.28039300  0.99293400  0.53313400  1
  N  N29  1  0.71960700  0.71254100  0.53313400  1
  N  N30  1  0.50287900  0.60829100  0.18027500  1
  N  N31  1  0.13383600  0.45439100  0.93451900  1
  N  N32  1  0.30918500  0.81917100  0.00693000  1
  N  N33  1  0.49712100  0.10541300  0.18027500  1
  N  N34  1  0.69081500  0.50998600  0.00693000  1
  N  N35  1  0.86616400  0.32055600  0.93451900  1
  N  N36  1  0.12170700  0.20525700  0.90575200  1
  N  N37  1  0.00000000  0.82377700  0.47545600  1
  N  N38  1  0.87829300  0.08355000  0.90575200  1
  N  N39  1  0.13132800  0.62463500  0.49476300  1
  N  N40  1  0.50658300  0.84359600  0.50164400  1
  N  N41  1  0.29254900  0.43458000  0.41415900  1
  N  N42  1  0.86867200  0.49330700  0.49476300  1
  N  N43  1  0.70745100  0.14203100  0.41415900  1
  N  N44  1  0.49341700  0.33701300  0.50164400  1
