# generated using pymatgen
data_Mn5FeN4
_symmetry_space_group_name_H-M   'P 1'
_cell_length_a   6.62947900
_cell_length_b   6.08318500
_cell_length_c   4.69964600
_cell_angle_alpha   90.00000000
_cell_angle_beta   90.00000000
_cell_angle_gamma   90.00000000
_symmetry_Int_Tables_number   1
_chemical_formula_structural   Mn5FeN4
_chemical_formula_sum   'Mn10 Fe2 N8'
_cell_volume   189.52895565
_cell_formula_units_Z   2
loop_
 _symmetry_equiv_pos_site_id
 _symmetry_equiv_pos_as_xyz
  1  'x, y, z'
loop_
 _atom_site_type_symbol
 _atom_site_label
 _atom_site_symmetry_multiplicity
 _atom_site_fract_x
 _atom_site_fract_y
 _atom_site_fract_z
 _atom_site_occupancy
  Mn  Mn0  1  0.55657700  0.52325000  0.25003900  1
  Mn  Mn1  1  0.94342300  0.52325000  0.25003900  1
  Mn  Mn2  1  0.55657700  0.97675000  0.25003900  1
  Mn  Mn3  1  0.94342300  0.97675000  0.25003900  1
  Mn  Mn4  1  0.44342300  0.47675000  0.74996100  1
  Mn  Mn5  1  0.05657700  0.47675000  0.74996100  1
  Mn  Mn6  1  0.44342300  0.02325000  0.74996100  1
  Mn  Mn7  1  0.05657700  0.02325000  0.74996100  1
  Mn  Mn8  1  0.75000000  0.75000000  0.78290600  1
  Mn  Mn9  1  0.25000000  0.25000000  0.21709400  1
  Fe  Fe10  1  0.75000000  0.25000000  0.64872000  1
  Fe  Fe11  1  0.25000000  0.75000000  0.35128000  1
  N  N12  1  0.75000000  0.03273400  0.94960300  1
  N  N13  1  0.75000000  0.46726600  0.94960300  1
  N  N14  1  0.25000000  0.96726600  0.05039700  1
  N  N15  1  0.25000000  0.53273400  0.05039700  1
  N  N16  1  0.50233800  0.75000000  0.54131500  1
  N  N17  1  0.99766200  0.75000000  0.54131500  1
  N  N18  1  0.49766200  0.25000000  0.45868500  1
  N  N19  1  0.00233800  0.25000000  0.45868500  1
