# generated using pymatgen
data_SrCa7Ti2Mn6O20
_symmetry_space_group_name_H-M   'P 1'
_cell_length_a   7.89692618
_cell_length_b   7.76906946
_cell_length_c   7.96294411
_cell_angle_alpha   90.10333487
_cell_angle_beta   90.68358543
_cell_angle_gamma   90.47571739
_symmetry_Int_Tables_number   1
_chemical_formula_structural   SrCa7Ti2Mn6O20
_chemical_formula_sum   'Sr1 Ca7 Ti2 Mn6 O20'
_cell_volume   488.48820691
_cell_formula_units_Z   1
loop_
 _symmetry_equiv_pos_site_id
 _symmetry_equiv_pos_as_xyz
  1  'x, y, z'
loop_
 _atom_site_type_symbol
 _atom_site_label
 _atom_site_symmetry_multiplicity
 _atom_site_fract_x
 _atom_site_fract_y
 _atom_site_fract_z
 _atom_site_occupancy
  Sr  Sr0  1  0.23898400  0.23880800  0.28214500  1
  Ca  Ca1  1  0.23059200  0.29337200  0.73796300  1
  Ca  Ca2  1  0.23666500  0.71894200  0.25217500  1
  Ca  Ca3  1  0.21768200  0.72583400  0.70476400  1
  Ca  Ca4  1  0.74769300  0.28554700  0.26785000  1
  Ca  Ca5  1  0.74946600  0.29239600  0.70242900  1
  Ca  Ca6  1  0.73345500  0.75100300  0.27536500  1
  Ca  Ca7  1  0.74526100  0.73109800  0.69705000  1
  Ti  Ti8  1  0.97696200  0.01456300  0.99018100  1
  Ti  Ti9  1  0.54863100  0.00768000  0.00650900  1
  Mn  Mn10  1  0.99535400  0.99466400  0.52567200  1
  Mn  Mn11  1  0.98788200  0.49977000  0.99139500  1
  Mn  Mn12  1  0.99320600  0.50178400  0.48199400  1
  Mn  Mn13  1  0.49784800  0.00124500  0.52509100  1
  Mn  Mn14  1  0.49367800  0.52198900  0.99149800  1
  Mn  Mn15  1  0.49130000  0.50143700  0.49778200  1
  O  O16  1  0.98347700  0.88570600  0.80021700  1
  O  O17  1  0.02923300  0.47460900  0.23126700  1
  O  O18  1  0.95813700  0.52334300  0.74076300  1
  O  O19  1  0.76810100  0.01199400  0.10509700  1
  O  O20  1  0.57705800  0.00250800  0.78355900  1
  O  O21  1  0.53361800  0.49553200  0.74764300  1
  O  O22  1  0.13180200  0.96822100  0.14980700  1
  O  O23  1  0.24666900  0.03117000  0.57499800  1
  O  O24  1  0.23668100  0.54388700  0.96277800  1
  O  O25  1  0.25058900  0.47812700  0.51459100  1
  O  O26  1  0.74822700  0.96204900  0.48669700  1
  O  O27  1  0.74217100  0.51911400  0.05560500  1
  O  O28  1  0.73222000  0.52413500  0.45887000  1
  O  O29  1  0.00508800  0.23276000  0.92163400  1
  O  O30  1  0.96407400  0.24728700  0.49958300  1
  O  O31  1  0.02496600  0.75076600  0.45953900  1
  O  O32  1  0.46893200  0.21926700  0.06837600  1
  O  O33  1  0.52174500  0.25193900  0.45713500  1
  O  O34  1  0.48108000  0.79782700  0.08844800  1
  O  O35  1  0.46147300  0.74962600  0.46353200  1
