# generated using pymatgen
data_Sr3Ca5Mn8O21
_symmetry_space_group_name_H-M   'P 1'
_cell_length_a   11.12358686
_cell_length_b   15.64602906
_cell_length_c   11.04954106
_cell_angle_alpha   90.18698943
_cell_angle_beta   91.18093501
_cell_angle_gamma   90.37675374
_symmetry_Int_Tables_number   1
_chemical_formula_structural   Sr3Ca5Mn8O21
_chemical_formula_sum   'Sr12 Ca20 Mn32 O84'
_cell_volume   1922.60057622
_cell_formula_units_Z   4
loop_
 _symmetry_equiv_pos_site_id
 _symmetry_equiv_pos_as_xyz
  1  'x, y, z'
loop_
 _atom_site_type_symbol
 _atom_site_label
 _atom_site_symmetry_multiplicity
 _atom_site_fract_x
 _atom_site_fract_y
 _atom_site_fract_z
 _atom_site_occupancy
  Sr  Sr0  1  0.99826035  0.11420192  0.50100569  1
  Sr  Sr1  1  0.99800003  0.11477676  0.00092867  1
  Sr  Sr2  1  0.00262780  0.62325970  0.50555445  1
  Sr  Sr3  1  0.50831398  0.38599322  0.98950307  1
  Sr  Sr4  1  0.50326185  0.38124408  0.50956587  1
  Sr  Sr5  1  0.51285576  0.86500558  0.99212339  1
  Sr  Sr6  1  0.23520168  0.38491757  0.24519577  1
  Sr  Sr7  1  0.24154463  0.39404160  0.76391903  1
  Sr  Sr8  1  0.23748390  0.88075799  0.26070177  1
  Sr  Sr9  1  0.23235772  0.11636748  0.24627366  1
  Sr  Sr10  1  0.22840966  0.11330037  0.75037823  1
  Sr  Sr11  1  0.23847712  0.62337684  0.26268384  1
  Ca  Ca12  1  0.01217417  0.61912302  0.98802606  1
  Ca  Ca13  1  0.54386104  0.12623362  0.48012271  1
  Ca  Ca14  1  0.54407012  0.12929858  0.98708469  1
  Ca  Ca15  1  0.52904618  0.63075479  0.51175895  1
  Ca  Ca16  1  0.53392934  0.62267710  0.97416642  1
  Ca  Ca17  1  0.49143414  0.86622222  0.51231918  1
  Ca  Ca18  1  0.96340356  0.38668638  0.00084851  1
  Ca  Ca19  1  0.96016581  0.38719593  0.49892569  1
  Ca  Ca20  1  0.96072663  0.88128049  0.99877150  1
  Ca  Ca21  1  0.96863270  0.87175710  0.51063591  1
  Ca  Ca22  1  0.21540851  0.87068950  0.73338853  1
  Ca  Ca23  1  0.77172390  0.38174488  0.25651872  1
  Ca  Ca24  1  0.74907251  0.39019658  0.75395645  1
  Ca  Ca25  1  0.77301762  0.87301353  0.25838687  1
  Ca  Ca26  1  0.74331675  0.86545681  0.75276838  1
  Ca  Ca27  1  0.27233959  0.62647795  0.73900404  1
  Ca  Ca28  1  0.77900620  0.11791141  0.25058342  1
  Ca  Ca29  1  0.77830569  0.11955484  0.75178437  1
  Ca  Ca30  1  0.77557900  0.62016731  0.24844331  1
  Ca  Ca31  1  0.76861913  0.62298265  0.75529028  1
  Mn  Mn32  1  0.99513177  0.99460505  0.25390506  1
  Mn  Mn33  1  0.99082760  0.99137069  0.75224442  1
  Mn  Mn34  1  0.99980657  0.50091466  0.24699698  1
  Mn  Mn35  1  0.99795273  0.50084022  0.75222720  1
  Mn  Mn36  1  0.51320051  0.98653518  0.23507365  1
  Mn  Mn37  1  0.50879316  0.99011432  0.73260540  1
  Mn  Mn38  1  0.50924082  0.49119896  0.24099056  1
  Mn  Mn39  1  0.50037572  0.50419283  0.74706620  1
  Mn  Mn40  1  0.24367461  0.99406229  0.01286453  1
  Mn  Mn41  1  0.24231935  0.99760708  0.51576112  1
  Mn  Mn42  1  0.25254933  0.51146444  0.00440771  1
  Mn  Mn43  1  0.23724340  0.49578969  0.51136680  1
  Mn  Mn44  1  0.74540220  0.00119407  0.99637442  1
  Mn  Mn45  1  0.74359211  0.99729921  0.49660050  1
  Mn  Mn46  1  0.75216707  0.50423786  0.99963030  1
  Mn  Mn47  1  0.74400350  0.50384931  0.50180012  1
  Mn  Mn48  1  0.26651956  0.24004676  0.96271719  1
  Mn  Mn49  1  0.26681297  0.24413465  0.46435460  1
  Mn  Mn50  1  0.25809753  0.75135462  0.96882057  1
  Mn  Mn51  1  0.24872127  0.75040626  0.50224370  1
  Mn  Mn52  1  0.75502946  0.24985629  0.00401829  1
  Mn  Mn53  1  0.75391982  0.24906375  0.50554922  1
  Mn  Mn54  1  0.75614698  0.74678697  -0.00005755  1
  Mn  Mn55  1  0.74951776  0.74733163  0.50482920  1
  Mn  Mn56  1  0.98973210  0.25238043  0.25994099  1
  Mn  Mn57  1  0.98858599  0.25666887  0.76197052  1
  Mn  Mn58  1  0.99267061  0.74996998  0.26169616  1
  Mn  Mn59  1  0.99579768  0.74909804  0.74943680  1
  Mn  Mn60  1  0.52383683  0.25549965  0.25751279  1
  Mn  Mn61  1  0.52308474  0.25255384  0.75497752  1
  Mn  Mn62  1  0.52319463  0.75292765  0.26732430  1
  Mn  Mn63  1  0.50384536  0.74768872  0.74775940  1
  O  O64  1  0.09861374  0.77053205  0.60782942  1
  O  O65  1  0.58910739  0.25457570  0.10082186  1
  O  O66  1  0.58889795  0.24666525  0.59859736  1
  O  O67  1  0.59832340  0.74980413  0.11338553  1
  O  O68  1  0.60139831  0.76124278  0.60354274  1
  O  O69  1  0.40611438  0.20270795  0.35443752  1
  O  O70  1  0.40576585  0.20741250  0.86192825  1
  O  O71  1  0.40394466  0.71375710  0.37035238  1
  O  O72  1  0.40909736  0.73064772  0.89752633  1
  O  O73  1  0.89742619  0.24378562  0.41202174  1
  O  O74  1  0.89875891  0.24251482  0.91345912  1
  O  O75  1  0.88419575  0.73721761  0.39982948  1
  O  O76  1  0.89908607  0.73465511  0.90180178  1
  O  O77  1  0.14964443  0.24823067  0.32350039  1
  O  O78  1  0.15071303  0.25018379  0.83116652  1
  O  O79  1  0.14635660  0.74785380  0.34857795  1
  O  O80  1  0.14505715  0.73772128  0.84269634  1
  O  O81  1  0.65650654  0.21999258  0.35220107  1
  O  O82  1  0.65741438  0.22189727  0.85629766  1
  O  O83  1  0.65289367  0.71526434  0.35905846  1
  O  O84  1  0.65040557  0.72987054  0.85612689  1
  O  O85  1  0.35484330  0.76317201  0.64767028  1
  O  O86  1  0.85462251  0.27131178  0.14754389  1
  O  O87  1  0.85485498  0.27736494  0.64850587  1
  O  O88  1  0.86674407  0.77153302  0.13848293  1
  O  O89  1  0.85207015  0.76942409  0.64470558  1
  O  O90  1  0.36478802  0.51326217  0.15507346  1
  O  O91  1  0.36326569  0.49559660  0.63274442  1
  O  O92  1  0.36271508  0.00448267  0.15478872  1
  O  O93  1  0.35181350  0.99322891  0.66356735  1
  O  O94  1  0.86058536  0.48482931  0.13818339  1
  O  O95  1  0.85923136  0.48257416  0.63869625  1
  O  O96  1  0.85529029  0.98225310  0.13806852  1
  O  O97  1  0.84642037  0.97720242  0.63908119  1
  O  O98  1  0.14405958  0.00724409  0.36998877  1
  O  O99  1  0.14718758  0.99609894  0.86773580  1
  O  O100  1  0.13922372  0.50464561  0.36237008  1
  O  O101  1  0.14549988  0.52401005  0.85915669  1
  O  O102  1  0.63193675  0.02556731  0.34672361  1
  O  O103  1  0.62417792  0.02981790  0.84772862  1
  O  O104  1  0.61312754  0.52394166  0.37018364  1
  O  O105  1  0.64164166  0.51652707  0.85910074  1
  O  O106  1  0.39060755  0.51592087  0.89231274  1
  O  O107  1  0.87919444  0.00995854  0.38456214  1
  O  O108  1  0.88017185  0.01077337  0.88639397  1
  O  O109  1  0.87472213  0.51219018  0.38211088  1
  O  O110  1  0.88922057  0.51388586  0.89316880  1
  O  O111  1  0.11189669  0.48418531  0.10413917  1
  O  O112  1  0.09867860  0.47675298  0.61650218  1
  O  O113  1  0.10156543  0.97929430  0.12148914  1
  O  O114  1  0.09746820  0.97883720  0.61999449  1
  O  O115  1  0.61555037  0.49935078  0.10850809  1
  O  O116  1  0.61261598  0.49201741  0.61709021  1
  O  O117  1  0.60017904  0.99932739  0.08910379  1
  O  O118  1  0.58983049  0.99614587  0.58134743  1
  O  O119  1  0.99326946  0.37670572  0.27755878  1
  O  O120  1  0.00166646  0.37975018  0.79107106  1
  O  O121  1  0.99318156  0.87260289  0.28822551  1
  O  O122  1  0.99600018  0.86951263  0.78900329  1
  O  O123  1  0.47144961  0.37469825  0.27826018  1
  O  O124  1  0.49410593  0.37407765  0.76013854  1
  O  O125  1  0.48149622  0.87399413  0.29062280  1
  O  O126  1  0.51959934  0.87187269  0.77239022  1
  O  O127  1  0.49323031  0.62686437  0.72191907  1
  O  O128  1  0.99491107  0.12769936  0.22873923  1
  O  O129  1  0.99476788  0.13108951  0.73008089  1
  O  O130  1  0.99949798  0.62790345  0.21890246  1
  O  O131  1  0.98370592  0.62435516  0.72678954  1
  O  O132  1  0.23909911  0.12590637  0.01659133  1
  O  O133  1  0.24322932  0.12629101  0.52733986  1
  O  O134  1  0.22715613  0.64920700  0.04359866  1
  O  O135  1  0.23753954  0.62342582  0.52158650  1
  O  O136  1  0.75440881  0.12606762  0.03693497  1
  O  O137  1  0.75491800  0.12278755  0.53692138  1
  O  O138  1  0.75239537  0.62599013  0.03371040  1
  O  O139  1  0.74868590  0.62636284  0.54229694  1
  O  O140  1  0.27360205  0.36891738  0.48965680  1
  O  O141  1  0.28235969  0.35379488  0.00694036  1
  O  O142  1  0.28198770  0.87918026  0.48156203  1
  O  O143  1  0.27890969  0.86959352  0.00561323  1
  O  O144  1  0.73900981  0.37623650  0.46897736  1
  O  O145  1  0.74553090  0.37635278  0.97033740  1
  O  O146  1  0.73783710  0.87264796  0.46509596  1
  O  O147  1  0.74421115  0.87373009  0.96914450  1
