# generated using pymatgen
data_Na2TiN2
_symmetry_space_group_name_H-M   'P 1'
_cell_length_a   3.13705504
_cell_length_b   3.13687895
_cell_length_c   8.84737219
_cell_angle_alpha   89.99453353
_cell_angle_beta   89.98286130
_cell_angle_gamma   120.00607578
_symmetry_Int_Tables_number   1
_chemical_formula_structural   Na2TiN2
_chemical_formula_sum   'Na2 Ti1 N2'
_cell_volume   75.39424521
_cell_formula_units_Z   1
loop_
 _symmetry_equiv_pos_site_id
 _symmetry_equiv_pos_as_xyz
  1  'x, y, z'
loop_
 _atom_site_type_symbol
 _atom_site_label
 _atom_site_symmetry_multiplicity
 _atom_site_fract_x
 _atom_site_fract_y
 _atom_site_fract_z
 _atom_site_occupancy
  Na  Na0  1  0.66691200  0.33347100  0.29246300  1
  Na  Na1  1  0.33308800  0.66652900  0.70753700  1
  Ti  Ti2  1  0.00000000  0.00000000  0.00000000  1
  N  N3  1  0.66702600  0.33351800  0.87870900  1
  N  N4  1  0.33297400  0.66648200  0.12129100  1
