# generated using pymatgen
data_Ca2Mn2O5
_symmetry_space_group_name_H-M   'P 1'
_cell_length_a   7.85824318
_cell_length_b   7.85824318
_cell_length_c   7.66577821
_cell_angle_alpha   87.68013975
_cell_angle_beta   87.68013975
_cell_angle_gamma   90.05269548
_symmetry_Int_Tables_number   1
_chemical_formula_structural   Ca2Mn2O5
_chemical_formula_sum   'Ca8 Mn8 O20'
_cell_volume   472.59985776
_cell_formula_units_Z   4
loop_
 _symmetry_equiv_pos_site_id
 _symmetry_equiv_pos_as_xyz
  1  'x, y, z'
loop_
 _atom_site_type_symbol
 _atom_site_label
 _atom_site_symmetry_multiplicity
 _atom_site_fract_x
 _atom_site_fract_y
 _atom_site_fract_z
 _atom_site_occupancy
  Ca  Ca0  1  0.25181400  0.25181400  0.24547800  1
  Ca  Ca1  1  0.26823900  0.26823900  0.68220000  1
  Ca  Ca2  1  0.25128600  0.73068900  0.25211700  1
  Ca  Ca3  1  0.24837100  0.72287400  0.69855900  1
  Ca  Ca4  1  0.73068900  0.25128600  0.25211700  1
  Ca  Ca5  1  0.72287400  0.24837100  0.69855900  1
  Ca  Ca6  1  0.74140300  0.74140300  0.27040400  1
  Ca  Ca7  1  0.72611600  0.72611600  0.73941900  1
  Mn  Mn8  1  0.01924100  0.01924100  0.99525800  1
  Mn  Mn9  1  0.00174000  0.00174000  0.52726800  1
  Mn  Mn10  1  0.99976800  0.48789700  0.00434000  1
  Mn  Mn11  1  0.00011800  0.50899900  0.48930300  1
  Mn  Mn12  1  0.48789700  0.99976800  0.00434000  1
  Mn  Mn13  1  0.50899900  0.00011800  0.48930300  1
  Mn  Mn14  1  0.49858800  0.49858800  0.99104300  1
  Mn  Mn15  1  0.50249000  0.50249000  0.48803600  1
  O  O16  1  0.93019100  0.93019100  0.80087900  1
  O  O17  1  0.98831600  0.57866400  0.23058200  1
  O  O18  1  0.02779200  0.50906900  0.75188600  1
  O  O19  1  0.57866400  0.98831600  0.23058200  1
  O  O20  1  0.50906900  0.02779200  0.75188600  1
  O  O21  1  0.48348300  0.48348300  0.74104500  1
  O  O22  1  0.23047300  0.98375700  0.08877500  1
  O  O23  1  0.25349600  0.00838600  0.51329800  1
  O  O24  1  0.25308000  0.50248500  0.03970800  1
  O  O25  1  0.26135500  0.49933000  0.45974800  1
  O  O26  1  0.76137500  0.01665200  0.48975300  1
  O  O27  1  0.74758900  0.51001700  0.00401400  1
  O  O28  1  0.74496300  0.49989400  0.48740300  1
  O  O29  1  0.98375700  0.23047300  0.08877500  1
  O  O30  1  0.00838600  0.25349600  0.51329800  1
  O  O31  1  0.01665200  0.76137500  0.48975300  1
  O  O32  1  0.50248500  0.25308000  0.03970800  1
  O  O33  1  0.49933000  0.26135500  0.45974800  1
  O  O34  1  0.51001700  0.74758900  0.00401400  1
  O  O35  1  0.49989400  0.74496300  0.48740300  1
