# generated using pymatgen
data_Cs6OsN4
_symmetry_space_group_name_H-M   'P 1'
_cell_length_a   9.68593000
_cell_length_b   9.68593000
_cell_length_c   11.11736900
_cell_angle_alpha   90.00000000
_cell_angle_beta   90.00000000
_cell_angle_gamma   90.00000000
_symmetry_Int_Tables_number   1
_chemical_formula_structural   Cs6OsN4
_chemical_formula_sum   'Cs12 Os2 N8'
_cell_volume   1043.00087525
_cell_formula_units_Z   2
loop_
 _symmetry_equiv_pos_site_id
 _symmetry_equiv_pos_as_xyz
  1  'x, y, z'
loop_
 _atom_site_type_symbol
 _atom_site_label
 _atom_site_symmetry_multiplicity
 _atom_site_fract_x
 _atom_site_fract_y
 _atom_site_fract_z
 _atom_site_occupancy
  Cs  Cs0  1  0.00000000  0.50000000  0.79463400  1
  Cs  Cs1  1  0.50000000  0.00000000  0.70536600  1
  Cs  Cs2  1  0.50000000  0.00000000  0.20536600  1
  Cs  Cs3  1  0.00000000  0.50000000  0.29463400  1
  Cs  Cs4  1  0.24303900  0.24303900  0.50000000  1
  Cs  Cs5  1  0.75696100  0.75696100  0.50000000  1
  Cs  Cs6  1  0.74303900  0.74303900  0.00000000  1
  Cs  Cs7  1  0.25696100  0.25696100  0.00000000  1
  Cs  Cs8  1  0.75696100  0.24303900  0.50000000  1
  Cs  Cs9  1  0.24303900  0.75696100  0.50000000  1
  Cs  Cs10  1  0.25696100  0.74303900  0.00000000  1
  Cs  Cs11  1  0.74303900  0.25696100  0.00000000  1
  Os  Os12  1  0.50000000  0.50000000  0.50000000  1
  Os  Os13  1  0.00000000  0.00000000  0.00000000  1
  N  N14  1  0.34241700  0.50000000  0.41097900  1
  N  N15  1  0.65758300  0.50000000  0.41097900  1
  N  N16  1  0.84241700  0.00000000  0.08902100  1
  N  N17  1  0.15758300  0.00000000  0.08902100  1
  N  N18  1  0.50000000  0.34241700  0.58902100  1
  N  N19  1  0.50000000  0.65758300  0.58902100  1
  N  N20  1  0.00000000  0.84241700  0.91097900  1
  N  N21  1  0.00000000  0.15758300  0.91097900  1
