# generated using pymatgen
data_Sr7RhN6
_symmetry_space_group_name_H-M   'P 1'
_cell_length_a   11.72424600
_cell_length_b   6.71958800
_cell_length_c   13.93853700
_cell_angle_alpha   90.00000000
_cell_angle_beta   90.00000000
_cell_angle_gamma   90.00000000
_symmetry_Int_Tables_number   1
_chemical_formula_structural   Sr7RhN6
_chemical_formula_sum   'Sr28 Rh4 N24'
_cell_volume   1098.10725385
_cell_formula_units_Z   4
loop_
 _symmetry_equiv_pos_site_id
 _symmetry_equiv_pos_as_xyz
  1  'x, y, z'
loop_
 _atom_site_type_symbol
 _atom_site_label
 _atom_site_symmetry_multiplicity
 _atom_site_fract_x
 _atom_site_fract_y
 _atom_site_fract_z
 _atom_site_occupancy
  Sr  Sr0  1  0.03668600  0.73076100  0.97888200  1
  Sr  Sr1  1  0.46331400  0.76923900  0.47888200  1
  Sr  Sr2  1  0.53668600  0.76923900  0.02111800  1
  Sr  Sr3  1  0.96331400  0.73076100  0.52111800  1
  Sr  Sr4  1  0.96331400  0.26923900  0.02111800  1
  Sr  Sr5  1  0.53668600  0.23076100  0.52111800  1
  Sr  Sr6  1  0.46331400  0.23076100  0.97888200  1
  Sr  Sr7  1  0.03668600  0.26923900  0.47888200  1
  Sr  Sr8  1  0.22335000  0.86320200  0.62619900  1
  Sr  Sr9  1  0.27665000  0.63679800  0.12619900  1
  Sr  Sr10  1  0.72335000  0.63679800  0.37380100  1
  Sr  Sr11  1  0.77665000  0.86320200  0.87380100  1
  Sr  Sr12  1  0.77665000  0.13679800  0.37380100  1
  Sr  Sr13  1  0.72335000  0.36320200  0.87380100  1
  Sr  Sr14  1  0.27665000  0.36320200  0.62619900  1
  Sr  Sr15  1  0.22335000  0.13679800  0.12619900  1
  Sr  Sr16  1  0.29402500  0.60709500  0.87760800  1
  Sr  Sr17  1  0.20597500  0.89290500  0.37760800  1
  Sr  Sr18  1  0.79402500  0.89290500  0.12239200  1
  Sr  Sr19  1  0.70597500  0.60709500  0.62239200  1
  Sr  Sr20  1  0.70597500  0.39290500  0.12239200  1
  Sr  Sr21  1  0.79402500  0.10709500  0.62239200  1
  Sr  Sr22  1  0.20597500  0.10709500  0.87760800  1
  Sr  Sr23  1  0.29402500  0.39290500  0.37760800  1
  Sr  Sr24  1  0.00000000  0.43187700  0.75000000  1
  Sr  Sr25  1  0.50000000  0.06812300  0.25000000  1
  Sr  Sr26  1  0.00000000  0.56812300  0.25000000  1
  Sr  Sr27  1  0.50000000  0.93187700  0.75000000  1
  Rh  Rh28  1  0.00000000  0.92483100  0.75000000  1
  Rh  Rh29  1  0.50000000  0.57516900  0.25000000  1
  Rh  Rh30  1  0.00000000  0.07516900  0.25000000  1
  Rh  Rh31  1  0.50000000  0.42483100  0.75000000  1
  N  N32  1  0.12581900  0.74690900  0.79107000  1
  N  N33  1  0.37418100  0.75309100  0.29107000  1
  N  N34  1  0.62581900  0.75309100  0.20893000  1
  N  N35  1  0.87418100  0.74690900  0.70893000  1
  N  N36  1  0.87418100  0.25309100  0.20893000  1
  N  N37  1  0.62581900  0.24690900  0.70893000  1
  N  N38  1  0.37418100  0.24690900  0.79107000  1
  N  N39  1  0.12581900  0.25309100  0.29107000  1
  N  N40  1  0.16834200  0.59611900  0.50306300  1
  N  N41  1  0.33165800  0.90388100  0.00306300  1
  N  N42  1  0.66834200  0.90388100  0.49693700  1
  N  N43  1  0.83165800  0.59611900  0.99693700  1
  N  N44  1  0.83165800  0.40388100  0.49693700  1
  N  N45  1  0.66834200  0.09611900  0.99693700  1
  N  N46  1  0.33165800  0.09611900  0.50306300  1
  N  N47  1  0.16834200  0.40388100  0.00306300  1
  N  N48  1  0.45646300  0.60816900  0.64354800  1
  N  N49  1  0.04353700  0.89183100  0.14354800  1
  N  N50  1  0.95646300  0.89183100  0.35645200  1
  N  N51  1  0.54353700  0.60816900  0.85645200  1
  N  N52  1  0.54353700  0.39183100  0.35645200  1
  N  N53  1  0.95646300  0.10816900  0.85645200  1
  N  N54  1  0.04353700  0.10816900  0.64354800  1
  N  N55  1  0.45646300  0.39183100  0.14354800  1
