# generated using pymatgen
data_Ca4Mn4O11
_symmetry_space_group_name_H-M   'P 1'
_cell_length_a   5.43184297
_cell_length_b   5.43184297
_cell_length_c   7.63429000
_cell_angle_alpha   90.00000000
_cell_angle_beta   90.00000000
_cell_angle_gamma   90.00000000
_symmetry_Int_Tables_number   1
_chemical_formula_structural   Ca4Mn4O11
_chemical_formula_sum   'Ca4 Mn4 O11'
_cell_volume   225.24910101
_cell_formula_units_Z   1
loop_
 _symmetry_equiv_pos_site_id
 _symmetry_equiv_pos_as_xyz
  1  'x, y, z'
loop_
 _atom_site_type_symbol
 _atom_site_label
 _atom_site_symmetry_multiplicity
 _atom_site_fract_x
 _atom_site_fract_y
 _atom_site_fract_z
 _atom_site_occupancy
  Ca  Ca0  1  0.50000000  0.00000000  0.75000000  1
  Ca  Ca1  1  0.50000000  0.00000000  0.25000000  1
  Ca  Ca2  1  0.00000000  0.50000000  0.75000000  1
  Ca  Ca3  1  0.00000000  0.50000000  0.25000000  1
  Mn  Mn4  1  0.00000000  0.00000000  0.00557400  1
  Mn  Mn5  1  0.00000000  0.00000000  0.49442600  1
  Mn  Mn6  1  0.50000000  0.50000000  0.99282700  1
  Mn  Mn7  1  0.50000000  0.50000000  0.50717300  1
  O  O8  1  0.00000000  0.00000000  0.25000000  1
  O  O9  1  0.50000000  0.50000000  0.75000000  1
  O  O10  1  0.50000000  0.50000000  0.25000000  1
  O  O11  1  0.75477100  0.75477100  0.97710700  1
  O  O12  1  0.75477100  0.75477100  0.52289300  1
  O  O13  1  0.24522900  0.24522900  0.97710700  1
  O  O14  1  0.24522900  0.24522900  0.52289300  1
  O  O15  1  0.75477100  0.24522900  0.97710700  1
  O  O16  1  0.75477100  0.24522900  0.52289300  1
  O  O17  1  0.24522900  0.75477100  0.97710700  1
  O  O18  1  0.24522900  0.75477100  0.52289300  1
