# generated using pymatgen
data_MgCo5N4
_symmetry_space_group_name_H-M   'P 1'
_cell_length_a   7.98886600
_cell_length_b   5.73773700
_cell_length_c   4.40438300
_cell_angle_alpha   90.00000000
_cell_angle_beta   90.00000000
_cell_angle_gamma   90.00000000
_symmetry_Int_Tables_number   1
_chemical_formula_structural   MgCo5N4
_chemical_formula_sum   'Mg2 Co10 N8'
_cell_volume   201.88816097
_cell_formula_units_Z   2
loop_
 _symmetry_equiv_pos_site_id
 _symmetry_equiv_pos_as_xyz
  1  'x, y, z'
loop_
 _atom_site_type_symbol
 _atom_site_label
 _atom_site_symmetry_multiplicity
 _atom_site_fract_x
 _atom_site_fract_y
 _atom_site_fract_z
 _atom_site_occupancy
  Mg  Mg0  1  0.75000000  0.25000000  0.70375800  1
  Mg  Mg1  1  0.25000000  0.75000000  0.29624200  1
  Co  Co2  1  0.58089300  0.49564500  0.26607800  1
  Co  Co3  1  0.91910700  0.49564500  0.26607800  1
  Co  Co4  1  0.58089300  0.00435500  0.26607800  1
  Co  Co5  1  0.91910700  0.00435500  0.26607800  1
  Co  Co6  1  0.41910700  0.50435500  0.73392200  1
  Co  Co7  1  0.08089300  0.50435500  0.73392200  1
  Co  Co8  1  0.41910700  0.99564500  0.73392200  1
  Co  Co9  1  0.08089300  0.99564500  0.73392200  1
  Co  Co10  1  0.75000000  0.75000000  0.70598900  1
  Co  Co11  1  0.25000000  0.25000000  0.29401100  1
  N  N12  1  0.75000000  0.97839700  0.00326400  1
  N  N13  1  0.75000000  0.52160300  0.00326400  1
  N  N14  1  0.25000000  0.02160300  0.99673600  1
  N  N15  1  0.25000000  0.47839700  0.99673600  1
  N  N16  1  0.53112300  0.75000000  0.51834700  1
  N  N17  1  0.96887700  0.75000000  0.51834700  1
  N  N18  1  0.46887800  0.25000000  0.48165300  1
  N  N19  1  0.03112300  0.25000000  0.48165300  1
