data_image0
_chemical_formula_structural       INaNiO6
_chemical_formula_sum              "I1 Na1 Ni1 O6"
_cell_length_a       4.93202
_cell_length_b       4.93287
_cell_length_c       5.05865
_cell_angle_alpha    89.9957
_cell_angle_beta     90.0086
_cell_angle_gamma    119.994

_space_group_name_H-M_alt    "P 1"
_space_group_IT_number       1

loop_
  _space_group_symop_operation_xyz
  'x, y, z'

loop_
  _atom_site_type_symbol
  _atom_site_label
  _atom_site_symmetry_multiplicity
  _atom_site_fract_x
  _atom_site_fract_y
  _atom_site_fract_z
  _atom_site_occupancy
  I   I1        1.0  0.66700  0.33400  0.50000  1.0000
  Na  Na1       1.0  0.00000  0.00000  1.00000  1.0000
  Ni  Ni1       1.0  0.33300  0.66700  0.50000  1.0000
  O   O1        1.0  0.62500  0.99500  0.29000  1.0000
  O   O2        1.0  0.00456  0.62900  0.29000  1.0000
  O   O3        1.0  0.37100  0.37500  0.29000  1.0000
  O   O4        1.0  0.00455  0.37500  0.71000  1.0000
  O   O5        1.0  0.62500  0.62900  0.71000  1.0000
  O   O6        1.0  0.37000  0.99500  0.71000  1.0000
