# generated using pymatgen
data_CoWN3
_symmetry_space_group_name_H-M   'P 1'
_cell_length_a   5.62824697
_cell_length_b   7.47172481
_cell_length_c   7.90030947
_cell_angle_alpha   114.85631680
_cell_angle_beta   110.18237342
_cell_angle_gamma   79.03076357
_symmetry_Int_Tables_number   1
_chemical_formula_structural   CoWN3
_chemical_formula_sum   'Co4 W4 N12'
_cell_volume   282.54399380
_cell_formula_units_Z   4
loop_
 _symmetry_equiv_pos_site_id
 _symmetry_equiv_pos_as_xyz
  1  'x, y, z'
loop_
 _atom_site_type_symbol
 _atom_site_label
 _atom_site_symmetry_multiplicity
 _atom_site_fract_x
 _atom_site_fract_y
 _atom_site_fract_z
 _atom_site_occupancy
  Co  Co0  1  0.38338300  0.16824700  0.60031200  1
  Co  Co1  1  0.61661700  0.83175300  0.39968800  1
  Co  Co2  1  0.12581900  0.81727600  0.40556500  1
  Co  Co3  1  0.87418100  0.18272400  0.59443500  1
  W  W4  1  0.96315900  0.03499900  0.17788300  1
  W  W5  1  0.03684100  0.96500100  0.82211700  1
  W  W6  1  0.72436000  0.42753400  0.42308300  1
  W  W7  1  0.27564000  0.57246600  0.57691700  1
  N  N8  1  0.30275400  0.96670400  0.34414400  1
  N  N9  1  0.69724600  0.03329600  0.65585600  1
  N  N10  1  0.89861200  0.83335900  0.94258400  1
  N  N11  1  0.10138800  0.16664100  0.05741600  1
  N  N12  1  0.81670000  0.95472000  0.34297300  1
  N  N13  1  0.18330000  0.04528000  0.65702700  1
  N  N14  1  0.92616700  0.66538500  0.46658800  1
  N  N15  1  0.07383300  0.33461500  0.53341200  1
  N  N16  1  0.66414500  0.24156400  0.18099100  1
  N  N17  1  0.33585500  0.75843600  0.81900900  1
  N  N18  1  0.43971900  0.64561600  0.42874400  1
  N  N19  1  0.56028100  0.35438400  0.57125600  1
