# generated using pymatgen
data_SrCa7Mn7CrO22
_symmetry_space_group_name_H-M   'P 1'
_cell_length_a   7.71894081
_cell_length_b   7.71894081
_cell_length_c   7.66542258
_cell_angle_alpha   89.89351248
_cell_angle_beta   89.89351248
_cell_angle_gamma   90.71054868
_symmetry_Int_Tables_number   1
_chemical_formula_structural   SrCa7Mn7CrO22
_chemical_formula_sum   'Sr1 Ca7 Mn7 Cr1 O22'
_cell_volume   456.68485222
_cell_formula_units_Z   1
loop_
 _symmetry_equiv_pos_site_id
 _symmetry_equiv_pos_as_xyz
  1  'x, y, z'
loop_
 _atom_site_type_symbol
 _atom_site_label
 _atom_site_symmetry_multiplicity
 _atom_site_fract_x
 _atom_site_fract_y
 _atom_site_fract_z
 _atom_site_occupancy
  Sr  Sr0  1  0.25122200  0.25122200  0.23029300  1
  Ca  Ca1  1  0.25234500  0.25234500  0.74021500  1
  Ca  Ca2  1  0.25084400  0.75011200  0.24133900  1
  Ca  Ca3  1  0.24975700  0.74792900  0.73243400  1
  Ca  Ca4  1  0.75011200  0.25084400  0.24133900  1
  Ca  Ca5  1  0.74792900  0.24975700  0.73243400  1
  Ca  Ca6  1  0.74886200  0.74886200  0.25067600  1
  Ca  Ca7  1  0.75044400  0.75044400  0.70325700  1
  Mn  Mn8  1  0.00053900  0.00053900  0.50670300  1
  Mn  Mn9  1  0.99430800  0.50567900  0.00389400  1
  Mn  Mn10  1  0.99904700  0.50102200  0.49572600  1
  Mn  Mn11  1  0.50567900  0.99430800  0.00389400  1
  Mn  Mn12  1  0.50102200  0.99904700  0.49572600  1
  Mn  Mn13  1  0.50685400  0.50685400  0.98617100  1
  Mn  Mn14  1  0.50128100  0.50128100  0.50802800  1
  Cr  Cr15  1  0.99183900  0.99183900  0.98806700  1
  O  O16  1  0.95898000  0.95898000  0.75757400  1
  O  O17  1  0.03046800  0.47051300  0.25200000  1
  O  O18  1  0.96541300  0.53392100  0.75171600  1
  O  O19  1  0.47051300  0.03046800  0.25200000  1
  O  O20  1  0.53392100  0.96541300  0.75171600  1
  O  O21  1  0.53914500  0.53914500  0.75002700  1
  O  O22  1  0.23916800  0.99572800  0.99289900  1
  O  O23  1  0.24931000  0.99944100  0.53225400  1
  O  O24  1  0.25453300  0.50445400  0.98297200  1
  O  O25  1  0.25223300  0.50106200  0.52698600  1
  O  O26  1  0.76064300  0.00072600  0.05893100  1
  O  O27  1  0.75522500  0.00324700  0.45655400  1
  O  O28  1  0.74296600  0.49841600  0.05687200  1
  O  O29  1  0.74499900  0.49732600  0.45491600  1
  O  O30  1  0.99572800  0.23916800  0.99289900  1
  O  O31  1  0.99944100  0.24931000  0.53225400  1
  O  O32  1  0.00072600  0.76064300  0.05893100  1
  O  O33  1  0.00324700  0.75522500  0.45655400  1
  O  O34  1  0.50445400  0.25453300  0.98297200  1
  O  O35  1  0.50106200  0.25223300  0.52698600  1
  O  O36  1  0.49841600  0.74296600  0.05687200  1
  O  O37  1  0.49732600  0.74499900  0.45491600  1
