# generated using pymatgen
data_ZnReN2
_symmetry_space_group_name_H-M   'P 1'
_cell_length_a   5.67295200
_cell_length_b   6.42187100
_cell_length_c   5.53634500
_cell_angle_alpha   90.00000000
_cell_angle_beta   90.00000000
_cell_angle_gamma   90.00000000
_symmetry_Int_Tables_number   1
_chemical_formula_structural   ZnReN2
_chemical_formula_sum   'Zn4 Re4 N8'
_cell_volume   201.69439609
_cell_formula_units_Z   4
loop_
 _symmetry_equiv_pos_site_id
 _symmetry_equiv_pos_as_xyz
  1  'x, y, z'
loop_
 _atom_site_type_symbol
 _atom_site_label
 _atom_site_symmetry_multiplicity
 _atom_site_fract_x
 _atom_site_fract_y
 _atom_site_fract_z
 _atom_site_occupancy
  Zn  Zn0  1  0.58243800  0.88734500  0.01169800  1
  Zn  Zn1  1  0.41756200  0.11265500  0.51169800  1
  Zn  Zn2  1  0.91756200  0.38734500  0.51169800  1
  Zn  Zn3  1  0.08243800  0.61265500  0.01169800  1
  Re  Re4  1  0.55383000  0.37731000  0.00296500  1
  Re  Re5  1  0.44617000  0.62269000  0.50296500  1
  Re  Re6  1  0.94617000  0.87731000  0.50296500  1
  Re  Re7  1  0.05383000  0.12269000  0.00296500  1
  N  N8  1  0.57855100  0.37068200  0.35202500  1
  N  N9  1  0.42144900  0.62931800  0.85202500  1
  N  N10  1  0.92144900  0.87068200  0.85202500  1
  N  N11  1  0.07855100  0.12931800  0.35202500  1
  N  N12  1  0.61972500  0.86570900  0.38331300  1
  N  N13  1  0.38027500  0.13429100  0.88331300  1
  N  N14  1  0.88027500  0.36570900  0.88331300  1
  N  N15  1  0.11972500  0.63429100  0.38331300  1
