# generated using pymatgen
data_Ba(ZnN)2
_symmetry_space_group_name_H-M   'P 1'
_cell_length_a   3.66553000
_cell_length_b   3.66553215
_cell_length_c   6.59897800
_cell_angle_alpha   90.00000085
_cell_angle_beta   90.00005904
_cell_angle_gamma   120.00002994
_symmetry_Int_Tables_number   1
_chemical_formula_structural   Ba(ZnN)2
_chemical_formula_sum   'Ba1 Zn2 N2'
_cell_volume   76.78581392
_cell_formula_units_Z   1
loop_
 _symmetry_equiv_pos_site_id
 _symmetry_equiv_pos_as_xyz
  1  'x, y, z'
loop_
 _atom_site_type_symbol
 _atom_site_label
 _atom_site_symmetry_multiplicity
 _atom_site_fract_x
 _atom_site_fract_y
 _atom_site_fract_z
 _atom_site_occupancy
  Ba  Ba0  1  0.00000000  0.00000000  0.50000000  1
  Zn  Zn1  1  0.66666800  0.33333400  0.12007800  1
  Zn  Zn2  1  0.33333200  0.66666600  0.87992200  1
  N  N3  1  0.66666500  0.33333200  0.79113300  1
  N  N4  1  0.33333500  0.66666800  0.20886700  1
