# generated using pymatgen
data_Ba2RuN3
_symmetry_space_group_name_H-M   'P 1'
_cell_length_a   6.67778013
_cell_length_b   11.93305224
_cell_length_c   13.13720248
_cell_angle_alpha   90.00000182
_cell_angle_beta   90.00327213
_cell_angle_gamma   153.31506293
_symmetry_Int_Tables_number   1
_chemical_formula_structural   Ba2RuN3
_chemical_formula_sum   'Ba8 Ru4 N12'
_cell_volume   470.12597143
_cell_formula_units_Z   4
loop_
 _symmetry_equiv_pos_site_id
 _symmetry_equiv_pos_as_xyz
  1  'x, y, z'
loop_
 _atom_site_type_symbol
 _atom_site_label
 _atom_site_symmetry_multiplicity
 _atom_site_fract_x
 _atom_site_fract_y
 _atom_site_fract_z
 _atom_site_occupancy
  Ba  Ba0  1  0.49983000  0.06365600  0.86294600  1
  Ba  Ba1  1  0.50017000  0.56382600  0.63705400  1
  Ba  Ba2  1  0.50017000  0.93634400  0.13705300  1
  Ba  Ba3  1  0.49983000  0.43617400  0.36294700  1
  Ba  Ba4  1  0.50012600  0.86061600  0.58064200  1
  Ba  Ba5  1  0.49987400  0.36049100  0.91935800  1
  Ba  Ba6  1  0.49987400  0.13938400  0.41935800  1
  Ba  Ba7  1  0.50012600  0.63950900  0.08064200  1
  Ru  Ru8  1  0.50006300  0.23883400  0.66459600  1
  Ru  Ru9  1  0.49993700  0.73877000  0.83540400  1
  Ru  Ru10  1  0.49993700  0.76116600  0.33540400  1
  Ru  Ru11  1  0.50006300  0.26123000  0.16459600  1
  N  N12  1  0.00000000  0.51104400  0.75000000  1
  N  N13  1  0.00000000  0.48895600  0.25000000  1
  N  N14  1  0.50041100  0.08355700  0.62928200  1
  N  N15  1  0.49958900  0.58314600  0.87071800  1
  N  N16  1  0.49958900  0.91644300  0.37071800  1
  N  N17  1  0.50041100  0.41685400  0.12928200  1
  N  N18  1  0.49979800  0.16168200  0.05200200  1
  N  N19  1  0.50020200  0.66188400  0.44799800  1
  N  N20  1  0.50020200  0.83831800  0.94799800  1
  N  N21  1  0.49979800  0.33811600  0.55200200  1
  N  N22  1  0.00000000  0.01082800  0.75000000  1
  N  N23  1  0.00000000  0.98917200  0.25000000  1
