# generated using pymatgen
data_MgTiAlS4
_symmetry_space_group_name_H-M   'P 1'
_cell_length_a   7.35244974
_cell_length_b   7.31130344
_cell_length_c   7.31454511
_cell_angle_alpha   59.14206023
_cell_angle_beta   59.81274746
_cell_angle_gamma   59.82984758
_symmetry_Int_Tables_number   1
_chemical_formula_structural   MgTiAlS4
_chemical_formula_sum   'Mg2 Ti2 Al2 S8'
_cell_volume   275.44863682
_cell_formula_units_Z   2
loop_
 _symmetry_equiv_pos_site_id
 _symmetry_equiv_pos_as_xyz
  1  'x, y, z'
loop_
 _atom_site_type_symbol
 _atom_site_label
 _atom_site_symmetry_multiplicity
 _atom_site_fract_x
 _atom_site_fract_y
 _atom_site_fract_z
 _atom_site_occupancy
  Mg  Mg0  1  0.87491723  0.87503377  0.87514071  1
  Mg  Mg1  1  0.12508357  0.12497165  0.12485921  1
  Ti  Ti2  1  0.50000243  0.49999487  0.99999743  1
  Ti  Ti3  1  0.49999820  0.99999519  0.50000805  1
  Al  Al4  1  0.49999972  0.50001401  0.49998082  1
  Al  Al5  1  0.00000162  0.49999227  0.50001209  1
  S  S6  1  0.74769883  0.73553462  0.73552699  1
  S  S7  1  0.26029526  0.26506196  0.71424752  1
  S  S8  1  0.26037906  0.71424162  0.26506416  1
  S  S9  1  0.71876296  0.26450030  0.26445144  1
  S  S10  1  0.73961556  0.28575891  0.73492797  1
  S  S11  1  0.28123545  0.73549772  0.73554539  1
  S  S12  1  0.25230167  0.26445726  0.26448631  1
  S  S13  1  0.73971244  0.73494086  0.28575291  1
