# generated using pymatgen
data_Mg2VIn3S8
_symmetry_space_group_name_H-M   'P 1'
_cell_length_a   7.62239251
_cell_length_b   7.57440920
_cell_length_c   7.63214472
_cell_angle_alpha   60.02166382
_cell_angle_beta   60.05301199
_cell_angle_gamma   59.61499408
_symmetry_Int_Tables_number   1
_chemical_formula_structural   Mg2VIn3S8
_chemical_formula_sum   'Mg2 V1 In3 S8'
_cell_volume   310.83896244
_cell_formula_units_Z   1
loop_
 _symmetry_equiv_pos_site_id
 _symmetry_equiv_pos_as_xyz
  1  'x, y, z'
loop_
 _atom_site_type_symbol
 _atom_site_label
 _atom_site_symmetry_multiplicity
 _atom_site_fract_x
 _atom_site_fract_y
 _atom_site_fract_z
 _atom_site_occupancy
  Mg  Mg0  1  0.87592200  0.87245900  0.87581600  1
  Mg  Mg1  1  0.12409300  0.12748800  0.12419900  1
  V  V2  1  0.49999200  0.00001400  0.50000200  1
  In  In3  1  0.49997100  0.50004600  0.49997000  1
  In  In4  1  0.50005200  0.49997100  0.99998600  1
  In  In5  1  0.99996700  0.50000800  0.49997700  1
  S  S6  1  0.73056200  0.76234500  0.73081200  1
  S  S7  1  0.26919200  0.23643500  0.72456900  1
  S  S8  1  0.25695900  0.72903100  0.25803200  1
  S  S9  1  0.72390600  0.23790800  0.26875900  1
  S  S10  1  0.74297600  0.27092700  0.74196100  1
  S  S11  1  0.27612300  0.76210000  0.73130800  1
  S  S12  1  0.26945100  0.23759400  0.26925700  1
  S  S13  1  0.73084000  0.76366900  0.27535200  1
