# generated using pymatgen
data_Te2MoW3(Se2S)2
_symmetry_space_group_name_H-M   'P 1'
_cell_length_a   3.34225000
_cell_length_b   3.34224272
_cell_length_c   38.20148100
_cell_angle_alpha   89.99994363
_cell_angle_beta   90.00000000
_cell_angle_gamma   120.00007205
_symmetry_Int_Tables_number   1
_chemical_formula_structural   Te2MoW3(Se2S)2
_chemical_formula_sum   'Te2 Mo1 W3 Se4 S2'
_cell_volume   369.56210692
_cell_formula_units_Z   1
loop_
 _symmetry_equiv_pos_site_id
 _symmetry_equiv_pos_as_xyz
  1  'x, y, z'
loop_
 _atom_site_type_symbol
 _atom_site_label
 _atom_site_symmetry_multiplicity
 _atom_site_fract_x
 _atom_site_fract_y
 _atom_site_fract_z
 _atom_site_occupancy
  Te  Te0  1  0.66664900  0.33329700  0.41973800  1
  Te  Te1  1  0.66664600  0.33329100  0.51961400  1
  Mo  Mo2  1  0.33330500  0.66661100  0.09393600  1
  W  W3  1  0.33331000  0.66662000  0.46968300  1
  W  W4  1  0.66669000  0.33338000  0.28179000  1
  W  W5  1  0.66669100  0.33338300  0.65753800  1
  Se  Se6  1  0.33335100  0.66670400  0.32554900  1
  Se  Se7  1  0.66664600  0.33329000  0.05031700  1
  Se  Se8  1  0.66664600  0.33329200  0.13752800  1
  Se  Se9  1  0.33335300  0.66670600  0.23798900  1
  S  S10  1  0.33335700  0.66671500  0.69741700  1
  S  S11  1  0.33335600  0.66671300  0.61764900  1
