# generated using pymatgen
data_Ca8Mn7CrO21
_symmetry_space_group_name_H-M   'P 1'
_cell_length_a   10.96900153
_cell_length_b   15.43534672
_cell_length_c   10.97278386
_cell_angle_alpha   89.86849456
_cell_angle_beta   91.71012460
_cell_angle_gamma   90.52017430
_symmetry_Int_Tables_number   1
_chemical_formula_structural   Ca8Mn7CrO21
_chemical_formula_sum   'Ca32 Mn28 Cr4 O84'
_cell_volume   1856.89798709
_cell_formula_units_Z   4
loop_
 _symmetry_equiv_pos_site_id
 _symmetry_equiv_pos_as_xyz
  1  'x, y, z'
loop_
 _atom_site_type_symbol
 _atom_site_label
 _atom_site_symmetry_multiplicity
 _atom_site_fract_x
 _atom_site_fract_y
 _atom_site_fract_z
 _atom_site_occupancy
  Ca  Ca0  1  0.99708238  0.10741510  0.51157799  1
  Ca  Ca1  1  0.99767110  0.11188955  0.00701916  1
  Ca  Ca2  1  0.01037136  0.62370850  0.51097694  1
  Ca  Ca3  1  0.01636171  0.62215579  0.99180337  1
  Ca  Ca4  1  0.54316988  0.12564131  0.47710975  1
  Ca  Ca5  1  0.54516095  0.12884271  0.98812804  1
  Ca  Ca6  1  0.52846160  0.62923855  0.51198328  1
  Ca  Ca7  1  0.53244047  0.62195555  0.97337762  1
  Ca  Ca8  1  0.51189693  0.38671851  0.98519264  1
  Ca  Ca9  1  0.49544652  0.37989649  0.51190707  1
  Ca  Ca10  1  0.51745343  0.86085684  0.98180449  1
  Ca  Ca11  1  0.49129135  0.86888951  0.51142428  1
  Ca  Ca12  1  0.96443913  0.38636621  0.00558464  1
  Ca  Ca13  1  0.96046020  0.38774160  0.50254233  1
  Ca  Ca14  1  0.95633993  0.88055794  0.00204669  1
  Ca  Ca15  1  0.96856521  0.87253817  0.50974385  1
  Ca  Ca16  1  0.23321676  0.39322893  0.25174143  1
  Ca  Ca17  1  0.23607747  0.40385593  0.77021794  1
  Ca  Ca18  1  0.22935383  0.88924446  0.27067904  1
  Ca  Ca19  1  0.22202528  0.87326578  0.73470529  1
  Ca  Ca20  1  0.74871788  0.37980601  0.24765888  1
  Ca  Ca21  1  0.73295451  0.38405220  0.75291042  1
  Ca  Ca22  1  0.75899013  0.86930212  0.25426629  1
  Ca  Ca23  1  0.73673898  0.86723579  0.74900413  1
  Ca  Ca24  1  0.22665391  0.11877655  0.24081613  1
  Ca  Ca25  1  0.22154628  0.11160187  0.73476002  1
  Ca  Ca26  1  0.23809080  0.62571322  0.26162732  1
  Ca  Ca27  1  0.26586503  0.63118058  0.74040880  1
  Ca  Ca28  1  0.78205335  0.11601779  0.25514393  1
  Ca  Ca29  1  0.78128158  0.12256485  0.75327664  1
  Ca  Ca30  1  0.78289231  0.62215768  0.25408205  1
  Ca  Ca31  1  0.77312118  0.62346908  0.75724187  1
  Mn  Mn32  1  0.99359281  0.99365266  0.75637400  1
  Mn  Mn33  1  0.00136072  0.50132374  0.25306546  1
  Mn  Mn34  1  0.99682018  0.49987702  0.75447846  1
  Mn  Mn35  1  0.50446667  0.98497070  0.23318549  1
  Mn  Mn36  1  0.50714010  0.99559501  0.73622904  1
  Mn  Mn37  1  0.50603784  0.49085620  0.24439476  1
  Mn  Mn38  1  0.49601607  0.50114158  0.74877748  1
  Mn  Mn39  1  0.23973496  0.00334788  0.51150660  1
  Mn  Mn40  1  0.25259996  0.51586876  0.01220752  1
  Mn  Mn41  1  0.23803969  0.49623166  0.51009361  1
  Mn  Mn42  1  0.74225817  0.00132011  0.99708851  1
  Mn  Mn43  1  0.74569451  0.99785684  0.49637371  1
  Mn  Mn44  1  0.75150674  0.50303316  0.00140094  1
  Mn  Mn45  1  0.74430700  0.50301936  0.50134783  1
  Mn  Mn46  1  0.26568880  0.24449338  0.44791877  1
  Mn  Mn47  1  0.26079564  0.75632422  0.97908380  1
  Mn  Mn48  1  0.24899460  0.75188862  0.49822129  1
  Mn  Mn49  1  0.75701520  0.24907586  0.00370829  1
  Mn  Mn50  1  0.75139952  0.25053986  0.50353709  1
  Mn  Mn51  1  0.75395110  0.74615427  0.00048885  1
  Mn  Mn52  1  0.75274354  0.74611417  0.50479690  1
  Mn  Mn53  1  0.99296521  0.25666414  0.76240238  1
  Mn  Mn54  1  0.99829621  0.75096141  0.26260904  1
  Mn  Mn55  1  0.99769966  0.75045892  0.75012471  1
  Mn  Mn56  1  0.51651827  0.25305418  0.25225912  1
  Mn  Mn57  1  0.50941683  0.24751370  0.75139596  1
  Mn  Mn58  1  0.51916555  0.74936362  0.26198025  1
  Mn  Mn59  1  0.50345406  0.74735011  0.74740328  1
  Cr  Cr60  1  0.99539359  0.99710892  0.25409310  1
  Cr  Cr61  1  0.23827039  0.99527296  0.01662304  1
  Cr  Cr62  1  0.26876373  0.23284866  0.94666444  1
  Cr  Cr63  1  0.99222636  0.25304274  0.26702219  1
  O  O64  1  0.09964013  0.77083309  0.60882640  1
  O  O65  1  0.58866301  0.26292450  0.09558484  1
  O  O66  1  0.56965625  0.25099916  0.58695028  1
  O  O67  1  0.59568105  0.75523884  0.10771854  1
  O  O68  1  0.60319836  0.76205507  0.60006448  1
  O  O69  1  0.40089347  0.18753357  0.34215422  1
  O  O70  1  0.39113808  0.18074806  0.85744666  1
  O  O71  1  0.40654723  0.69692353  0.36026802  1
  O  O72  1  0.40809390  0.73103499  0.89556582  1
  O  O73  1  0.92729141  0.23554956  0.41317563  1
  O  O74  1  0.90879217  0.23521781  0.92060353  1
  O  O75  1  0.89392905  0.72906746  0.40773685  1
  O  O76  1  0.89840974  0.73318611  0.90092226  1
  O  O77  1  0.16015416  0.25396833  0.28336108  1
  O  O78  1  0.17288427  0.25071547  0.81083998  1
  O  O79  1  0.16049008  0.74909528  0.33727659  1
  O  O80  1  0.14535020  0.73809505  0.85066766  1
  O  O81  1  0.65980190  0.22344284  0.34422232  1
  O  O82  1  0.65724107  0.22669330  0.85639127  1
  O  O83  1  0.65921542  0.72216117  0.35265637  1
  O  O84  1  0.64928050  0.72802239  0.85422547  1
  O  O85  1  0.35519957  0.76636682  0.64179059  1
  O  O86  1  0.86579295  0.27527020  0.15323815  1
  O  O87  1  0.85542169  0.27761437  0.65276869  1
  O  O88  1  0.86630846  0.77084652  0.14155492  1
  O  O89  1  0.85140682  0.77034928  0.64770005  1
  O  O90  1  0.35412047  0.51075380  0.16649325  1
  O  O91  1  0.35247540  0.48778687  0.64383347  1
  O  O92  1  0.34747999  0.00838948  0.16681047  1
  O  O93  1  0.34652581  0.00192511  0.65862097  1
  O  O94  1  0.85824793  0.48320274  0.14602025  1
  O  O95  1  0.85452121  0.47943639  0.64570378  1
  O  O96  1  0.84536930  0.97937119  0.14263188  1
  O  O97  1  0.84883348  0.97884602  0.64724513  1
  O  O98  1  0.14819284  0.01341832  0.36125221  1
  O  O99  1  0.14947472  0.00864544  0.86262463  1
  O  O100  1  0.14912644  0.51161607  0.35712796  1
  O  O101  1  0.14911668  0.52487630  0.86275629  1
  O  O102  1  0.63242212  0.02257993  0.34226876  1
  O  O103  1  0.63499487  0.03208142  0.85129004  1
  O  O104  1  0.62376454  0.52765388  0.36246943  1
  O  O105  1  0.64211064  0.51627938  0.85676360  1
  O  O106  1  0.39135829  0.50972705  0.90564256  1
  O  O107  1  0.88678458  0.01485507  0.39343745  1
  O  O108  1  0.88703746  0.01453910  0.89577241  1
  O  O109  1  0.89324444  0.52100472  0.38951420  1
  O  O110  1  0.89302409  0.51632727  0.89783906  1
  O  O111  1  0.11096144  0.47690234  0.10723361  1
  O  O112  1  0.09852263  0.47476485  0.61847315  1
  O  O113  1  0.09932691  0.97237912  0.10985838  1
  O  O114  1  0.09563365  0.98069997  0.61877743  1
  O  O115  1  0.60980133  0.48924991  0.10594476  1
  O  O116  1  0.60109182  0.48587697  0.61165576  1
  O  O117  1  0.58633680  0.99206483  0.08054213  1
  O  O118  1  0.59374723  0.99382354  0.58203173  1
  O  O119  1  0.00172840  0.38014632  0.29426757  1
  O  O120  1  0.01550205  0.37826514  0.79981373  1
  O  O121  1  0.00085699  0.87241425  0.29408483  1
  O  O122  1  0.00308795  0.87326359  0.79473129  1
  O  O123  1  0.47310309  0.37455909  0.29346187  1
  O  O124  1  0.49017586  0.37463431  0.77401817  1
  O  O125  1  0.47306308  0.87057409  0.29132723  1
  O  O126  1  0.51534433  0.87127765  0.77369462  1
  O  O127  1  0.48493523  0.62377493  0.71986832  1
  O  O128  1  0.99819874  0.12778279  0.21769057  1
  O  O129  1  0.99919994  0.12989229  0.72452078  1
  O  O130  1  0.00661433  0.62757636  0.21358727  1
  O  O131  1  0.98883867  0.62447606  0.71886188  1
  O  O132  1  0.21858564  0.13728807  0.03036304  1
  O  O133  1  0.22067259  0.13294249  0.52910505  1
  O  O134  1  0.23036054  0.65170405  0.05558892  1
  O  O135  1  0.23263220  0.62345771  0.52592669  1
  O  O136  1  0.75038849  0.12598113  0.04419947  1
  O  O137  1  0.75461455  0.12482050  0.53640175  1
  O  O138  1  0.74698032  0.62442086  0.03833698  1
  O  O139  1  0.74433107  0.62442986  0.54559924  1
  O  O140  1  0.27830384  0.37224942  0.47262714  1
  O  O141  1  0.30244579  0.33193451  0.01625989  1
  O  O142  1  0.27986334  0.88386284  0.47460333  1
  O  O143  1  0.29664615  0.87818808  0.99483097  1
  O  O144  1  0.74240285  0.37743584  0.46146771  1
  O  O145  1  0.74755314  0.37543705  0.96956177  1
  O  O146  1  0.74672921  0.87222571  0.46323889  1
  O  O147  1  0.73989347  0.87433554  0.96561438  1
