# generated using pymatgen
data_Ca2Mn2O5
_symmetry_space_group_name_H-M   'P 1'
_cell_length_a   5.60754165
_cell_length_b   7.64804302
_cell_length_c   11.02389049
_cell_angle_alpha   90.36990418
_cell_angle_beta   91.78926887
_cell_angle_gamma   89.92468740
_symmetry_Int_Tables_number   1
_chemical_formula_structural   Ca2Mn2O5
_chemical_formula_sum   'Ca8 Mn8 O20'
_cell_volume   472.53784724
_cell_formula_units_Z   4
loop_
 _symmetry_equiv_pos_site_id
 _symmetry_equiv_pos_as_xyz
  1  'x, y, z'
loop_
 _atom_site_type_symbol
 _atom_site_label
 _atom_site_symmetry_multiplicity
 _atom_site_fract_x
 _atom_site_fract_y
 _atom_site_fract_z
 _atom_site_occupancy
  Ca  Ca0  1  0.96716400  0.77669900  0.00059800  1
  Ca  Ca1  1  0.04764100  0.74458100  0.45765300  1
  Ca  Ca2  1  0.03604300  0.25495200  0.48110600  1
  Ca  Ca3  1  0.97940500  0.23397500  0.04011900  1
  Ca  Ca4  1  0.46090700  0.21021200  0.75791100  1
  Ca  Ca5  1  0.47871400  0.24963600  0.24199600  1
  Ca  Ca6  1  0.50801300  0.75785600  0.77329600  1
  Ca  Ca7  1  0.49208200  0.75514700  0.21820000  1
  Mn  Mn8  1  0.47853100  0.00902400  0.00428800  1
  Mn  Mn9  1  0.54357200  0.01972200  0.49416200  1
  Mn  Mn10  1  0.95939900  0.99650500  0.75748600  1
  Mn  Mn11  1  0.00223500  0.99599600  0.25377600  1
  Mn  Mn12  1  0.08151400  0.50813000  0.73134400  1
  Mn  Mn13  1  0.99177100  0.50717300  0.24331000  1
  Mn  Mn14  1  0.47066500  0.49345200  0.00543700  1
  Mn  Mn15  1  0.50815300  0.50769000  0.48672800  1
  O  O16  1  0.82380900  0.49405200  0.41432600  1
  O  O17  1  0.29833800  0.62636300  0.60189800  1
  O  O18  1  0.15337100  0.53229800  0.09090500  1
  O  O19  1  0.39406500  0.48493700  0.83620100  1
  O  O20  1  0.29074100  0.54582100  0.33956400  1
  O  O21  1  0.69372600  0.45915300  0.14580500  1
  O  O22  1  0.67122800  0.98002300  0.65198400  1
  O  O23  1  0.70013900  0.03176200  0.14404300  1
  O  O24  1  0.25973900  0.98137100  0.84985000  1
  O  O25  1  0.31975100  0.95414700  0.37003200  1
  O  O26  1  0.20489500  0.96470700  0.11176700  1
  O  O27  1  0.74350200  0.05993700  0.90116400  1
  O  O28  1  0.83880300  0.01048200  0.40810000  1
  O  O29  1  0.39275900  0.24864600  0.01991000  1
  O  O30  1  0.44235100  0.25482700  0.52600500  1
  O  O31  1  0.54935600  0.74644200  0.99805200  1
  O  O32  1  0.92244600  0.73314500  0.78412800  1
  O  O33  1  0.91409800  0.75035300  0.24760000  1
  O  O34  1  0.03438600  0.24001700  0.70011300  1
  O  O35  1  0.06295700  0.25102100  0.25590400  1
