# generated using pymatgen
data_SrCa7Mn8O20
_symmetry_space_group_name_H-M   'P 1'
_cell_length_a   11.05731440
_cell_length_b   15.35908043
_cell_length_c   11.18269839
_cell_angle_alpha   90.02132382
_cell_angle_beta   91.45117318
_cell_angle_gamma   90.28348175
_symmetry_Int_Tables_number   1
_chemical_formula_structural   SrCa7Mn8O20
_chemical_formula_sum   'Sr4 Ca28 Mn32 O80'
_cell_volume   1898.52710226
_cell_formula_units_Z   4
loop_
 _symmetry_equiv_pos_site_id
 _symmetry_equiv_pos_as_xyz
  1  'x, y, z'
loop_
 _atom_site_type_symbol
 _atom_site_label
 _atom_site_symmetry_multiplicity
 _atom_site_fract_x
 _atom_site_fract_y
 _atom_site_fract_z
 _atom_site_occupancy
  Sr  Sr0  1  0.00644955  0.11639448  0.50441420  1
  Sr  Sr1  1  0.51411894  0.37636619  0.98884735  1
  Sr  Sr2  1  0.24048309  0.38704754  0.26417339  1
  Sr  Sr3  1  0.22994414  0.12078795  0.24990208  1
  Ca  Ca4  1  0.00242045  0.10945249  0.00708951  1
  Ca  Ca5  1  0.00335929  0.61148051  0.50787574  1
  Ca  Ca6  1  0.00081899  0.61213668  0.00994707  1
  Ca  Ca7  1  0.54123207  0.12928685  0.47996165  1
  Ca  Ca8  1  0.54504635  0.12864159  0.97996010  1
  Ca  Ca9  1  0.54312215  0.62972269  0.48177774  1
  Ca  Ca10  1  0.54412793  0.62860521  0.98262280  1
  Ca  Ca11  1  0.51681384  0.37348370  0.49030630  1
  Ca  Ca12  1  0.51663099  0.87252560  0.98862893  1
  Ca  Ca13  1  0.51813043  0.87381876  0.48947250  1
  Ca  Ca14  1  0.96137714  0.38398047  0.00547939  1
  Ca  Ca15  1  0.95787419  0.38352255  0.50389695  1
  Ca  Ca16  1  0.95809544  0.88206522  0.00587541  1
  Ca  Ca17  1  0.95927069  0.88339414  0.50465042  1
  Ca  Ca18  1  0.23236548  0.39512928  0.76622831  1
  Ca  Ca19  1  0.23191393  0.89223142  0.27372062  1
  Ca  Ca20  1  0.23185456  0.89110422  0.77061409  1
  Ca  Ca21  1  0.76053111  0.37772505  0.25849206  1
  Ca  Ca22  1  0.75685398  0.37354827  0.75661729  1
  Ca  Ca23  1  0.75593532  0.87403717  0.25827698  1
  Ca  Ca24  1  0.75243118  0.87466301  0.75450875  1
  Ca  Ca25  1  0.22852466  0.11730983  0.75123601  1
  Ca  Ca26  1  0.22777681  0.62025576  0.24447785  1
  Ca  Ca27  1  0.22489076  0.62108432  0.74637011  1
  Ca  Ca28  1  0.77679560  0.12254745  0.25062035  1
  Ca  Ca29  1  0.78338502  0.12238486  0.75394805  1
  Ca  Ca30  1  0.78150761  0.62278226  0.25343445  1
  Ca  Ca31  1  0.78090759  0.62230358  0.75412900  1
  Mn  Mn32  1  0.99171551  0.99519982  0.25330633  1
  Mn  Mn33  1  0.99462257  0.99409574  0.75665160  1
  Mn  Mn34  1  0.99640476  0.49769597  0.25569447  1
  Mn  Mn35  1  0.99343957  0.49654948  0.75419785  1
  Mn  Mn36  1  0.50589838  0.98792646  0.23018159  1
  Mn  Mn37  1  0.50694440  0.99010934  0.73647792  1
  Mn  Mn38  1  0.50873244  0.49674812  0.23633803  1
  Mn  Mn39  1  0.50226459  0.49266514  0.73237993  1
  Mn  Mn40  1  0.24278042  0.99774395  0.01795299  1
  Mn  Mn41  1  0.24861620  0.99726051  0.52619721  1
  Mn  Mn42  1  0.24194357  0.50410275  0.01751640  1
  Mn  Mn43  1  0.24312964  0.50246695  0.52087762  1
  Mn  Mn44  1  0.74483983  0.00096581  0.99603581  1
  Mn  Mn45  1  0.74387823  0.00250268  0.49737269  1
  Mn  Mn46  1  0.74874985  0.50334983  0.99823809  1
  Mn  Mn47  1  0.74379465  0.50283299  0.49912953  1
  Mn  Mn48  1  0.26830992  0.24499027  0.95552556  1
  Mn  Mn49  1  0.27150386  0.24708023  0.47676667  1
  Mn  Mn50  1  0.27029770  0.74403056  0.96001716  1
  Mn  Mn51  1  0.27276398  0.74299920  0.46069557  1
  Mn  Mn52  1  0.75921008  0.24690714  0.00251559  1
  Mn  Mn53  1  0.75307084  0.24788367  0.50394998  1
  Mn  Mn54  1  0.75707114  0.74726834  0.00268878  1
  Mn  Mn55  1  0.75658330  0.74683826  0.50331882  1
  Mn  Mn56  1  0.98975021  0.25299140  0.26258440  1
  Mn  Mn57  1  0.99668313  0.25293049  0.76273920  1
  Mn  Mn58  1  0.99503632  0.75246551  0.26218722  1
  Mn  Mn59  1  0.99352279  0.75258831  0.76026386  1
  Mn  Mn60  1  0.51649144  0.25159859  0.25194712  1
  Mn  Mn61  1  0.51347181  0.24733228  0.74861826  1
  Mn  Mn62  1  0.51366762  0.74653432  0.25025377  1
  Mn  Mn63  1  0.51350442  0.74610690  0.75071522  1
  O  O64  1  0.59195061  0.25061289  0.09740908  1
  O  O65  1  0.58958507  0.25483082  0.59407470  1
  O  O66  1  0.58857643  0.75534222  0.09320040  1
  O  O67  1  0.58792753  0.75509352  0.59353419  1
  O  O68  1  0.40027520  0.20107599  0.35806836  1
  O  O69  1  0.40212196  0.18708564  0.85221293  1
  O  O70  1  0.39981020  0.68230008  0.35053145  1
  O  O71  1  0.39932353  0.68410687  0.85289781  1
  O  O72  1  0.89380631  0.23952098  0.41108428  1
  O  O73  1  0.90819793  0.23321050  0.91832950  1
  O  O74  1  0.90556298  0.73358227  0.41842543  1
  O  O75  1  0.90612294  0.73394704  0.91785991  1
  O  O76  1  0.14337574  0.24878892  0.34292971  1
  O  O77  1  0.16574664  0.25454668  0.80071929  1
  O  O78  1  0.16212990  0.75263362  0.31049410  1
  O  O79  1  0.15983275  0.75281402  0.80997867  1
  O  O80  1  0.65600360  0.22636155  0.35701477  1
  O  O81  1  0.65918064  0.22896063  0.85477234  1
  O  O82  1  0.65980313  0.72717088  0.35612939  1
  O  O83  1  0.65956398  0.72545506  0.85636016  1
  O  O84  1  0.85696561  0.27356769  0.14907762  1
  O  O85  1  0.85982751  0.27126770  0.64831359  1
  O  O86  1  0.85680170  0.77299867  0.14970388  1
  O  O87  1  0.85567911  0.77312878  0.64991337  1
  O  O88  1  0.35715659  0.51425201  0.15555040  1
  O  O89  1  0.34536803  0.51132464  0.66657847  1
  O  O90  1  0.34994927  0.00249019  0.16067931  1
  O  O91  1  0.34759878  0.00222360  0.67579465  1
  O  O92  1  0.85807167  0.48394275  0.14500320  1
  O  O93  1  0.84702436  0.48141291  0.64050896  1
  O  O94  1  0.84574818  0.97999363  0.13620416  1
  O  O95  1  0.85631297  0.98252208  0.64571688  1
  O  O96  1  0.15421232  0.00595849  0.38010804  1
  O  O97  1  0.14675923  0.00729167  0.87074362  1
  O  O98  1  0.15074760  0.51209993  0.36958909  1
  O  O99  1  0.15094146  0.51193481  0.87009616  1
  O  O100  1  0.62380871  0.02661620  0.34247450  1
  O  O101  1  0.63362094  0.02645688  0.84514203  1
  O  O102  1  0.63307089  0.52771352  0.34933643  1
  O  O103  1  0.62526866  0.52143497  0.84844937  1
  O  O104  1  0.88000971  0.01389737  0.38744641  1
  O  O105  1  0.88606288  0.01555492  0.89359860  1
  O  O106  1  0.88641388  0.51622603  0.39388208  1
  O  O107  1  0.88632512  0.51813520  0.89138493  1
  O  O108  1  0.09879504  0.47589851  0.12212809  1
  O  O109  1  0.09585849  0.47153919  0.62179923  1
  O  O110  1  0.09838025  0.97172978  0.12369503  1
  O  O111  1  0.09998132  0.96888435  0.62648415  1
  O  O112  1  0.60499757  0.49931355  0.09386288  1
  O  O113  1  0.59111699  0.49659338  0.58501925  1
  O  O114  1  0.59264584  0.99499412  0.08239788  1
  O  O115  1  0.59205496  0.99625841  0.58588718  1
  O  O116  1  0.99082106  0.37747903  0.29498482  1
  O  O117  1  0.99073763  0.37532399  0.79902662  1
  O  O118  1  0.99183745  0.87438127  0.29767284  1
  O  O119  1  0.98969194  0.87499187  0.79994404  1
  O  O120  1  0.48115903  0.37723709  0.28041755  1
  O  O121  1  0.47065855  0.37227266  0.77064966  1
  O  O122  1  0.47739842  0.87265377  0.28559626  1
  O  O123  1  0.48513297  0.87236977  0.78464016  1
  O  O124  1  0.99585828  0.12743483  0.21974327  1
  O  O125  1  0.00307119  0.12557429  0.72832839  1
  O  O126  1  0.99978527  0.62711401  0.22142570  1
  O  O127  1  0.99833231  0.62775870  0.71788280  1
  O  O128  1  0.22000634  0.13114666  0.03019362  1
  O  O129  1  0.23919193  0.12861168  0.54515878  1
  O  O130  1  0.21555586  0.63383856  0.03841337  1
  O  O131  1  0.21830807  0.63231100  0.53975896  1
  O  O132  1  0.75267782  0.12373576  0.03895311  1
  O  O133  1  0.75131046  0.12584327  0.54135147  1
  O  O134  1  0.75454039  0.62694218  0.04146364  1
  O  O135  1  0.75065429  0.62534587  0.54376874  1
  O  O136  1  0.30053200  0.37926568  0.49345066  1
  O  O137  1  0.28596950  0.37711712  0.98824285  1
  O  O138  1  0.30141031  0.87495646  0.48931457  1
  O  O139  1  0.29827844  0.87607610  0.98107612  1
  O  O140  1  0.73807602  0.37683066  0.46644294  1
  O  O141  1  0.74805076  0.37511389  0.96650950  1
  O  O142  1  0.74136910  0.87479154  0.46734415  1
  O  O143  1  0.74037949  0.87527003  0.96223981  1
