# generated using pymatgen
data_SrCa3Mn4O11
_symmetry_space_group_name_H-M   'P 1'
_cell_length_a   5.44401742
_cell_length_b   10.94591326
_cell_length_c   15.63988874
_cell_angle_alpha   90.33895516
_cell_angle_beta   90.11991175
_cell_angle_gamma   90.70948075
_symmetry_Int_Tables_number   1
_chemical_formula_structural   SrCa3Mn4O11
_chemical_formula_sum   'Sr4 Ca12 Mn16 O44'
_cell_volume   931.88699796
_cell_formula_units_Z   4
loop_
 _symmetry_equiv_pos_site_id
 _symmetry_equiv_pos_as_xyz
  1  'x, y, z'
loop_
 _atom_site_type_symbol
 _atom_site_label
 _atom_site_symmetry_multiplicity
 _atom_site_fract_x
 _atom_site_fract_y
 _atom_site_fract_z
 _atom_site_occupancy
  Sr  Sr0  1  0.99582400  0.00286300  0.11501600  1
  Sr  Sr1  1  0.00181200  0.49810600  0.38845400  1
  Sr  Sr2  1  0.51257800  0.23904300  0.39087300  1
  Sr  Sr3  1  0.49368300  0.23396500  0.11333900  1
  Ca  Ca4  1  0.99043500  0.01835600  0.62727800  1
  Ca  Ca5  1  0.97210600  0.53913200  0.12555900  1
  Ca  Ca6  1  0.99537400  0.52180200  0.62511500  1
  Ca  Ca7  1  0.00632500  0.49016300  0.85733900  1
  Ca  Ca8  1  0.99594100  0.96430000  0.38803000  1
  Ca  Ca9  1  0.01580500  0.97196200  0.87165900  1
  Ca  Ca10  1  0.50272100  0.22285900  0.86927100  1
  Ca  Ca11  1  0.50297000  0.74391300  0.39168000  1
  Ca  Ca12  1  0.50096400  0.74210500  0.86168200  1
  Ca  Ca13  1  0.51337000  0.27099500  0.62949400  1
  Ca  Ca14  1  0.50637300  0.77951900  0.11782700  1
  Ca  Ca15  1  0.50968500  0.76956800  0.62531200  1
  Mn  Mn16  1  0.50778800  0.99243300  0.98984300  1
  Mn  Mn17  1  0.49482900  0.00086700  0.50449000  1
  Mn  Mn18  1  0.46767300  0.51090500  0.98188800  1
  Mn  Mn19  1  0.49917700  0.49946600  0.50779400  1
  Mn  Mn20  1  0.02019000  0.24360400  0.99180500  1
  Mn  Mn21  1  0.00693700  0.24812200  0.50872800  1
  Mn  Mn22  1  0.99208400  0.74531300  0.99660700  1
  Mn  Mn23  1  0.00419500  0.74958800  0.50596900  1
  Mn  Mn24  1  0.93142200  0.26376000  0.24090300  1
  Mn  Mn25  1  0.00793800  0.25004700  0.75154400  1
  Mn  Mn26  1  0.01070200  0.75177900  0.24986200  1
  Mn  Mn27  1  0.00186100  0.75074000  0.74775000  1
  Mn  Mn28  1  0.51863700  0.98680700  0.25551500  1
  Mn  Mn29  1  0.50126400  0.00087000  0.74780700  1
  Mn  Mn30  1  0.51558800  0.52622700  0.25819500  1
  Mn  Mn31  1  0.50792600  0.50053100  0.74733000  1
  O  O32  1  0.20989700  0.10738900  0.77508600  1
  O  O33  1  0.19663700  0.58626000  0.25119700  1
  O  O34  1  0.22544700  0.61090900  0.76747400  1
  O  O35  1  0.72001300  0.40480400  0.21252800  1
  O  O36  1  0.79832900  0.39760100  0.72847400  1
  O  O37  1  0.82432500  0.89525900  0.24081500  1
  O  O38  1  0.78584200  0.89319000  0.72850000  1
  O  O39  1  0.67100400  0.14617800  0.24385600  1
  O  O40  1  0.70687800  0.14729500  0.73347000  1
  O  O41  1  0.70849000  0.65431200  0.21782900  1
  O  O42  1  0.71641500  0.64453700  0.72620200  1
  O  O43  1  0.29765100  0.35795400  0.77354200  1
  O  O44  1  0.29621700  0.85145400  0.27700100  1
  O  O45  1  0.28242600  0.85983300  0.76892200  1
  O  O46  1  0.28043500  0.36005600  0.49350800  1
  O  O47  1  0.31893600  0.35459600  0.98851300  1
  O  O48  1  0.27953700  0.85928300  0.48326800  1
  O  O49  1  0.28769400  0.84880000  0.97682700  1
  O  O50  1  0.73705900  0.13983100  0.00714100  1
  O  O51  1  0.70993200  0.14367500  0.52175000  1
  O  O52  1  0.68699200  0.62459800  0.03045700  1
  O  O53  1  0.71982800  0.64085100  0.52042700  1
  O  O54  1  0.78177200  0.39006100  0.51850900  1
  O  O55  1  0.77614300  0.88086600  0.01301700  1
  O  O56  1  0.78470100  0.89194600  0.51795000  1
  O  O57  1  0.20746800  0.10492100  0.48151100  1
  O  O58  1  0.24149500  0.10078800  0.97936000  1
  O  O59  1  0.23135500  0.61492300  0.49091500  1
  O  O60  1  0.16162500  0.59109100  0.98957800  1
  O  O61  1  0.56484500  0.00502600  0.37965400  1
  O  O62  1  0.58470300  0.00106800  0.86924000  1
  O  O63  1  0.53285200  0.49778400  0.37917200  1
  O  O64  1  0.58850000  0.51745600  0.86940500  1
  O  O65  1  0.42408700  0.48924600  0.62887000  1
  O  O66  1  0.45012500  0.99645600  0.13086600  1
  O  O67  1  0.42150300  0.99004000  0.62544100  1
  O  O68  1  0.04332800  0.25570600  0.12475100  1
  O  O69  1  0.08026900  0.23555500  0.63281900  1
  O  O70  1  0.07839100  0.75014700  0.12366800  1
  O  O71  1  0.07779700  0.74349300  0.62671800  1
  O  O72  1  0.00269000  0.26810700  0.35580900  1
  O  O73  1  0.92359500  0.27899900  0.87854600  1
  O  O74  1  0.93540300  0.74261600  0.37587800  1
  O  O75  1  0.92692500  0.75055700  0.87243200  1
