# generated using pymatgen
data_Mg3Si4(SnO7)2
_symmetry_space_group_name_H-M   'P 1'
_cell_length_a   9.48730127
_cell_length_b   9.48730127
_cell_length_c   10.27788379
_cell_angle_alpha   59.76787574
_cell_angle_beta   59.76787574
_cell_angle_gamma   48.65616126
_symmetry_Int_Tables_number   1
_chemical_formula_structural   Mg3Si4(SnO7)2
_chemical_formula_sum   'Mg6 Si8 Sn4 O28'
_cell_volume   578.86466320
_cell_formula_units_Z   2
loop_
 _symmetry_equiv_pos_site_id
 _symmetry_equiv_pos_as_xyz
  1  'x, y, z'
loop_
 _atom_site_type_symbol
 _atom_site_label
 _atom_site_symmetry_multiplicity
 _atom_site_fract_x
 _atom_site_fract_y
 _atom_site_fract_z
 _atom_site_occupancy
  Mg  Mg0  1  0.06045100  0.28546300  0.10518100  1
  Mg  Mg1  1  0.71453700  0.93954900  0.39481900  1
  Mg  Mg2  1  0.28546300  0.06045100  0.60518100  1
  Mg  Mg3  1  0.37859300  0.62140700  0.75000000  1
  Mg  Mg4  1  0.93954900  0.71453700  0.89481900  1
  Mg  Mg5  1  0.62140700  0.37859300  0.25000000  1
  Si  Si6  1  0.54576000  0.06531800  0.71914300  1
  Si  Si7  1  0.06531800  0.54576000  0.21914300  1
  Si  Si8  1  0.48164400  0.27605400  0.11137200  1
  Si  Si9  1  0.27605400  0.48164400  0.61137200  1
  Si  Si10  1  0.93468200  0.45424000  0.78085700  1
  Si  Si11  1  0.51835600  0.72394600  0.88862800  1
  Si  Si12  1  0.72394600  0.51835600  0.38862800  1
  Si  Si13  1  0.45424000  0.93468200  0.28085700  1
  Sn  Sn14  1  0.77205100  0.22794900  0.75000000  1
  Sn  Sn15  1  0.22794900  0.77205100  0.25000000  1
  Sn  Sn16  1  0.00000000  0.00000000  0.00000000  1
  Sn  Sn17  1  0.00000000  0.00000000  0.50000000  1
  O  O18  1  0.82460600  0.32644000  0.32753000  1
  O  O19  1  0.93372000  0.91595700  0.41159800  1
  O  O20  1  0.53044900  0.58085000  0.06151000  1
  O  O21  1  0.91595700  0.93372000  0.91159800  1
  O  O22  1  0.23482400  0.99944900  0.29942200  1
  O  O23  1  0.09229900  0.48885400  0.61898600  1
  O  O24  1  0.58085100  0.53044900  0.56151000  1
  O  O25  1  0.00055100  0.76517600  0.20057800  1
  O  O26  1  0.90770100  0.51114600  0.38101400  1
  O  O27  1  0.61465200  0.71400700  0.25231000  1
  O  O28  1  0.06628000  0.08404300  0.58840200  1
  O  O29  1  0.76517600  0.00055100  0.70057800  1
  O  O30  1  0.51114600  0.90770100  0.88101400  1
  O  O31  1  0.32644000  0.82460600  0.82753000  1
  O  O32  1  0.71400700  0.61465200  0.75231000  1
  O  O33  1  0.99944900  0.23482400  0.79942200  1
  O  O34  1  0.93940100  0.48462700  0.92052200  1
  O  O35  1  0.38534800  0.28599300  0.74769000  1
  O  O36  1  0.51537300  0.06059900  0.57947800  1
  O  O37  1  0.28599300  0.38534800  0.24769000  1
  O  O38  1  0.48885400  0.09229900  0.11898600  1
  O  O39  1  0.08404300  0.06628000  0.08840200  1
  O  O40  1  0.48462700  0.93940100  0.42052200  1
  O  O41  1  0.46955100  0.41914900  0.93849000  1
  O  O42  1  0.06059900  0.51537300  0.07947800  1
  O  O43  1  0.41915000  0.46955100  0.43849000  1
  O  O44  1  0.67356000  0.17539400  0.17247000  1
  O  O45  1  0.17539400  0.67356000  0.67247000  1
