# generated using pymatgen
data_SrCa7Mn6Al2O21
_symmetry_space_group_name_H-M   'P 1'
_cell_length_a   10.92501429
_cell_length_b   15.39578849
_cell_length_c   10.84568399
_cell_angle_alpha   89.75993092
_cell_angle_beta   90.41802582
_cell_angle_gamma   90.30107510
_symmetry_Int_Tables_number   1
_chemical_formula_structural   SrCa7Mn6Al2O21
_chemical_formula_sum   'Sr4 Ca28 Mn24 Al8 O84'
_cell_volume   1824.14601087
_cell_formula_units_Z   4
loop_
 _symmetry_equiv_pos_site_id
 _symmetry_equiv_pos_as_xyz
  1  'x, y, z'
loop_
 _atom_site_type_symbol
 _atom_site_label
 _atom_site_symmetry_multiplicity
 _atom_site_fract_x
 _atom_site_fract_y
 _atom_site_fract_z
 _atom_site_occupancy
  Sr  Sr0  1  0.00238851  0.13116691  0.49208001  1
  Sr  Sr1  1  0.49871261  0.35869321  0.01050125  1
  Sr  Sr2  1  0.22990843  0.37212353  0.26113245  1
  Sr  Sr3  1  0.25583086  0.12629944  0.24811894  1
  Ca  Ca4  1  0.01177634  0.11970519  0.99826808  1
  Ca  Ca5  1  0.01000362  0.61910403  0.51072881  1
  Ca  Ca6  1  0.01946896  0.61914296  0.99774435  1
  Ca  Ca7  1  0.52537722  0.12996113  0.51165550  1
  Ca  Ca8  1  0.52232694  0.12088393  0.97418337  1
  Ca  Ca9  1  0.52906845  0.62407814  0.49508346  1
  Ca  Ca10  1  0.53902184  0.62784137  0.00649872  1
  Ca  Ca11  1  0.49320535  0.38216887  0.51287221  1
  Ca  Ca12  1  0.50009236  0.87160760  0.97967124  1
  Ca  Ca13  1  0.49046722  0.87386968  0.49685549  1
  Ca  Ca14  1  0.97567562  0.38868770  0.00588745  1
  Ca  Ca15  1  0.99012981  0.39355431  0.49944902  1
  Ca  Ca16  1  0.97682717  0.87707506  0.00142159  1
  Ca  Ca17  1  0.97935040  0.86744646  0.52393719  1
  Ca  Ca18  1  0.23705843  0.38425615  0.74004417  1
  Ca  Ca19  1  0.24202965  0.88647313  0.24937414  1
  Ca  Ca20  1  0.23330727  0.88583309  0.75646671  1
  Ca  Ca21  1  0.73453169  0.39903831  0.25752764  1
  Ca  Ca22  1  0.72402188  0.38569651  0.74771406  1
  Ca  Ca23  1  0.73902984  0.86373913  0.24314870  1
  Ca  Ca24  1  0.72838918  0.87261514  0.75034962  1
  Ca  Ca25  1  0.28444914  0.12058477  0.74530391  1
  Ca  Ca26  1  0.26491332  0.61524131  0.26706407  1
  Ca  Ca27  1  0.23930158  0.62105711  0.73099126  1
  Ca  Ca28  1  0.71461130  0.12495321  0.24173396  1
  Ca  Ca29  1  0.73676991  0.11373592  0.75040506  1
  Ca  Ca30  1  0.77919361  0.62718488  0.25681935  1
  Ca  Ca31  1  0.78100878  0.62808931  0.76237915  1
  Mn  Mn32  1  0.00618636  0.98663237  0.25177630  1
  Mn  Mn33  1  0.99694249  0.99464412  0.76162514  1
  Mn  Mn34  1  0.99730538  0.50266789  0.25101229  1
  Mn  Mn35  1  0.00456568  0.50190776  0.75544972  1
  Mn  Mn36  1  0.49849272  0.50321912  0.24509685  1
  Mn  Mn37  1  0.50177440  0.50457066  0.74135547  1
  Mn  Mn38  1  0.25383176  0.00167606  0.00089971  1
  Mn  Mn39  1  0.24949635  0.50139872  0.50066143  1
  Mn  Mn40  1  0.74869412  0.99744660  -0.00067595  1
  Mn  Mn41  1  0.73594457  0.99631177  0.51614432  1
  Mn  Mn42  1  0.75040361  0.50242977  0.00134758  1
  Mn  Mn43  1  0.75373825  0.50166924  0.50102874  1
  Mn  Mn44  1  0.26600208  0.73646312  0.99110110  1
  Mn  Mn45  1  0.24554391  0.75845314  0.48101557  1
  Mn  Mn46  1  0.77427049  0.24166227  0.98121534  1
  Mn  Mn47  1  0.75687257  0.25068514  0.49245833  1
  Mn  Mn48  1  0.75869079  0.74962227  0.00390062  1
  Mn  Mn49  1  0.75749602  0.74814996  0.50718202  1
  Mn  Mn50  1  0.99353020  0.26167087  0.74917024  1
  Mn  Mn51  1  0.00393927  0.74842959  0.26045136  1
  Mn  Mn52  1  0.00786119  0.75112880  0.76007057  1
  Mn  Mn53  1  0.50721218  0.25085819  0.74789082  1
  Mn  Mn54  1  0.51000687  0.74612387  0.25988043  1
  Mn  Mn55  1  0.50660636  0.74497638  0.75327410  1
  Al  Al56  1  0.50589029  0.97977017  0.22610050  1
  Al  Al57  1  0.48599173  0.99224242  0.74317827  1
  Al  Al58  1  0.22554158  0.00030421  0.51948688  1
  Al  Al59  1  0.23559844  0.49571093  0.02064237  1
  Al  Al60  1  0.24508493  0.25268215  0.94549813  1
  Al  Al61  1  0.27813424  0.24196954  0.49920200  1
  Al  Al62  1  0.96958003  0.26287379  0.25526069  1
  Al  Al63  1  0.50708550  0.26317695  0.28157629  1
  O  O64  1  0.13114516  0.77945767  0.61815204  1
  O  O65  1  0.52922683  0.21636055  0.13858791  1
  O  O66  1  0.62711065  0.27543273  0.62021772  1
  O  O67  1  0.60613331  0.76773391  0.10850379  1
  O  O68  1  0.60151843  0.76894476  0.60596525  1
  O  O69  1  0.37808830  0.23316738  0.36834585  1
  O  O70  1  0.39203655  0.22794423  0.88318876  1
  O  O71  1  0.40741426  0.73433356  0.40450804  1
  O  O72  1  0.41629005  0.72709859  0.90833460  1
  O  O73  1  0.86078232  0.21098356  0.35062696  1
  O  O74  1  0.89789044  0.19088950  0.84422904  1
  O  O75  1  0.90600412  0.73124177  0.41474348  1
  O  O76  1  0.90771967  0.73074463  0.90593668  1
  O  O77  1  0.10757136  0.22508164  0.31447208  1
  O  O78  1  0.15359933  0.23713103  0.80666790  1
  O  O79  1  0.17346046  0.74708574  0.29817167  1
  O  O80  1  0.14888467  0.72758779  0.86135522  1
  O  O81  1  0.62904555  0.23218655  0.37585792  1
  O  O82  1  0.64057591  0.23379331  0.86395683  1
  O  O83  1  0.66296097  0.73136142  0.36053387  1
  O  O84  1  0.65874318  0.73735229  0.85962444  1
  O  O85  1  0.37943480  0.26200589  0.62784227  1
  O  O86  1  0.91917583  0.24774204  0.09938950  1
  O  O87  1  0.90661370  0.26211418  0.59716185  1
  O  O88  1  0.87127967  0.77294409  0.14513583  1
  O  O89  1  0.86110969  0.77468511  0.65447514  1
  O  O90  1  0.36434257  0.47895219  0.12555320  1
  O  O91  1  0.36008607  0.47983373  0.63853818  1
  O  O92  1  0.36305110  0.00450395  0.15719247  1
  O  O93  1  0.34975296  0.99788156  0.63527580  1
  O  O94  1  0.85620067  0.48665748  0.14415097  1
  O  O95  1  0.86113108  0.48195778  0.64305930  1
  O  O96  1  0.85181137  0.99650078  0.17475358  1
  O  O97  1  0.85708738  0.98928177  0.65449481  1
  O  O98  1  0.12979164  0.01972172  0.36871598  1
  O  O99  1  0.14632602  0.02564290  0.85799915  1
  O  O100  1  0.13962844  0.50686875  0.35750045  1
  O  O101  1  0.17970321  0.51290426  0.86467280  1
  O  O102  1  0.57170690  0.03698468  0.34990367  1
  O  O103  1  0.64117759  0.00049158  0.85768571  1
  O  O104  1  0.64277428  0.52367521  0.34991974  1
  O  O105  1  0.63525558  0.52534458  0.85841538  1
  O  O106  1  0.39198517  0.01196052  0.88913042  1
  O  O107  1  0.39137227  0.50943039  0.38948694  1
  O  O108  1  0.89895793  0.00963827  0.90991741  1
  O  O109  1  0.89527464  0.52448815  0.39119547  1
  O  O110  1  0.89649517  0.51724108  0.89821905  1
  O  O111  1  0.10120208  0.47983732  0.11291765  1
  O  O112  1  0.11360315  0.49147335  0.61394299  1
  O  O113  1  0.11052393  0.99221984  0.10735605  1
  O  O114  1  0.09427776  0.98751526  0.61500790  1
  O  O115  1  0.60941085  0.48424063  0.10619820  1
  O  O116  1  0.61541725  0.48296609  0.60057703  1
  O  O117  1  0.60986299  0.98103674  0.10326342  1
  O  O118  1  0.59330815  0.97758015  0.61532207  1
  O  O119  1  0.98268936  0.37709078  0.27967603  1
  O  O120  1  0.01359582  0.38055008  0.78807040  1
  O  O121  1  0.01127747  0.87136780  0.30136755  1
  O  O122  1  0.02224950  0.86951864  0.79918527  1
  O  O123  1  0.50897853  0.37738697  0.27745382  1
  O  O124  1  0.50091528  0.37922651  0.78523092  1
  O  O125  1  0.49115508  0.87065142  0.27594020  1
  O  O126  1  0.46640872  0.86825128  0.76471673  1
  O  O127  1  0.51084052  0.12432592  0.72435071  1
  O  O128  1  0.47870143  0.62653397  0.21230092  1
  O  O129  1  0.46564972  0.62711997  0.70939056  1
  O  O130  1  0.99982296  0.62631432  0.21320149  1
  O  O131  1  0.00198816  0.62656558  0.72183876  1
  O  O132  1  0.20507341  0.17008451  0.04534829  1
  O  O133  1  0.23186504  0.13138655  0.52633000  1
  O  O134  1  0.24015756  0.62220238  0.04966915  1
  O  O135  1  0.23055047  0.63697854  0.51400801  1
  O  O136  1  0.73874343  0.12167616  0.02770364  1
  O  O137  1  0.74399598  0.11825816  0.53116056  1
  O  O138  1  0.74999247  0.62857293  0.04019157  1
  O  O139  1  0.74682215  0.62694946  0.54828454  1
  O  O140  1  0.20752071  0.34558687  0.49755999  1
  O  O141  1  0.24584074  0.36339602  0.98881426  1
  O  O142  1  0.27268000  0.88955948  0.46339959  1
  O  O143  1  0.27119191  0.85712326  0.01745321  1
  O  O144  1  0.76597926  0.37896031  0.46209286  1
  O  O145  1  0.76100649  0.36718080  0.97295300  1
  O  O146  1  0.76369501  0.88113032  0.45879991  1
  O  O147  1  0.76442371  0.87497109  0.97308645  1
