# generated using pymatgen
data_Ca8Mn7CrO24
_symmetry_space_group_name_H-M   'P 1'
_cell_length_a   7.61107200
_cell_length_b   7.61107200
_cell_length_c   7.61107200
_cell_angle_alpha   90.00000000
_cell_angle_beta   90.00000000
_cell_angle_gamma   90.00000000
_symmetry_Int_Tables_number   1
_chemical_formula_structural   Ca8Mn7CrO24
_chemical_formula_sum   'Ca8 Mn7 Cr1 O24'
_cell_volume   440.89735255
_cell_formula_units_Z   1
loop_
 _symmetry_equiv_pos_site_id
 _symmetry_equiv_pos_as_xyz
  1  'x, y, z'
loop_
 _atom_site_type_symbol
 _atom_site_label
 _atom_site_symmetry_multiplicity
 _atom_site_fract_x
 _atom_site_fract_y
 _atom_site_fract_z
 _atom_site_occupancy
  Ca  Ca0  1  0.25114800  0.25114800  0.25114800  1
  Ca  Ca1  1  0.25114800  0.25114800  0.74885200  1
  Ca  Ca2  1  0.25114800  0.74885200  0.25114800  1
  Ca  Ca3  1  0.25114800  0.74885200  0.74885200  1
  Ca  Ca4  1  0.74885200  0.25114800  0.25114800  1
  Ca  Ca5  1  0.74885200  0.25114800  0.74885200  1
  Ca  Ca6  1  0.74885200  0.74885200  0.25114800  1
  Ca  Ca7  1  0.74885200  0.74885200  0.74885200  1
  Mn  Mn8  1  0.00000000  0.00000000  0.50000000  1
  Mn  Mn9  1  0.00000000  0.50000000  0.00000000  1
  Mn  Mn10  1  0.00000000  0.50000000  0.50000000  1
  Mn  Mn11  1  0.50000000  0.00000000  0.00000000  1
  Mn  Mn12  1  0.50000000  0.00000000  0.50000000  1
  Mn  Mn13  1  0.50000000  0.50000000  0.00000000  1
  Mn  Mn14  1  0.50000000  0.50000000  0.50000000  1
  Cr  Cr15  1  0.00000000  0.00000000  0.00000000  1
  O  O16  1  0.00000000  0.00000000  0.25097000  1
  O  O17  1  0.00000000  0.00000000  0.74903000  1
  O  O18  1  0.00000000  0.50000000  0.25015300  1
  O  O19  1  0.00000000  0.50000000  0.74984700  1
  O  O20  1  0.50000000  0.00000000  0.25015300  1
  O  O21  1  0.50000000  0.00000000  0.74984700  1
  O  O22  1  0.50000000  0.50000000  0.24989900  1
  O  O23  1  0.50000000  0.50000000  0.75010100  1
  O  O24  1  0.25097000  0.00000000  0.00000000  1
  O  O25  1  0.25015300  0.00000000  0.50000000  1
  O  O26  1  0.25015300  0.50000000  0.00000000  1
  O  O27  1  0.24989900  0.50000000  0.50000000  1
  O  O28  1  0.74903000  0.00000000  0.00000000  1
  O  O29  1  0.74984700  0.00000000  0.50000000  1
  O  O30  1  0.74984700  0.50000000  0.00000000  1
  O  O31  1  0.75010100  0.50000000  0.50000000  1
  O  O32  1  0.00000000  0.25097000  0.00000000  1
  O  O33  1  0.00000000  0.25015300  0.50000000  1
  O  O34  1  0.00000000  0.74903000  0.00000000  1
  O  O35  1  0.00000000  0.74984700  0.50000000  1
  O  O36  1  0.50000000  0.25015300  0.00000000  1
  O  O37  1  0.50000000  0.24989900  0.50000000  1
  O  O38  1  0.50000000  0.74984700  0.00000000  1
  O  O39  1  0.50000000  0.75010100  0.50000000  1
