# generated using pymatgen
data_Al2O3
_symmetry_space_group_name_H-M   'P 1'
_cell_length_a   3.11986200
_cell_length_b   5.56960296
_cell_length_c   9.56327900
_cell_angle_alpha   90.00000000
_cell_angle_beta   90.00000000
_cell_angle_gamma   124.06677918
_symmetry_Int_Tables_number   1
_chemical_formula_structural   Al2O3
_chemical_formula_sum   'Al4 O6'
_cell_volume   137.65716154
_cell_formula_units_Z   2
loop_
 _symmetry_equiv_pos_site_id
 _symmetry_equiv_pos_as_xyz
  1  'x, y, z'
loop_
 _atom_site_type_symbol
 _atom_site_label
 _atom_site_symmetry_multiplicity
 _atom_site_fract_x
 _atom_site_fract_y
 _atom_site_fract_z
 _atom_site_occupancy
  Al  Al0  1  0.01702500  0.51702500  0.32457300  1
  Al  Al1  1  0.98297500  0.48297500  0.67542700  1
  Al  Al2  1  0.01702500  0.01702500  0.17542700  1
  Al  Al3  1  0.98297500  0.98297500  0.82457300  1
  O  O4  1  0.37636500  0.87636500  0.24695000  1
  O  O5  1  0.00000000  0.00000000  0.00000000  1
  O  O6  1  0.62363500  0.62363500  0.74695000  1
  O  O7  1  0.37636500  0.37636500  0.25305000  1
  O  O8  1  0.62363500  0.12363500  0.75305000  1
  O  O9  1  0.00000000  0.50000000  0.50000000  1
