# generated using pymatgen
data_CaSn6S13
_symmetry_space_group_name_H-M   'P 1'
_cell_length_a   9.78635159
_cell_length_b   9.75910678
_cell_length_c   12.08328009
_cell_angle_alpha   105.98387670
_cell_angle_beta   103.31789189
_cell_angle_gamma   58.91267246
_symmetry_Int_Tables_number   1
_chemical_formula_structural   CaSn6S13
_chemical_formula_sum   'Ca2 Sn12 S26'
_cell_volume   944.61442178
_cell_formula_units_Z   2
loop_
 _symmetry_equiv_pos_site_id
 _symmetry_equiv_pos_as_xyz
  1  'x, y, z'
loop_
 _atom_site_type_symbol
 _atom_site_label
 _atom_site_symmetry_multiplicity
 _atom_site_fract_x
 _atom_site_fract_y
 _atom_site_fract_z
 _atom_site_occupancy
  Ca  Ca0  1  0.34797700  0.96190100  0.15491000  1
  Ca  Ca1  1  0.65202300  0.03809900  0.84509000  1
  Sn  Sn2  1  0.67359400  0.37253200  0.23353400  1
  Sn  Sn3  1  0.32640600  0.62746800  0.76646600  1
  Sn  Sn4  1  0.89304700  0.92698200  0.21557200  1
  Sn  Sn5  1  0.10695300  0.07301800  0.78442800  1
  Sn  Sn6  1  0.21074600  0.42518800  0.97587800  1
  Sn  Sn7  1  0.78925400  0.57481200  0.02412200  1
  Sn  Sn8  1  0.24197400  0.52438800  0.27588400  1
  Sn  Sn9  1  0.75802600  0.47561200  0.72411600  1
  Sn  Sn10  1  0.42007700  0.85451000  0.49953100  1
  Sn  Sn11  1  0.57992300  0.14549000  0.50046900  1
  Sn  Sn12  1  0.86332400  0.72188600  0.50997100  1
  Sn  Sn13  1  0.13667600  0.27811400  0.49002900  1
  S  S14  1  0.16171500  0.71256000  0.13013100  1
  S  S15  1  0.83828500  0.28744000  0.86986900  1
  S  S16  1  0.44741900  0.30038200  0.13960300  1
  S  S17  1  0.55258100  0.69961800  0.86039700  1
  S  S18  1  0.60609500  0.87258800  0.37780000  1
  S  S19  1  0.39390500  0.12741200  0.62220000  1
  S  S20  1  0.67583300  0.88273900  0.09096800  1
  S  S21  1  0.32416700  0.11726100  0.90903200  1
  S  S22  1  0.89804800  0.45319900  0.36537100  1
  S  S23  1  0.10195200  0.54680100  0.63462900  1
  S  S24  1  0.86980000  0.12758900  0.10599200  1
  S  S25  1  0.13020000  0.87241100  0.89400800  1
  S  S26  1  0.47570400  0.56973400  0.38675900  1
  S  S27  1  0.52429600  0.43026600  0.61324100  1
  S  S28  1  0.19010800  0.00312500  0.35486800  1
  S  S29  1  0.80989200  0.99687500  0.64513200  1
  S  S30  1  0.75545800  0.16592900  0.37296400  1
  S  S31  1  0.24454200  0.83407100  0.62703600  1
  S  S32  1  0.58434100  0.59636100  0.12700000  1
  S  S33  1  0.41565900  0.40363900  0.87300000  1
  S  S34  1  0.02125000  0.76192800  0.38429200  1
  S  S35  1  0.97875000  0.23807200  0.61570800  1
  S  S36  1  0.06513600  0.40549600  0.12506200  1
  S  S37  1  0.93486400  0.59450400  0.87493800  1
  S  S38  1  0.32051900  0.26995700  0.36030700  1
  S  S39  1  0.67948100  0.73004300  0.63969300  1
