# generated using pymatgen
data_CaAl2Si2(H2O5)2
_symmetry_space_group_name_H-M   'P 1'
_cell_length_a   6.05315136
_cell_length_b   6.05315136
_cell_length_c   13.88323600
_cell_angle_alpha   90.00000000
_cell_angle_beta   90.00000000
_cell_angle_gamma   58.29232380
_symmetry_Int_Tables_number   1
_chemical_formula_structural   CaAl2Si2(H2O5)2
_chemical_formula_sum   'Ca2 Al4 Si4 H8 O20'
_cell_volume   432.76385864
_cell_formula_units_Z   2
loop_
 _symmetry_equiv_pos_site_id
 _symmetry_equiv_pos_as_xyz
  1  'x, y, z'
loop_
 _atom_site_type_symbol
 _atom_site_label
 _atom_site_symmetry_multiplicity
 _atom_site_fract_x
 _atom_site_fract_y
 _atom_site_fract_z
 _atom_site_occupancy
  Ca  Ca0  1  0.13332500  0.13332500  0.25000000  1
  Ca  Ca1  1  0.86667500  0.86667500  0.75000000  1
  Al  Al2  1  0.00000000  0.50000000  0.50000000  1
  Al  Al3  1  0.50000000  0.00000000  0.50000000  1
  Al  Al4  1  0.00000000  0.50000000  0.00000000  1
  Al  Al5  1  0.50000000  0.00000000  0.00000000  1
  Si  Si6  1  0.78693500  0.78693500  0.35033800  1
  Si  Si7  1  0.21306500  0.21306500  0.64966200  1
  Si  Si8  1  0.78693500  0.78693500  0.14966200  1
  Si  Si9  1  0.21306500  0.21306500  0.85033800  1
  H  H10  1  0.54765600  0.54765600  0.30483600  1
  H  H11  1  0.45234400  0.45234400  0.69516400  1
  H  H12  1  0.54765600  0.54765600  0.19516400  1
  H  H13  1  0.45234400  0.45234400  0.80483600  1
  H  H14  1  0.41376600  0.41376600  0.42031100  1
  H  H15  1  0.58623400  0.58623400  0.57968900  1
  H  H16  1  0.41376600  0.41376600  0.07968900  1
  H  H17  1  0.58623400  0.58623400  0.92031100  1
  O  O18  1  0.87497900  0.87497900  0.25000000  1
  O  O19  1  0.12502100  0.12502100  0.75000000  1
  O  O20  1  0.93756300  0.47073400  0.36113200  1
  O  O21  1  0.52926600  0.06243700  0.63886800  1
  O  O22  1  0.93756300  0.47073400  0.13886800  1
  O  O23  1  0.52926600  0.06243700  0.86113200  1
  O  O24  1  0.06243700  0.52926600  0.63886800  1
  O  O25  1  0.47073400  0.93756300  0.36113200  1
  O  O26  1  0.06243700  0.52926600  0.86113200  1
  O  O27  1  0.47073400  0.93756300  0.13886800  1
  O  O28  1  0.85947500  0.85947500  0.45631300  1
  O  O29  1  0.14052500  0.14052500  0.54368700  1
  O  O30  1  0.85947500  0.85947500  0.04368700  1
  O  O31  1  0.14052500  0.14052500  0.95631300  1
  O  O32  1  0.35730100  0.35730100  0.47507300  1
  O  O33  1  0.64269900  0.64269900  0.52492700  1
  O  O34  1  0.35730100  0.35730100  0.02492700  1
  O  O35  1  0.64269900  0.64269900  0.97507300  1
  O  O36  1  0.48911700  0.48911700  0.25000000  1
  O  O37  1  0.51088300  0.51088300  0.75000000  1
