# generated using pymatgen
data_Ca8Mn7CrO20
_symmetry_space_group_name_H-M   'P 1'
_cell_length_a   7.84582694
_cell_length_b   7.84582694
_cell_length_c   7.64820445
_cell_angle_alpha   88.50413189
_cell_angle_beta   88.50413189
_cell_angle_gamma   90.72663593
_symmetry_Int_Tables_number   1
_chemical_formula_structural   Ca8Mn7CrO20
_chemical_formula_sum   'Ca8 Mn7 Cr1 O20'
_cell_volume   470.43762297
_cell_formula_units_Z   1
loop_
 _symmetry_equiv_pos_site_id
 _symmetry_equiv_pos_as_xyz
  1  'x, y, z'
loop_
 _atom_site_type_symbol
 _atom_site_label
 _atom_site_symmetry_multiplicity
 _atom_site_fract_x
 _atom_site_fract_y
 _atom_site_fract_z
 _atom_site_occupancy
  Ca  Ca0  1  0.25497200  0.25497200  0.25690400  1
  Ca  Ca1  1  0.26986200  0.26986200  0.69127500  1
  Ca  Ca2  1  0.25002300  0.73192100  0.25907700  1
  Ca  Ca3  1  0.25566200  0.72201900  0.70697800  1
  Ca  Ca4  1  0.73192100  0.25002300  0.25907700  1
  Ca  Ca5  1  0.72201900  0.25566200  0.70697800  1
  Ca  Ca6  1  0.74530600  0.74530600  0.27304400  1
  Ca  Ca7  1  0.72686200  0.72686200  0.73867300  1
  Mn  Mn8  1  0.00277600  0.00277600  0.52317700  1
  Mn  Mn9  1  0.00090400  0.48901400  0.00383400  1
  Mn  Mn10  1  0.00120400  0.50826900  0.49015300  1
  Mn  Mn11  1  0.48901400  0.00090400  0.00383400  1
  Mn  Mn12  1  0.50826900  0.00120400  0.49015300  1
  Mn  Mn13  1  0.50067200  0.50067200  0.99612100  1
  Mn  Mn14  1  0.50263900  0.50263900  0.48851600  1
  Cr  Cr15  1  0.01949900  0.01949900  0.99120700  1
  O  O16  1  0.93443800  0.93443800  0.79721600  1
  O  O17  1  0.98825400  0.56502800  0.23699100  1
  O  O18  1  0.03200400  0.50835500  0.75028000  1
  O  O19  1  0.56502800  0.98825400  0.23699100  1
  O  O20  1  0.50835500  0.03200400  0.75028000  1
  O  O21  1  0.48323100  0.48323100  0.74265500  1
  O  O22  1  0.22543700  0.96311500  0.06809000  1
  O  O23  1  0.25268000  0.00951300  0.50243500  1
  O  O24  1  0.25467000  0.50202100  0.04177700  1
  O  O25  1  0.26146100  0.49810400  0.46057200  1
  O  O26  1  0.76085500  0.01422700  0.48908300  1
  O  O27  1  0.75086300  0.51789300  0.00019600  1
  O  O28  1  0.74498100  0.50126700  0.49113900  1
  O  O29  1  0.96311500  0.22543700  0.06809000  1
  O  O30  1  0.00951300  0.25268000  0.50243500  1
  O  O31  1  0.01422700  0.76085500  0.48908300  1
  O  O32  1  0.50202100  0.25467000  0.04177700  1
  O  O33  1  0.49810400  0.26146100  0.46057200  1
  O  O34  1  0.51789300  0.75086300  0.00019600  1
  O  O35  1  0.50126700  0.74498100  0.49113900  1
