# generated using pymatgen
data_Ba11W4O23
_symmetry_space_group_name_H-M   'P 1'
_cell_length_a   12.53655636
_cell_length_b   12.68726473
_cell_length_c   12.58846005
_cell_angle_alpha   60.58159791
_cell_angle_beta   58.53443568
_cell_angle_gamma   59.19497748
_symmetry_Int_Tables_number   1
_chemical_formula_structural   Ba11W4O23
_chemical_formula_sum   'Ba22 W8 O46'
_cell_volume   1396.71898367
_cell_formula_units_Z   2
loop_
 _symmetry_equiv_pos_site_id
 _symmetry_equiv_pos_as_xyz
  1  'x, y, z'
loop_
 _atom_site_type_symbol
 _atom_site_label
 _atom_site_symmetry_multiplicity
 _atom_site_fract_x
 _atom_site_fract_y
 _atom_site_fract_z
 _atom_site_occupancy
  Ba  Ba0  1  0.23471863  0.20789110  0.24378592  1
  Ba  Ba1  1  0.13911298  0.15812764  0.60130419  1
  Ba  Ba2  1  0.13926082  0.59957697  0.15624559  1
  Ba  Ba3  1  0.60122197  0.16514542  0.14438624  1
  Ba  Ba4  1  0.35498638  0.38981867  0.37734950  1
  Ba  Ba5  1  0.12956912  0.57758938  0.63283796  1
  Ba  Ba6  1  0.19638393  0.80082188  0.29816638  1
  Ba  Ba7  1  0.24624579  0.22751478  0.79024294  1
  Ba  Ba8  1  0.06715993  0.79672364  0.77898533  1
  Ba  Ba9  1  0.62828252  0.15262289  0.54763522  1
  Ba  Ba10  1  0.62081112  0.55788964  0.15661789  1
  Ba  Ba11  1  0.34801438  0.43965537  0.86799584  1
  Ba  Ba12  1  0.36671850  0.83261710  0.45557860  1
  Ba  Ba13  1  0.98971402  0.17315826  0.17657474  1
  Ba  Ba14  1  0.73376880  0.75942052  0.22711553  1
  Ba  Ba15  1  0.85192621  0.40019115  0.37942077  1
  Ba  Ba16  1  0.74961101  0.18643586  0.75765609  1
  Ba  Ba17  1  0.62797690  0.59198114  0.63945173  1
  Ba  Ba18  1  0.37982530  0.83842376  0.84496568  1
  Ba  Ba19  1  0.83147288  0.86084430  0.38764938  1
  Ba  Ba20  1  0.84570222  0.38496891  0.85945910  1
  Ba  Ba21  1  0.76672585  0.78802295  0.74271318  1
  W  W22  1  0.97735902  0.00577956  0.01280620  1
  W  W23  1  0.45589375  0.99833563  0.01782052  1
  W  W24  1  0.48461761  0.00014788  0.50220159  1
  W  W25  1  0.48777884  0.50444606  0.00519225  1
  W  W26  1  0.48134066  0.49837415  0.51548708  1
  W  W27  1  0.98689803  0.50262869  0.00405309  1
  W  W28  1  0.98795542  0.49939413  0.50351086  1
  W  W29  1  0.96651638  0.02437478  0.51104862  1
  O  O30  1  0.11916893  0.38392998  0.39218222  1
  O  O31  1  0.50538599  0.12961577  0.97901247  1
  O  O32  1  0.08424848  0.38570765  0.63042865  1
  O  O33  1  0.10810150  0.59989021  0.40636835  1
  O  O34  1  0.36828685  0.39958158  0.10357766  1
  O  O35  1  0.37612093  0.10228797  0.38945369  1
  O  O36  1  0.36255814  0.61812282  0.11745388  1
  O  O37  1  0.37156041  0.12428458  0.60321724  1
  O  O38  1  0.57948019  0.38636201  0.13110027  1
  O  O39  1  0.60268150  0.10049502  0.37861854  1
  O  O40  1  0.38420426  0.37874584  0.59566323  1
  O  O41  1  0.38423722  0.60802149  0.39190028  1
  O  O42  1  0.33153700  0.60950182  0.63234567  1
  O  O43  1  0.61756797  0.40055621  0.39421959  1
  O  O44  1  0.09796985  0.89915389  0.91102019  1
  O  O45  1  0.51301839  0.85955505  0.14585160  1
  O  O46  1  0.56225137  0.40139791  0.64809064  1
  O  O47  1  0.58368826  0.61396055  0.43332199  1
  O  O48  1  0.35787847  0.90577419  0.62461470  1
  O  O49  1  0.39131342  0.61691781  0.88221408  1
  O  O50  1  0.88209495  0.41018445  0.03301761  1
  O  O51  1  0.88659806  0.02138073  0.41242835  1
  O  O52  1  0.80838371  0.98099614  0.69510896  1
  O  O53  1  0.81076533  0.19145051  0.53541258  1
  O  O54  1  0.82886363  0.58154863  0.13456330  1
  O  O55  1  0.02691383  0.02861692  0.62403086  1
  O  O56  1  0.05857663  0.36516405  0.13594840  1
  O  O57  1  0.02047300  0.17379804  0.36311420  1
  O  O58  1  0.08777028  0.59546373  0.98326798  1
  O  O59  1  0.60777242  0.39470128  0.89126673  1
  O  O60  1  0.59148891  0.87356547  0.40719877  1
  O  O61  1  0.27568041  0.05863739  0.07503438  1
  O  O62  1  0.60358665  0.60731183  0.91044519  1
  O  O63  1  0.59281760  0.89700256  0.61249311  1
  O  O64  1  0.89671586  0.61039600  0.37579786  1
  O  O65  1  0.87394250  0.39377174  0.60203573  1
  O  O66  1  0.84504353  0.13805703  0.93767085  1
  O  O67  1  0.83730711  0.93396901  0.13901070  1
  O  O68  1  0.50962328  0.95508379  0.87539404  1
  O  O69  1  0.86251660  0.61316484  0.61185252  1
  O  O70  1  0.03589903  0.93694839  0.15418720  1
  O  O71  1  0.05057787  0.13851927  0.93877454  1
  O  O72  1  0.93643099  0.64245347  0.85765609  1
  O  O73  1  0.02187367  0.82542012  0.57319217  1
  O  O74  1  0.14375120  0.41678419  0.87286576  1
  O  O75  1  0.16730586  0.95482784  0.38911820  1
