# generated using pymatgen
data_Ca4TiMn3O12
_symmetry_space_group_name_H-M   'P 1'
_cell_length_a   5.35407801
_cell_length_b   10.86090902
_cell_length_c   15.20890900
_cell_angle_alpha   90.00000000
_cell_angle_beta   90.00000000
_cell_angle_gamma   90.00648161
_symmetry_Int_Tables_number   1
_chemical_formula_structural   Ca4TiMn3O12
_chemical_formula_sum   'Ca16 Ti4 Mn12 O48'
_cell_volume   884.40039673
_cell_formula_units_Z   4
loop_
 _symmetry_equiv_pos_site_id
 _symmetry_equiv_pos_as_xyz
  1  'x, y, z'
loop_
 _atom_site_type_symbol
 _atom_site_label
 _atom_site_symmetry_multiplicity
 _atom_site_fract_x
 _atom_site_fract_y
 _atom_site_fract_z
 _atom_site_occupancy
  Ca  Ca0  1  0.99216200  0.01979600  0.12500000  1
  Ca  Ca1  1  0.99266800  0.02267100  0.62500000  1
  Ca  Ca2  1  0.99098000  0.52417400  0.12500000  1
  Ca  Ca3  1  0.99116200  0.52256700  0.62500000  1
  Ca  Ca4  1  0.00932700  0.47914100  0.37575700  1
  Ca  Ca5  1  0.00932700  0.47914100  0.87424300  1
  Ca  Ca6  1  0.00862000  0.97671800  0.37627800  1
  Ca  Ca7  1  0.00862000  0.97671800  0.87372200  1
  Ca  Ca8  1  0.49124700  0.22888200  0.37678500  1
  Ca  Ca9  1  0.49124700  0.22888200  0.87321500  1
  Ca  Ca10  1  0.49100800  0.72667700  0.37494900  1
  Ca  Ca11  1  0.49100800  0.72667700  0.87505100  1
  Ca  Ca12  1  0.50778400  0.27411200  0.12500000  1
  Ca  Ca13  1  0.50737900  0.27239200  0.62500000  1
  Ca  Ca14  1  0.50958600  0.76931900  0.12500000  1
  Ca  Ca15  1  0.50863300  0.77283700  0.62500000  1
  Ti  Ti16  1  0.49917800  0.99851700  0.99928100  1
  Ti  Ti17  1  0.00133500  0.25098800  0.99927400  1
  Ti  Ti18  1  0.00133500  0.25098800  0.25072600  1
  Ti  Ti19  1  0.49917800  0.99851700  0.25071900  1
  Mn  Mn20  1  0.50211300  0.00046100  0.50081800  1
  Mn  Mn21  1  0.50351800  0.50154900  0.00017500  1
  Mn  Mn22  1  0.49989400  0.50007600  0.50003500  1
  Mn  Mn23  1  0.99755200  0.25051000  0.50082600  1
  Mn  Mn24  1  0.00348100  0.74847900  0.99978300  1
  Mn  Mn25  1  0.00046300  0.74998800  0.49998500  1
  Mn  Mn26  1  0.99755200  0.25051000  0.74917400  1
  Mn  Mn27  1  0.00348100  0.74847900  0.25021700  1
  Mn  Mn28  1  0.00046300  0.74998800  0.75001500  1
  Mn  Mn29  1  0.50211300  0.00046100  0.74918200  1
  Mn  Mn30  1  0.50351800  0.50154900  0.24982500  1
  Mn  Mn31  1  0.49989400  0.50007600  0.74996500  1
  O  O32  1  0.20714600  0.10477500  0.26966600  1
  O  O33  1  0.20647900  0.10432300  0.77063900  1
  O  O34  1  0.20481100  0.60271300  0.27047500  1
  O  O35  1  0.20605100  0.60396300  0.77020800  1
  O  O36  1  0.78792500  0.39738700  0.23077700  1
  O  O37  1  0.79346500  0.39640200  0.72935300  1
  O  O38  1  0.79553500  0.89312400  0.23101400  1
  O  O39  1  0.79453300  0.89609900  0.72946100  1
  O  O40  1  0.70739200  0.14480000  0.23052500  1
  O  O41  1  0.70573000  0.14650400  0.72908900  1
  O  O42  1  0.70507800  0.64720900  0.22959600  1
  O  O43  1  0.70598300  0.64600900  0.72973600  1
  O  O44  1  0.29596600  0.35697100  0.26893700  1
  O  O45  1  0.29316400  0.35417100  0.77040400  1
  O  O46  1  0.28757300  0.85218900  0.26942100  1
  O  O47  1  0.29425000  0.85408100  0.77057400  1
  O  O48  1  0.29316400  0.35417100  0.47959500  1
  O  O49  1  0.29596600  0.35697100  0.98106200  1
  O  O50  1  0.29425000  0.85408200  0.47942500  1
  O  O51  1  0.28757300  0.85218900  0.98057800  1
  O  O52  1  0.70739200  0.14480000  0.01947400  1
  O  O53  1  0.70573000  0.14650400  0.52091000  1
  O  O54  1  0.70507800  0.64720800  0.02040300  1
  O  O55  1  0.70598300  0.64600800  0.52026300  1
  O  O56  1  0.78792500  0.39738700  0.01922200  1
  O  O57  1  0.79346500  0.39640200  0.52064600  1
  O  O58  1  0.79553500  0.89312300  0.01898500  1
  O  O59  1  0.79453300  0.89609900  0.52053800  1
  O  O60  1  0.20647900  0.10432300  0.47936000  1
  O  O61  1  0.20714600  0.10477500  0.98033300  1
  O  O62  1  0.20605100  0.60396300  0.47979100  1
  O  O63  1  0.20481100  0.60271300  0.97952400  1
  O  O64  1  0.57404200  0.00872600  0.37735900  1
  O  O65  1  0.57404200  0.00872700  0.87264100  1
  O  O66  1  0.57979600  0.51002700  0.37509100  1
  O  O67  1  0.57979600  0.51002700  0.87490900  1
  O  O68  1  0.42080600  0.49002800  0.12500000  1
  O  O69  1  0.42151900  0.49013300  0.62500000  1
  O  O70  1  0.42483200  0.99088300  0.12500000  1
  O  O71  1  0.42089800  0.99011500  0.62500000  1
  O  O72  1  0.07448000  0.24085200  0.12500000  1
  O  O73  1  0.07907900  0.24022500  0.62500000  1
  O  O74  1  0.08111400  0.73962900  0.12500000  1
  O  O75  1  0.07825100  0.74007500  0.62500000  1
  O  O76  1  0.92559200  0.25872000  0.37739000  1
  O  O77  1  0.92559200  0.25872100  0.87261000  1
  O  O78  1  0.92108600  0.75990900  0.37505200  1
  O  O79  1  0.92108600  0.75990900  0.87494800  1
