# generated using pymatgen
data_SrCa7Mn8O21
_symmetry_space_group_name_H-M   'P 1'
_cell_length_a   7.80388097
_cell_length_b   7.71154597
_cell_length_c   7.67006361
_cell_angle_alpha   90.06219531
_cell_angle_beta   86.54924678
_cell_angle_gamma   90.00162062
_symmetry_Int_Tables_number   1
_chemical_formula_structural   SrCa7Mn8O21
_chemical_formula_sum   'Sr1 Ca7 Mn8 O21'
_cell_volume   460.74715782
_cell_formula_units_Z   1
loop_
 _symmetry_equiv_pos_site_id
 _symmetry_equiv_pos_as_xyz
  1  'x, y, z'
loop_
 _atom_site_type_symbol
 _atom_site_label
 _atom_site_symmetry_multiplicity
 _atom_site_fract_x
 _atom_site_fract_y
 _atom_site_fract_z
 _atom_site_occupancy
  Sr  Sr0  1  0.24429100  0.24441200  0.24724000  1
  Ca  Ca1  1  0.27607600  0.26310600  0.73115600  1
  Ca  Ca2  1  0.23889700  0.73182200  0.23416100  1
  Ca  Ca3  1  0.27775100  0.73760100  0.70902900  1
  Ca  Ca4  1  0.76806600  0.25524500  0.28161100  1
  Ca  Ca5  1  0.74893200  0.26917800  0.74867100  1
  Ca  Ca6  1  0.73804700  0.73589000  0.24604700  1
  Ca  Ca7  1  0.75939000  0.74725500  0.74451800  1
  Mn  Mn8  1  0.01144200  0.99458000  0.97987800  1
  Mn  Mn9  1  0.99907000  0.99936100  0.52318700  1
  Mn  Mn10  1  0.98934200  0.49713000  0.00983200  1
  Mn  Mn11  1  0.00334200  0.50230300  0.50435000  1
  Mn  Mn12  1  0.48928500  0.99700700  0.99210600  1
  Mn  Mn13  1  0.51227100  0.99885700  0.48267500  1
  Mn  Mn14  1  0.50094000  0.50349800  0.98606900  1
  Mn  Mn15  1  0.51167600  0.50373800  0.50104800  1
  O  O16  1  0.89237900  0.01099100  0.77506600  1
  O  O17  1  0.03548400  0.50611100  0.25583000  1
  O  O18  1  0.95596300  0.49404700  0.76027700  1
  O  O19  1  0.53509500  0.05963200  0.23182200  1
  O  O20  1  0.50644000  0.94383500  0.73838100  1
  O  O21  1  0.52612900  0.54958000  0.74390400  1
  O  O22  1  0.23290900  0.97342100  0.06429700  1
  O  O23  1  0.24988200  0.03547300  0.52248800  1
  O  O24  1  0.25618300  0.52318900  0.98108000  1
  O  O25  1  0.26148100  0.47091700  0.51608000  1
  O  O26  1  0.77098500  0.96389600  0.44278100  1
  O  O27  1  0.72054400  0.46783700  0.07221500  1
  O  O28  1  0.75421600  0.53308200  0.46964700  1
  O  O29  1  0.99196200  0.23297900  0.03930400  1
  O  O30  1  0.97146700  0.24833800  0.49393400  1
  O  O31  1  0.95048800  0.75807400  0.02015600  1
  O  O32  1  0.04799900  0.75255000  0.51500900  1
  O  O33  1  0.48205400  0.24828900  0.94014700  1
  O  O34  1  0.54259200  0.25472600  0.52533600  1
  O  O35  1  0.52898000  0.75014300  0.03989600  1
  O  O36  1  0.46795200  0.74190400  0.43077500  1
