# generated using pymatgen
data_KCa4Si8H16O28F
_symmetry_space_group_name_H-M   'P 1'
_cell_length_a   9.79155664
_cell_length_b   9.79155664
_cell_length_c   12.56883597
_cell_angle_alpha   90.00000000
_cell_angle_beta   90.00000000
_cell_angle_gamma   90.07874735
_symmetry_Int_Tables_number   1
_chemical_formula_structural   KCa4Si8H16O28F
_chemical_formula_sum   'K2 Ca8 Si16 H32 O56 F2'
_cell_volume   1205.03075009
_cell_formula_units_Z   2
loop_
 _symmetry_equiv_pos_site_id
 _symmetry_equiv_pos_as_xyz
  1  'x, y, z'
loop_
 _atom_site_type_symbol
 _atom_site_label
 _atom_site_symmetry_multiplicity
 _atom_site_fract_x
 _atom_site_fract_y
 _atom_site_fract_z
 _atom_site_occupancy
  K  K0  1  0.50000000  0.50000000  0.00000000  1
  K  K1  1  0.00000000  0.00000000  0.50000000  1
  Ca  Ca2  1  0.64210854  0.82529203  0.00000000  1
  Ca  Ca3  1  0.32529203  0.14210854  0.50000000  1
  Ca  Ca4  1  0.17585189  0.64163092  0.00000000  1
  Ca  Ca5  1  0.14163092  0.67585189  0.50000000  1
  Ca  Ca6  1  0.67470797  0.85789146  0.50000000  1
  Ca  Ca7  1  0.35789146  0.17470797  0.00000000  1
  Ca  Ca8  1  0.85836908  0.32414811  0.50000000  1
  Ca  Ca9  1  0.82414811  0.35836908  0.00000000  1
  Si  Si10  1  0.50527703  0.72939710  0.24028268  1
  Si  Si11  1  0.77060290  0.99472297  0.25971732  1
  Si  Si12  1  0.72900232  0.49521617  0.24028833  1
  Si  Si13  1  0.00478383  0.77099768  0.74028833  1
  Si  Si14  1  0.77060290  0.99472297  0.74028268  1
  Si  Si15  1  0.72900232  0.49521617  0.75971167  1
  Si  Si16  1  0.99521617  0.22900232  0.25971167  1
  Si  Si17  1  0.50527703  0.72939710  0.75971732  1
  Si  Si18  1  0.22939710  0.00527703  0.74028268  1
  Si  Si19  1  0.99521617  0.22900232  0.74028833  1
  Si  Si20  1  0.22939710  0.00527703  0.25971732  1
  Si  Si21  1  0.49472297  0.27060290  0.75971732  1
  Si  Si22  1  0.00478383  0.77099768  0.25971167  1
  Si  Si23  1  0.27099768  0.50478383  0.75971167  1
  Si  Si24  1  0.27099768  0.50478383  0.24028833  1
  Si  Si25  1  0.49472297  0.27060290  0.24028268  1
  H  H26  1  0.88727272  0.59277983  0.63142486  1
  H  H27  1  0.59270046  0.11333883  0.36903169  1
  H  H28  1  0.37665721  0.67910142  0.46978428  1
  H  H29  1  0.38666117  0.90729954  0.86903169  1
  H  H30  1  0.82089858  0.12334279  0.03021572  1
  H  H31  1  0.87669635  0.81587587  0.03016015  1
  H  H32  1  0.59270046  0.11333883  0.63096831  1
  H  H33  1  0.62334279  0.32089858  0.46978428  1
  H  H34  1  0.40729954  0.88666117  0.63096831  1
  H  H35  1  0.82089858  0.12334279  0.96978428  1
  H  H36  1  0.11272728  0.40722017  0.36857514  1
  H  H37  1  0.17910142  0.87665721  0.96978428  1
  H  H38  1  0.90722017  0.61272728  0.13142486  1
  H  H39  1  0.68412413  0.62330365  0.53016015  1
  H  H40  1  0.12330365  0.18412413  0.96983985  1
  H  H41  1  0.38666117  0.90729954  0.13096831  1
  H  H42  1  0.87669635  0.81587587  0.96983985  1
  H  H43  1  0.31587587  0.37669635  0.46983985  1
  H  H44  1  0.09277983  0.38727272  0.86857514  1
  H  H45  1  0.61333883  0.09270046  0.86903169  1
  H  H46  1  0.88727272  0.59277983  0.36857514  1
  H  H47  1  0.40729954  0.88666117  0.36903169  1
  H  H48  1  0.68412413  0.62330365  0.46983985  1
  H  H49  1  0.11272728  0.40722017  0.63142486  1
  H  H50  1  0.31587587  0.37669635  0.53016015  1
  H  H51  1  0.09277983  0.38727272  0.13142486  1
  H  H52  1  0.61333883  0.09270046  0.13096831  1
  H  H53  1  0.90722017  0.61272728  0.86857514  1
  H  H54  1  0.62334279  0.32089858  0.53021572  1
  H  H55  1  0.37665721  0.67910142  0.53021572  1
  H  H56  1  0.17910142  0.87665721  0.03021572  1
  H  H57  1  0.12330365  0.18412413  0.03016015  1
  O  O58  1  0.97288400  0.73277643  0.38542277  1
  O  O59  1  0.63759884  0.63500629  0.73287678  1
  O  O60  1  0.86262694  0.13463339  0.76668074  1
  O  O61  1  0.67570557  0.00659893  0.13723411  1
  O  O62  1  0.26703632  0.97345697  0.38556276  1
  O  O63  1  0.52654303  0.23296368  0.11443724  1
  O  O64  1  0.17494491  0.49387598  0.63793018  1
  O  O65  1  0.23277643  0.47288400  0.88542277  1
  O  O66  1  0.63759884  0.63500629  0.26712322  1
  O  O67  1  0.00612402  0.32505509  0.13793018  1
  O  O68  1  0.02711600  0.26722357  0.61457723  1
  O  O69  1  0.40665370  0.09334630  0.75000000  1
  O  O70  1  0.76722357  0.52711600  0.88542277  1
  O  O71  1  0.99387598  0.67494491  0.86206982  1
  O  O72  1  0.02711600  0.26722357  0.38542277  1
  O  O73  1  0.09305826  0.59305826  0.75000000  1
  O  O74  1  0.47345697  0.76703632  0.11443724  1
  O  O75  1  0.90694174  0.40694174  0.25000000  1
  O  O76  1  0.40665370  0.09334630  0.25000000  1
  O  O77  1  0.90694174  0.40694174  0.75000000  1
  O  O78  1  0.26703632  0.97345697  0.61443724  1
  O  O79  1  0.36536661  0.63737306  0.73331926  1
  O  O80  1  0.13737306  0.86536661  0.76668074  1
  O  O81  1  0.36240116  0.36499371  0.73287678  1
  O  O82  1  0.86262694  0.13463339  0.23331926  1
  O  O83  1  0.13737306  0.86536661  0.23331926  1
  O  O84  1  0.00612402  0.32505509  0.86206982  1
  O  O85  1  0.97288400  0.73277643  0.61457723  1
  O  O86  1  0.67570557  0.00659893  0.86276589  1
  O  O87  1  0.99387598  0.67494491  0.13793018  1
  O  O88  1  0.32429443  0.99340107  0.86276589  1
  O  O89  1  0.59334630  0.90665370  0.25000000  1
  O  O90  1  0.09305826  0.59305826  0.25000000  1
  O  O91  1  0.36536661  0.63737306  0.26668074  1
  O  O92  1  0.73296368  0.02654303  0.38556276  1
  O  O93  1  0.59334630  0.90665370  0.75000000  1
  O  O94  1  0.82505509  0.50612402  0.63793018  1
  O  O95  1  0.32429443  0.99340107  0.13723411  1
  O  O96  1  0.47345697  0.76703632  0.88556276  1
  O  O97  1  0.17494491  0.49387598  0.36206982  1
  O  O98  1  0.86499371  0.86240116  0.23287678  1
  O  O99  1  0.86499371  0.86240116  0.76712322  1
  O  O100  1  0.50659893  0.17570557  0.36276589  1
  O  O101  1  0.49340107  0.82429443  0.63723411  1
  O  O102  1  0.63463339  0.36262694  0.26668074  1
  O  O103  1  0.76722357  0.52711600  0.11457723  1
  O  O104  1  0.13500629  0.13759884  0.23287678  1
  O  O105  1  0.36240116  0.36499371  0.26712322  1
  O  O106  1  0.13500629  0.13759884  0.76712322  1
  O  O107  1  0.23277643  0.47288400  0.11457723  1
  O  O108  1  0.50659893  0.17570557  0.63723411  1
  O  O109  1  0.63463339  0.36262694  0.73331926  1
  O  O110  1  0.73296368  0.02654303  0.61443724  1
  O  O111  1  0.52654303  0.23296368  0.88556276  1
  O  O112  1  0.49340107  0.82429443  0.36276589  1
  O  O113  1  0.82505509  0.50612402  0.36206982  1
  F  F114  1  0.50000000  0.50000000  0.50000000  1
  F  F115  1  0.00000000  0.00000000  0.00000000  1
