# generated using pymatgen
data_SrCa7Ti2Mn6O24
_symmetry_space_group_name_H-M   'P 1'
_cell_length_a   7.69556200
_cell_length_b   7.65728421
_cell_length_c   7.65728421
_cell_angle_alpha   89.97340712
_cell_angle_beta   90.00000000
_cell_angle_gamma   90.00000000
_symmetry_Int_Tables_number   1
_chemical_formula_structural   SrCa7Ti2Mn6O24
_chemical_formula_sum   'Sr1 Ca7 Ti2 Mn6 O24'
_cell_volume   451.22154459
_cell_formula_units_Z   1
loop_
 _symmetry_equiv_pos_site_id
 _symmetry_equiv_pos_as_xyz
  1  'x, y, z'
loop_
 _atom_site_type_symbol
 _atom_site_label
 _atom_site_symmetry_multiplicity
 _atom_site_fract_x
 _atom_site_fract_y
 _atom_site_fract_z
 _atom_site_occupancy
  Sr  Sr0  1  0.25000000  0.25277000  0.25277000  1
  Ca  Ca1  1  0.25000000  0.25341500  0.74676500  1
  Ca  Ca2  1  0.25000000  0.74676500  0.25341500  1
  Ca  Ca3  1  0.25000000  0.74653800  0.74653800  1
  Ca  Ca4  1  0.75000000  0.25338700  0.25338700  1
  Ca  Ca5  1  0.75000000  0.25335600  0.74652100  1
  Ca  Ca6  1  0.75000000  0.74652100  0.25335600  1
  Ca  Ca7  1  0.75000000  0.74659000  0.74659000  1
  Ti  Ti8  1  0.99924000  0.99907700  0.99907700  1
  Ti  Ti9  1  0.50076000  0.99907700  0.99907700  1
  Mn  Mn10  1  0.99940500  0.99936300  0.50044300  1
  Mn  Mn11  1  0.99940500  0.50044300  0.99936300  1
  Mn  Mn12  1  0.99942700  0.50046700  0.50046700  1
  Mn  Mn13  1  0.50059500  0.99936300  0.50044300  1
  Mn  Mn14  1  0.50059500  0.50044300  0.99936300  1
  Mn  Mn15  1  0.50057300  0.50046700  0.50046700  1
  O  O16  1  0.99792700  0.99796600  0.25372900  1
  O  O17  1  0.99955200  0.99954600  0.74622600  1
  O  O18  1  0.99725000  0.50274600  0.25014700  1
  O  O19  1  0.99968100  0.50031300  0.74984200  1
  O  O20  1  0.50207300  0.99796600  0.25372900  1
  O  O21  1  0.50044800  0.99954600  0.74622600  1
  O  O22  1  0.50275000  0.50274600  0.25014700  1
  O  O23  1  0.50031900  0.50031300  0.74984200  1
  O  O24  1  0.25000000  0.99826000  0.99826000  1
  O  O25  1  0.25000000  0.99716400  0.50300100  1
  O  O26  1  0.25000000  0.50300100  0.99716400  1
  O  O27  1  0.25000000  0.50279600  0.50279600  1
  O  O28  1  0.75000000  0.99950800  0.99950800  1
  O  O29  1  0.75000000  0.99973700  0.50013200  1
  O  O30  1  0.75000000  0.50013200  0.99973700  1
  O  O31  1  0.75000000  0.50032800  0.50032800  1
  O  O32  1  0.99792700  0.25372900  0.99796600  1
  O  O33  1  0.99725000  0.25014700  0.50274600  1
  O  O34  1  0.99955200  0.74622600  0.99954600  1
  O  O35  1  0.99968100  0.74984200  0.50031300  1
  O  O36  1  0.50207300  0.25372900  0.99796600  1
  O  O37  1  0.50275000  0.25014700  0.50274600  1
  O  O38  1  0.50044800  0.74622600  0.99954600  1
  O  O39  1  0.50031900  0.74984200  0.50031300  1
