# generated using pymatgen
data_SrCa7Ti2Mn6O22
_symmetry_space_group_name_H-M   'P 1'
_cell_length_a   7.76838301
_cell_length_b   7.70547775
_cell_length_c   7.67134726
_cell_angle_alpha   89.97646376
_cell_angle_beta   89.93893906
_cell_angle_gamma   90.49178730
_symmetry_Int_Tables_number   1
_chemical_formula_structural   SrCa7Ti2Mn6O22
_chemical_formula_sum   'Sr1 Ca7 Ti2 Mn6 O22'
_cell_volume   459.18274577
_cell_formula_units_Z   1
loop_
 _symmetry_equiv_pos_site_id
 _symmetry_equiv_pos_as_xyz
  1  'x, y, z'
loop_
 _atom_site_type_symbol
 _atom_site_label
 _atom_site_symmetry_multiplicity
 _atom_site_fract_x
 _atom_site_fract_y
 _atom_site_fract_z
 _atom_site_occupancy
  Sr  Sr0  1  0.25248800  0.25202200  0.23647500  1
  Ca  Ca1  1  0.25150500  0.25953900  0.73473400  1
  Ca  Ca2  1  0.24737900  0.74322800  0.23321600  1
  Ca  Ca3  1  0.25105100  0.74398600  0.72577400  1
  Ca  Ca4  1  0.75429000  0.25337100  0.25083300  1
  Ca  Ca5  1  0.75241600  0.26568500  0.72161100  1
  Ca  Ca6  1  0.75018200  0.74700700  0.24938600  1
  Ca  Ca7  1  0.75022800  0.74654300  0.69579600  1
  Ti  Ti8  1  0.99186100  0.99122900  0.98026700  1
  Ti  Ti9  1  0.50846900  0.99603100  0.00583200  1
  Mn  Mn10  1  0.00163600  0.99982600  0.50193600  1
  Mn  Mn11  1  0.99331800  0.50233400  0.00592700  1
  Mn  Mn12  1  0.00108100  0.50227100  0.49432500  1
  Mn  Mn13  1  0.50036000  0.99920500  0.49675400  1
  Mn  Mn14  1  0.50634500  0.50527300  0.99158400  1
  Mn  Mn15  1  0.50139000  0.50299300  0.50779100  1
  O  O16  1  0.95908600  0.95527700  0.75672400  1
  O  O17  1  0.02657500  0.46474200  0.25197800  1
  O  O18  1  0.96768200  0.53397400  0.75165600  1
  O  O19  1  0.47144200  0.02798400  0.25637100  1
  O  O20  1  0.52953000  0.96604500  0.75607000  1
  O  O21  1  0.53731900  0.53852400  0.75057700  1
  O  O22  1  0.24065500  0.99101900  0.00393900  1
  O  O23  1  0.24874700  0.00149400  0.53675600  1
  O  O24  1  0.25782200  0.51032100  0.99278700  1
  O  O25  1  0.25390900  0.50052400  0.52435400  1
  O  O26  1  0.75653700  0.00576800  0.06265300  1
  O  O27  1  0.75418800  0.00201900  0.46241400  1
  O  O28  1  0.73865500  0.49282000  0.06310600  1
  O  O29  1  0.74627900  0.49849700  0.46386500  1
  O  O30  1  0.99877400  0.24633200  0.98282100  1
  O  O31  1  0.99915500  0.24880400  0.52776300  1
  O  O32  1  0.99385400  0.75265100  0.05453300  1
  O  O33  1  0.00606200  0.75431100  0.45275300  1
  O  O34  1  0.49746200  0.25276700  0.98489100  1
  O  O35  1  0.50240400  0.25490500  0.52393000  1
  O  O36  1  0.50361400  0.74628500  0.05294800  1
  O  O37  1  0.49625000  0.74439200  0.45487000  1
