# generated using pymatgen
data_Ca4Mn3AlO10
_symmetry_space_group_name_H-M   'P 1'
_cell_length_a   7.94919861
_cell_length_b   7.55016300
_cell_length_c   7.60501582
_cell_angle_alpha   90.00000000
_cell_angle_beta   92.03821266
_cell_angle_gamma   90.00000000
_symmetry_Int_Tables_number   1
_chemical_formula_structural   Ca4Mn3AlO10
_chemical_formula_sum   'Ca8 Mn6 Al2 O20'
_cell_volume   456.14712809
_cell_formula_units_Z   2
loop_
 _symmetry_equiv_pos_site_id
 _symmetry_equiv_pos_as_xyz
  1  'x, y, z'
loop_
 _atom_site_type_symbol
 _atom_site_label
 _atom_site_symmetry_multiplicity
 _atom_site_fract_x
 _atom_site_fract_y
 _atom_site_fract_z
 _atom_site_occupancy
  Ca  Ca0  1  0.29358200  0.25780300  0.22143900  1
  Ca  Ca1  1  0.22959500  0.26610100  0.74047700  1
  Ca  Ca2  1  0.29358200  0.74219700  0.22143900  1
  Ca  Ca3  1  0.22959500  0.73389900  0.74047700  1
  Ca  Ca4  1  0.74261700  0.26942300  0.26431900  1
  Ca  Ca5  1  0.77742900  0.26483400  0.72600000  1
  Ca  Ca6  1  0.74261700  0.73057700  0.26431900  1
  Ca  Ca7  1  0.77742900  0.73516600  0.72600000  1
  Mn  Mn8  1  0.99595100  0.50000000  0.97703100  1
  Mn  Mn9  1  0.99785200  0.50000000  0.47373700  1
  Mn  Mn10  1  0.55081800  0.00000000  0.99843100  1
  Mn  Mn11  1  0.49025300  0.00000000  0.53250100  1
  Mn  Mn12  1  0.49737000  0.50000000  0.98185300  1
  Mn  Mn13  1  0.49882700  0.50000000  0.49088600  1
  Al  Al14  1  0.98726500  0.00000000  0.03952900  1
  Al  Al15  1  0.05090200  0.00000000  0.45125000  1
  O  O16  1  0.95140700  0.50000000  0.22346300  1
  O  O17  1  0.02409500  0.50000000  0.72382700  1
  O  O18  1  0.48177200  0.00000000  0.25745800  1
  O  O19  1  0.63359000  0.00000000  0.75987100  1
  O  O20  1  0.52325300  0.50000000  0.23893400  1
  O  O21  1  0.12587000  0.00000000  0.23138900  1
  O  O22  1  0.23526100  0.00000000  0.59340300  1
  O  O23  1  0.25254800  0.50000000  0.99720800  1
  O  O24  1  0.25123200  0.50000000  0.46525500  1
  O  O25  1  0.78465000  0.00000000  0.12434800  1
  O  O26  1  0.73274800  0.50000000  0.92899500  1
  O  O27  1  0.74054800  0.50000000  0.51083500  1
  O  O28  1  0.01794000  0.20216300  0.92938400  1
  O  O29  1  0.94390400  0.20128000  0.48495000  1
  O  O30  1  0.01794000  0.79783700  0.92938400  1
  O  O31  1  0.94390400  0.79872000  0.48495000  1
  O  O32  1  0.46656700  0.24250000  0.96914500  1
  O  O33  1  0.50025900  0.25352900  0.53918700  1
  O  O34  1  0.46656700  0.75750000  0.96914500  1
  O  O35  1  0.50025900  0.74647100  0.53918700  1
