# generated using pymatgen
data_AsCS2NOF8
_symmetry_space_group_name_H-M   'P 1'
_cell_length_a   9.51795900
_cell_length_b   9.97387375
_cell_length_c   11.41661839
_cell_angle_alpha   93.27197172
_cell_angle_beta   90.00000000
_cell_angle_gamma   90.00000000
_symmetry_Int_Tables_number   1
_chemical_formula_structural   AsCS2NOF8
_chemical_formula_sum   'As4 C4 S8 N4 O4 F32'
_cell_volume   1082.02337047
_cell_formula_units_Z   4
loop_
 _symmetry_equiv_pos_site_id
 _symmetry_equiv_pos_as_xyz
  1  'x, y, z'
loop_
 _atom_site_type_symbol
 _atom_site_label
 _atom_site_symmetry_multiplicity
 _atom_site_fract_x
 _atom_site_fract_y
 _atom_site_fract_z
 _atom_site_occupancy
  As  As0  1  0.27720300  0.80581100  0.62705600  1
  As  As1  1  0.24963000  0.34989400  0.09736400  1
  As  As2  1  0.77720300  0.19418900  0.37294400  1
  As  As3  1  0.74963000  0.65010600  0.90263600  1
  C  C4  1  0.21149400  0.89407300  0.19595000  1
  C  C5  1  0.24954700  0.27890800  0.68512100  1
  C  C6  1  0.71149400  0.10592700  0.80405000  1
  C  C7  1  0.74954700  0.72109200  0.31487900  1
  S  S8  1  0.29595000  0.91761300  0.04723000  1
  S  S9  1  0.23170400  0.68711500  0.87673000  1
  S  S10  1  0.24857300  0.23252300  0.52498700  1
  S  S11  1  0.24253600  0.43586300  0.36042900  1
  S  S12  1  0.74253600  0.56413700  0.63957100  1
  S  S13  1  0.73170400  0.31288500  0.12327000  1
  S  S14  1  0.74857300  0.76747700  0.47501300  1
  S  S15  1  0.79595000  0.08238700  0.95277000  1
  N  N16  1  0.24372500  0.78100400  0.99118000  1
  N  N17  1  0.24394200  0.38676600  0.48515100  1
  N  N18  1  0.74372500  0.21899600  0.00882000  1
  N  N19  1  0.74394200  0.61323400  0.51484900  1
  O  O20  1  0.18377200  0.78051300  0.76416400  1
  O  O21  1  0.25014400  0.31491900  0.27052900  1
  O  O22  1  0.68377200  0.21948700  0.23583600  1
  O  O23  1  0.75014400  0.68508100  0.72947100  1
  F  F24  1  0.11903600  0.47143400  0.13155700  1
  F  F25  1  0.15012600  0.92865300  0.59381200  1
  F  F26  1  0.12043200  0.22405800  0.08493500  1
  F  F27  1  0.13525200  0.35242900  0.71573300  1
  F  F28  1  0.07138700  0.89372200  0.17831000  1
  F  F29  1  0.25002500  0.77821000  0.24094000  1
  F  F30  1  0.24518800  0.99755500  0.27120300  1
  F  F31  1  0.22419500  0.71171900  0.50058900  1
  F  F32  1  0.24959200  0.37867900  0.94867200  1
  F  F33  1  0.24859000  0.16351900  0.74060700  1
  F  F34  1  0.45729800  0.93388400  0.11713000  1
  F  F35  1  0.36554700  0.35004000  0.71511700  1
  F  F36  1  0.40769000  0.68041700  0.64941800  1
  F  F37  1  0.38040500  0.22614500  0.08438500  1
  F  F38  1  0.41115400  0.91969800  0.59818700  1
  F  F39  1  0.37876300  0.47290300  0.13222000  1
  F  F40  1  0.61903600  0.52856600  0.86844300  1
  F  F41  1  0.65012600  0.07134700  0.40618800  1
  F  F42  1  0.62043200  0.77594200  0.91506500  1
  F  F43  1  0.63525200  0.64757100  0.28426700  1
  F  F44  1  0.57138700  0.10627800  0.82169000  1
  F  F45  1  0.74518800  0.00244500  0.72879700  1
  F  F46  1  0.75002500  0.22179000  0.75906000  1
  F  F47  1  0.72419500  0.28828100  0.49941100  1
  F  F48  1  0.74959200  0.62132100  0.05132800  1
  F  F49  1  0.74859000  0.83648100  0.25939300  1
  F  F50  1  0.95729800  0.06611600  0.88287000  1
  F  F51  1  0.86554700  0.64996000  0.28488300  1
  F  F52  1  0.90769000  0.31958300  0.35058200  1
  F  F53  1  0.88040500  0.77385500  0.91561500  1
  F  F54  1  0.91115400  0.08030200  0.40181300  1
  F  F55  1  0.87876300  0.52709700  0.86778000  1
