# generated using pymatgen
data_Sr3Ca5Mn8O22
_symmetry_space_group_name_H-M   'P 1'
_cell_length_a   7.72101768
_cell_length_b   7.71462069
_cell_length_c   7.72549800
_cell_angle_alpha   90.00000000
_cell_angle_beta   90.00000000
_cell_angle_gamma   89.95172282
_symmetry_Int_Tables_number   1
_chemical_formula_structural   Sr3Ca5Mn8O22
_chemical_formula_sum   'Sr3 Ca5 Mn8 O22'
_cell_volume   460.16698305
_cell_formula_units_Z   1
loop_
 _symmetry_equiv_pos_site_id
 _symmetry_equiv_pos_as_xyz
  1  'x, y, z'
loop_
 _atom_site_type_symbol
 _atom_site_label
 _atom_site_symmetry_multiplicity
 _atom_site_fract_x
 _atom_site_fract_y
 _atom_site_fract_z
 _atom_site_occupancy
  Sr  Sr0  1  0.25000000  0.25000000  0.25000000  1
  Sr  Sr1  1  0.25000000  0.25000000  0.75000000  1
  Sr  Sr2  1  0.75000000  0.25000000  0.25000000  1
  Ca  Ca3  1  0.25000000  0.75000000  0.25000000  1
  Ca  Ca4  1  0.25000000  0.75000000  0.75000000  1
  Ca  Ca5  1  0.75000000  0.25000000  0.75000000  1
  Ca  Ca6  1  0.75000000  0.75000000  0.25000000  1
  Ca  Ca7  1  0.75000000  0.75000000  0.75000000  1
  Mn  Mn8  1  0.99920600  0.99775900  0.99070900  1
  Mn  Mn9  1  0.99920600  0.99775900  0.50929100  1
  Mn  Mn10  1  0.99919100  0.50308900  0.00602300  1
  Mn  Mn11  1  0.99919100  0.50308900  0.49397700  1
  Mn  Mn12  1  0.50080900  0.99691100  0.00602300  1
  Mn  Mn13  1  0.50080900  0.99691100  0.49397700  1
  Mn  Mn14  1  0.50079400  0.50224100  0.99070900  1
  Mn  Mn15  1  0.50079400  0.50224100  0.50929100  1
  O  O16  1  0.99639200  0.99328000  0.75000000  1
  O  O17  1  0.99944300  0.50344600  0.25000000  1
  O  O18  1  0.99647800  0.50728000  0.75000000  1
  O  O19  1  0.50055700  0.99655400  0.25000000  1
  O  O20  1  0.50352200  0.99272000  0.75000000  1
  O  O21  1  0.50360800  0.50672000  0.75000000  1
  O  O22  1  0.24489900  0.99321100  0.01864300  1
  O  O23  1  0.24489900  0.99321100  0.48135700  1
  O  O24  1  0.25510100  0.50678900  0.01864300  1
  O  O25  1  0.25510100  0.50678900  0.48135700  1
  O  O26  1  0.75467700  0.99423900  0.01798200  1
  O  O27  1  0.75467700  0.99423900  0.48201800  1
  O  O28  1  0.74532300  0.50576100  0.01798200  1
  O  O29  1  0.74532300  0.50576100  0.48201800  1
  O  O30  1  0.99810300  0.24557900  0.01288900  1
  O  O31  1  0.99810300  0.24557900  0.48711100  1
  O  O32  1  0.99936900  0.75542300  0.02413300  1
  O  O33  1  0.99936900  0.75542300  0.47586700  1
  O  O34  1  0.50189700  0.25442100  0.01288900  1
  O  O35  1  0.50189700  0.25442100  0.48711100  1
  O  O36  1  0.50063100  0.74457700  0.02413300  1
  O  O37  1  0.50063100  0.74457700  0.47586700  1
