# generated using pymatgen
data_Ba2Yb2Al4Si3(N5O2)2
_symmetry_space_group_name_H-M   'P 1'
_cell_length_a   7.60531966
_cell_length_b   8.09066876
_cell_length_c   8.34032671
_cell_angle_alpha   108.60984837
_cell_angle_beta   72.83936765
_cell_angle_gamma   131.24464250
_symmetry_Int_Tables_number   1
_chemical_formula_structural   Ba2Yb2Al4Si3(N5O2)2
_chemical_formula_sum   'Ba2 Yb2 Al4 Si3 N10 O4'
_cell_volume   363.10811678
_cell_formula_units_Z   1
loop_
 _symmetry_equiv_pos_site_id
 _symmetry_equiv_pos_as_xyz
  1  'x, y, z'
loop_
 _atom_site_type_symbol
 _atom_site_label
 _atom_site_symmetry_multiplicity
 _atom_site_fract_x
 _atom_site_fract_y
 _atom_site_fract_z
 _atom_site_occupancy
  Ba  Ba0  1  0.40887000  0.65436700  0.09221700  1
  Ba  Ba1  1  0.66201300  0.48314700  0.62087300  1
  Yb  Yb2  1  0.29255000  0.70620100  0.79796400  1
  Yb  Yb3  1  0.74010800  0.23874100  0.22006700  1
  Al  Al4  1  0.66194700  0.83968300  0.45854400  1
  Al  Al5  1  0.33977600  0.10111600  0.92155100  1
  Al  Al6  1  0.74698500  0.50600600  0.04973600  1
  Al  Al7  1  0.79988900  0.20083500  0.83266100  1
  Si  Si8  1  0.28410500  0.85592700  0.47686500  1
  Si  Si9  1  0.05969300  0.94198500  0.20154100  1
  Si  Si10  1  0.11347300  0.41845700  0.48332500  1
  N  N11  1  0.20884200  0.98522300  0.38250800  1
  N  N12  1  0.97234100  0.46508000  0.00036600  1
  N  N13  1  0.51345600  0.05561100  0.98839400  1
  N  N14  1  0.19569600  0.14442300  0.47429400  1
  N  N15  1  0.09020300  0.16690400  0.38443000  1
  N  N16  1  0.51873500  0.39655100  0.92539400  1
  N  N17  1  0.77156400  0.71384200  0.24884300  1
  N  N18  1  0.56806200  0.97136800  0.39403200  1
  N  N19  1  0.08128300  0.56306100  0.39768300  1
  N  N20  1  0.75830400  0.94711900  0.68454100  1
  O  O21  1  0.24267600  0.91585800  0.69410800  1
  O  O22  1  0.38703000  0.58064300  0.52433300  1
  O  O23  1  0.64073800  0.78100100  0.79485400  1
  O  O24  1  0.94166100  0.36685100  0.66277700  1
