# generated using pymatgen
data_BCl
_symmetry_space_group_name_H-M   'P 1'
_cell_length_a   11.70534586
_cell_length_b   9.71803553
_cell_length_c   11.72204267
_cell_angle_alpha   81.17761836
_cell_angle_beta   83.75397808
_cell_angle_gamma   80.89484325
_symmetry_Int_Tables_number   1
_chemical_formula_structural   BCl
_chemical_formula_sum   'B18 Cl18'
_cell_volume   1296.14674345
_cell_formula_units_Z   18
loop_
 _symmetry_equiv_pos_site_id
 _symmetry_equiv_pos_as_xyz
  1  'x, y, z'
loop_
 _atom_site_type_symbol
 _atom_site_label
 _atom_site_symmetry_multiplicity
 _atom_site_fract_x
 _atom_site_fract_y
 _atom_site_fract_z
 _atom_site_occupancy
  B  B0  1  0.27151700  0.49066800  0.27060700  1
  B  B1  1  0.25832700  0.24354700  0.42705300  1
  B  B2  1  0.22522300  0.41837800  0.40019600  1
  B  B3  1  0.23511000  0.74002600  0.72460200  1
  B  B4  1  0.24063100  0.65272300  0.23898000  1
  B  B5  1  0.29651700  0.25291400  0.78386100  1
  B  B6  1  0.40214400  0.41845100  0.22578300  1
  B  B7  1  0.40138600  0.21652300  0.40017300  1
  B  B8  1  0.42745000  0.24355200  0.25733200  1
  B  B9  1  0.59349300  0.76604100  0.74310700  1
  B  B10  1  0.59965200  0.74543500  0.59828700  1
  B  B11  1  0.61348000  0.60390700  0.71691700  1
  B  B12  1  0.72728500  0.74230500  0.23172100  1
  B  B13  1  0.73213500  0.34143000  0.73112000  1
  B  B14  1  0.78621300  0.24834900  0.29891900  1
  B  B15  1  0.71801100  0.60301800  0.61299300  1
  B  B16  1  0.81390500  0.41468800  0.81190700  1
  B  B17  1  0.74479000  0.76464700  0.59344800  1
  Cl  Cl18  1  0.09388800  0.79423000  0.77604100  1
  Cl  Cl19  1  0.16313700  0.11998500  0.47594000  1
  Cl  Cl20  1  0.14729000  0.51336700  0.51043600  1
  Cl  Cl21  1  0.22271500  0.82882600  0.22004000  1
  Cl  Cl22  1  0.24712800  0.23811900  0.92878600  1
  Cl  Cl23  1  0.54131000  0.88462500  0.83616500  1
  Cl  Cl24  1  0.50339800  0.17897000  0.50303900  1
  Cl  Cl25  1  0.51588800  0.50866500  0.15061500  1
  Cl  Cl26  1  0.56490900  0.43177200  0.76202500  1
  Cl  Cl27  1  0.50059800  0.81498400  0.49746700  1
  Cl  Cl28  1  0.47623300  0.11808800  0.16326600  1
  Cl  Cl29  1  0.77652500  0.79545800  0.09006000  1
  Cl  Cl30  1  0.74365900  0.15651800  0.74314300  1
  Cl  Cl31  1  0.76259400  0.43038900  0.56414700  1
  Cl  Cl32  1  0.76312300  0.44579800  0.95303400  1
  Cl  Cl33  1  0.92938500  0.24351800  0.24376100  1
  Cl  Cl34  1  0.83825600  0.88220500  0.54198200  1
  Cl  Cl35  1  0.95579800  0.44218100  0.76084800  1
