# generated using pymatgen
data_NaAlSi2H2O7
_symmetry_space_group_name_H-M   'P 1'
_cell_length_a   12.07171561
_cell_length_b   12.07141832
_cell_length_c   12.03858716
_cell_angle_alpha   110.44756237
_cell_angle_beta   108.71402381
_cell_angle_gamma   109.37620803
_symmetry_Int_Tables_number   1
_chemical_formula_structural   NaAlSi2H2O7
_chemical_formula_sum   'Na8 Al8 Si16 H16 O56'
_cell_volume   1348.14869725
_cell_formula_units_Z   8
loop_
 _symmetry_equiv_pos_site_id
 _symmetry_equiv_pos_as_xyz
  1  'x, y, z'
loop_
 _atom_site_type_symbol
 _atom_site_label
 _atom_site_symmetry_multiplicity
 _atom_site_fract_x
 _atom_site_fract_y
 _atom_site_fract_z
 _atom_site_occupancy
  Na  Na0  1  0.07536097  0.25930119  0.86011204  1
  Na  Na1  1  0.11809113  0.36801467  0.24957854  1
  Na  Na2  1  0.39837467  0.71431477  0.63927460  1
  Na  Na3  1  0.40170388  0.15151937  0.74990695  1
  Na  Na4  1  0.59829612  0.84848063  0.25009305  1
  Na  Na5  1  0.60162533  0.28568523  0.36072540  1
  Na  Na6  1  0.88190887  0.63198533  0.75042146  1
  Na  Na7  1  0.92463903  0.74069881  0.13988796  1
  Al  Al8  1  0.20989142  0.74842735  0.78018049  1
  Al  Al9  1  0.03183941  0.07037546  0.28046738  1
  Al  Al10  1  0.28458905  0.57494208  0.03718775  1
  Al  Al11  1  0.53761765  0.74722043  0.46293846  1
  Al  Al12  1  0.46238235  0.25277957  0.53706154  1
  Al  Al13  1  0.71541095  0.42505792  0.96281225  1
  Al  Al14  1  0.96816059  0.92962454  0.71953262  1
  Al  Al15  1  0.79010858  0.25157265  0.21981951  1
  Si  Si16  1  0.07739666  0.79085200  0.53755041  1
  Si  Si17  1  0.02744724  0.46194566  0.74685460  1
  Si  Si18  1  0.20675537  0.96364646  0.42964299  1
  Si  Si19  1  0.46605084  0.72303373  0.92959082  1
  Si  Si20  1  0.25778738  0.71540718  0.30485988  1
  Si  Si21  1  0.25301412  0.03956229  0.96235122  1
  Si  Si22  1  0.58943714  0.54714041  0.80489232  1
  Si  Si23  1  0.28484759  0.21931059  0.24679968  1
  Si  Si24  1  0.71515241  0.78068941  0.75320032  1
  Si  Si25  1  0.41056286  0.45285959  0.19510768  1
  Si  Si26  1  0.74698588  0.96043771  0.03764878  1
  Si  Si27  1  0.74221262  0.28459282  0.69514012  1
  Si  Si28  1  0.53394916  0.27696627  0.07040918  1
  Si  Si29  1  0.79324463  0.03635354  0.57035701  1
  Si  Si30  1  0.97255276  0.53805434  0.25314540  1
  Si  Si31  1  0.92260334  0.20914800  0.46244959  1
  H  H32  1  0.10193333  0.83111813  0.01763949  1
  H  H33  1  0.34664646  0.89737282  0.67531158  1
  H  H34  1  0.18606949  0.41420868  0.51635829  1
  H  H35  1  0.31244741  0.32707416  0.88992787  1
  H  H36  1  0.01871815  0.14331604  0.00699846  1
  H  H37  1  0.43724803  0.92219234  0.61011754  1
  H  H38  1  0.22229073  0.17127363  0.82479573  1
  H  H39  1  0.13506245  0.50956142  0.49132141  1
  H  H40  1  0.86493755  0.49043858  0.50867859  1
  H  H41  1  0.77770927  0.82872637  0.17520427  1
  H  H42  1  0.56275197  0.07780766  0.38988246  1
  H  H43  1  0.98128185  0.85668396  0.99300154  1
  H  H44  1  0.68755259  0.67292584  0.11007213  1
  H  H45  1  0.81393051  0.58579132  0.48364171  1
  H  H46  1  0.65335354  0.10262718  0.32468842  1
  H  H47  1  0.89806667  0.16888187  0.98236051  1
  O  O48  1  0.21562802  0.88244640  0.90567751  1
  O  O49  1  0.07162017  0.59913237  0.73716245  1
  O  O50  1  0.08475952  0.96621154  0.32526334  1
  O  O51  1  0.12753081  0.47806893  0.88574457  1
  O  O52  1  0.16785884  0.92785837  0.53775894  1
  O  O53  1  0.18495109  0.76355999  0.63288468  1
  O  O54  1  0.01458879  0.33888113  0.61918491  1
  O  O55  1  0.00784706  0.78953224  0.99759138  1
  O  O56  1  0.13054951  0.05197023  0.86697092  1
  O  O57  1  0.12454316  0.57946506  0.26914934  1
  O  O58  1  0.02326645  0.19000751  0.40604713  1
  O  O59  1  0.35891485  0.74043578  0.82516288  1
  O  O60  1  0.22130015  0.83852261  0.33548120  1
  O  O61  1  0.25875589  0.24115894  0.80167147  1
  O  O62  1  0.43966872  0.95695782  0.69834845  1
  O  O63  1  0.20763499  0.48872116  0.49696657  1
  O  O64  1  0.28320289  0.68241788  0.17709942  1
  O  O65  1  0.49689055  0.61421331  0.83541034  1
  O  O66  1  0.38703118  0.75400405  0.44110822  1
  O  O67  1  0.13826622  0.16581575  0.23775501  1
  O  O68  1  0.39000771  0.12992995  0.96250349  1
  O  O69  1  0.34717345  0.10721380  0.52341302  1
  O  O70  1  0.72044699  0.89600571  0.88108145  1
  O  O71  1  0.59204966  0.74164858  0.61441445  1
  O  O72  1  0.49468942  0.39408261  0.67687303  1
  O  O73  1  0.31005357  0.35505054  0.23037609  1
  O  O74  1  0.31318792  0.44613960  0.05892786  1
  O  O75  1  0.41647003  0.67656122  0.02354529  1
  O  O76  1  0.58352997  0.32343878  0.97645471  1
  O  O77  1  0.68681208  0.55386040  0.94107214  1
  O  O78  1  0.68994643  0.64494946  0.76962391  1
  O  O79  1  0.50531058  0.60591739  0.32312697  1
  O  O80  1  0.40795034  0.25835142  0.38558555  1
  O  O81  1  0.27955301  0.10399429  0.11891855  1
  O  O82  1  0.65282655  0.89278620  0.47658698  1
  O  O83  1  0.60999229  0.87007005  0.03749651  1
  O  O84  1  0.86173378  0.83418425  0.76224499  1
  O  O85  1  0.61296882  0.24599595  0.55889178  1
  O  O86  1  0.50310945  0.38578669  0.16458966  1
  O  O87  1  0.71679711  0.31758212  0.82290058  1
  O  O88  1  0.79236501  0.51127884  0.50303343  1
  O  O89  1  0.56033128  0.04304218  0.30165155  1
  O  O90  1  0.74124411  0.75884106  0.19832853  1
  O  O91  1  0.77869985  0.16147739  0.66451880  1
  O  O92  1  0.64108515  0.25956422  0.17483712  1
  O  O93  1  0.97673355  0.80999249  0.59395287  1
  O  O94  1  0.87545684  0.42053494  0.73085166  1
  O  O95  1  0.86945049  0.94802977  0.13302908  1
  O  O96  1  0.99215294  0.21046776  0.00240862  1
  O  O97  1  0.98541121  0.66111887  0.38081509  1
  O  O98  1  0.81504891  0.23644001  0.36711532  1
  O  O99  1  0.83214116  0.07214163  0.46224106  1
  O  O100  1  0.87246919  0.52193107  0.11425543  1
  O  O101  1  0.91524048  0.03378846  0.67473666  1
  O  O102  1  0.92837983  0.40086763  0.26283755  1
  O  O103  1  0.78437198  0.11755360  0.09432249  1
