# generated using pymatgen
data_MgSi2SnO6
_symmetry_space_group_name_H-M   'P 1'
_cell_length_a   7.30171940
_cell_length_b   7.30171940
_cell_length_c   5.51207230
_cell_angle_alpha   75.52611199
_cell_angle_beta   75.52611199
_cell_angle_gamma   84.55887434
_symmetry_Int_Tables_number   1
_chemical_formula_structural   MgSi2SnO6
_chemical_formula_sum   'Mg2 Si4 Sn2 O12'
_cell_volume   275.35431842
_cell_formula_units_Z   2
loop_
 _symmetry_equiv_pos_site_id
 _symmetry_equiv_pos_as_xyz
  1  'x, y, z'
loop_
 _atom_site_type_symbol
 _atom_site_label
 _atom_site_symmetry_multiplicity
 _atom_site_fract_x
 _atom_site_fract_y
 _atom_site_fract_z
 _atom_site_occupancy
  Mg  Mg0  1  0.72383800  0.27616200  0.25000000  1
  Mg  Mg1  1  0.27616200  0.72383800  0.75000000  1
  Si  Si2  1  0.81469700  0.62711700  0.78004200  1
  Si  Si3  1  0.37288300  0.18530300  0.71995800  1
  Si  Si4  1  0.62711700  0.81469700  0.28004200  1
  Si  Si5  1  0.18530300  0.37288300  0.21995800  1
  Sn  Sn6  1  0.86165900  0.13834100  0.75000000  1
  Sn  Sn7  1  0.13834100  0.86165900  0.25000000  1
  O  O8  1  0.70283900  0.70998300  0.54472500  1
  O  O9  1  0.29001700  0.29716100  0.95527500  1
  O  O10  1  0.29716100  0.29001700  0.45527500  1
  O  O11  1  0.70998300  0.70283900  0.04472500  1
  O  O12  1  0.78955200  0.39847100  0.88094600  1
  O  O13  1  0.60152900  0.21044800  0.61905400  1
  O  O14  1  0.21044800  0.60152900  0.11905400  1
  O  O15  1  0.39847100  0.78955200  0.38094600  1
  O  O16  1  0.68557900  0.03412000  0.17335600  1
  O  O17  1  0.96588000  0.31442100  0.32664400  1
  O  O18  1  0.03412000  0.68557900  0.67335600  1
  O  O19  1  0.31442100  0.96588000  0.82664400  1
