# generated using pymatgen
data_AlSn3Se2ClO8
_symmetry_space_group_name_H-M   'P 1'
_cell_length_a   8.92705858
_cell_length_b   7.13590550
_cell_length_c   10.68842691
_cell_angle_alpha   81.10235508
_cell_angle_beta   90.06820893
_cell_angle_gamma   89.89070264
_symmetry_Int_Tables_number   1
_chemical_formula_structural   AlSn3Se2ClO8
_chemical_formula_sum   'Al2 Sn6 Se4 Cl2 O16'
_cell_volume   672.68552637
_cell_formula_units_Z   2
loop_
 _symmetry_equiv_pos_site_id
 _symmetry_equiv_pos_as_xyz
  1  'x, y, z'
loop_
 _atom_site_type_symbol
 _atom_site_label
 _atom_site_symmetry_multiplicity
 _atom_site_fract_x
 _atom_site_fract_y
 _atom_site_fract_z
 _atom_site_occupancy
  Al  Al0  1  0.24704900  0.27457400  0.25041700  1
  Al  Al1  1  0.74731400  0.72494300  0.74884600  1
  Sn  Sn2  1  0.46496200  0.98712000  0.90168000  1
  Sn  Sn3  1  0.51860100  0.07498400  0.49641100  1
  Sn  Sn4  1  0.96419600  0.01081800  0.10010300  1
  Sn  Sn5  1  0.85486900  0.11473900  0.78081500  1
  Sn  Sn6  1  0.35520200  0.88381000  0.22065800  1
  Sn  Sn7  1  0.01861900  0.92608700  0.50438200  1
  Se  Se8  1  0.75155300  0.41581200  0.00420100  1
  Se  Se9  1  0.25124400  0.58383100  0.99490900  1
  Se  Se10  1  0.69620000  0.47736500  0.52750500  1
  Se  Se11  1  0.19493200  0.52273100  0.47176900  1
  Cl  Cl12  1  0.29732900  0.06865000  0.68228000  1
  Cl  Cl13  1  0.79588200  0.93828400  0.31991100  1
  O  O14  1  0.15821500  0.07890900  0.19381400  1
  O  O15  1  0.33017900  0.42735800  0.12118400  1
  O  O16  1  0.63957500  0.58942600  0.65449900  1
  O  O17  1  0.68367800  0.23881900  0.92777400  1
  O  O18  1  0.27910300  0.73166100  0.40216500  1
  O  O19  1  0.02638700  0.61402900  0.51284500  1
  O  O20  1  0.65861200  0.91944100  0.80715000  1
  O  O21  1  0.91451600  0.31924600  0.07512000  1
  O  O22  1  0.77953200  0.26850500  0.59938200  1
  O  O23  1  0.18470400  0.76056900  0.07243700  1
  O  O24  1  0.38716000  0.13109700  0.33385100  1
  O  O25  1  0.88739700  0.86855300  0.66650400  1
  O  O26  1  0.41426800  0.67903700  0.92430300  1
  O  O27  1  0.52812600  0.38714700  0.48482900  1
  O  O28  1  0.83076200  0.56935300  0.87702000  1
  O  O29  1  0.13983500  0.41310200  0.34323600  1
