# generated using pymatgen
data_Na5(SiO3)6
_symmetry_space_group_name_H-M   'P 1'
_cell_length_a   7.81666989
_cell_length_b   8.33746548
_cell_length_c   9.60724872
_cell_angle_alpha   65.34100509
_cell_angle_beta   69.08139667
_cell_angle_gamma   57.46016665
_symmetry_Int_Tables_number   1
_chemical_formula_structural   Na5(SiO3)6
_chemical_formula_sum   'Na5 Si6 O18'
_cell_volume   472.45067487
_cell_formula_units_Z   1
loop_
 _symmetry_equiv_pos_site_id
 _symmetry_equiv_pos_as_xyz
  1  'x, y, z'
loop_
 _atom_site_type_symbol
 _atom_site_label
 _atom_site_symmetry_multiplicity
 _atom_site_fract_x
 _atom_site_fract_y
 _atom_site_fract_z
 _atom_site_occupancy
  Na  Na0  1  0.00000000  0.50000000  0.50000000  1
  Na  Na1  1  0.90471400  0.32436800  0.00795300  1
  Na  Na2  1  0.67368400  0.05513700  0.51527700  1
  Na  Na3  1  0.09528600  0.67563200  0.99204700  1
  Na  Na4  1  0.32631600  0.94486300  0.48472300  1
  Si  Si5  1  0.18887600  0.80919400  0.25948200  1
  Si  Si6  1  0.81112400  0.19080600  0.74051800  1
  Si  Si7  1  0.64793600  0.58014000  0.27117000  1
  Si  Si8  1  0.43307000  0.38726500  0.23789700  1
  Si  Si9  1  0.35206400  0.41986000  0.72883000  1
  Si  Si10  1  0.56693000  0.61273500  0.76210300  1
  O  O11  1  0.62293200  0.39462200  0.27075400  1
  O  O12  1  0.37706800  0.60537800  0.72924600  1
  O  O13  1  0.08616400  0.99981600  0.11832100  1
  O  O14  1  0.00874900  0.87774800  0.40312900  1
  O  O15  1  0.91383600  0.00018400  0.88167900  1
  O  O16  1  0.99125100  0.12225200  0.59687100  1
  O  O17  1  0.41366000  0.77157100  0.27304500  1
  O  O18  1  0.22129600  0.60167000  0.24583800  1
  O  O19  1  0.58634000  0.22842900  0.72695500  1
  O  O20  1  0.77870400  0.39833000  0.75416200  1
  O  O21  1  0.82601600  0.61036900  0.12824700  1
  O  O22  1  0.41091100  0.19434100  0.34232500  1
  O  O23  1  0.50873700  0.59591000  0.95661900  1
  O  O24  1  0.25680500  0.46733100  0.58432700  1
  O  O25  1  0.49126300  0.40409000  0.04338100  1
  O  O26  1  0.74319500  0.53266900  0.41567300  1
  O  O27  1  0.58908900  0.80565900  0.65767500  1
  O  O28  1  0.17398400  0.38963100  0.87175300  1
