# generated using pymatgen
data_MnSiO4
_symmetry_space_group_name_H-M   'P 1'
_cell_length_a   10.01614152
_cell_length_b   10.01614152
_cell_length_c   10.01614152
_cell_angle_alpha   109.47122063
_cell_angle_beta   109.47122063
_cell_angle_gamma   109.47122063
_symmetry_Int_Tables_number   1
_chemical_formula_structural   MnSiO4
_chemical_formula_sum   'Mn12 Si12 O48'
_cell_volume   773.53410251
_cell_formula_units_Z   12
loop_
 _symmetry_equiv_pos_site_id
 _symmetry_equiv_pos_as_xyz
  1  'x, y, z'
loop_
 _atom_site_type_symbol
 _atom_site_label
 _atom_site_symmetry_multiplicity
 _atom_site_fract_x
 _atom_site_fract_y
 _atom_site_fract_z
 _atom_site_occupancy
  Mn  Mn0  1  0.37500000  0.12500000  0.25000000  1
  Mn  Mn1  1  0.75000000  0.12500000  0.37500000  1
  Mn  Mn2  1  0.25000000  0.37500000  0.12500000  1
  Mn  Mn3  1  0.37500000  0.75000000  0.12500000  1
  Mn  Mn4  1  0.12500000  0.37500000  0.75000000  1
  Mn  Mn5  1  0.12500000  0.25000000  0.37500000  1
  Mn  Mn6  1  0.62500000  0.25000000  0.87500000  1
  Mn  Mn7  1  0.25000000  0.87500000  0.62500000  1
  Mn  Mn8  1  0.62500000  0.87500000  0.75000000  1
  Mn  Mn9  1  0.87500000  0.62500000  0.25000000  1
  Mn  Mn10  1  0.87500000  0.75000000  0.62500000  1
  Mn  Mn11  1  0.75000000  0.62500000  0.87500000  1
  Si  Si12  1  0.62500000  0.37500000  0.25000000  1
  Si  Si13  1  0.87500000  0.12500000  0.75000000  1
  Si  Si14  1  0.25000000  0.62500000  0.37500000  1
  Si  Si15  1  0.62500000  0.75000000  0.37500000  1
  Si  Si16  1  0.37500000  0.25000000  0.62500000  1
  Si  Si17  1  0.37500000  0.62500000  0.75000000  1
  Si  Si18  1  0.25000000  0.12500000  0.87500000  1
  Si  Si19  1  0.12500000  0.87500000  0.25000000  1
  Si  Si20  1  0.75000000  0.37500000  0.62500000  1
  Si  Si21  1  0.87500000  0.25000000  0.12500000  1
  Si  Si22  1  0.75000000  0.87500000  0.12500000  1
  Si  Si23  1  0.12500000  0.75000000  0.87500000  1
  O  O24  1  0.58993400  0.89692300  0.36697600  1
  O  O25  1  0.36697600  0.58993400  0.89692300  1
  O  O26  1  0.27704200  0.30698900  0.91006600  1
  O  O27  1  0.47005300  0.60307700  0.19301100  1
  O  O28  1  0.30698900  0.89692300  0.02994700  1
  O  O29  1  0.13302400  0.02994700  0.22295800  1
  O  O30  1  0.36697600  0.27704200  0.47005300  1
  O  O31  1  0.89692300  0.36697600  0.58993400  1
  O  O32  1  0.19301100  0.22295800  0.58993400  1
  O  O33  1  0.47005300  0.36697600  0.27704200  1
  O  O34  1  0.89692300  0.02994700  0.30698900  1
  O  O35  1  0.60307700  0.91006600  0.13302400  1
  O  O36  1  0.91006600  0.13302400  0.60307700  1
  O  O37  1  0.27704200  0.47005300  0.36697600  1
  O  O38  1  0.58993400  0.19301100  0.22295800  1
  O  O39  1  0.22295800  0.58993400  0.19301100  1
  O  O40  1  0.02994700  0.30698900  0.89692300  1
  O  O41  1  0.91006600  0.27704200  0.30698900  1
  O  O42  1  0.02994700  0.22295800  0.13302400  1
  O  O43  1  0.80698900  0.77704200  0.41006600  1
  O  O44  1  0.19301100  0.47005300  0.60307700  1
  O  O45  1  0.60307700  0.19301100  0.47005300  1
  O  O46  1  0.22295800  0.13302400  0.02994700  1
  O  O47  1  0.13302400  0.60307700  0.91006600  1
  O  O48  1  0.41006600  0.10307700  0.63302400  1
  O  O49  1  0.63302400  0.41006600  0.10307700  1
  O  O50  1  0.72295800  0.69301100  0.08993400  1
  O  O51  1  0.52994700  0.39692300  0.80698900  1
  O  O52  1  0.69301100  0.10307700  0.97005300  1
  O  O53  1  0.86697600  0.97005300  0.77704200  1
  O  O54  1  0.63302400  0.72295800  0.52994700  1
  O  O55  1  0.10307700  0.63302400  0.41006600  1
  O  O56  1  0.86697600  0.39692300  0.08993400  1
  O  O57  1  0.77704200  0.86697600  0.97005300  1
  O  O58  1  0.39692300  0.80698900  0.52994700  1
  O  O59  1  0.69301100  0.08993400  0.72295800  1
  O  O60  1  0.80698900  0.52994700  0.39692300  1
  O  O61  1  0.97005300  0.77704200  0.86697600  1
  O  O62  1  0.08993400  0.72295800  0.69301100  1
  O  O63  1  0.97005300  0.69301100  0.10307700  1
  O  O64  1  0.77704200  0.41006600  0.80698900  1
  O  O65  1  0.41006600  0.80698900  0.77704200  1
  O  O66  1  0.72295800  0.52994700  0.63302400  1
  O  O67  1  0.08993400  0.86697600  0.39692300  1
  O  O68  1  0.39692300  0.08993400  0.86697600  1
  O  O69  1  0.10307700  0.97005300  0.69301100  1
  O  O70  1  0.52994700  0.63302400  0.72295800  1
  O  O71  1  0.30698900  0.91006600  0.27704200  1
