# generated using pymatgen
data_Mn2Be3(SiO4)3
_symmetry_space_group_name_H-M   'P 1'
_cell_length_a   7.47564900
_cell_length_b   8.01682100
_cell_length_c   16.01805507
_cell_angle_alpha   60.67884979
_cell_angle_beta   90.00000000
_cell_angle_gamma   90.00000000
_symmetry_Int_Tables_number   1
_chemical_formula_structural   Mn2Be3(SiO4)3
_chemical_formula_sum   'Mn8 Be12 Si12 O48'
_cell_volume   836.99304936
_cell_formula_units_Z   4
loop_
 _symmetry_equiv_pos_site_id
 _symmetry_equiv_pos_as_xyz
  1  'x, y, z'
loop_
 _atom_site_type_symbol
 _atom_site_label
 _atom_site_symmetry_multiplicity
 _atom_site_fract_x
 _atom_site_fract_y
 _atom_site_fract_z
 _atom_site_occupancy
  Mn  Mn0  1  0.46117600  0.16083600  0.09062800  1
  Mn  Mn1  1  0.03882400  0.16083600  0.59062800  1
  Mn  Mn2  1  0.53882400  0.83916400  0.90937200  1
  Mn  Mn3  1  0.96117600  0.83916400  0.40937200  1
  Mn  Mn4  1  0.55394400  0.81409500  0.43195700  1
  Mn  Mn5  1  0.05394400  0.18590500  0.06804300  1
  Mn  Mn6  1  0.44605600  0.18590500  0.56804300  1
  Mn  Mn7  1  0.94605600  0.81409500  0.93195700  1
  Be  Be8  1  0.83913900  0.80487200  0.76679600  1
  Be  Be9  1  0.66044100  0.16213200  0.40251400  1
  Be  Be10  1  0.16044100  0.83786800  0.09748600  1
  Be  Be11  1  0.33955900  0.83786800  0.59748600  1
  Be  Be12  1  0.83955900  0.16213200  0.90251400  1
  Be  Be13  1  0.16179400  0.47464300  0.41766800  1
  Be  Be14  1  0.66179400  0.52535700  0.08233200  1
  Be  Be15  1  0.83820600  0.52535700  0.58233200  1
  Be  Be16  1  0.33820600  0.47464300  0.91766800  1
  Be  Be17  1  0.66086100  0.80487200  0.26679600  1
  Be  Be18  1  0.16086100  0.19512800  0.23320400  1
  Be  Be19  1  0.33913900  0.19512800  0.73320400  1
  Si  Si20  1  0.22397200  0.81028000  0.76655200  1
  Si  Si21  1  0.72397200  0.18972000  0.73344800  1
  Si  Si22  1  0.77602800  0.18972000  0.23344800  1
  Si  Si23  1  0.27602800  0.81028000  0.26655200  1
  Si  Si24  1  0.73371500  0.46579300  0.91951400  1
  Si  Si25  1  0.23371500  0.53420700  0.58048600  1
  Si  Si26  1  0.26628500  0.53420700  0.08048600  1
  Si  Si27  1  0.76628500  0.46579300  0.41951400  1
  Si  Si28  1  0.23440500  0.16082700  0.90214800  1
  Si  Si29  1  0.73440500  0.83917300  0.59785200  1
  Si  Si30  1  0.76559500  0.83917300  0.09785200  1
  Si  Si31  1  0.26559500  0.16082700  0.40214800  1
  O  O32  1  0.13101500  0.71881000  0.04064500  1
  O  O33  1  0.03152000  0.77476100  0.82325100  1
  O  O34  1  0.53152000  0.22523900  0.67674900  1
  O  O35  1  0.96848000  0.22523900  0.17674900  1
  O  O36  1  0.46848000  0.77476100  0.32325100  1
  O  O37  1  0.53322300  0.36650000  0.96136100  1
  O  O38  1  0.03322300  0.63350000  0.53863900  1
  O  O39  1  0.46677700  0.63350000  0.03863900  1
  O  O40  1  0.96677700  0.36650000  0.46136100  1
  O  O41  1  0.03462900  0.07223600  0.89431200  1
  O  O42  1  0.53462900  0.92776400  0.60568800  1
  O  O43  1  0.96537100  0.92776400  0.10568800  1
  O  O44  1  0.12827500  0.08098500  0.35035500  1
  O  O45  1  0.62827500  0.91901500  0.14964500  1
  O  O46  1  0.87172500  0.91901500  0.64964500  1
  O  O47  1  0.37172500  0.08098500  0.85035500  1
  O  O48  1  0.63101500  0.28119000  0.45935500  1
  O  O49  1  0.46537100  0.07223600  0.39431200  1
  O  O50  1  0.36898500  0.71881000  0.54064500  1
  O  O51  1  0.86898500  0.28119000  0.95935500  1
  O  O52  1  0.77013500  0.94144100  0.47623500  1
  O  O53  1  0.62598100  0.28506200  0.14459200  1
  O  O54  1  0.87401900  0.28506200  0.64459200  1
  O  O55  1  0.37401900  0.71493800  0.85540800  1
  O  O56  1  0.73864100  0.26674400  0.80750100  1
  O  O57  1  0.23864100  0.73325600  0.69249900  1
  O  O58  1  0.26135900  0.73325600  0.19249900  1
  O  O59  1  0.76135900  0.26674400  0.30750100  1
  O  O60  1  0.73097500  0.61680600  0.80920500  1
  O  O61  1  0.23097500  0.38319400  0.69079500  1
  O  O62  1  0.26902500  0.38319400  0.19079500  1
  O  O63  1  0.76902500  0.61680600  0.30920500  1
  O  O64  1  0.23430800  0.38300500  0.86733200  1
  O  O65  1  0.73430800  0.61699500  0.63266800  1
  O  O66  1  0.76569200  0.61699500  0.13266800  1
  O  O67  1  0.26569200  0.38300500  0.36733200  1
  O  O68  1  0.73571600  0.94964100  0.80202400  1
  O  O69  1  0.23571600  0.05035900  0.69797600  1
  O  O70  1  0.26428400  0.05035900  0.19797600  1
  O  O71  1  0.76428400  0.94964100  0.30202400  1
  O  O72  1  0.78040900  0.58846800  0.97817200  1
  O  O73  1  0.28040900  0.41153200  0.52182800  1
  O  O74  1  0.21959100  0.41153200  0.02182800  1
  O  O75  1  0.71959100  0.58846800  0.47817200  1
  O  O76  1  0.72986500  0.94144100  0.97623500  1
  O  O77  1  0.22986500  0.05855900  0.52376500  1
  O  O78  1  0.27013500  0.05855900  0.02376500  1
  O  O79  1  0.12598100  0.71493800  0.35540800  1
