# generated using pymatgen
data_MgFe(Si2O5)2
_symmetry_space_group_name_H-M   'P 1'
_cell_length_a   7.33303200
_cell_length_b   7.33303200
_cell_length_c   14.90616100
_cell_angle_alpha   90.00000000
_cell_angle_beta   90.00000000
_cell_angle_gamma   90.00000000
_symmetry_Int_Tables_number   1
_chemical_formula_structural   MgFe(Si2O5)2
_chemical_formula_sum   'Mg4 Fe4 Si16 O40'
_cell_volume   801.55433652
_cell_formula_units_Z   4
loop_
 _symmetry_equiv_pos_site_id
 _symmetry_equiv_pos_as_xyz
  1  'x, y, z'
loop_
 _atom_site_type_symbol
 _atom_site_label
 _atom_site_symmetry_multiplicity
 _atom_site_fract_x
 _atom_site_fract_y
 _atom_site_fract_z
 _atom_site_occupancy
  Mg  Mg0  1  0.50000000  0.50000000  0.50000000  1
  Mg  Mg1  1  0.00000000  0.00000000  0.50000000  1
  Mg  Mg2  1  0.00000000  0.00000000  0.00000000  1
  Mg  Mg3  1  0.50000000  0.50000000  0.00000000  1
  Fe  Fe4  1  0.50000000  0.00000000  0.56880400  1
  Fe  Fe5  1  0.00000000  0.50000000  0.93119600  1
  Fe  Fe6  1  0.00000000  0.50000000  0.43119600  1
  Fe  Fe7  1  0.50000000  0.00000000  0.06880400  1
  Si  Si8  1  0.16230500  0.24155100  0.64488900  1
  Si  Si9  1  0.83769500  0.75844900  0.64488900  1
  Si  Si10  1  0.24155100  0.16230500  0.85511100  1
  Si  Si11  1  0.74155100  0.33769500  0.64488900  1
  Si  Si12  1  0.25844900  0.66230500  0.64488900  1
  Si  Si13  1  0.33769500  0.74155100  0.85511100  1
  Si  Si14  1  0.66230500  0.25844900  0.85511100  1
  Si  Si15  1  0.75844900  0.83769500  0.85511100  1
  Si  Si16  1  0.33769500  0.25844900  0.35511100  1
  Si  Si17  1  0.66230500  0.74155100  0.35511100  1
  Si  Si18  1  0.25844900  0.33769500  0.14488900  1
  Si  Si19  1  0.75844900  0.16230500  0.35511100  1
  Si  Si20  1  0.24155100  0.83769500  0.35511100  1
  Si  Si21  1  0.16230500  0.75844900  0.14488900  1
  Si  Si22  1  0.83769500  0.24155100  0.14488900  1
  Si  Si23  1  0.74155100  0.66230500  0.14488900  1
  O  O24  1  0.23220000  0.08684200  0.57540300  1
  O  O25  1  0.76780000  0.91315800  0.57540300  1
  O  O26  1  0.08684200  0.23220000  0.92459700  1
  O  O27  1  0.58684200  0.26780000  0.57540300  1
  O  O28  1  0.41315800  0.73220000  0.57540300  1
  O  O29  1  0.26780000  0.58684200  0.92459700  1
  O  O30  1  0.73220000  0.41315800  0.92459700  1
  O  O31  1  0.91315800  0.76780000  0.92459700  1
  O  O32  1  0.26780000  0.41315800  0.42459700  1
  O  O33  1  0.73220000  0.58684200  0.42459700  1
  O  O34  1  0.41315800  0.26780000  0.07540300  1
  O  O35  1  0.91315800  0.23220000  0.42459700  1
  O  O36  1  0.08684200  0.76780000  0.42459700  1
  O  O37  1  0.23220000  0.91315800  0.07540300  1
  O  O38  1  0.76780000  0.08684200  0.07540300  1
  O  O39  1  0.25076500  0.05771500  0.37520300  1
  O  O40  1  0.58684200  0.73220000  0.07540300  1
  O  O41  1  0.75076500  0.55771500  0.62479700  1
  O  O42  1  0.44228500  0.24923500  0.87520300  1
  O  O43  1  0.94228500  0.25076500  0.62479700  1
  O  O44  1  0.05771500  0.74923500  0.62479700  1
  O  O45  1  0.25076500  0.94228500  0.87520300  1
  O  O46  1  0.74923500  0.05771500  0.87520300  1
  O  O47  1  0.55771500  0.75076500  0.87520300  1
  O  O48  1  0.69576200  0.69576200  0.25000000  1
  O  O49  1  0.80423800  0.19576200  0.25000000  1
  O  O50  1  0.19576200  0.80423800  0.25000000  1
  O  O51  1  0.30423800  0.30423800  0.25000000  1
  O  O52  1  0.80423800  0.80423800  0.75000000  1
  O  O53  1  0.69576200  0.30423800  0.75000000  1
  O  O54  1  0.30423800  0.69576200  0.75000000  1
  O  O55  1  0.19576200  0.19576200  0.75000000  1
  O  O56  1  0.94228500  0.74923500  0.12479700  1
  O  O57  1  0.75076500  0.44228500  0.12479700  1
  O  O58  1  0.24923500  0.55771500  0.12479700  1
  O  O59  1  0.44228500  0.75076500  0.37520300  1
  O  O60  1  0.55771500  0.24923500  0.37520300  1
  O  O61  1  0.05771500  0.25076500  0.12479700  1
  O  O62  1  0.74923500  0.94228500  0.37520300  1
  O  O63  1  0.24923500  0.44228500  0.62479700  1
