# generated using pymatgen
data_Ca2AlSbO5
_symmetry_space_group_name_H-M   'P 1'
_cell_length_a   8.50374627
_cell_length_b   8.50374627
_cell_length_c   5.53496325
_cell_angle_alpha   75.02671619
_cell_angle_beta   75.02671619
_cell_angle_gamma   41.49986895
_symmetry_Int_Tables_number   1
_chemical_formula_structural   Ca2AlSbO5
_chemical_formula_sum   'Ca4 Al2 Sb2 O10'
_cell_volume   254.89173155
_cell_formula_units_Z   2
loop_
 _symmetry_equiv_pos_site_id
 _symmetry_equiv_pos_as_xyz
  1  'x, y, z'
loop_
 _atom_site_type_symbol
 _atom_site_label
 _atom_site_symmetry_multiplicity
 _atom_site_fract_x
 _atom_site_fract_y
 _atom_site_fract_z
 _atom_site_occupancy
  Ca  Ca0  1  0.64496500  0.09575600  0.86242400  1
  Ca  Ca1  1  0.90065000  0.33077300  0.60566300  1
  Ca  Ca2  1  0.33077300  0.90065000  0.10566300  1
  Ca  Ca3  1  0.09575600  0.64496500  0.36242400  1
  Al  Al4  1  0.30981800  0.67000100  0.73261500  1
  Al  Al5  1  0.67000100  0.30981800  0.23261500  1
  Sb  Sb6  1  0.49141000  0.01884100  0.47171700  1
  Sb  Sb7  1  0.01884100  0.49141000  0.97171700  1
  O  O8  1  0.43022300  0.57624700  0.41116900  1
  O  O9  1  0.57624700  0.43022300  0.91116900  1
  O  O10  1  0.72336300  0.05136600  0.32445500  1
  O  O11  1  0.19446400  0.93870000  0.77691400  1
  O  O12  1  0.05136600  0.72336300  0.82445500  1
  O  O13  1  0.93870000  0.19446400  0.27691400  1
  O  O14  1  0.63805800  0.83757600  0.81674100  1
  O  O15  1  0.31527900  0.31060800  0.63627800  1
  O  O16  1  0.31060800  0.31527900  0.13627800  1
  O  O17  1  0.83757600  0.63805800  0.31674100  1
