# generated using pymatgen
data_Mg3Si4(MoO7)2
_symmetry_space_group_name_H-M   'P 1'
_cell_length_a   9.49239507
_cell_length_b   9.49239507
_cell_length_c   9.98993354
_cell_angle_alpha   59.22046147
_cell_angle_beta   59.22046147
_cell_angle_gamma   48.05290383
_symmetry_Int_Tables_number   1
_chemical_formula_structural   Mg3Si4(MoO7)2
_chemical_formula_sum   'Mg6 Si8 Mo4 O28'
_cell_volume   554.54621007
_cell_formula_units_Z   2
loop_
 _symmetry_equiv_pos_site_id
 _symmetry_equiv_pos_as_xyz
  1  'x, y, z'
loop_
 _atom_site_type_symbol
 _atom_site_label
 _atom_site_symmetry_multiplicity
 _atom_site_fract_x
 _atom_site_fract_y
 _atom_site_fract_z
 _atom_site_occupancy
  Mg  Mg0  1  0.07404600  0.28260900  0.09648200  1
  Mg  Mg1  1  0.71739100  0.92595400  0.40351800  1
  Mg  Mg2  1  0.28260900  0.07404600  0.59648200  1
  Mg  Mg3  1  0.37719700  0.62280300  0.75000000  1
  Mg  Mg4  1  0.92595400  0.71739100  0.90351800  1
  Mg  Mg5  1  0.62280300  0.37719700  0.25000000  1
  Si  Si6  1  0.52911900  0.09277500  0.71550300  1
  Si  Si7  1  0.09277500  0.52911900  0.21550300  1
  Si  Si8  1  0.51143700  0.24476000  0.10453200  1
  Si  Si9  1  0.24476000  0.51143700  0.60453200  1
  Si  Si10  1  0.90722500  0.47088100  0.78449700  1
  Si  Si11  1  0.48856300  0.75524000  0.89546800  1
  Si  Si12  1  0.75524000  0.48856300  0.39546800  1
  Si  Si13  1  0.47088100  0.90722500  0.28449700  1
  Mo  Mo14  1  0.79905700  0.20094300  0.75000000  1
  Mo  Mo15  1  0.20094300  0.79905700  0.25000000  1
  Mo  Mo16  1  0.00000000  0.00000000  0.00000000  1
  Mo  Mo17  1  0.00000000  0.00000000  0.50000000  1
  O  O18  1  0.84161100  0.30716400  0.32936700  1
  O  O19  1  0.92443700  0.91203600  0.41150100  1
  O  O20  1  0.48007200  0.62175600  0.08213900  1
  O  O21  1  0.91203600  0.92443700  0.91150100  1
  O  O22  1  0.26187000  0.95517600  0.30295100  1
  O  O23  1  0.06783400  0.50589300  0.61790700  1
  O  O24  1  0.62175600  0.48007200  0.58213900  1
  O  O25  1  0.04482400  0.73813000  0.19704900  1
  O  O26  1  0.93216600  0.49410700  0.38209300  1
  O  O27  1  0.64073500  0.68457900  0.25737200  1
  O  O28  1  0.07556300  0.08796400  0.58849900  1
  O  O29  1  0.73813000  0.04482400  0.69704900  1
  O  O30  1  0.49410700  0.93216600  0.88209300  1
  O  O31  1  0.30716400  0.84161100  0.82936700  1
  O  O32  1  0.68457900  0.64073500  0.75737200  1
  O  O33  1  0.95517600  0.26187000  0.80295100  1
  O  O34  1  0.91423700  0.49613600  0.93010900  1
  O  O35  1  0.35926500  0.31542100  0.74262800  1
  O  O36  1  0.50386400  0.08576300  0.56989100  1
  O  O37  1  0.31542100  0.35926500  0.24262800  1
  O  O38  1  0.50589300  0.06783400  0.11790700  1
  O  O39  1  0.08796400  0.07556300  0.08849900  1
  O  O40  1  0.49613600  0.91423700  0.43010900  1
  O  O41  1  0.51992800  0.37824400  0.91786100  1
  O  O42  1  0.08576300  0.50386400  0.06989100  1
  O  O43  1  0.37824400  0.51992800  0.41786100  1
  O  O44  1  0.69283600  0.15838900  0.17063300  1
  O  O45  1  0.15838900  0.69283600  0.67063300  1
