# generated using pymatgen
data_Mg3Si4(SbO7)2
_symmetry_space_group_name_H-M   'P 1'
_cell_length_a   9.51204339
_cell_length_b   9.51204339
_cell_length_c   10.51751444
_cell_angle_alpha   59.63569440
_cell_angle_beta   59.63569440
_cell_angle_gamma   51.42571063
_symmetry_Int_Tables_number   1
_chemical_formula_structural   Mg3Si4(SbO7)2
_chemical_formula_sum   'Mg6 Si8 Sb4 O28'
_cell_volume   615.84567627
_cell_formula_units_Z   2
loop_
 _symmetry_equiv_pos_site_id
 _symmetry_equiv_pos_as_xyz
  1  'x, y, z'
loop_
 _atom_site_type_symbol
 _atom_site_label
 _atom_site_symmetry_multiplicity
 _atom_site_fract_x
 _atom_site_fract_y
 _atom_site_fract_z
 _atom_site_occupancy
  Mg  Mg0  1  0.03348100  0.30524900  0.10349600  1
  Mg  Mg1  1  0.69475100  0.96651900  0.39650400  1
  Mg  Mg2  1  0.30524900  0.03348100  0.60349600  1
  Mg  Mg3  1  0.41290000  0.58710000  0.75000000  1
  Mg  Mg4  1  0.96651900  0.69475100  0.89650400  1
  Mg  Mg5  1  0.58710000  0.41290000  0.25000000  1
  Si  Si6  1  0.52804400  0.08466400  0.71317800  1
  Si  Si7  1  0.08466400  0.52804400  0.21317800  1
  Si  Si8  1  0.49070700  0.26748100  0.11648200  1
  Si  Si9  1  0.26748100  0.49070700  0.61648200  1
  Si  Si10  1  0.91533600  0.47195600  0.78682200  1
  Si  Si11  1  0.50929300  0.73251900  0.88351800  1
  Si  Si12  1  0.73251900  0.50929300  0.38351800  1
  Si  Si13  1  0.47195600  0.91533600  0.28682200  1
  Sb  Sb14  1  0.79581900  0.20418100  0.75000000  1
  Sb  Sb15  1  0.20418100  0.79581900  0.25000000  1
  Sb  Sb16  1  0.00000000  0.00000000  0.00000000  1
  Sb  Sb17  1  0.00000000  0.00000000  0.50000000  1
  O  O18  1  0.80793800  0.34527700  0.30846400  1
  O  O19  1  0.93904300  0.89710300  0.40097300  1
  O  O20  1  0.50047400  0.60661600  0.06023900  1
  O  O21  1  0.89710300  0.93904300  0.90097300  1
  O  O22  1  0.26434700  0.95586400  0.31194400  1
  O  O23  1  0.07684700  0.50568500  0.63109800  1
  O  O24  1  0.60661600  0.50047400  0.56023900  1
  O  O25  1  0.04413600  0.73565300  0.18805600  1
  O  O26  1  0.92315300  0.49431500  0.36890200  1
  O  O27  1  0.62899000  0.70801900  0.25652000  1
  O  O28  1  0.06095700  0.10289700  0.59902700  1
  O  O29  1  0.73565300  0.04413600  0.68805600  1
  O  O30  1  0.49431500  0.92315300  0.86890200  1
  O  O31  1  0.34527700  0.80793800  0.80846400  1
  O  O32  1  0.70801900  0.62899000  0.75652000  1
  O  O33  1  0.95586400  0.26434700  0.81194400  1
  O  O34  1  0.92240700  0.49384400  0.92731100  1
  O  O35  1  0.37101000  0.29198100  0.74348000  1
  O  O36  1  0.50615600  0.07759300  0.57268900  1
  O  O37  1  0.29198100  0.37101000  0.24348000  1
  O  O38  1  0.50568500  0.07684700  0.13109800  1
  O  O39  1  0.10289700  0.06095700  0.09902700  1
  O  O40  1  0.49384400  0.92240700  0.42731100  1
  O  O41  1  0.49952600  0.39338400  0.93976100  1
  O  O42  1  0.07759300  0.50615600  0.07268900  1
  O  O43  1  0.39338400  0.49952600  0.43976100  1
  O  O44  1  0.65472300  0.19206200  0.19153600  1
  O  O45  1  0.19206200  0.65472300  0.69153600  1
