# generated using pymatgen
data_V2Zn3(SiO4)3
_symmetry_space_group_name_H-M   'P 1'
_cell_length_a   10.30937945
_cell_length_b   10.30937945
_cell_length_c   10.30937945
_cell_angle_alpha   109.47122063
_cell_angle_beta   109.47122063
_cell_angle_gamma   109.47122063
_symmetry_Int_Tables_number   1
_chemical_formula_structural   V2Zn3(SiO4)3
_chemical_formula_sum   'V8 Zn12 Si12 O48'
_cell_volume   843.48173594
_cell_formula_units_Z   4
loop_
 _symmetry_equiv_pos_site_id
 _symmetry_equiv_pos_as_xyz
  1  'x, y, z'
loop_
 _atom_site_type_symbol
 _atom_site_label
 _atom_site_symmetry_multiplicity
 _atom_site_fract_x
 _atom_site_fract_y
 _atom_site_fract_z
 _atom_site_occupancy
  V  V0  1  0.50000000  0.00000000  0.00000000  1
  V  V1  1  0.50000000  0.50000000  0.00000000  1
  V  V2  1  0.00000000  0.50000000  0.50000000  1
  V  V3  1  0.00000000  0.00000000  0.50000000  1
  V  V4  1  0.50000000  0.50000000  0.50000000  1
  V  V5  1  0.00000000  0.50000000  0.00000000  1
  V  V6  1  0.50000000  0.00000000  0.50000000  1
  V  V7  1  0.00000000  0.00000000  0.00000000  1
  Zn  Zn8  1  0.25000000  0.37500000  0.12500000  1
  Zn  Zn9  1  0.75000000  0.12500000  0.37500000  1
  Zn  Zn10  1  0.37500000  0.12500000  0.25000000  1
  Zn  Zn11  1  0.12500000  0.37500000  0.75000000  1
  Zn  Zn12  1  0.25000000  0.87500000  0.62500000  1
  Zn  Zn13  1  0.12500000  0.25000000  0.37500000  1
  Zn  Zn14  1  0.62500000  0.25000000  0.87500000  1
  Zn  Zn15  1  0.75000000  0.62500000  0.87500000  1
  Zn  Zn16  1  0.87500000  0.75000000  0.62500000  1
  Zn  Zn17  1  0.87500000  0.62500000  0.25000000  1
  Zn  Zn18  1  0.62500000  0.87500000  0.75000000  1
  Zn  Zn19  1  0.37500000  0.75000000  0.12500000  1
  Si  Si20  1  0.12500000  0.75000000  0.87500000  1
  Si  Si21  1  0.87500000  0.25000000  0.12500000  1
  Si  Si22  1  0.75000000  0.37500000  0.62500000  1
  Si  Si23  1  0.12500000  0.87500000  0.25000000  1
  Si  Si24  1  0.25000000  0.12500000  0.87500000  1
  Si  Si25  1  0.37500000  0.62500000  0.75000000  1
  Si  Si26  1  0.37500000  0.25000000  0.62500000  1
  Si  Si27  1  0.87500000  0.12500000  0.75000000  1
  Si  Si28  1  0.62500000  0.37500000  0.25000000  1
  Si  Si29  1  0.75000000  0.87500000  0.12500000  1
  Si  Si30  1  0.25000000  0.62500000  0.37500000  1
  Si  Si31  1  0.62500000  0.75000000  0.37500000  1
  O  O32  1  0.58585300  0.89381000  0.37635600  1
  O  O33  1  0.37635600  0.58585300  0.89381000  1
  O  O34  1  0.29050300  0.30795700  0.91414700  1
  O  O35  1  0.48254600  0.60619000  0.19204300  1
  O  O36  1  0.30795700  0.89381000  0.01745400  1
  O  O37  1  0.12364400  0.01745400  0.20949700  1
  O  O38  1  0.37635600  0.29050300  0.48254600  1
  O  O39  1  0.89381000  0.37635600  0.58585300  1
  O  O40  1  0.19204300  0.20949700  0.58585300  1
  O  O41  1  0.48254600  0.37635600  0.29050300  1
  O  O42  1  0.89381000  0.01745400  0.30795700  1
  O  O43  1  0.60619000  0.91414700  0.12364400  1
  O  O44  1  0.91414700  0.12364400  0.60619000  1
  O  O45  1  0.29050300  0.48254600  0.37635600  1
  O  O46  1  0.58585300  0.19204300  0.20949700  1
  O  O47  1  0.20949700  0.58585300  0.19204300  1
  O  O48  1  0.01745400  0.30795700  0.89381000  1
  O  O49  1  0.91414700  0.29050300  0.30795700  1
  O  O50  1  0.01745400  0.20949700  0.12364400  1
  O  O51  1  0.80795700  0.79050300  0.41414700  1
  O  O52  1  0.19204300  0.48254600  0.60619000  1
  O  O53  1  0.60619000  0.19204300  0.48254600  1
  O  O54  1  0.20949700  0.12364400  0.01745400  1
  O  O55  1  0.12364400  0.60619000  0.91414700  1
  O  O56  1  0.41414700  0.10619000  0.62364400  1
  O  O57  1  0.62364400  0.41414700  0.10619000  1
  O  O58  1  0.70949700  0.69204300  0.08585300  1
  O  O59  1  0.51745400  0.39381000  0.80795700  1
  O  O60  1  0.69204300  0.10619000  0.98254600  1
  O  O61  1  0.87635600  0.98254600  0.79050300  1
  O  O62  1  0.62364400  0.70949700  0.51745400  1
  O  O63  1  0.10619000  0.62364400  0.41414700  1
  O  O64  1  0.87635600  0.39381000  0.08585300  1
  O  O65  1  0.79050300  0.87635600  0.98254600  1
  O  O66  1  0.39381000  0.80795700  0.51745400  1
  O  O67  1  0.69204300  0.08585300  0.70949700  1
  O  O68  1  0.80795700  0.51745400  0.39381000  1
  O  O69  1  0.98254600  0.79050300  0.87635600  1
  O  O70  1  0.08585300  0.70949700  0.69204300  1
  O  O71  1  0.98254600  0.69204300  0.10619000  1
  O  O72  1  0.79050300  0.41414700  0.80795700  1
  O  O73  1  0.41414700  0.80795700  0.79050300  1
  O  O74  1  0.70949700  0.51745400  0.62364400  1
  O  O75  1  0.08585300  0.87635600  0.39381000  1
  O  O76  1  0.39381000  0.08585300  0.87635600  1
  O  O77  1  0.10619000  0.98254600  0.69204300  1
  O  O78  1  0.51745400  0.62364400  0.70949700  1
  O  O79  1  0.30795700  0.91414700  0.29050300  1
