# generated using pymatgen
data_Ca2AlBiO5
_symmetry_space_group_name_H-M   'P 1'
_cell_length_a   5.67084277
_cell_length_b   6.01830721
_cell_length_c   8.75300818
_cell_angle_alpha   110.00923785
_cell_angle_beta   107.61252839
_cell_angle_gamma   89.98814357
_symmetry_Int_Tables_number   1
_chemical_formula_structural   Ca2AlBiO5
_chemical_formula_sum   'Ca4 Al2 Bi2 O10'
_cell_volume   265.75377326
_cell_formula_units_Z   2
loop_
 _symmetry_equiv_pos_site_id
 _symmetry_equiv_pos_as_xyz
  1  'x, y, z'
loop_
 _atom_site_type_symbol
 _atom_site_label
 _atom_site_symmetry_multiplicity
 _atom_site_fract_x
 _atom_site_fract_y
 _atom_site_fract_z
 _atom_site_occupancy
  Ca  Ca0  1  0.16192000  0.63048200  0.23986600  1
  Ca  Ca1  1  0.41599100  0.88433600  0.71165800  1
  Ca  Ca2  1  0.91721800  0.32495700  0.71195400  1
  Ca  Ca3  1  0.66045900  0.10995600  0.24031900  1
  Al  Al4  1  0.27682200  0.30771700  0.48473800  1
  Al  Al5  1  0.77689800  0.67521800  0.48452000  1
  Bi  Bi6  1  0.51863000  0.49959300  0.00812200  1
  Bi  Bi7  1  0.01703600  0.00952700  0.00836700  1
  O  O8  1  0.58621500  0.43946800  0.50598900  1
  O  O9  1  0.08672400  0.56471700  0.50764000  1
  O  O10  1  0.63525300  0.74982300  0.29840500  1
  O  O11  1  0.28848300  0.22534000  0.66336300  1
  O  O12  1  0.13530200  0.04792800  0.29851700  1
  O  O13  1  0.78802400  0.93504600  0.66282400  1
  O  O14  1  0.11389400  0.61033200  0.96586600  1
  O  O15  1  0.35014100  0.29549300  0.12607000  1
  O  O16  1  0.85154000  0.33281300  0.12919200  1
  O  O17  1  0.61308200  0.85761900  0.96673100  1
