# generated using pymatgen
data_AlCo(WO4)2
_symmetry_space_group_name_H-M   'P 1'
_cell_length_a   5.09135046
_cell_length_b   5.62849925
_cell_length_c   9.17197556
_cell_angle_alpha   90.14410492
_cell_angle_beta   90.80812596
_cell_angle_gamma   88.93575475
_symmetry_Int_Tables_number   1
_chemical_formula_structural   AlCo(WO4)2
_chemical_formula_sum   'Al2 Co2 W4 O16'
_cell_volume   262.76605931
_cell_formula_units_Z   2
loop_
 _symmetry_equiv_pos_site_id
 _symmetry_equiv_pos_as_xyz
  1  'x, y, z'
loop_
 _atom_site_type_symbol
 _atom_site_label
 _atom_site_symmetry_multiplicity
 _atom_site_fract_x
 _atom_site_fract_y
 _atom_site_fract_z
 _atom_site_occupancy
  Al  Al0  1  0.24916900  0.65344300  0.26127100  1
  Al  Al1  1  0.75083000  0.34655600  0.73872900  1
  Co  Co2  1  0.75186600  0.35442900  0.25922800  1
  Co  Co3  1  0.24813400  0.64557000  0.74077200  1
  W  W4  1  0.24946500  0.16422800  0.50151400  1
  W  W5  1  0.24473200  0.17218600  0.00048000  1
  W  W6  1  0.75053500  0.83577200  0.49848600  1
  W  W7  1  0.75526800  0.82781400  0.99952000  1
  O  O8  1  0.38058400  0.39560600  0.12570400  1
  O  O9  1  0.11357100  0.39198800  0.36652600  1
  O  O10  1  0.61941600  0.60439300  0.87429600  1
  O  O11  1  0.88642800  0.60801100  0.63347400  1
  O  O12  1  0.41116900  0.88504700  0.61123000  1
  O  O13  1  0.06840700  0.88294500  0.88924900  1
  O  O14  1  0.58883100  0.11495300  0.38877000  1
  O  O15  1  0.93159300  0.11705500  0.11075100  1
  O  O16  1  0.93000600  0.63988200  0.13723500  1
  O  O17  1  0.56888400  0.63114000  0.35520600  1
  O  O18  1  0.06999400  0.36011900  0.86276500  1
  O  O19  1  0.43111600  0.36886100  0.64479400  1
  O  O20  1  0.42353100  0.88361500  0.11007800  1
  O  O21  1  0.57646900  0.11638600  0.88992200  1
  O  O22  1  0.08229200  0.88109400  0.38030100  1
  O  O23  1  0.91770800  0.11890700  0.61969900  1
