# generated using pymatgen
data_LiMnSiO4
_symmetry_space_group_name_H-M   'P 1'
_cell_length_a   18.89746440
_cell_length_b   8.12071800
_cell_length_c   5.55014612
_cell_angle_alpha   89.99967250
_cell_angle_beta   89.97634195
_cell_angle_gamma   89.99953671
_symmetry_Int_Tables_number   1
_chemical_formula_structural   LiMnSiO4
_chemical_formula_sum   'Li12 Mn12 Si12 O48'
_cell_volume   851.73078611
_cell_formula_units_Z   12
loop_
 _symmetry_equiv_pos_site_id
 _symmetry_equiv_pos_as_xyz
  1  'x, y, z'
loop_
 _atom_site_type_symbol
 _atom_site_label
 _atom_site_symmetry_multiplicity
 _atom_site_fract_x
 _atom_site_fract_y
 _atom_site_fract_z
 _atom_site_occupancy
  Li  Li0  1  0.08296600  0.57588700  0.00728400  1
  Li  Li1  1  0.08364100  0.07890000  0.50039800  1
  Li  Li2  1  0.24957900  0.92195500  0.01742700  1
  Li  Li3  1  0.25041500  0.42194900  0.51748700  1
  Li  Li4  1  0.41636700  0.57890500  0.00046300  1
  Li  Li5  1  0.41702700  0.07588700  0.50733800  1
  Li  Li6  1  0.58296200  0.92408200  0.00733900  1
  Li  Li7  1  0.58363700  0.42108700  0.50040800  1
  Li  Li8  1  0.74957600  0.57807100  0.01742600  1
  Li  Li9  1  0.75041200  0.07806800  0.51748100  1
  Li  Li10  1  0.91636500  0.92108300  0.00037700  1
  Li  Li11  1  0.91702900  0.42411600  0.50734400  1
  Mn  Mn12  1  0.99953500  0.24903500  0.99049400  1
  Mn  Mn13  1  0.00043000  0.75091700  0.49059200  1
  Mn  Mn14  1  0.16693500  0.75011300  0.51021300  1
  Mn  Mn15  1  0.16676500  0.24998400  0.01694900  1
  Mn  Mn16  1  0.33322200  0.74993000  0.51677300  1
  Mn  Mn17  1  0.33304800  0.25006500  0.01040800  1
  Mn  Mn18  1  0.49954200  0.25092100  0.99052100  1
  Mn  Mn19  1  0.50046000  0.74903600  0.49065800  1
  Mn  Mn20  1  0.66691000  0.74994000  0.51016400  1
  Mn  Mn21  1  0.66673400  0.25023600  0.01679000  1
  Mn  Mn22  1  0.83322300  0.75009400  0.51675500  1
  Mn  Mn23  1  0.83306200  0.24990100  0.01034200  1
  Si  Si24  1  0.08326000  0.90384500  0.99474700  1
  Si  Si25  1  0.08362200  0.40458200  0.50414100  1
  Si  Si26  1  0.24979000  0.59618500  0.01827300  1
  Si  Si27  1  0.25022500  0.09618900  0.51833000  1
  Si  Si28  1  0.41639000  0.90455600  0.00421400  1
  Si  Si29  1  0.41673200  0.40381800  0.49479800  1
  Si  Si30  1  0.58325200  0.59615100  0.99479400  1
  Si  Si31  1  0.58360000  0.09538500  0.50415400  1
  Si  Si32  1  0.74978600  0.90384000  0.01823900  1
  Si  Si33  1  0.75022600  0.40384100  0.51829200  1
  Si  Si34  1  0.91639000  0.59544000  0.00414900  1
  Si  Si35  1  0.91675600  0.09615500  0.49472600  1
  O  O36  1  0.98842400  0.98374700  0.49169200  1
  O  O37  1  0.01157900  0.01617700  0.99167300  1
  O  O38  1  0.01231500  0.51794700  0.49605800  1
  O  O39  1  0.08102900  0.27725000  0.73987700  1
  O  O40  1  0.08577000  0.27779700  0.26653700  1
  O  O41  1  0.08361400  0.77370000  0.22417300  1
  O  O42  1  0.08314500  0.78115700  0.74964300  1
  O  O43  1  0.15448800  0.01720700  0.00620800  1
  O  O44  1  0.15516100  0.51699500  0.51506900  1
  O  O45  1  0.17840300  0.48302900  0.01588300  1
  O  O46  1  0.17876000  0.98335100  0.50782400  1
  O  O47  1  0.25097200  0.22659900  0.28940700  1
  O  O48  1  0.24938500  0.21967500  0.76342000  1
  O  O49  1  0.24909700  0.72661900  0.78931000  1
  O  O50  1  0.25058400  0.71970300  0.26338900  1
  O  O51  1  0.32124200  0.48329600  0.00787000  1
  O  O52  1  0.32160200  0.98299200  0.51593200  1
  O  O53  1  0.34483500  0.01698000  0.01512000  1
  O  O54  1  0.34551500  0.51718900  0.50620900  1
  O  O55  1  0.41690900  0.28111900  0.24969500  1
  O  O56  1  0.41636300  0.27368100  0.72425300  1
  O  O57  1  0.41428600  0.77776700  0.76665200  1
  O  O58  1  0.41893800  0.77724000  0.24001400  1
  O  O59  1  0.48768600  0.01798300  0.99611600  1
  O  O60  1  0.48842500  0.51618600  0.49177900  1
  O  O61  1  0.51157700  0.48380300  0.99172700  1
  O  O62  1  0.51230300  0.98198300  0.49615800  1
  O  O63  1  0.58103000  0.22273700  0.73990600  1
  O  O64  1  0.58574400  0.22218500  0.26653000  1
  O  O65  1  0.58360100  0.72624900  0.22424600  1
  O  O66  1  0.58312500  0.71881800  0.74973300  1
  O  O67  1  0.65447800  0.48280600  0.00622600  1
  O  O68  1  0.65515700  0.98299500  0.51503900  1
  O  O69  1  0.67839700  0.01699500  0.01587600  1
  O  O70  1  0.67875300  0.51668100  0.50781000  1
  O  O71  1  0.74938500  0.28035800  0.76340500  1
  O  O72  1  0.75096500  0.27341800  0.28937800  1
  O  O73  1  0.75059900  0.78031900  0.26332300  1
  O  O74  1  0.74908100  0.77341800  0.78925700  1
  O  O75  1  0.82124000  0.01672500  0.00780600  1
  O  O76  1  0.82159200  0.51701900  0.51591500  1
  O  O77  1  0.84482900  0.48302400  0.01506500  1
  O  O78  1  0.84551400  0.98280300  0.50619400  1
  O  O79  1  0.91691500  0.21887600  0.24964100  1
  O  O80  1  0.91638100  0.22630500  0.72420000  1
  O  O81  1  0.91429700  0.72219800  0.76651900  1
  O  O82  1  0.91894800  0.72275200  0.23990000  1
  O  O83  1  0.98768800  0.48199800  0.99604900  1
