# generated using pymatgen
data_Mn2AlS4
_symmetry_space_group_name_H-M   'P 1'
_cell_length_a   7.01330165
_cell_length_b   7.01330165
_cell_length_c   7.01330165
_cell_angle_alpha   120.27729695
_cell_angle_beta   118.45951209
_cell_angle_gamma   91.10455358
_symmetry_Int_Tables_number   1
_chemical_formula_structural   Mn2AlS4
_chemical_formula_sum   'Mn4 Al2 S8'
_cell_volume   246.12635255
_cell_formula_units_Z   2
loop_
 _symmetry_equiv_pos_site_id
 _symmetry_equiv_pos_as_xyz
  1  'x, y, z'
loop_
 _atom_site_type_symbol
 _atom_site_label
 _atom_site_symmetry_multiplicity
 _atom_site_fract_x
 _atom_site_fract_y
 _atom_site_fract_z
 _atom_site_occupancy
  Mn  Mn0  1  0.50000000  0.50000000  0.50000000  1
  Mn  Mn1  1  0.50000000  0.00000000  0.50000000  1
  Mn  Mn2  1  0.50000000  0.00000000  0.00000000  1
  Mn  Mn3  1  0.00000000  0.00000000  0.00000000  1
  Al  Al4  1  0.50000000  0.50000000  0.00000000  1
  Al  Al5  1  0.00000000  0.50000000  0.50000000  1
  S  S6  1  0.28387400  0.25651000  0.02736300  1
  S  S7  1  0.26022100  0.26989600  0.50967500  1
  S  S8  1  0.72914700  0.25651000  0.47263700  1
  S  S9  1  0.73977900  0.24945400  0.00967500  1
  S  S10  1  0.27085300  0.74349000  0.52736300  1
  S  S11  1  0.73977900  0.73010400  0.49032500  1
  S  S12  1  0.26022100  0.75054600  0.99032500  1
  S  S13  1  0.71612600  0.74349000  0.97263700  1
