# generated using pymatgen
data_AlF3
_symmetry_space_group_name_H-M   'P 1'
_cell_length_a   9.52670036
_cell_length_b   3.63896336
_cell_length_c   5.90514709
_cell_angle_alpha   90.61382077
_cell_angle_beta   149.85569715
_cell_angle_gamma   89.11366893
_symmetry_Int_Tables_number   1
_chemical_formula_structural   AlF3
_chemical_formula_sum   'Al2 F6'
_cell_volume   102.79023342
_cell_formula_units_Z   2
loop_
 _symmetry_equiv_pos_site_id
 _symmetry_equiv_pos_as_xyz
  1  'x, y, z'
loop_
 _atom_site_type_symbol
 _atom_site_label
 _atom_site_symmetry_multiplicity
 _atom_site_fract_x
 _atom_site_fract_y
 _atom_site_fract_z
 _atom_site_occupancy
  Al  Al0  1  0.55528800  0.30577900  0.03409900  1
  Al  Al1  1  0.83022800  0.30562600  0.84821800  1
  F  F2  1  0.19321700  0.30575100  0.44067100  1
  F  F3  1  0.69402300  0.30578800  0.94327100  1
  F  F4  1  0.83670200  0.80563500  0.86395600  1
  F  F5  1  0.54823800  0.80579500  0.01779500  1
  F  F6  1  0.91009000  0.29866100  0.65431600  1
  F  F7  1  0.47507700  0.31269300  0.22767200  1
