# generated using pymatgen
data_Sr2YAlW2O7
_symmetry_space_group_name_H-M   'P 1'
_cell_length_a   12.23101556
_cell_length_b   12.23101556
_cell_length_c   12.23101556
_cell_angle_alpha   153.39888243
_cell_angle_beta   152.48367832
_cell_angle_gamma   38.64550225
_symmetry_Int_Tables_number   1
_chemical_formula_structural   Sr2YAlW2O7
_chemical_formula_sum   'Sr4 Y2 Al2 W4 O14'
_cell_volume   377.88817980
_cell_formula_units_Z   2
loop_
 _symmetry_equiv_pos_site_id
 _symmetry_equiv_pos_as_xyz
  1  'x, y, z'
loop_
 _atom_site_type_symbol
 _atom_site_label
 _atom_site_symmetry_multiplicity
 _atom_site_fract_x
 _atom_site_fract_y
 _atom_site_fract_z
 _atom_site_occupancy
  Sr  Sr0  1  0.80693200  0.84022600  0.96966800  1
  Sr  Sr1  1  0.19306800  0.16273700  0.03329500  1
  Sr  Sr2  1  0.62944200  0.66273700  0.96966800  1
  Sr  Sr3  1  0.37055800  0.34022600  0.03329500  1
  Y  Y4  1  0.50000000  0.47868200  0.97868200  1
  Y  Y5  1  0.00000000  0.97868200  0.97868200  1
  Al  Al6  1  0.17344800  0.75751300  0.43096100  1
  Al  Al7  1  0.82655200  0.25751300  0.58406500  1
  W  W8  1  0.94593900  0.42360100  0.47968700  1
  W  W9  1  0.05406100  0.53374800  0.47766300  1
  W  W10  1  0.55608500  0.03374800  0.47968700  1
  W  W11  1  0.44391500  0.92360100  0.47766300  1
  O  O12  1  0.91822400  0.56799000  0.98621400  1
  O  O13  1  0.08177600  0.06799000  0.64976600  1
  O  O14  1  0.73101400  0.71143900  0.59032700  1
  O  O15  1  0.26898600  0.85931300  0.98042500  1
  O  O16  1  0.37888800  0.35931300  0.59032700  1
  O  O17  1  0.62111200  0.21143900  0.98042500  1
  O  O18  1  0.11876100  0.09471200  0.36319400  1
  O  O19  1  0.88123900  0.24443300  0.97595100  1
  O  O20  1  0.76848200  0.74443300  0.36319400  1
  O  O21  1  0.23151800  0.59471200  0.97595100  1
  O  O22  1  0.37784600  0.76948500  0.51396700  1
  O  O23  1  0.62215400  0.13612100  0.39163900  1
  O  O24  1  0.24448200  0.63612100  0.51396700  1
  O  O25  1  0.75551800  0.26948500  0.39163900  1
