# generated using pymatgen
data_K2Al11Si13(Ag3O16)3
_symmetry_space_group_name_H-M   'P 1'
_cell_length_a   12.96013594
_cell_length_b   12.25126266
_cell_length_c   12.25889459
_cell_angle_alpha   89.99064242
_cell_angle_beta   89.46540430
_cell_angle_gamma   89.98750746
_symmetry_Int_Tables_number   1
_chemical_formula_structural   K2Al11Si13(Ag3O16)3
_chemical_formula_sum   'K2 Al11 Si13 Ag9 O48'
_cell_volume   1946.35833140
_cell_formula_units_Z   1
loop_
 _symmetry_equiv_pos_site_id
 _symmetry_equiv_pos_as_xyz
  1  'x, y, z'
loop_
 _atom_site_type_symbol
 _atom_site_label
 _atom_site_symmetry_multiplicity
 _atom_site_fract_x
 _atom_site_fract_y
 _atom_site_fract_z
 _atom_site_occupancy
  K  K0  1  0.50456937  0.99025312  0.00116619  1
  K  K1  1  0.60029464  0.49943372  0.99575064  1
  Al  Al2  1  0.18133942  0.99633489  0.62748613  1
  Al  Al3  1  0.17578109  0.36518455  0.99614989  1
  Al  Al4  1  0.36654402  0.80057878  0.99917271  1
  Al  Al5  1  0.61744277  0.99284081  0.20647867  1
  Al  Al6  1  0.62133117  0.19507020  0.00328487  1
  Al  Al7  1  0.62389096  0.99313790  0.80027618  1
  Al  Al8  1  0.61798898  0.78840911  0.00297788  1
  Al  Al9  1  0.83213912  0.99133912  0.36425743  1
  Al  Al10  1  0.83645956  0.99115181  0.63619886  1
  Al  Al11  1  0.82940122  0.35665973  0.00194619  1
  Al  Al12  1  0.83149285  0.63113386  0.00148075  1
  Si  Si13  1  0.17637033  0.99673708  0.36806217  1
  Si  Si14  1  0.17169391  0.62122095  0.99535671  1
  Si  Si15  1  0.36548635  0.99619224  0.19073689  1
  Si  Si16  1  0.36862410  0.18452290  0.00049494  1
  Si  Si17  1  0.37081607  0.99734161  0.80869311  1
  Si  Si18  1  0.99885926  0.17855983  0.36844358  1
  Si  Si19  1  0.00118974  0.18104013  0.63076772  1
  Si  Si20  1  0.99813671  0.36208710  0.18820845  1
  Si  Si21  1  0.99866381  0.36025403  0.81202438  1
  Si  Si22  1  0.99832101  0.62333006  0.18652498  1
  Si  Si23  1  0.99863640  0.62384753  0.81220818  1
  Si  Si24  1  0.00611594  0.80861223  0.36708298  1
  Si  Si25  1  0.00853238  0.80521951  0.63095286  1
  Ag  Ag26  1  0.20176617  0.20443753  0.19840586  1
  Ag  Ag27  1  0.20120358  0.19226388  0.79831690  1
  Ag  Ag28  1  0.19930835  0.79313663  0.18889042  1
  Ag  Ag29  1  0.20064331  0.80596168  0.80749295  1
  Ag  Ag30  1  0.79928450  0.16151431  0.17231116  1
  Ag  Ag31  1  0.80550214  0.15857991  0.83165173  1
  Ag  Ag32  1  0.79455501  0.82142879  0.17727647  1
  Ag  Ag33  1  0.80121079  0.82441988  0.82645995  1
  Ag  Ag34  1  0.77018098  0.98900476  0.00359603  1
  O  O35  1  0.98832532  0.49351672  0.21541419  1
  O  O36  1  0.00479233  0.30054172  0.69223364  1
  O  O37  1  0.99057778  0.49267918  0.79202806  1
  O  O38  1  0.00717629  0.78318259  0.49776671  1
  O  O39  1  0.01420945  0.68636042  0.69482526  1
  O  O40  1  0.10790986  0.10813139  0.34083806  1
  O  O41  1  0.10487709  0.34000931  0.11812832  1
  O  O42  1  0.10993181  0.11676327  0.65436382  1
  O  O43  1  0.10211437  0.64297471  0.10827775  1
  O  O44  1  0.10637702  0.33276866  0.87693626  1
  O  O45  1  0.11158973  0.88388099  0.33443745  1
  O  O46  1  0.10428027  0.65010534  0.88447125  1
  O  O47  1  0.11470643  0.87306453  0.66022967  1
  O  O48  1  0.21344112  0.99213339  0.49041605  1
  O  O49  1  0.21485360  0.49968547  0.99195752  1
  O  O50  1  0.28898600  0.00700064  0.71133666  1
  O  O51  1  0.26201033  0.71154400  0.99982863  1
  O  O52  1  0.27569018  0.00482386  0.28495730  1
  O  O53  1  0.28350355  0.27955067  0.00181864  1
  O  O54  1  0.34432091  0.10627564  0.11124519  1
  O  O55  1  0.34731835  0.10610263  0.89166558  1
  O  O56  1  0.34170381  0.88748075  0.11676495  1
  O  O57  1  0.34494783  0.88882641  0.88443011  1
  O  O58  1  0.48188300  0.99816484  0.23378099  1
  O  O59  1  0.48660678  0.22536161  0.00185402  1
  O  O60  1  0.48902287  0.74806035  0.00076649  1
  O  O61  1  0.49040320  0.99909321  0.77341702  1
  O  O62  1  0.64087134  0.10864513  0.11872473  1
  O  O63  1  0.64660636  0.10822916  0.88917863  1
  O  O64  1  0.63754268  0.87730604  0.11815478  1
  O  O65  1  0.64349904  0.87831222  0.88974105  1
  O  O66  1  0.72008171  0.98819619  0.70492590  1
  O  O67  1  0.70834553  0.68555827  0.00361583  1
  O  O68  1  0.71452607  0.98885998  0.29994575  1
  O  O69  1  0.70373526  0.30502496  0.00393591  1
  O  O70  1  0.82020657  0.49405613  0.00064643  1
  O  O71  1  0.83569343  0.99515281  0.50002524  1
  O  O72  1  0.90417115  0.11012239  0.31742557  1
  O  O73  1  0.90572821  0.11095124  0.68108411  1
  O  O74  1  0.89916413  0.31524975  0.12209480  1
  O  O75  1  0.90092273  0.31336003  0.88276592  1
  O  O76  1  0.89991100  0.67291482  0.12259793  1
  O  O77  1  0.90165532  0.67380865  0.88090598  1
  O  O78  1  0.90616973  0.87205892  0.32184638  1
  O  O79  1  0.90850012  0.87103713  0.67586334  1
  O  O80  1  0.99260149  0.20285134  0.49862628  1
  O  O81  1  0.01112828  0.29569878  0.30434056  1
  O  O82  1  0.02140257  0.69328261  0.29878452  1
