# generated using pymatgen
data_Mg3Ti2(Si2O7)2
_symmetry_space_group_name_H-M   'P 1'
_cell_length_a   9.32660089
_cell_length_b   9.32660089
_cell_length_c   9.75509066
_cell_angle_alpha   59.46055010
_cell_angle_beta   59.46055010
_cell_angle_gamma   48.56214599
_symmetry_Int_Tables_number   1
_chemical_formula_structural   Mg3Ti2(Si2O7)2
_chemical_formula_sum   'Mg6 Ti4 Si8 O28'
_cell_volume   528.13029912
_cell_formula_units_Z   2
loop_
 _symmetry_equiv_pos_site_id
 _symmetry_equiv_pos_as_xyz
  1  'x, y, z'
loop_
 _atom_site_type_symbol
 _atom_site_label
 _atom_site_symmetry_multiplicity
 _atom_site_fract_x
 _atom_site_fract_y
 _atom_site_fract_z
 _atom_site_occupancy
  Mg  Mg0  1  0.08502900  0.27421400  0.09102100  1
  Mg  Mg1  1  0.72578600  0.91497100  0.40897900  1
  Mg  Mg2  1  0.27421400  0.08502900  0.59102100  1
  Mg  Mg3  1  0.38796400  0.61203600  0.75000000  1
  Mg  Mg4  1  0.91497100  0.72578600  0.90897900  1
  Mg  Mg5  1  0.61203600  0.38796400  0.25000000  1
  Ti  Ti6  1  0.80658500  0.19341500  0.75000000  1
  Ti  Ti7  1  0.19341500  0.80658500  0.25000000  1
  Ti  Ti8  1  0.00000000  0.00000000  0.00000000  1
  Ti  Ti9  1  0.00000000  0.00000000  0.50000000  1
  Si  Si10  1  0.53120700  0.09761100  0.71445000  1
  Si  Si11  1  0.09761100  0.53120700  0.21445000  1
  Si  Si12  1  0.51856200  0.23873500  0.10633900  1
  Si  Si13  1  0.23873500  0.51856200  0.60633900  1
  Si  Si14  1  0.90238900  0.46879300  0.78555000  1
  Si  Si15  1  0.48143800  0.76126500  0.89366100  1
  Si  Si16  1  0.76126500  0.48143800  0.39366100  1
  Si  Si17  1  0.46879300  0.90238900  0.28555000  1
  O  O18  1  0.84885500  0.30031700  0.32168400  1
  O  O19  1  0.94897500  0.88718300  0.42141700  1
  O  O20  1  0.46264700  0.62973100  0.08466400  1
  O  O21  1  0.88718300  0.94897500  0.92141700  1
  O  O22  1  0.25739400  0.95034300  0.30675600  1
  O  O23  1  0.06904800  0.49949700  0.61746200  1
  O  O24  1  0.62973100  0.46264700  0.58466400  1
  O  O25  1  0.04965700  0.74260600  0.19324400  1
  O  O26  1  0.93095200  0.50050300  0.38253800  1
  O  O27  1  0.64445000  0.68038700  0.25266300  1
  O  O28  1  0.05102500  0.11281700  0.57858300  1
  O  O29  1  0.74260600  0.04965700  0.69324400  1
  O  O30  1  0.50050300  0.93095200  0.88253800  1
  O  O31  1  0.30031700  0.84885500  0.82168400  1
  O  O32  1  0.68038700  0.64445000  0.75266300  1
  O  O33  1  0.95034300  0.25739400  0.80675600  1
  O  O34  1  0.90808500  0.49480700  0.93486600  1
  O  O35  1  0.35555000  0.31961300  0.74733700  1
  O  O36  1  0.50519300  0.09191500  0.56513400  1
  O  O37  1  0.31961300  0.35555000  0.24733700  1
  O  O38  1  0.49949700  0.06904800  0.11746200  1
  O  O39  1  0.11281700  0.05102500  0.07858300  1
  O  O40  1  0.49480700  0.90808500  0.43486600  1
  O  O41  1  0.53735300  0.37026900  0.91533600  1
  O  O42  1  0.09191500  0.50519300  0.06513400  1
  O  O43  1  0.37026900  0.53735300  0.41533600  1
  O  O44  1  0.69968300  0.15114500  0.17831600  1
  O  O45  1  0.15114500  0.69968300  0.67831600  1
