# generated using pymatgen
data_Y4Si2Sb2W13O28
_symmetry_space_group_name_H-M   'P 1'
_cell_length_a   5.92012908
_cell_length_b   9.82200235
_cell_length_c   12.97934229
_cell_angle_alpha   88.52753060
_cell_angle_beta   80.36364991
_cell_angle_gamma   69.61107833
_symmetry_Int_Tables_number   1
_chemical_formula_structural   Y4Si2Sb2W13O28
_chemical_formula_sum   'Y4 Si2 Sb2 W13 O28'
_cell_volume   697.01657146
_cell_formula_units_Z   1
loop_
 _symmetry_equiv_pos_site_id
 _symmetry_equiv_pos_as_xyz
  1  'x, y, z'
loop_
 _atom_site_type_symbol
 _atom_site_label
 _atom_site_symmetry_multiplicity
 _atom_site_fract_x
 _atom_site_fract_y
 _atom_site_fract_z
 _atom_site_occupancy
  Y  Y0  1  0.01999400  0.67195800  0.42918500  1
  Y  Y1  1  0.54768800  0.32174500  0.42527800  1
  Y  Y2  1  0.98000600  0.32804200  0.57081500  1
  Y  Y3  1  0.45231200  0.67825500  0.57472200  1
  Si  Si4  1  0.15947900  0.28936000  0.00432200  1
  Si  Si5  1  0.84052100  0.71064000  0.99567800  1
  Sb  Sb6  1  0.88741700  0.95037800  0.27073600  1
  Sb  Sb7  1  0.11258300  0.04962200  0.72926400  1
  W  W8  1  0.87838700  0.64302200  0.72655900  1
  W  W9  1  0.58426700  0.34292900  0.14671400  1
  W  W10  1  0.42945500  0.37283900  0.73634400  1
  W  W11  1  0.12161300  0.35697800  0.27344100  1
  W  W12  1  0.41573300  0.65707100  0.85328600  1
  W  W13  1  0.27590500  0.99636700  0.42053600  1
  W  W14  1  0.10879800  0.68413100  0.16370700  1
  W  W15  1  0.00000000  0.00000000  0.00000000  1
  W  W16  1  0.47428300  0.99218400  0.15474800  1
  W  W17  1  0.89120200  0.31586900  0.83629300  1
  W  W18  1  0.57054500  0.62716100  0.26365600  1
  W  W19  1  0.52571700  0.00781600  0.84525200  1
  W  W20  1  0.72409500  0.00363300  0.57946400  1
  O  O21  1  0.74609500  0.38322500  0.26888100  1
  O  O22  1  0.14617700  0.40262700  0.42856800  1
  O  O23  1  0.85989600  0.33526600  0.00487500  1
  O  O24  1  0.27355000  0.10789400  0.00812400  1
  O  O25  1  0.85382300  0.59737300  0.57143200  1
  O  O26  1  0.25390500  0.61677500  0.73111900  1
  O  O27  1  0.91085200  0.14151700  0.48347100  1
  O  O28  1  0.08914800  0.85848300  0.51652900  1
  O  O29  1  0.72645000  0.89210600  0.99187600  1
  O  O30  1  0.18107200  0.90628500  0.13319900  1
  O  O31  1  0.22091300  0.36118200  0.10170100  1
  O  O32  1  0.94561100  0.58979500  0.28203900  1
  O  O33  1  0.59394600  0.86144500  0.49005000  1
  O  O34  1  0.65947400  0.12781400  0.09642200  1
  O  O35  1  0.74772300  0.67146500  0.11327800  1
  O  O36  1  0.14010400  0.66473400  0.99512500  1
  O  O37  1  0.34052600  0.87218600  0.90357800  1
  O  O38  1  0.81892800  0.09371500  0.86680100  1
  O  O39  1  0.40605400  0.13855500  0.50995000  1
  O  O40  1  0.27161900  0.12680300  0.28802000  1
  O  O41  1  0.72838100  0.87319700  0.71198000  1
  O  O42  1  0.25227700  0.32853500  0.88672200  1
  O  O43  1  0.54747400  0.14207400  0.71092500  1
  O  O44  1  0.57006200  0.41079300  0.57847700  1
  O  O45  1  0.77908700  0.63881800  0.89829900  1
  O  O46  1  0.45252600  0.85792600  0.28907500  1
  O  O47  1  0.05438900  0.41020500  0.71796100  1
  O  O48  1  0.42993800  0.58920700  0.42152300  1
