# generated using pymatgen
data_Ca2AlSnO5
_symmetry_space_group_name_H-M   'P 1'
_cell_length_a   5.69720100
_cell_length_b   6.08946712
_cell_length_c   8.44768613
_cell_angle_alpha   110.71104442
_cell_angle_beta   108.45107188
_cell_angle_gamma   91.10679273
_symmetry_Int_Tables_number   1
_chemical_formula_structural   Ca2AlSnO5
_chemical_formula_sum   'Ca4 Al2 Sn2 O10'
_cell_volume   257.18251113
_cell_formula_units_Z   2
loop_
 _symmetry_equiv_pos_site_id
 _symmetry_equiv_pos_as_xyz
  1  'x, y, z'
loop_
 _atom_site_type_symbol
 _atom_site_label
 _atom_site_symmetry_multiplicity
 _atom_site_fract_x
 _atom_site_fract_y
 _atom_site_fract_z
 _atom_site_occupancy
  Ca  Ca0  1  0.08137000  0.65433000  0.23716400  1
  Ca  Ca1  1  0.42660200  0.92468900  0.76344600  1
  Ca  Ca2  1  0.89977400  0.33432000  0.76046100  1
  Ca  Ca3  1  0.65652800  0.07328500  0.24328400  1
  Al  Al4  1  0.28148900  0.33172200  0.50989700  1
  Al  Al5  1  0.77664800  0.66165900  0.49409800  1
  Sn  Sn6  1  0.50052100  0.50185300  0.00003400  1
  Sn  Sn7  1  0.02489700  0.00190000  0.00526100  1
  O  O8  1  0.58776600  0.41150600  0.49443600  1
  O  O9  1  0.09456000  0.57777300  0.50987500  1
  O  O10  1  0.66684100  0.70970500  0.29033500  1
  O  O11  1  0.32466100  0.28288000  0.71211200  1
  O  O12  1  0.11022300  0.06878500  0.33159900  1
  O  O13  1  0.77570000  0.92579700  0.67025600  1
  O  O14  1  0.34944600  0.79918900  0.97435900  1
  O  O15  1  0.19539500  0.36906500  0.03032700  1
  O  O16  1  0.68306700  0.22254000  0.03398800  1
  O  O17  1  0.80228900  0.64452800  0.96555900  1
