# generated using pymatgen
data_Mn2Fe3(SiO4)3
_symmetry_space_group_name_H-M   'P 1'
_cell_length_a   10.30157690
_cell_length_b   10.30157806
_cell_length_c   10.30157809
_cell_angle_alpha   111.54451316
_cell_angle_beta   108.44462035
_cell_angle_gamma   108.44462863
_symmetry_Int_Tables_number   1
_chemical_formula_structural   Mn2Fe3(SiO4)3
_chemical_formula_sum   'Mn8 Fe12 Si12 O48'
_cell_volume   840.73849868
_cell_formula_units_Z   4
loop_
 _symmetry_equiv_pos_site_id
 _symmetry_equiv_pos_as_xyz
  1  'x, y, z'
loop_
 _atom_site_type_symbol
 _atom_site_label
 _atom_site_symmetry_multiplicity
 _atom_site_fract_x
 _atom_site_fract_y
 _atom_site_fract_z
 _atom_site_occupancy
  Mn  Mn0  1  0.00000000  0.00000000  0.50000000  1
  Mn  Mn1  1  0.50000000  0.50000000  0.50000000  1
  Mn  Mn2  1  0.00000000  0.00000000  0.00000000  1
  Mn  Mn3  1  0.50000000  0.00000000  0.00000000  1
  Mn  Mn4  1  0.50000000  0.00000000  0.50000000  1
  Mn  Mn5  1  0.00000000  0.50000000  0.50000000  1
  Mn  Mn6  1  0.50000000  0.50000000  0.00000000  1
  Mn  Mn7  1  0.00000000  0.50000000  0.00000000  1
  Fe  Fe8  1  0.37173400  0.12173400  0.25000000  1
  Fe  Fe9  1  0.37173400  0.75000000  0.12173400  1
  Fe  Fe10  1  0.62826600  0.25000000  0.87826600  1
  Fe  Fe11  1  0.12826600  0.37826600  0.75000000  1
  Fe  Fe12  1  0.25000000  0.87500000  0.62500000  1
  Fe  Fe13  1  0.87173400  0.75000000  0.62173400  1
  Fe  Fe14  1  0.87173400  0.62173400  0.25000000  1
  Fe  Fe15  1  0.62826600  0.87826600  0.75000000  1
  Fe  Fe16  1  0.75000000  0.12500000  0.37500000  1
  Fe  Fe17  1  0.75000000  0.62500000  0.87500000  1
  Fe  Fe18  1  0.25000000  0.37500000  0.12500000  1
  Fe  Fe19  1  0.12826600  0.25000000  0.37826600  1
  Si  Si20  1  0.12564500  0.87564500  0.25000000  1
  Si  Si21  1  0.87435500  0.12435500  0.75000000  1
  Si  Si22  1  0.62564500  0.75000000  0.37564500  1
  Si  Si23  1  0.75000000  0.37500000  0.62500000  1
  Si  Si24  1  0.25000000  0.62500000  0.37500000  1
  Si  Si25  1  0.37435500  0.62435500  0.75000000  1
  Si  Si26  1  0.75000000  0.87500000  0.12500000  1
  Si  Si27  1  0.37435500  0.25000000  0.62435500  1
  Si  Si28  1  0.87435500  0.25000000  0.12435500  1
  Si  Si29  1  0.25000000  0.12500000  0.87500000  1
  Si  Si30  1  0.62564500  0.37564500  0.25000000  1
  Si  Si31  1  0.12564500  0.75000000  0.87564500  1
  O  O32  1  0.62161400  0.40692000  0.10336800  1
  O  O33  1  0.80355200  0.51824600  0.39663200  1
  O  O34  1  0.41544000  0.10467000  0.61906000  1
  O  O35  1  0.58456000  0.89533000  0.38094000  1
  O  O36  1  0.37838600  0.28530500  0.48175400  1
  O  O37  1  0.37838600  0.59308000  0.89663200  1
  O  O38  1  0.19644800  0.21469500  0.59308000  1
  O  O39  1  0.89461400  0.02229400  0.30675700  1
  O  O40  1  0.28446300  0.47770600  0.37232000  1
  O  O41  1  0.98561000  0.68923000  0.10467000  1
  O  O42  1  0.48561000  0.38094000  0.29637900  1
  O  O43  1  0.21553700  0.12768000  0.02229400  1
  O  O44  1  0.01439000  0.20362100  0.11906000  1
  O  O45  1  0.08456000  0.88094000  0.39533000  1
  O  O46  1  0.91544000  0.29637900  0.31077000  1
  O  O47  1  0.78446300  0.41214400  0.80675700  1
  O  O48  1  0.87838600  0.39663200  0.09308000  1
  O  O49  1  0.28446300  0.30675700  0.91214400  1
  O  O50  1  0.62161400  0.71469500  0.51824600  1
  O  O51  1  0.30355200  0.89663200  0.01824600  1
  O  O52  1  0.10538600  0.62768000  0.41214400  1
  O  O53  1  0.30355200  0.90692000  0.28530500  1
  O  O54  1  0.12161400  0.01824600  0.21469500  1
  O  O55  1  0.78446300  0.87232000  0.97770600  1
  O  O56  1  0.60538600  0.19324300  0.47770600  1
  O  O57  1  0.41544000  0.81077000  0.79637900  1
  O  O58  1  0.51439000  0.61906000  0.70362100  1
  O  O59  1  0.51439000  0.39533000  0.81077000  1
  O  O60  1  0.69644800  0.09308000  0.71469500  1
  O  O61  1  0.08456000  0.70362100  0.68923000  1
  O  O62  1  0.39461400  0.80675700  0.52229400  1
  O  O63  1  0.87838600  0.98175400  0.78530500  1
  O  O64  1  0.69644800  0.10336800  0.98175400  1
  O  O65  1  0.80355200  0.78530500  0.40692000  1
  O  O66  1  0.71553700  0.52229400  0.62768000  1
  O  O67  1  0.19644800  0.48175400  0.60336800  1
  O  O68  1  0.48561000  0.60467000  0.18923000  1
  O  O69  1  0.89461400  0.37232000  0.58785600  1
  O  O70  1  0.58456000  0.18923000  0.20362100  1
  O  O71  1  0.21553700  0.58785600  0.19324300  1
  O  O72  1  0.98561000  0.79637900  0.88094000  1
  O  O73  1  0.91544000  0.11906000  0.60467000  1
  O  O74  1  0.71553700  0.69324300  0.08785600  1
  O  O75  1  0.12161400  0.60336800  0.90692000  1
  O  O76  1  0.60538600  0.91214400  0.12768000  1
  O  O77  1  0.01439000  0.31077000  0.89533000  1
  O  O78  1  0.39461400  0.08785600  0.87232000  1
  O  O79  1  0.10538600  0.97770600  0.69324300  1
