# generated using pymatgen
data_Al5(CoO4)3
_symmetry_space_group_name_H-M   'P 1'
_cell_length_a   5.75412502
_cell_length_b   5.75412502
_cell_length_c   13.98996183
_cell_angle_alpha   89.33604833
_cell_angle_beta   89.33604833
_cell_angle_gamma   59.87343841
_symmetry_Int_Tables_number   1
_chemical_formula_structural   Al5(CoO4)3
_chemical_formula_sum   'Al10 Co6 O24'
_cell_volume   400.60064040
_cell_formula_units_Z   2
loop_
 _symmetry_equiv_pos_site_id
 _symmetry_equiv_pos_as_xyz
  1  'x, y, z'
loop_
 _atom_site_type_symbol
 _atom_site_label
 _atom_site_symmetry_multiplicity
 _atom_site_fract_x
 _atom_site_fract_y
 _atom_site_fract_z
 _atom_site_occupancy
  Al  Al0  1  0.33879500  0.33879500  0.16487600  1
  Al  Al1  1  0.66120500  0.66120500  0.83512400  1
  Al  Al2  1  0.16542100  0.67082500  0.33753000  1
  Al  Al3  1  0.50000000  0.00000000  0.00000000  1
  Al  Al4  1  0.83457900  0.32917500  0.66247000  1
  Al  Al5  1  0.67082500  0.16542100  0.33753000  1
  Al  Al6  1  0.00000000  0.50000000  0.00000000  1
  Al  Al7  1  0.32917500  0.83457900  0.66247000  1
  Al  Al8  1  0.16322400  0.16322400  0.33639200  1
  Al  Al9  1  0.83677600  0.83677600  0.66360800  1
  Co  Co10  1  0.33357800  0.33357800  0.54522200  1
  Co  Co11  1  0.67154000  0.67154000  0.20734300  1
  Co  Co12  1  0.00953300  0.00953300  0.88047200  1
  Co  Co13  1  0.66642200  0.66642200  0.45477800  1
  Co  Co14  1  0.99046700  0.99046700  0.11952800  1
  Co  Co15  1  0.32846000  0.32846000  0.79265700  1
  O  O16  1  0.99976400  0.99976400  0.26087700  1
  O  O17  1  0.32266800  0.32266800  0.92252100  1
  O  O18  1  0.66838700  0.66838700  0.59413600  1
  O  O19  1  0.48281200  0.48281200  0.25212800  1
  O  O20  1  0.81650500  0.81650500  0.92141500  1
  O  O21  1  0.16225700  0.16225700  0.59700600  1
  O  O22  1  0.32542400  0.83456500  0.40158300  1
  O  O23  1  0.64010200  0.15975700  0.08551800  1
  O  O24  1  0.96240500  0.51981400  0.74620500  1
  O  O25  1  0.83456500  0.32542400  0.40158300  1
  O  O26  1  0.15975700  0.64010200  0.08551800  1
  O  O27  1  0.51981400  0.96240500  0.74620500  1
  O  O28  1  0.48018600  0.03759500  0.25379500  1
  O  O29  1  0.84024300  0.35989800  0.91448200  1
  O  O30  1  0.16543500  0.67457600  0.59841700  1
  O  O31  1  0.03759500  0.48018600  0.25379500  1
  O  O32  1  0.35989800  0.84024300  0.91448200  1
  O  O33  1  0.67457600  0.16543500  0.59841700  1
  O  O34  1  0.83774300  0.83774300  0.40299400  1
  O  O35  1  0.18349500  0.18349500  0.07858500  1
  O  O36  1  0.51718800  0.51718800  0.74787200  1
  O  O37  1  0.33161300  0.33161300  0.40586400  1
  O  O38  1  0.67733200  0.67733200  0.07747900  1
  O  O39  1  0.00023600  0.00023600  0.73912300  1
