# generated using pymatgen
data_SiO2
_symmetry_space_group_name_H-M   'P 1'
_cell_length_a   13.09757197
_cell_length_b   11.28942208
_cell_length_c   9.42960615
_cell_angle_alpha   93.32063452
_cell_angle_beta   106.51301633
_cell_angle_gamma   103.52394241
_symmetry_Int_Tables_number   1
_chemical_formula_structural   SiO2
_chemical_formula_sum   'Si20 O40'
_cell_volume   1288.10149621
_cell_formula_units_Z   20
loop_
 _symmetry_equiv_pos_site_id
 _symmetry_equiv_pos_as_xyz
  1  'x, y, z'
loop_
 _atom_site_type_symbol
 _atom_site_label
 _atom_site_symmetry_multiplicity
 _atom_site_fract_x
 _atom_site_fract_y
 _atom_site_fract_z
 _atom_site_occupancy
  Si  Si0  1  0.26528500  0.49591500  0.22928000  1
  Si  Si1  1  0.73253200  0.48949500  0.77193600  1
  Si  Si2  1  0.25941100  0.54315600  0.91072600  1
  Si  Si3  1  0.73839500  0.44225300  0.09048000  1
  Si  Si4  1  0.31577800  0.37721000  0.68648100  1
  Si  Si5  1  0.68202700  0.60819400  0.31472500  1
  Si  Si6  1  0.12344900  0.41781800  0.42738400  1
  Si  Si7  1  0.87438800  0.56760000  0.57381900  1
  Si  Si8  1  0.40785100  0.14098200  0.73567900  1
  Si  Si9  1  0.58996700  0.84443100  0.26549800  1
  Si  Si10  1  0.32551000  0.86331800  0.66050500  1
  Si  Si11  1  0.67231800  0.12212200  0.34068200  1
  Si  Si12  1  0.12366000  0.64538600  0.63784300  1
  Si  Si13  1  0.87417500  0.34004900  0.36336400  1
  Si  Si14  1  0.47436900  0.38419800  0.29951400  1
  Si  Si15  1  0.52343400  0.60122200  0.70168400  1
  Si  Si16  1  0.46320200  0.75870600  0.93141900  1
  Si  Si17  1  0.53458800  0.22669900  0.06976900  1
  Si  Si18  1  0.42119600  0.73788400  0.43648200  1
  Si  Si19  1  0.57660600  0.24754000  0.56469100  1
  O  O20  1  0.21948400  0.50019800  0.05112700  1
  O  O21  1  0.77832700  0.48519600  0.95007900  1
  O  O22  1  0.35722300  0.41771800  0.26969000  1
  O  O23  1  0.64058000  0.56768200  0.73153500  1
  O  O24  1  0.31983900  0.63388300  0.31991400  1
  O  O25  1  0.67795700  0.35154500  0.68126200  1
  O  O26  1  0.15740700  0.42965700  0.27528000  1
  O  O27  1  0.84039300  0.55576300  0.72590400  1
  O  O28  1  0.37008700  0.65644200  0.97353600  1
  O  O29  1  0.62771600  0.32896700  0.02767100  1
  O  O30  1  0.16370500  0.58937800  0.79382600  1
  O  O31  1  0.83413200  0.39609000  0.20740000  1
  O  O32  1  0.28713700  0.42747500  0.83208900  1
  O  O33  1  0.71064800  0.55791500  0.16910900  1
  O  O34  1  0.34044400  0.24485300  0.70557300  1
  O  O35  1  0.65737300  0.74056100  0.29563200  1
  O  O36  1  0.42232600  0.47665400  0.66788700  1
  O  O37  1  0.57547300  0.50875400  0.33330200  1
  O  O38  1  0.20900500  0.35695200  0.54034000  1
  O  O39  1  0.78880100  0.62842600  0.46085200  1
  O  O40  1  0.12962500  0.55440500  0.50163800  1
  O  O41  1  0.86821100  0.43100700  0.49959500  1
  O  O42  1  0.99932200  0.32923200  0.38894200  1
  O  O43  1  0.99851100  0.65620700  0.61227000  1
  O  O44  1  0.32388600  0.00673900  0.66364100  1
  O  O45  1  0.67392600  0.97868700  0.33754900  1
  O  O46  1  0.50601200  0.16570200  0.65799800  1
  O  O47  1  0.49180800  0.81970000  0.34318700  1
  O  O48  1  0.45572200  0.14185600  0.91557100  1
  O  O49  1  0.54207200  0.84354000  0.08561700  1
  O  O50  1  0.40803600  0.84537200  0.81847900  1
  O  O51  1  0.58978100  0.14004400  0.18270800  1
  O  O52  1  0.20106800  0.78122300  0.64050600  1
  O  O53  1  0.79675900  0.20421300  0.36068500  1
  O  O54  1  0.36907700  0.82478800  0.52359700  1
  O  O55  1  0.62875100  0.16066400  0.47758700  1
  O  O56  1  0.46655800  0.29756200  0.15032500  1
  O  O57  1  0.53123400  0.68782500  0.85088800  1
  O  O58  1  0.49581800  0.31074500  0.44457800  1
  O  O59  1  0.50198300  0.67468700  0.55662700  1
