# generated using pymatgen
data_Sr2AlCu3O7
_symmetry_space_group_name_H-M   'P 1'
_cell_length_a   5.35707926
_cell_length_b   5.30909386
_cell_length_c   12.05908612
_cell_angle_alpha   102.69927583
_cell_angle_beta   102.81213877
_cell_angle_gamma   90.08469456
_symmetry_Int_Tables_number   1
_chemical_formula_structural   Sr2AlCu3O7
_chemical_formula_sum   'Sr4 Al2 Cu6 O14'
_cell_volume   325.79973734
_cell_formula_units_Z   2
loop_
 _symmetry_equiv_pos_site_id
 _symmetry_equiv_pos_as_xyz
  1  'x, y, z'
loop_
 _atom_site_type_symbol
 _atom_site_label
 _atom_site_symmetry_multiplicity
 _atom_site_fract_x
 _atom_site_fract_y
 _atom_site_fract_z
 _atom_site_occupancy
  Sr  Sr0  1  0.33484624  0.34661602  0.69835552  1
  Sr  Sr1  1  0.63969963  0.65732744  0.30238629  1
  Sr  Sr2  1  0.83494598  0.85438171  0.69827679  1
  Sr  Sr3  1  0.14021081  0.15105565  0.30216781  1
  Al  Al4  1  0.98549970  0.00230076  0.00015179  1
  Al  Al5  1  0.48252281  0.49606699  0.00046646  1
  Cu  Cu6  1  0.25928570  0.69830212  0.50035727  1
  Cu  Cu7  1  0.75908666  0.30466172  0.50020700  1
  Cu  Cu8  1  0.92160701  0.44047625  0.87952978  1
  Cu  Cu9  1  0.04613178  0.56297480  0.12129827  1
  Cu  Cu10  1  0.42249870  0.93781412  0.87942787  1
  Cu  Cu11  1  0.54770323  0.06126548  0.12129479  1
  O  O12  1  0.10237285  0.36014260  0.50015726  1
  O  O13  1  0.60222270  0.64127226  0.50009220  1
  O  O14  1  0.24918033  0.26640846  0.88965078  1
  O  O15  1  0.36353632  0.73314738  0.10961853  1
  O  O16  1  0.75013558  0.12291961  0.89111955  1
  O  O17  1  0.86562856  0.88145052  0.11092369  1
  O  O18  1  0.60573624  0.62183546  0.89212160  1
  O  O19  1  0.71879666  0.37925853  0.11017294  1
  O  O20  1  0.10494542  0.76858535  0.89060624  1
  O  O21  1  0.22005890  0.23455851  0.10850146  1
  O  O22  1  0.31228204  0.83410520  0.66167777  1
  O  O23  1  0.65191435  0.16825794  0.33848900  1
  O  O24  1  0.81138320  0.32882478  0.66142684  1
  O  O25  1  0.15241161  0.67425135  0.33881048  1
