# generated using pymatgen
data_AlCu3(BiO3)4
_symmetry_space_group_name_H-M   'P 1'
_cell_length_a   7.10661486
_cell_length_b   7.10661486
_cell_length_c   7.10661486
_cell_angle_alpha   109.47122063
_cell_angle_beta   109.47122063
_cell_angle_gamma   109.47122063
_symmetry_Int_Tables_number   1
_chemical_formula_structural   AlCu3(BiO3)4
_chemical_formula_sum   'Al1 Cu3 Bi4 O12'
_cell_volume   276.29081500
_cell_formula_units_Z   1
loop_
 _symmetry_equiv_pos_site_id
 _symmetry_equiv_pos_as_xyz
  1  'x, y, z'
loop_
 _atom_site_type_symbol
 _atom_site_label
 _atom_site_symmetry_multiplicity
 _atom_site_fract_x
 _atom_site_fract_y
 _atom_site_fract_z
 _atom_site_occupancy
  Al  Al0  1  0.00000000  0.00000000  0.00000000  1
  Cu  Cu1  1  0.00000000  0.50000000  0.50000000  1
  Cu  Cu2  1  0.50000000  0.50000000  0.00000000  1
  Cu  Cu3  1  0.50000000  0.00000000  0.50000000  1
  Bi  Bi4  1  0.50000000  0.00000000  0.00000000  1
  Bi  Bi5  1  0.50000000  0.50000000  0.50000000  1
  Bi  Bi6  1  0.00000000  0.50000000  0.00000000  1
  Bi  Bi7  1  0.00000000  0.00000000  0.50000000  1
  O  O8  1  0.32594900  0.84407800  0.17002700  1
  O  O9  1  0.67405100  0.15592200  0.82997300  1
  O  O10  1  0.67405100  0.84407800  0.51812900  1
  O  O11  1  0.82997300  0.67405100  0.15592200  1
  O  O12  1  0.84407800  0.17002700  0.32594900  1
  O  O13  1  0.15592200  0.48187100  0.32594900  1
  O  O14  1  0.48187100  0.32594900  0.15592200  1
  O  O15  1  0.15592200  0.82997300  0.67405100  1
  O  O16  1  0.32594900  0.15592200  0.48187100  1
  O  O17  1  0.17002700  0.32594900  0.84407800  1
  O  O18  1  0.84407800  0.51812900  0.67405100  1
  O  O19  1  0.51812900  0.67405100  0.84407800  1
