# generated using pymatgen
data_NaAl3
_symmetry_space_group_name_H-M   'P 1'
_cell_length_a   4.77830931
_cell_length_b   4.77830931
_cell_length_c   4.77830931
_cell_angle_alpha   119.53586173
_cell_angle_beta   119.53586173
_cell_angle_gamma   90.80580876
_symmetry_Int_Tables_number   1
_chemical_formula_structural   NaAl3
_chemical_formula_sum   'Na1 Al3'
_cell_volume   77.67788883
_cell_formula_units_Z   1
loop_
 _symmetry_equiv_pos_site_id
 _symmetry_equiv_pos_as_xyz
  1  'x, y, z'
loop_
 _atom_site_type_symbol
 _atom_site_label
 _atom_site_symmetry_multiplicity
 _atom_site_fract_x
 _atom_site_fract_y
 _atom_site_fract_z
 _atom_site_occupancy
  Na  Na0  1  0.00000000  0.00000000  0.00000000  1
  Al  Al1  1  0.75000100  0.25000100  0.50000000  1
  Al  Al2  1  0.25000100  0.75000100  0.50000000  1
  Al  Al3  1  0.50000000  0.50000000  0.00000000  1
