# generated using pymatgen
data_AlAgO3
_symmetry_space_group_name_H-M   'P 1'
_cell_length_a   4.31310020
_cell_length_b   5.74012317
_cell_length_c   10.01382801
_cell_angle_alpha   90.00515801
_cell_angle_beta   89.99911500
_cell_angle_gamma   89.96925874
_symmetry_Int_Tables_number   1
_chemical_formula_structural   AlAgO3
_chemical_formula_sum   'Al4 Ag4 O12'
_cell_volume   247.91957719
_cell_formula_units_Z   4
loop_
 _symmetry_equiv_pos_site_id
 _symmetry_equiv_pos_as_xyz
  1  'x, y, z'
loop_
 _atom_site_type_symbol
 _atom_site_label
 _atom_site_symmetry_multiplicity
 _atom_site_fract_x
 _atom_site_fract_y
 _atom_site_fract_z
 _atom_site_occupancy
  Al  Al0  1  0.97212100  0.17653200  0.74999300  1
  Al  Al1  1  0.47197200  0.32360900  0.24999700  1
  Al  Al2  1  0.52771800  0.67646200  0.75000200  1
  Al  Al3  1  0.02811300  0.82357100  0.25000400  1
  Ag  Ag4  1  0.99996200  0.49989200  0.50000200  1
  Ag  Ag5  1  0.50004700  0.99990300  0.49997400  1
  Ag  Ag6  1  0.50003500  0.99990500  0.00002800  1
  Ag  Ag7  1  0.99998300  0.49989000  0.00001000  1
  O  O8  1  0.68684700  0.28730500  0.40366900  1
  O  O9  1  0.18646900  0.21267600  0.59634300  1
  O  O10  1  0.81353100  0.78727400  0.09638000  1
  O  O11  1  0.31338500  0.71253100  0.90369500  1
  O  O12  1  0.31311600  0.71267400  0.59635200  1
  O  O13  1  0.81352500  0.78728800  0.40366900  1
  O  O14  1  0.18646800  0.21267600  0.90360600  1
  O  O15  1  0.68662800  0.28743300  0.09628200  1
  O  O16  1  0.27223000  0.06082900  0.24996100  1
  O  O17  1  0.77258300  0.43941300  0.74991400  1
  O  O18  1  0.22798500  0.56072400  0.25008200  1
  O  O19  1  0.72728500  0.93941000  0.75003900  1
