# generated using pymatgen
data_TiAlF5
_symmetry_space_group_name_H-M   'P 1'
_cell_length_a   5.31162765
_cell_length_b   5.31162765
_cell_length_c   5.31162765
_cell_angle_alpha   140.07285312
_cell_angle_beta   106.62634703
_cell_angle_gamma   86.96246481
_symmetry_Int_Tables_number   1
_chemical_formula_structural   TiAlF5
_chemical_formula_sum   'Ti1 Al1 F5'
_cell_volume   88.72116148
_cell_formula_units_Z   1
loop_
 _symmetry_equiv_pos_site_id
 _symmetry_equiv_pos_as_xyz
  1  'x, y, z'
loop_
 _atom_site_type_symbol
 _atom_site_label
 _atom_site_symmetry_multiplicity
 _atom_site_fract_x
 _atom_site_fract_y
 _atom_site_fract_z
 _atom_site_occupancy
  Ti  Ti0  1  0.00000000  0.00000000  0.00000000  1
  Al  Al1  1  0.50000000  0.50000000  0.00000000  1
  F  F2  1  0.79264700  0.50000000  0.29264700  1
  F  F3  1  0.20735300  0.50000000  0.70735300  1
  F  F4  1  0.26726200  0.26726200  0.00000000  1
  F  F5  1  0.73273800  0.73273800  0.00000000  1
  F  F6  1  0.50000000  0.00000000  0.50000000  1
