# generated using pymatgen
data_Si2Sn13(SbO14)2
_symmetry_space_group_name_H-M   'P 1'
_cell_length_a   6.84451000
_cell_length_b   9.81108359
_cell_length_c   11.45896207
_cell_angle_alpha   86.71606429
_cell_angle_beta   78.70763012
_cell_angle_gamma   76.20512759
_symmetry_Int_Tables_number   1
_chemical_formula_structural   Si2Sn13(SbO14)2
_chemical_formula_sum   'Si2 Sn13 Sb2 O28'
_cell_volume   732.78491105
_cell_formula_units_Z   1
loop_
 _symmetry_equiv_pos_site_id
 _symmetry_equiv_pos_as_xyz
  1  'x, y, z'
loop_
 _atom_site_type_symbol
 _atom_site_label
 _atom_site_symmetry_multiplicity
 _atom_site_fract_x
 _atom_site_fract_y
 _atom_site_fract_z
 _atom_site_occupancy
  Si  Si0  1  0.78985000  0.71878600  0.98503900  1
  Si  Si1  1  0.21015000  0.28121400  0.01496100  1
  Sn  Sn2  1  0.28940300  0.36675700  0.72528600  1
  Sn  Sn3  1  0.23804100  0.66594900  0.20429900  1
  Sn  Sn4  1  0.95274800  0.64973300  0.69707300  1
  Sn  Sn5  1  0.71059700  0.63324300  0.27471400  1
  Sn  Sn6  1  0.76195900  0.33405100  0.79570100  1
  Sn  Sn7  1  0.29060100  0.08878100  0.43192300  1
  Sn  Sn8  1  0.66917500  0.33732800  0.12216700  1
  Sn  Sn9  1  0.00000000  0.00000000  0.00000000  1
  Sn  Sn10  1  0.47689800  0.98037500  0.17278800  1
  Sn  Sn11  1  0.33082500  0.66267200  0.87783300  1
  Sn  Sn12  1  0.04725200  0.35026700  0.30292700  1
  Sn  Sn13  1  0.52310200  0.01962500  0.82721200  1
  Sn  Sn14  1  0.70939900  0.91121900  0.56807700  1
  Sb  Sb15  1  0.87547000  0.99282500  0.30075500  1
  Sb  Sb16  1  0.12453000  0.00717500  0.69924500  1
  O  O17  1  0.99100800  0.57294300  0.32126800  1
  O  O18  1  0.41260200  0.68738400  0.32923500  1
  O  O19  1  0.01591700  0.75074700  0.97202500  1
  O  O20  1  0.61344200  0.87309000  0.00752600  1
  O  O21  1  0.58739800  0.31261600  0.67076500  1
  O  O22  1  0.00899200  0.42705700  0.67873200  1
  O  O23  1  0.38168500  0.93709000  0.57047600  1
  O  O24  1  0.61831500  0.06291000  0.42952400  1
  O  O25  1  0.38655800  0.12691000  0.99247400  1
  O  O26  1  0.71894300  0.10384100  0.17741800  1
  O  O27  1  0.73742200  0.61126000  0.09528400  1
  O  O28  1  0.75088000  0.40894800  0.27887600  1
  O  O29  1  0.03877200  0.12613100  0.56665900  1
  O  O30  1  0.12699000  0.89870500  0.18426500  1
  O  O31  1  0.22319500  0.34936800  0.14037000  1
  O  O32  1  0.98408300  0.24925300  0.02797500  1
  O  O33  1  0.87301000  0.10129500  0.81573500  1
  O  O34  1  0.28105700  0.89615900  0.82258200  1
  O  O35  1  0.96122800  0.87386900  0.43334100  1
  O  O36  1  0.72890700  0.84496200  0.25133700  1
  O  O37  1  0.27109300  0.15503800  0.74866300  1
  O  O38  1  0.77680500  0.65063200  0.85963000  1
  O  O39  1  0.96435900  0.86485400  0.67796300  1
  O  O40  1  0.73163200  0.70518400  0.60360800  1
  O  O41  1  0.26257800  0.38874000  0.90471600  1
  O  O42  1  0.03564100  0.13514600  0.32203700  1
  O  O43  1  0.24912000  0.59105200  0.72112400  1
  O  O44  1  0.26836800  0.29481600  0.39639200  1
