# generated using pymatgen
data_Ba2AlAg3O8
_symmetry_space_group_name_H-M   'P 1'
_cell_length_a   4.01683400
_cell_length_b   4.01683400
_cell_length_c   12.67977400
_cell_angle_alpha   90.00000000
_cell_angle_beta   90.00000000
_cell_angle_gamma   90.00000000
_symmetry_Int_Tables_number   1
_chemical_formula_structural   Ba2AlAg3O8
_chemical_formula_sum   'Ba2 Al1 Ag3 O8'
_cell_volume   204.58758776
_cell_formula_units_Z   1
loop_
 _symmetry_equiv_pos_site_id
 _symmetry_equiv_pos_as_xyz
  1  'x, y, z'
loop_
 _atom_site_type_symbol
 _atom_site_label
 _atom_site_symmetry_multiplicity
 _atom_site_fract_x
 _atom_site_fract_y
 _atom_site_fract_z
 _atom_site_occupancy
  Ba  Ba0  1  0.50000000  0.50000000  0.15830500  1
  Ba  Ba1  1  0.50000000  0.50000000  0.84169500  1
  Al  Al2  1  0.50000000  0.50000000  0.50000000  1
  Ag  Ag3  1  0.00000000  0.00000000  0.35814300  1
  Ag  Ag4  1  0.00000000  0.00000000  0.00000000  1
  Ag  Ag5  1  0.00000000  0.00000000  0.64185700  1
  O  O6  1  0.00000000  0.50000000  0.40556000  1
  O  O7  1  0.50000000  0.00000000  0.40556000  1
  O  O8  1  0.50000000  0.00000000  0.00000000  1
  O  O9  1  0.00000000  0.00000000  0.16662700  1
  O  O10  1  0.00000000  0.50000000  0.59444000  1
  O  O11  1  0.50000000  0.00000000  0.59444000  1
  O  O12  1  0.00000000  0.00000000  0.83337300  1
  O  O13  1  0.00000000  0.50000000  0.00000000  1
