# generated using pymatgen
data_Ba2AlFe3O7
_symmetry_space_group_name_H-M   'P 1'
_cell_length_a   3.76963203
_cell_length_b   4.74795578
_cell_length_c   10.86681465
_cell_angle_alpha   95.72379172
_cell_angle_beta   88.38055509
_cell_angle_gamma   91.92090023
_symmetry_Int_Tables_number   1
_chemical_formula_structural   Ba2AlFe3O7
_chemical_formula_sum   'Ba2 Al1 Fe3 O7'
_cell_volume   193.35556933
_cell_formula_units_Z   1
loop_
 _symmetry_equiv_pos_site_id
 _symmetry_equiv_pos_as_xyz
  1  'x, y, z'
loop_
 _atom_site_type_symbol
 _atom_site_label
 _atom_site_symmetry_multiplicity
 _atom_site_fract_x
 _atom_site_fract_y
 _atom_site_fract_z
 _atom_site_occupancy
  Ba  Ba0  1  0.51745200  0.45841300  0.81241900  1
  Ba  Ba1  1  0.49055800  0.55941400  0.17658000  1
  Al  Al2  1  0.35686300  0.50308000  0.50142800  1
  Fe  Fe3  1  0.01226400  0.92061400  0.63257300  1
  Fe  Fe4  1  0.97278900  0.07721800  0.35737700  1
  Fe  Fe5  1  0.00193100  0.03566300  0.99424300  1
  O  O6  1  0.00588200  0.45205800  0.99564900  1
  O  O7  1  0.51738900  0.76717000  0.62031200  1
  O  O8  1  0.49858200  0.26240100  0.37705000  1
  O  O9  1  0.07835200  0.30580100  0.60561900  1
  O  O10  1  0.04921100  0.73334300  0.44354700  1
  O  O11  1  0.00121600  0.92982600  0.81465200  1
  O  O12  1  0.99751200  0.99500100  0.16854800  1
