# generated using pymatgen
data_BaAlCu2O5
_symmetry_space_group_name_H-M   'P 1'
_cell_length_a   3.71036100
_cell_length_b   3.71036100
_cell_length_c   7.74309700
_cell_angle_alpha   90.00000000
_cell_angle_beta   90.00000000
_cell_angle_gamma   90.00000000
_symmetry_Int_Tables_number   1
_chemical_formula_structural   BaAlCu2O5
_chemical_formula_sum   'Ba1 Al1 Cu2 O5'
_cell_volume   106.59750324
_cell_formula_units_Z   1
loop_
 _symmetry_equiv_pos_site_id
 _symmetry_equiv_pos_as_xyz
  1  'x, y, z'
loop_
 _atom_site_type_symbol
 _atom_site_label
 _atom_site_symmetry_multiplicity
 _atom_site_fract_x
 _atom_site_fract_y
 _atom_site_fract_z
 _atom_site_occupancy
  Ba  Ba0  1  0.50000000  0.50000000  0.97887100  1
  Al  Al1  1  0.50000000  0.50000000  0.47003800  1
  Cu  Cu2  1  0.00000000  0.00000000  0.68788500  1
  Cu  Cu3  1  0.00000000  0.00000000  0.24570100  1
  O  O4  1  0.50000000  0.00000000  0.61657500  1
  O  O5  1  0.00000000  0.50000000  0.61657500  1
  O  O6  1  0.50000000  0.00000000  0.30614400  1
  O  O7  1  0.00000000  0.50000000  0.30614400  1
  O  O8  1  0.00000000  0.00000000  0.95997500  1
