# generated using pymatgen
data_Al(FeO2)3
_symmetry_space_group_name_H-M   'P 1'
_cell_length_a   5.95108543
_cell_length_b   5.95108543
_cell_length_c   14.62563000
_cell_angle_alpha   90.00000000
_cell_angle_beta   90.00000000
_cell_angle_gamma   119.99999368
_symmetry_Int_Tables_number   1
_chemical_formula_structural   Al(FeO2)3
_chemical_formula_sum   'Al4 Fe12 O24'
_cell_volume   448.57762947
_cell_formula_units_Z   4
loop_
 _symmetry_equiv_pos_site_id
 _symmetry_equiv_pos_as_xyz
  1  'x, y, z'
loop_
 _atom_site_type_symbol
 _atom_site_label
 _atom_site_symmetry_multiplicity
 _atom_site_fract_x
 _atom_site_fract_y
 _atom_site_fract_z
 _atom_site_occupancy
  Al  Al0  1  0.33333300  0.66666700  0.45332300  1
  Al  Al1  1  0.00000000  0.00000000  0.12963800  1
  Al  Al2  1  0.00000000  0.00000000  0.87036200  1
  Al  Al3  1  0.66666700  0.33333300  0.54667700  1
  Fe  Fe4  1  0.50000000  0.50000000  0.00000000  1
  Fe  Fe5  1  0.16953000  0.83047000  0.66852500  1
  Fe  Fe6  1  0.83047000  0.16953000  0.33147500  1
  Fe  Fe7  1  0.50000000  0.00000000  0.00000000  1
  Fe  Fe8  1  0.16953000  0.33906100  0.66852500  1
  Fe  Fe9  1  0.83047000  0.66093900  0.33147500  1
  Fe  Fe10  1  0.33333300  0.66666700  0.82746800  1
  Fe  Fe11  1  0.00000000  0.00000000  0.50000000  1
  Fe  Fe12  1  0.66666700  0.33333300  0.17253200  1
  Fe  Fe13  1  0.00000000  0.50000000  0.00000000  1
  Fe  Fe14  1  0.66093900  0.83047000  0.66852500  1
  Fe  Fe15  1  0.33906100  0.16953000  0.33147500  1
  O  O16  1  0.66666700  0.33333300  0.94003500  1
  O  O17  1  0.33333300  0.66666700  0.57734300  1
  O  O18  1  0.00000000  0.00000000  0.25563400  1
  O  O19  1  0.66466500  0.83233200  0.91336800  1
  O  O20  1  0.32372400  0.16186200  0.58228300  1
  O  O21  1  0.96671400  0.48335700  0.25971600  1
  O  O22  1  0.16766800  0.83233200  0.91336800  1
  O  O23  1  0.83813800  0.16186200  0.58228300  1
  O  O24  1  0.51664300  0.48335700  0.25971600  1
  O  O25  1  0.16766800  0.33533500  0.91336800  1
  O  O26  1  0.83813800  0.67627600  0.58228300  1
  O  O27  1  0.51664300  0.03328600  0.25971600  1
  O  O28  1  0.03328600  0.51664300  0.74028400  1
  O  O29  1  0.67627600  0.83813800  0.41771700  1
  O  O30  1  0.33533500  0.16766800  0.08663200  1
  O  O31  1  0.00000000  0.00000000  0.74436600  1
  O  O32  1  0.66666700  0.33333300  0.42265700  1
  O  O33  1  0.33333300  0.66666700  0.05996500  1
  O  O34  1  0.48335700  0.51664300  0.74028400  1
  O  O35  1  0.16186200  0.83813800  0.41771700  1
  O  O36  1  0.83233200  0.16766800  0.08663200  1
  O  O37  1  0.48335700  0.96671400  0.74028400  1
  O  O38  1  0.16186200  0.32372400  0.41771700  1
  O  O39  1  0.83233200  0.66466500  0.08663200  1
