# generated using pymatgen
data_Na20Zr11Si10(PO9)8
_symmetry_space_group_name_H-M   'P 1'
_cell_length_a   9.14024440
_cell_length_b   9.18341641
_cell_length_c   28.17495255
_cell_angle_alpha   60.55753412
_cell_angle_beta   60.74741732
_cell_angle_gamma   60.00666854
_symmetry_Int_Tables_number   1
_chemical_formula_structural   Na20Zr11Si10(PO9)8
_chemical_formula_sum   'Na20 Zr11 Si10 P8 O72'
_cell_volume   1688.66542870
_cell_formula_units_Z   1
loop_
 _symmetry_equiv_pos_site_id
 _symmetry_equiv_pos_as_xyz
  1  'x, y, z'
loop_
 _atom_site_type_symbol
 _atom_site_label
 _atom_site_symmetry_multiplicity
 _atom_site_fract_x
 _atom_site_fract_y
 _atom_site_fract_z
 _atom_site_occupancy
  Na  Na0  1  0.22597180  0.07419957  0.10293610  1
  Na  Na1  1  0.13459320  0.45267405  0.19454624  1
  Na  Na2  1  0.01852292  0.47274920  0.31952464  1
  Na  Na3  1  0.60647848  0.40462687  0.08922611  1
  Na  Na4  1  0.24201189  0.10046692  0.43155034  1
  Na  Na5  1  0.33651963  0.62543673  0.22914138  1
  Na  Na6  1  0.50438298  0.04533980  0.17131962  1
  Na  Na7  1  0.90505745  0.75090519  0.07900131  1
  Na  Na8  1  0.59555478  0.39434099  0.42182397  1
  Na  Na9  1  0.24255278  0.10493487  0.76266158  1
  Na  Na10  1  0.83739571  0.86055636  0.22721096  1
  Na  Na11  1  0.38283928  0.60643089  0.58706101  1
  Na  Na12  1  0.03999959  0.32020777  0.97496304  1
  Na  Na13  1  0.51124822  0.01474174  0.50757857  1
  Na  Na14  1  0.93842489  0.73488297  0.37545466  1
  Na  Na15  1  0.60777657  0.40303958  0.74143149  1
  Na  Na16  1  0.34496071  0.55868922  0.94434042  1
  Na  Na17  1  0.51971718  0.00872826  0.83729028  1
  Na  Na18  1  0.99928088  0.52386506  0.66982644  1
  Na  Na19  1  0.76138017  0.84165586  0.94217262  1
  Zr  Zr20  1  0.65432320  0.16265361  0.00563442  1
  Zr  Zr21  1  0.13955540  0.63940738  0.52598819  1
  Zr  Zr22  1  0.34464354  0.85254638  0.31380169  1
  Zr  Zr23  1  0.63550662  0.15263581  0.35716143  1
  Zr  Zr24  1  0.84933644  0.33982005  0.15443838  1
  Zr  Zr25  1  0.15987670  0.64262078  0.84920457  1
  Zr  Zr26  1  0.34201994  0.85526646  0.64580415  1
  Zr  Zr27  1  0.65352672  0.14318686  0.68460332  1
  Zr  Zr28  1  0.84834992  0.34200624  0.48622861  1
  Zr  Zr29  1  0.33872211  0.85993809  0.98345837  1
  Zr  Zr30  1  0.84382215  0.34744149  0.81723272  1
  Si  Si31  1  0.27041631  0.42878929  0.07479978  1
  Si  Si32  1  0.03891660  0.96079503  0.25748077  1
  Si  Si33  1  0.46156510  0.22729291  0.25490867  1
  Si  Si34  1  0.24159643  0.45809870  0.42146874  1
  Si  Si35  1  0.92839921  0.05127255  0.08445778  1
  Si  Si36  1  0.04849895  0.95353899  0.58298398  1
  Si  Si37  1  0.45804822  0.24776024  0.58261328  1
  Si  Si38  1  0.24499500  0.45795735  0.74608437  1
  Si  Si39  1  0.05803274  0.95235670  0.91421211  1
  Si  Si40  1  0.49252144  0.25038392  0.89848926  1
  P  P41  1  0.54043960  0.75973294  0.08296350  1
  P  P42  1  0.72179065  0.53136984  0.26277025  1
  P  P43  1  0.53258042  0.74447785  0.42340714  1
  P  P44  1  0.95690031  0.04092807  0.41986727  1
  P  P45  1  0.74406801  0.53521083  0.58882450  1
  P  P46  1  0.54670526  0.74661211  0.74714155  1
  P  P47  1  0.95737682  0.04181158  0.75103158  1
  P  P48  1  0.75270886  0.55554296  0.91029495  1
  O  O49  1  0.12057028  0.01448652  0.02895802  1
  O  O50  1  0.00197515  0.09840183  0.19561361  1
  O  O51  1  0.05988375  0.44214718  0.10354940  1
  O  O52  1  0.27325656  0.63356818  0.02925232  1
  O  O53  1  0.11197685  0.00633253  0.36501395  1
  O  O54  1  0.37899436  0.30235025  0.03314880  1
  O  O55  1  0.35989591  0.34674389  0.12330488  1
  O  O56  1  0.04042039  0.76490198  0.27436132  1
  O  O57  1  0.01559713  0.11385649  0.52330076  1
  O  O58  1  0.27081877  0.37670276  0.25458109  1
  O  O59  1  0.48680056  0.02752299  0.26184778  1
  O  O60  1  0.06077891  0.43740336  0.42989394  1
  O  O61  1  0.52786817  0.75268605  0.03018448  1
  O  O62  1  0.75602356  0.13209500  0.06191867  1
  O  O63  1  0.36813453  0.76602298  0.13307801  1
  O  O64  1  0.61962755  0.28425108  0.19407959  1
  O  O65  1  0.22750037  0.95769086  0.25280505  1
  O  O66  1  0.50379480  0.20566104  0.30956709  1
  O  O67  1  0.26773182  0.62932627  0.36307975  1
  O  O68  1  0.57917539  0.93335830  0.06239159  1
  O  O69  1  0.11710036  0.98908965  0.69909462  1
  O  O70  1  0.70541129  0.59754726  0.09767895  1
  O  O71  1  0.40560503  0.26527913  0.42122856  1
  O  O72  1  0.92530218  0.22151912  0.09206548  1
  O  O73  1  0.22757810  0.50287265  0.47339473  1
  O  O74  1  0.77402308  0.45394743  0.21616922  1
  O  O75  1  0.06677109  0.76490567  0.58454382  1
  O  O76  1  0.55429943  0.70150672  0.25688683  1
  O  O77  1  0.00974436  0.12382570  0.85784768  1
  O  O78  1  0.27556412  0.42405735  0.58154239  1
  O  O79  1  0.42959365  0.07021693  0.59455046  1
  O  O80  1  0.66842524  0.39606066  0.32448065  1
  O  O81  1  0.07247260  0.41901748  0.75639725  1
  O  O82  1  0.48202133  0.76458764  0.37533744  1
  O  O83  1  0.77464656  0.06265470  0.42162355  1
  O  O84  1  0.37867026  0.71833186  0.48156647  1
  O  O85  1  0.61715919  0.28657221  0.52054212  1
  O  O86  1  0.24013206  0.92668601  0.58333922  1
  O  O87  1  0.51267931  0.22953695  0.63363959  1
  O  O88  1  0.87440205  0.56830521  0.25725297  1
  O  O89  1  0.28769149  0.61672727  0.68482383  1
  O  O90  1  0.56563334  0.91001970  0.41313127  1
  O  O91  1  0.70986909  0.58352581  0.42587393  1
  O  O92  1  0.91235763  0.87378932  0.13704637  1
  O  O93  1  0.41827518  0.26887096  0.74647084  1
  O  O94  1  0.93899536  0.21982616  0.42037356  1
  O  O95  1  0.21873009  0.51852405  0.79683698  1
  O  O96  1  0.76653445  0.47639732  0.54171142  1
  O  O97  1  0.09398560  0.76869323  0.90711697  1
  O  O98  1  0.58250159  0.71051427  0.58821680  1
  O  O99  1  0.29359904  0.40832446  0.90512656  1
  O  O100  1  0.87816347  0.03525044  0.31063139  1
  O  O101  1  0.46959218  0.05576032  0.92652111  1
  O  O102  1  0.70745275  0.38787293  0.64791799  1
  O  O103  1  0.50258755  0.76094162  0.69833860  1
  O  O104  1  0.77874165  0.07079302  0.74843070  1
  O  O105  1  0.38810004  0.71895553  0.80387046  1
  O  O106  1  0.62602151  0.28519720  0.83140612  1
  O  O107  1  0.23581371  0.93842307  0.91963226  1
  O  O108  1  0.60635584  0.26083396  0.92684285  1
  O  O109  1  0.91080762  0.56478696  0.57764503  1
  O  O110  1  0.56056041  0.92080864  0.73791403  1
  O  O111  1  0.72117901  0.58746114  0.75157831  1
  O  O112  1  0.00408235  0.88581132  0.47315101  1
  O  O113  1  0.95388579  0.21682402  0.74874456  1
  O  O114  1  0.78499200  0.52314006  0.85659865  1
  O  O115  1  0.58209384  0.71738757  0.91945091  1
  O  O116  1  0.88361068  0.01062478  0.63781750  1
  O  O117  1  0.74007651  0.38909929  0.96434961  1
  O  O118  1  0.91317177  0.58973331  0.90439725  1
  O  O119  1  0.99166390  0.89183117  0.80692976  1
  O  O120  1  0.88543868  0.97259729  0.97227113  1
