# generated using pymatgen
data_AlMo(WO4)2
_symmetry_space_group_name_H-M   'P 1'
_cell_length_a   5.68198900
_cell_length_b   5.21167000
_cell_length_c   10.49604007
_cell_angle_alpha   61.90726830
_cell_angle_beta   90.00000000
_cell_angle_gamma   90.00000000
_symmetry_Int_Tables_number   1
_chemical_formula_structural   AlMo(WO4)2
_chemical_formula_sum   'Al2 Mo2 W4 O16'
_cell_volume   274.19734077
_cell_formula_units_Z   2
loop_
 _symmetry_equiv_pos_site_id
 _symmetry_equiv_pos_as_xyz
  1  'x, y, z'
loop_
 _atom_site_type_symbol
 _atom_site_label
 _atom_site_symmetry_multiplicity
 _atom_site_fract_x
 _atom_site_fract_y
 _atom_site_fract_z
 _atom_site_occupancy
  Al  Al0  1  0.66140100  0.00000000  0.25000000  1
  Al  Al1  1  0.33859900  0.00000000  0.75000000  1
  Mo  Mo2  1  0.36125700  0.50000000  0.25000000  1
  Mo  Mo3  1  0.63874300  0.50000000  0.75000000  1
  W  W4  1  0.15927200  0.25268800  0.99857700  1
  W  W5  1  0.15927200  0.74731200  0.50142300  1
  W  W6  1  0.84072800  0.74731200  0.00142300  1
  W  W7  1  0.84072800  0.25268800  0.49857700  1
  O  O8  1  0.38513500  0.74575500  0.36756300  1
  O  O9  1  0.38513500  0.25424500  0.13243700  1
  O  O10  1  0.61486500  0.25424500  0.63243700  1
  O  O11  1  0.61486500  0.74575500  0.86756300  1
  O  O12  1  0.89148100  0.19170400  0.89026500  1
  O  O13  1  0.89148100  0.80829600  0.60973500  1
  O  O14  1  0.10851900  0.80829600  0.10973500  1
  O  O15  1  0.10851900  0.19170400  0.39026500  1
  O  O16  1  0.63348100  0.19752200  0.36043800  1
  O  O17  1  0.63348100  0.80247800  0.13956200  1
  O  O18  1  0.36651900  0.80247800  0.63956200  1
  O  O19  1  0.36651900  0.19752200  0.86043800  1
  O  O20  1  0.87619900  0.69409800  0.38473800  1
  O  O21  1  0.12380100  0.30590200  0.61526200  1
  O  O22  1  0.87619900  0.30590200  0.11526200  1
  O  O23  1  0.12380100  0.69409800  0.88473800  1
