# generated using pymatgen
data_Ba2AlCo2F11
_symmetry_space_group_name_H-M   'P 1'
_cell_length_a   7.42060660
_cell_length_b   7.42060660
_cell_length_c   14.34680000
_cell_angle_alpha   90.00000000
_cell_angle_beta   90.00000000
_cell_angle_gamma   120.00000535
_symmetry_Int_Tables_number   1
_chemical_formula_structural   Ba2AlCo2F11
_chemical_formula_sum   'Ba6 Al3 Co6 F33'
_cell_volume   684.17069622
_cell_formula_units_Z   3
loop_
 _symmetry_equiv_pos_site_id
 _symmetry_equiv_pos_as_xyz
  1  'x, y, z'
loop_
 _atom_site_type_symbol
 _atom_site_label
 _atom_site_symmetry_multiplicity
 _atom_site_fract_x
 _atom_site_fract_y
 _atom_site_fract_z
 _atom_site_occupancy
  Ba  Ba0  1  0.87111200  0.85807600  0.66687300  1
  Ba  Ba1  1  0.50917800  0.16561300  0.80006200  1
  Ba  Ba2  1  0.98696400  0.12888800  0.00020700  1
  Ba  Ba3  1  0.83438700  0.34356500  0.46672800  1
  Ba  Ba4  1  0.65643500  0.49082200  0.13339500  1
  Ba  Ba5  1  0.14192400  0.01303600  0.33354000  1
  Al  Al6  1  0.50080800  0.67638900  0.87354100  1
  Al  Al7  1  0.17558000  0.49919200  0.20687500  1
  Al  Al8  1  0.32361100  0.82442000  0.54020800  1
  Co  Co9  1  0.97890700  0.66166200  0.88568800  1
  Co  Co10  1  0.13422300  0.43646700  0.72061100  1
  Co  Co11  1  0.56353300  0.69775600  0.38727800  1
  Co  Co12  1  0.68275500  0.02109300  0.21902200  1
  Co  Co13  1  0.30224400  0.86577700  0.05394400  1
  Co  Co14  1  0.33833800  0.31724500  0.55235500  1
  F  F15  1  0.00123900  0.75390700  0.02143500  1
  F  F16  1  0.83886800  0.36944300  0.92683400  1
  F  F17  1  0.75266800  0.99876100  0.35476800  1
  F  F18  1  0.41648200  0.08879200  0.49358900  1
  F  F19  1  0.86446900  0.90974400  0.17978200  1
  F  F20  1  0.24641200  0.29977400  0.18697800  1
  F  F21  1  0.91120800  0.32769100  0.16025600  1
  F  F22  1  0.70022600  0.94663900  0.85364400  1
  F  F23  1  0.04527500  0.13553100  0.51311500  1
  F  F24  1  0.59832200  0.00496900  0.08625900  1
  F  F25  1  0.67230900  0.58351800  0.82692200  1
  F  F26  1  0.24609300  0.24733200  0.68810100  1
  F  F27  1  0.60496900  0.68319000  0.98576700  1
  F  F28  1  0.36013400  0.15069000  0.02085400  1
  F  F29  1  0.07822200  0.39503100  0.31910100  1
  F  F30  1  0.63055700  0.46942500  0.59350100  1
  F  F31  1  0.32555500  0.77934600  0.91260500  1
  F  F32  1  0.40664700  0.40167800  0.41959300  1
  F  F33  1  0.32080300  0.74198900  0.41893700  1
  F  F34  1  0.31681000  0.92177800  0.65243400  1
  F  F35  1  0.42118500  0.67919700  0.75227000  1
  F  F36  1  0.84931000  0.20944400  0.68752100  1
  F  F37  1  0.79055600  0.63986600  0.35418800  1
  F  F38  1  0.45379000  0.67444500  0.24593800  1
  F  F39  1  0.99503100  0.59335300  0.75292600  1
  F  F40  1  0.09025600  0.95472500  0.84644800  1
  F  F41  1  0.53057500  0.16113200  0.26016800  1
  F  F42  1  0.27880000  0.41441400  0.87815700  1
  F  F43  1  0.13561300  0.72120000  0.21149000  1
  F  F44  1  0.25801100  0.57881500  0.08560300  1
  F  F45  1  0.05336100  0.75358800  0.52031100  1
  F  F46  1  0.22065400  0.54621000  0.57927200  1
  F  F47  1  0.58558600  0.86438700  0.54482400  1
