# generated using pymatgen
data_AlFeO3
_symmetry_space_group_name_H-M   'P 1'
_cell_length_a   4.97475343
_cell_length_b   4.99971735
_cell_length_c   7.94540137
_cell_angle_alpha   88.65856987
_cell_angle_beta   90.34331471
_cell_angle_gamma   90.39421631
_symmetry_Int_Tables_number   1
_chemical_formula_structural   AlFeO3
_chemical_formula_sum   'Al4 Fe4 O12'
_cell_volume   197.55869509
_cell_formula_units_Z   4
loop_
 _symmetry_equiv_pos_site_id
 _symmetry_equiv_pos_as_xyz
  1  'x, y, z'
loop_
 _atom_site_type_symbol
 _atom_site_label
 _atom_site_symmetry_multiplicity
 _atom_site_fract_x
 _atom_site_fract_y
 _atom_site_fract_z
 _atom_site_occupancy
  Al  Al0  1  0.98091320  0.99358397  0.74473136  1
  Al  Al1  1  0.48746293  0.51029751  0.24100701  1
  Al  Al2  1  0.51282705  0.49026249  0.75790742  1
  Al  Al3  1  0.01877682  0.00693810  0.25419340  1
  Fe  Fe4  1  0.99996765  0.50063777  0.49964882  1
  Fe  Fe5  1  0.49959227  0.00040682  0.49969187  1
  Fe  Fe6  1  0.50003676  0.99962461  -0.00009320  1
  Fe  Fe7  1  -0.00011249  0.49962760  0.99968548  1
  O  O8  1  0.66302350  0.33907693  0.41334700  1
  O  O9  1  0.15495447  0.16790236  0.57299481  1
  O  O10  1  0.84098608  0.82910515  0.09305006  1
  O  O11  1  0.34468281  0.66543535  0.92312539  1
  O  O12  1  0.33620018  0.66284071  0.58708138  1
  O  O13  1  0.84624541  0.83486875  0.42767439  1
  O  O14  1  0.15786512  0.16697295  0.90823371  1
  O  O15  1  0.65671704  0.33163088  0.07775649  1
  O  O16  1  0.15054641  0.35376517  0.23962617  1
  O  O17  1  0.64109714  0.14132936  0.74641841  1
  O  O18  1  0.35872198  0.85915604  0.25347974  1
  O  O19  1  0.84949766  0.64653747  0.76044128  1
