# generated using pymatgen
data_Li2Cu(Si2O5)2
_symmetry_space_group_name_H-M   'P 1'
_cell_length_a   11.04019903
_cell_length_b   7.70051800
_cell_length_c   11.12709267
_cell_angle_alpha   90.00000000
_cell_angle_beta   110.87169891
_cell_angle_gamma   90.00000000
_symmetry_Int_Tables_number   1
_chemical_formula_structural   Li2Cu(Si2O5)2
_chemical_formula_sum   'Li8 Cu4 Si16 O40'
_cell_volume   883.89839849
_cell_formula_units_Z   4
loop_
 _symmetry_equiv_pos_site_id
 _symmetry_equiv_pos_as_xyz
  1  'x, y, z'
loop_
 _atom_site_type_symbol
 _atom_site_label
 _atom_site_symmetry_multiplicity
 _atom_site_fract_x
 _atom_site_fract_y
 _atom_site_fract_z
 _atom_site_occupancy
  Li  Li0  1  0.09563300  0.25000000  0.39536500  1
  Li  Li1  1  0.04224500  0.25000000  0.10700200  1
  Li  Li2  1  0.36944500  0.25000000  0.83541200  1
  Li  Li3  1  0.38472300  0.25000000  0.44597600  1
  Li  Li4  1  0.61527600  0.75000000  0.55402400  1
  Li  Li5  1  0.63055500  0.75000000  0.16458800  1
  Li  Li6  1  0.95775500  0.75000000  0.89299800  1
  Li  Li7  1  0.90436700  0.75000000  0.60463500  1
  Cu  Cu8  1  0.21391800  0.02921200  0.28217600  1
  Cu  Cu9  1  0.21391800  0.47078800  0.28217600  1
  Cu  Cu10  1  0.78608200  0.52921200  0.71782400  1
  Cu  Cu11  1  0.78608200  0.97078800  0.71782400  1
  Si  Si12  1  0.08504000  0.04743800  0.74123600  1
  Si  Si13  1  0.08504000  0.45256200  0.74123600  1
  Si  Si14  1  0.26190600  0.95491500  0.58919600  1
  Si  Si15  1  0.26190600  0.54508500  0.58919600  1
  Si  Si16  1  0.23732500  0.54964400  0.01522400  1
  Si  Si17  1  0.23732500  0.95035600  0.01522400  1
  Si  Si18  1  0.53089700  0.94607100  0.77615100  1
  Si  Si19  1  0.53089700  0.55392900  0.77615100  1
  Si  Si20  1  0.46910300  0.05392900  0.22384900  1
  Si  Si21  1  0.46910300  0.44607100  0.22384900  1
  Si  Si22  1  0.76267500  0.04964400  0.98477600  1
  Si  Si23  1  0.76267500  0.45035600  0.98477600  1
  Si  Si24  1  0.73809400  0.04508500  0.41080400  1
  Si  Si25  1  0.73809400  0.45491500  0.41080400  1
  Si  Si26  1  0.91496000  0.54743800  0.25876400  1
  Si  Si27  1  0.91496000  0.95256200  0.25876400  1
  O  O28  1  0.04355800  0.25000000  0.70405400  1
  O  O29  1  0.21390600  0.04969900  0.87657400  1
  O  O30  1  0.21390600  0.45030100  0.87657400  1
  O  O31  1  0.18147900  0.75000000  0.98132400  1
  O  O32  1  0.13272500  0.53251500  0.62857400  1
  O  O33  1  0.13272500  0.96748500  0.62857400  1
  O  O34  1  0.03093100  0.07026100  0.24994700  1
  O  O35  1  0.03093100  0.42973900  0.24994700  1
  O  O36  1  0.29230800  0.75000000  0.57029100  1
  O  O37  1  0.24552700  0.07159500  0.46503900  1
  O  O38  1  0.24552700  0.42840500  0.46503900  1
  O  O39  1  0.16619200  0.44873200  0.09769600  1
  O  O40  1  0.16619200  0.05126800  0.09769600  1
  O  O41  1  0.38364600  0.46481400  0.71587400  1
  O  O42  1  0.38364600  0.03518600  0.71587400  1
  O  O43  1  0.51358500  0.75000000  0.82543500  1
  O  O44  1  0.60405300  0.06002700  0.90756600  1
  O  O45  1  0.60405300  0.43997300  0.90756600  1
  O  O46  1  0.39959300  0.04907300  0.32883300  1
  O  O47  1  0.39959300  0.45092700  0.32883300  1
  O  O48  1  0.60040700  0.54907300  0.67116700  1
  O  O49  1  0.60040700  0.95092700  0.67116700  1
  O  O50  1  0.39594700  0.56002700  0.09243400  1
  O  O51  1  0.39594700  0.93997300  0.09243400  1
  O  O52  1  0.48641500  0.25000000  0.17456500  1
  O  O53  1  0.61635400  0.53518600  0.28412600  1
  O  O54  1  0.61635400  0.96481400  0.28412600  1
  O  O55  1  0.83380800  0.94873200  0.90230400  1
  O  O56  1  0.83380800  0.55126800  0.90230400  1
  O  O57  1  0.75447300  0.57159500  0.53496100  1
  O  O58  1  0.75447300  0.92840500  0.53496100  1
  O  O59  1  0.70769200  0.25000000  0.42970900  1
  O  O60  1  0.96906900  0.57026100  0.75005300  1
  O  O61  1  0.96906900  0.92973900  0.75005300  1
  O  O62  1  0.86727500  0.03251500  0.37142600  1
  O  O63  1  0.86727500  0.46748500  0.37142600  1
  O  O64  1  0.81852100  0.25000000  0.01867600  1
  O  O65  1  0.78609400  0.54969900  0.12342600  1
  O  O66  1  0.78609400  0.95030100  0.12342600  1
  O  O67  1  0.95644200  0.75000000  0.29594600  1
