# generated using pymatgen
data_AlV2W
_symmetry_space_group_name_H-M   'P 1'
_cell_length_a   9.85307676
_cell_length_b   10.97251959
_cell_length_c   10.97251895
_cell_angle_alpha   63.47745064
_cell_angle_beta   63.32117197
_cell_angle_gamma   63.32117528
_symmetry_Int_Tables_number   1
_chemical_formula_structural   AlV2W
_chemical_formula_sum   'Al1 V2 W1'
_cell_volume   901.45186239
_cell_formula_units_Z   1
loop_
 _symmetry_equiv_pos_site_id
 _symmetry_equiv_pos_as_xyz
  1  'x, y, z'
loop_
 _atom_site_type_symbol
 _atom_site_label
 _atom_site_symmetry_multiplicity
 _atom_site_fract_x
 _atom_site_fract_y
 _atom_site_fract_z
 _atom_site_occupancy
  Al  Al0  1  0.00000000  0.00000000  0.00000000  1
  V  V1  1  0.72466500  0.00000000  0.00000000  1
  V  V2  1  0.27533500  0.00000000  0.00000000  1
  W  W3  1  0.50000000  0.00000000  0.00000000  1
