# generated using pymatgen
data_ZnFe(Si2O5)2
_symmetry_space_group_name_H-M   'P 1'
_cell_length_a   7.33542800
_cell_length_b   7.33542800
_cell_length_c   14.92919100
_cell_angle_alpha   90.00000000
_cell_angle_beta   90.00000000
_cell_angle_gamma   90.00000000
_symmetry_Int_Tables_number   1
_chemical_formula_structural   ZnFe(Si2O5)2
_chemical_formula_sum   'Zn4 Fe4 Si16 O40'
_cell_volume   803.31743279
_cell_formula_units_Z   4
loop_
 _symmetry_equiv_pos_site_id
 _symmetry_equiv_pos_as_xyz
  1  'x, y, z'
loop_
 _atom_site_type_symbol
 _atom_site_label
 _atom_site_symmetry_multiplicity
 _atom_site_fract_x
 _atom_site_fract_y
 _atom_site_fract_z
 _atom_site_occupancy
  Zn  Zn0  1  0.50000000  0.50000000  0.50000000  1
  Zn  Zn1  1  0.00000000  0.00000000  0.50000000  1
  Zn  Zn2  1  0.00000000  0.00000000  0.00000000  1
  Zn  Zn3  1  0.50000000  0.50000000  0.00000000  1
  Fe  Fe4  1  0.50000000  0.00000000  0.56741100  1
  Fe  Fe5  1  0.00000000  0.50000000  0.93258900  1
  Fe  Fe6  1  0.00000000  0.50000000  0.43258900  1
  Fe  Fe7  1  0.50000000  0.00000000  0.06741100  1
  Si  Si8  1  0.15795900  0.24009000  0.64521100  1
  Si  Si9  1  0.84204100  0.75991000  0.64521100  1
  Si  Si10  1  0.24009000  0.15795900  0.85478900  1
  Si  Si11  1  0.74009000  0.34204100  0.64521100  1
  Si  Si12  1  0.25991000  0.65795900  0.64521100  1
  Si  Si13  1  0.34204100  0.74009000  0.85478900  1
  Si  Si14  1  0.65795900  0.25991000  0.85478900  1
  Si  Si15  1  0.75991000  0.84204100  0.85478900  1
  Si  Si16  1  0.34204100  0.25991000  0.35478900  1
  Si  Si17  1  0.65795900  0.74009000  0.35478900  1
  Si  Si18  1  0.25991000  0.34204100  0.14521100  1
  Si  Si19  1  0.75991000  0.15795900  0.35478900  1
  Si  Si20  1  0.24009000  0.84204100  0.35478900  1
  Si  Si21  1  0.15795900  0.75991000  0.14521100  1
  Si  Si22  1  0.84204100  0.24009000  0.14521100  1
  Si  Si23  1  0.74009000  0.65795900  0.14521100  1
  O  O24  1  0.22942900  0.08578800  0.57575700  1
  O  O25  1  0.77057100  0.91421200  0.57575700  1
  O  O26  1  0.08578800  0.22942900  0.92424300  1
  O  O27  1  0.58578800  0.27057100  0.57575700  1
  O  O28  1  0.41421200  0.72942900  0.57575700  1
  O  O29  1  0.27057100  0.58578800  0.92424300  1
  O  O30  1  0.72942900  0.41421200  0.92424300  1
  O  O31  1  0.91421200  0.77057100  0.92424300  1
  O  O32  1  0.27057100  0.41421200  0.42424300  1
  O  O33  1  0.72942900  0.58578800  0.42424300  1
  O  O34  1  0.41421200  0.27057100  0.07575700  1
  O  O35  1  0.91421200  0.22942900  0.42424300  1
  O  O36  1  0.08578800  0.77057100  0.42424300  1
  O  O37  1  0.22942900  0.91421200  0.07575700  1
  O  O38  1  0.77057100  0.08578800  0.07575700  1
  O  O39  1  0.25215900  0.06069900  0.37390600  1
  O  O40  1  0.58578800  0.72942900  0.07575700  1
  O  O41  1  0.75215900  0.56069900  0.62609400  1
  O  O42  1  0.43930100  0.24784100  0.87390600  1
  O  O43  1  0.93930100  0.25215900  0.62609400  1
  O  O44  1  0.06069900  0.74784100  0.62609400  1
  O  O45  1  0.25215900  0.93930100  0.87390600  1
  O  O46  1  0.74784100  0.06069900  0.87390600  1
  O  O47  1  0.56069900  0.75215900  0.87390600  1
  O  O48  1  0.69104500  0.69104500  0.25000000  1
  O  O49  1  0.80895500  0.19104500  0.25000000  1
  O  O50  1  0.19104500  0.80895500  0.25000000  1
  O  O51  1  0.30895500  0.30895500  0.25000000  1
  O  O52  1  0.80895500  0.80895500  0.75000000  1
  O  O53  1  0.69104500  0.30895500  0.75000000  1
  O  O54  1  0.30895500  0.69104500  0.75000000  1
  O  O55  1  0.19104500  0.19104500  0.75000000  1
  O  O56  1  0.93930100  0.74784100  0.12609400  1
  O  O57  1  0.75215900  0.43930100  0.12609400  1
  O  O58  1  0.24784100  0.56069900  0.12609400  1
  O  O59  1  0.43930100  0.75215900  0.37390600  1
  O  O60  1  0.56069900  0.24784100  0.37390600  1
  O  O61  1  0.06069900  0.25215900  0.12609400  1
  O  O62  1  0.74784100  0.93930100  0.37390600  1
  O  O63  1  0.24784100  0.43930100  0.62609400  1
