# generated using pymatgen
data_Y2Cu3(SiO4)3
_symmetry_space_group_name_H-M   'P 1'
_cell_length_a   10.76710159
_cell_length_b   10.76710159
_cell_length_c   10.76710159
_cell_angle_alpha   109.47122063
_cell_angle_beta   109.47122063
_cell_angle_gamma   109.47122063
_symmetry_Int_Tables_number   1
_chemical_formula_structural   Y2Cu3(SiO4)3
_chemical_formula_sum   'Y8 Cu12 Si12 O48'
_cell_volume   960.89191932
_cell_formula_units_Z   4
loop_
 _symmetry_equiv_pos_site_id
 _symmetry_equiv_pos_as_xyz
  1  'x, y, z'
loop_
 _atom_site_type_symbol
 _atom_site_label
 _atom_site_symmetry_multiplicity
 _atom_site_fract_x
 _atom_site_fract_y
 _atom_site_fract_z
 _atom_site_occupancy
  Y  Y0  1  0.00000000  0.00000000  0.50000000  1
  Y  Y1  1  0.00000000  0.00000000  0.00000000  1
  Y  Y2  1  0.50000000  0.00000000  0.00000000  1
  Y  Y3  1  0.00000000  0.50000000  0.00000000  1
  Y  Y4  1  0.50000000  0.50000000  0.00000000  1
  Y  Y5  1  0.00000000  0.50000000  0.50000000  1
  Y  Y6  1  0.50000000  0.00000000  0.50000000  1
  Y  Y7  1  0.50000000  0.50000000  0.50000000  1
  Cu  Cu8  1  0.87500000  0.62500000  0.25000000  1
  Cu  Cu9  1  0.62500000  0.25000000  0.87500000  1
  Cu  Cu10  1  0.87500000  0.75000000  0.62500000  1
  Cu  Cu11  1  0.75000000  0.62500000  0.87500000  1
  Cu  Cu12  1  0.25000000  0.87500000  0.62500000  1
  Cu  Cu13  1  0.62500000  0.87500000  0.75000000  1
  Cu  Cu14  1  0.12500000  0.37500000  0.75000000  1
  Cu  Cu15  1  0.37500000  0.75000000  0.12500000  1
  Cu  Cu16  1  0.12500000  0.25000000  0.37500000  1
  Cu  Cu17  1  0.25000000  0.37500000  0.12500000  1
  Cu  Cu18  1  0.75000000  0.12500000  0.37500000  1
  Cu  Cu19  1  0.37500000  0.12500000  0.25000000  1
  Si  Si20  1  0.12500000  0.87500000  0.25000000  1
  Si  Si21  1  0.25000000  0.12500000  0.87500000  1
  Si  Si22  1  0.75000000  0.37500000  0.62500000  1
  Si  Si23  1  0.62500000  0.37500000  0.25000000  1
  Si  Si24  1  0.62500000  0.75000000  0.37500000  1
  Si  Si25  1  0.37500000  0.62500000  0.75000000  1
  Si  Si26  1  0.12500000  0.75000000  0.87500000  1
  Si  Si27  1  0.75000000  0.87500000  0.12500000  1
  Si  Si28  1  0.87500000  0.25000000  0.12500000  1
  Si  Si29  1  0.37500000  0.25000000  0.62500000  1
  Si  Si30  1  0.25000000  0.62500000  0.37500000  1
  Si  Si31  1  0.87500000  0.12500000  0.75000000  1
  O  O32  1  0.48052300  0.36981400  0.27668800  1
  O  O33  1  0.29616500  0.88929100  0.01947700  1
  O  O34  1  0.61070900  0.90687400  0.13018600  1
  O  O35  1  0.59312600  0.20383500  0.22331200  1
  O  O36  1  0.13018600  0.01947700  0.22331200  1
  O  O37  1  0.20383500  0.22331200  0.59312600  1
  O  O38  1  0.20383500  0.48052300  0.61070900  1
  O  O39  1  0.22331200  0.59312600  0.20383500  1
  O  O40  1  0.36981400  0.59312600  0.88929100  1
  O  O41  1  0.90687400  0.27668800  0.29616500  1
  O  O42  1  0.27668800  0.29616500  0.90687400  1
  O  O43  1  0.22331200  0.13018600  0.01947700  1
  O  O44  1  0.48052300  0.61070900  0.20383500  1
  O  O45  1  0.88929100  0.36981400  0.59312600  1
  O  O46  1  0.01947700  0.22331200  0.13018600  1
  O  O47  1  0.61070900  0.20383500  0.48052300  1
  O  O48  1  0.59312600  0.88929100  0.36981400  1
  O  O49  1  0.01947700  0.29616500  0.88929100  1
  O  O50  1  0.90687400  0.13018600  0.61070900  1
  O  O51  1  0.63018600  0.40687400  0.11070900  1
  O  O52  1  0.36981400  0.27668800  0.48052300  1
  O  O53  1  0.27668800  0.48052300  0.36981400  1
  O  O54  1  0.88929100  0.01947700  0.29616500  1
  O  O55  1  0.29616500  0.90687400  0.27668800  1
  O  O56  1  0.51947700  0.63018600  0.72331200  1
  O  O57  1  0.70383500  0.11070900  0.98052300  1
  O  O58  1  0.38929100  0.09312600  0.86981400  1
  O  O59  1  0.40687400  0.79616500  0.77668800  1
  O  O60  1  0.86981400  0.98052300  0.77668800  1
  O  O61  1  0.79616500  0.77668800  0.40687400  1
  O  O62  1  0.79616500  0.51947700  0.38929100  1
  O  O63  1  0.77668800  0.40687400  0.79616500  1
  O  O64  1  0.70383500  0.09312600  0.72331200  1
  O  O65  1  0.11070900  0.98052300  0.70383500  1
  O  O66  1  0.72331200  0.51947700  0.63018600  1
  O  O67  1  0.63018600  0.72331200  0.51947700  1
  O  O68  1  0.86981400  0.38929100  0.09312600  1
  O  O69  1  0.09312600  0.86981400  0.38929100  1
  O  O70  1  0.98052300  0.70383500  0.11070900  1
  O  O71  1  0.40687400  0.11070900  0.63018600  1
  O  O72  1  0.38929100  0.79616500  0.51947700  1
  O  O73  1  0.98052300  0.77668800  0.86981400  1
  O  O74  1  0.11070900  0.63018600  0.40687400  1
  O  O75  1  0.51947700  0.38929100  0.79616500  1
  O  O76  1  0.77668800  0.86981400  0.98052300  1
  O  O77  1  0.72331200  0.70383500  0.09312600  1
  O  O78  1  0.09312600  0.72331200  0.70383500  1
  O  O79  1  0.13018600  0.61070900  0.90687400  1
