# generated using pymatgen
data_CaMnSi2O7
_symmetry_space_group_name_H-M   'P 1'
_cell_length_a   9.48764662
_cell_length_b   9.48764662
_cell_length_c   10.09577570
_cell_angle_alpha   57.90804132
_cell_angle_beta   57.90804132
_cell_angle_gamma   47.64224301
_symmetry_Int_Tables_number   1
_chemical_formula_structural   CaMnSi2O7
_chemical_formula_sum   'Ca4 Mn4 Si8 O28'
_cell_volume   546.68839749
_cell_formula_units_Z   4
loop_
 _symmetry_equiv_pos_site_id
 _symmetry_equiv_pos_as_xyz
  1  'x, y, z'
loop_
 _atom_site_type_symbol
 _atom_site_label
 _atom_site_symmetry_multiplicity
 _atom_site_fract_x
 _atom_site_fract_y
 _atom_site_fract_z
 _atom_site_occupancy
  Ca  Ca0  1  0.15469000  0.24167100  0.06763000  1
  Ca  Ca1  1  0.75832900  0.84531000  0.43237000  1
  Ca  Ca2  1  0.24167100  0.15469000  0.56763000  1
  Ca  Ca3  1  0.84531000  0.75832900  0.93237000  1
  Mn  Mn4  1  0.78833300  0.21166700  0.75000000  1
  Mn  Mn5  1  0.21166700  0.78833300  0.25000000  1
  Mn  Mn6  1  0.00000000  0.00000000  0.00000000  1
  Mn  Mn7  1  0.00000000  0.00000000  0.50000000  1
  Si  Si8  1  0.52798200  0.12903700  0.69475500  1
  Si  Si9  1  0.12903700  0.52798200  0.19475500  1
  Si  Si10  1  0.54681400  0.19549800  0.10016100  1
  Si  Si11  1  0.19549800  0.54681400  0.60016100  1
  Si  Si12  1  0.87096300  0.47201800  0.80524500  1
  Si  Si13  1  0.45318600  0.80450200  0.89983900  1
  Si  Si14  1  0.80450200  0.45318600  0.39983900  1
  Si  Si15  1  0.47201800  0.87096300  0.30524500  1
  O  O16  1  0.91213600  0.26314200  0.33927300  1
  O  O17  1  0.96864400  0.89776200  0.40945300  1
  O  O18  1  0.44868200  0.67677800  0.08793300  1
  O  O19  1  0.89776200  0.96864400  0.90945300  1
  O  O20  1  0.26118600  0.91233200  0.32282500  1
  O  O21  1  0.03612800  0.49950000  0.62717100  1
  O  O22  1  0.67677800  0.44868200  0.58793300  1
  O  O23  1  0.08766800  0.73881400  0.17717500  1
  O  O24  1  0.96387200  0.50050000  0.37282900  1
  O  O25  1  0.66366800  0.65233800  0.27458600  1
  O  O26  1  0.03135600  0.10223800  0.59054700  1
  O  O27  1  0.73881400  0.08766800  0.67717500  1
  O  O28  1  0.50050000  0.96387200  0.87282900  1
  O  O29  1  0.26314200  0.91213600  0.83927300  1
  O  O30  1  0.65233800  0.66366800  0.77458600  1
  O  O31  1  0.91233200  0.26118600  0.82282500  1
  O  O32  1  0.91340500  0.46895900  0.93942700  1
  O  O33  1  0.33633200  0.34766200  0.72541400  1
  O  O34  1  0.53104100  0.08659500  0.56057300  1
  O  O35  1  0.34766200  0.33633200  0.22541400  1
  O  O36  1  0.49950000  0.03612800  0.12717100  1
  O  O37  1  0.10223800  0.03135600  0.09054700  1
  O  O38  1  0.46895900  0.91340500  0.43942700  1
  O  O39  1  0.55131800  0.32322200  0.91206700  1
  O  O40  1  0.08659500  0.53104100  0.06057300  1
  O  O41  1  0.32322200  0.55131800  0.41206700  1
  O  O42  1  0.73685800  0.08786400  0.16072700  1
  O  O43  1  0.08786400  0.73685800  0.66072700  1
