# generated using pymatgen
data_CaSi2WO6
_symmetry_space_group_name_H-M   'P 1'
_cell_length_a   5.48501700
_cell_length_b   10.01209400
_cell_length_c   19.84783200
_cell_angle_alpha   90.00000000
_cell_angle_beta   90.00000000
_cell_angle_gamma   90.00000000
_symmetry_Int_Tables_number   1
_chemical_formula_structural   CaSi2WO6
_chemical_formula_sum   'Ca8 Si16 W8 O48'
_cell_volume   1089.97358106
_cell_formula_units_Z   8
loop_
 _symmetry_equiv_pos_site_id
 _symmetry_equiv_pos_as_xyz
  1  'x, y, z'
loop_
 _atom_site_type_symbol
 _atom_site_label
 _atom_site_symmetry_multiplicity
 _atom_site_fract_x
 _atom_site_fract_y
 _atom_site_fract_z
 _atom_site_occupancy
  Ca  Ca0  1  0.62191400  0.13994800  0.37250300  1
  Ca  Ca1  1  0.37808600  0.86005200  0.62749700  1
  Ca  Ca2  1  0.62191400  0.63994800  0.12749700  1
  Ca  Ca3  1  0.12191400  0.86005200  0.12749700  1
  Ca  Ca4  1  0.87808600  0.13994800  0.87250300  1
  Ca  Ca5  1  0.37808600  0.36005200  0.87250300  1
  Ca  Ca6  1  0.12191400  0.36005200  0.37250300  1
  Ca  Ca7  1  0.87808600  0.63994800  0.62749700  1
  Si  Si8  1  0.56613500  0.67677200  0.77626300  1
  Si  Si9  1  0.76264900  0.83493600  0.48602700  1
  Si  Si10  1  0.73735100  0.83493600  0.98602700  1
  Si  Si11  1  0.93386500  0.17677200  0.22373700  1
  Si  Si12  1  0.06613500  0.32322800  0.72373700  1
  Si  Si13  1  0.43386500  0.82322800  0.27626300  1
  Si  Si14  1  0.26264900  0.66506400  0.48602700  1
  Si  Si15  1  0.76264900  0.33493600  0.01397300  1
  Si  Si16  1  0.73735100  0.33493600  0.51397300  1
  Si  Si17  1  0.93386500  0.67677200  0.27626300  1
  Si  Si18  1  0.43386500  0.32322800  0.22373700  1
  Si  Si19  1  0.56613500  0.17677200  0.72373700  1
  Si  Si20  1  0.23735100  0.16506400  0.51397300  1
  Si  Si21  1  0.06613500  0.82322800  0.77626300  1
  Si  Si22  1  0.23735100  0.66506400  0.98602700  1
  Si  Si23  1  0.26264900  0.16506400  0.01397300  1
  W  W24  1  0.36472500  0.96129900  0.87757000  1
  W  W25  1  0.63527500  0.03870100  0.12243000  1
  W  W26  1  0.86472500  0.03870100  0.62243000  1
  W  W27  1  0.13527500  0.96129900  0.37757000  1
  W  W28  1  0.36472500  0.46129900  0.62243000  1
  W  W29  1  0.63527500  0.53870100  0.37757000  1
  W  W30  1  0.86472500  0.53870100  0.87757000  1
  W  W31  1  0.13527500  0.46129900  0.12243000  1
  O  O32  1  0.95364800  0.53154200  0.31163900  1
  O  O33  1  0.30456800  0.03529400  0.06135100  1
  O  O34  1  0.04635200  0.46845800  0.68836100  1
  O  O35  1  0.76386200  0.35565800  0.93150100  1
  O  O36  1  0.26386200  0.14434200  0.93150100  1
  O  O37  1  0.98697600  0.22711900  0.03094300  1
  O  O38  1  0.93694300  0.69199000  0.19623200  1
  O  O39  1  0.06305700  0.80801000  0.69623200  1
  O  O40  1  0.76386200  0.85565800  0.56849900  1
  O  O41  1  0.93694300  0.19199000  0.30376800  1
  O  O42  1  0.45364800  0.46845800  0.18836100  1
  O  O43  1  0.73613800  0.35565800  0.43150100  1
  O  O44  1  0.69543200  0.96470600  0.93864900  1
  O  O45  1  0.43694300  0.80801000  0.19623200  1
  O  O46  1  0.54635200  0.03154200  0.68836100  1
  O  O47  1  0.30456800  0.53529400  0.43864900  1
  O  O48  1  0.45364800  0.96845800  0.31163900  1
  O  O49  1  0.15408600  0.77702600  0.30914600  1
  O  O50  1  0.34591400  0.77702600  0.80914600  1
  O  O51  1  0.51302400  0.72711900  0.96905700  1
  O  O52  1  0.73613800  0.85565800  0.06849900  1
  O  O53  1  0.56305700  0.69199000  0.69623200  1
  O  O54  1  0.80456800  0.46470600  0.06135100  1
  O  O55  1  0.15408600  0.27702600  0.19085400  1
  O  O56  1  0.23613800  0.14434200  0.43150100  1
  O  O57  1  0.56305700  0.19199000  0.80376800  1
  O  O58  1  0.69543200  0.46470600  0.56135100  1
  O  O59  1  0.26386200  0.64434200  0.56849900  1
  O  O60  1  0.19543200  0.53529400  0.93864900  1
  O  O61  1  0.65408600  0.72297400  0.30914600  1
  O  O62  1  0.04635200  0.96845800  0.81163900  1
  O  O63  1  0.84591400  0.72297400  0.80914600  1
  O  O64  1  0.84591400  0.22297400  0.69085400  1
  O  O65  1  0.80456800  0.96470600  0.43864900  1
  O  O66  1  0.23613800  0.64434200  0.06849900  1
  O  O67  1  0.19543200  0.03529400  0.56135100  1
  O  O68  1  0.34591400  0.27702600  0.69085400  1
  O  O69  1  0.01302400  0.77288100  0.96905700  1
  O  O70  1  0.48697600  0.77288100  0.46905700  1
  O  O71  1  0.65408600  0.22297400  0.19085400  1
  O  O72  1  0.48697600  0.27288100  0.03094300  1
  O  O73  1  0.51302400  0.22711900  0.53094300  1
  O  O74  1  0.01302400  0.27288100  0.53094300  1
  O  O75  1  0.43694300  0.30801000  0.30376800  1
  O  O76  1  0.54635200  0.53154200  0.81163900  1
  O  O77  1  0.98697600  0.72711900  0.46905700  1
  O  O78  1  0.06305700  0.30801000  0.80376800  1
  O  O79  1  0.95364800  0.03154200  0.18836100  1
