# generated using pymatgen
data_Al2Mo2O7
_symmetry_space_group_name_H-M   'P 1'
_cell_length_a   7.58633362
_cell_length_b   6.42553652
_cell_length_c   7.24950584
_cell_angle_alpha   60.31634422
_cell_angle_beta   65.63575194
_cell_angle_gamma   60.00673635
_symmetry_Int_Tables_number   1
_chemical_formula_structural   Al2Mo2O7
_chemical_formula_sum   'Al4 Mo4 O14'
_cell_volume   259.42810348
_cell_formula_units_Z   2
loop_
 _symmetry_equiv_pos_site_id
 _symmetry_equiv_pos_as_xyz
  1  'x, y, z'
loop_
 _atom_site_type_symbol
 _atom_site_label
 _atom_site_symmetry_multiplicity
 _atom_site_fract_x
 _atom_site_fract_y
 _atom_site_fract_z
 _atom_site_occupancy
  Al  Al0  1  0.41860100  0.96996100  0.55377800  1
  Al  Al1  1  0.91648700  0.53925900  0.49790400  1
  Al  Al2  1  0.59827500  0.36369100  0.13824100  1
  Al  Al3  1  0.49530700  0.53239500  0.49250600  1
  Mo  Mo4  1  0.05865000  0.49369800  0.97704400  1
  Mo  Mo5  1  0.52862500  0.01892200  0.92382300  1
  Mo  Mo6  1  0.97876900  0.01233000  0.49431500  1
  Mo  Mo7  1  0.02693700  0.97822500  0.98020300  1
  O  O8  1  0.63773700  0.66823600  0.54435400  1
  O  O9  1  0.43314000  0.27624400  0.39169900  1
  O  O10  1  0.35531800  0.95290800  0.82730300  1
  O  O11  1  0.92887500  0.67135000  0.73234500  1
  O  O12  1  0.88111400  0.28369600  0.06723300  1
  O  O13  1  0.99449600  0.81860300  0.33353000  1
  O  O14  1  0.34414100  0.38503100  0.78640500  1
  O  O15  1  0.29080700  0.86452500  0.46979800  1
  O  O16  1  0.96882700  0.40335800  0.29527100  1
  O  O17  1  0.55761800  0.65865800  0.16791200  1
  O  O18  1  0.01232600  0.19389900  0.66632600  1
  O  O19  1  0.67808500  0.10699800  0.03667200  1
  O  O20  1  0.68010200  0.18365000  0.60376100  1
  O  O21  1  0.21576700  0.62436200  0.01957600  1
