# generated using pymatgen
data_ScAl2Os
_symmetry_space_group_name_H-M   'P 1'
_cell_length_a   10.47885075
_cell_length_b   9.97717643
_cell_length_c   9.97717633
_cell_angle_alpha   54.53830886
_cell_angle_beta   58.14738992
_cell_angle_gamma   58.14738976
_symmetry_Int_Tables_number   1
_chemical_formula_structural   ScAl2Os
_chemical_formula_sum   'Sc1 Al2 Os1'
_cell_volume   683.66110097
_cell_formula_units_Z   1
loop_
 _symmetry_equiv_pos_site_id
 _symmetry_equiv_pos_as_xyz
  1  'x, y, z'
loop_
 _atom_site_type_symbol
 _atom_site_label
 _atom_site_symmetry_multiplicity
 _atom_site_fract_x
 _atom_site_fract_y
 _atom_site_fract_z
 _atom_site_occupancy
  Sc  Sc0  1  0.00000000  0.00000000  0.00000000  1
  Al  Al1  1  0.72874900  0.00002000  0.00002000  1
  Al  Al2  1  0.27125100  0.99998000  0.99998000  1
  Os  Os3  1  0.50000000  0.00000000  0.00000000  1
