# generated using pymatgen
data_CaV(SiO3)2
_symmetry_space_group_name_H-M   'P 1'
_cell_length_a   5.41491500
_cell_length_b   9.60481000
_cell_length_c   19.39268700
_cell_angle_alpha   90.00000000
_cell_angle_beta   90.00000000
_cell_angle_gamma   90.00000000
_symmetry_Int_Tables_number   1
_chemical_formula_structural   CaV(SiO3)2
_chemical_formula_sum   'Ca8 V8 Si16 O48'
_cell_volume   1008.59871348
_cell_formula_units_Z   8
loop_
 _symmetry_equiv_pos_site_id
 _symmetry_equiv_pos_as_xyz
  1  'x, y, z'
loop_
 _atom_site_type_symbol
 _atom_site_label
 _atom_site_symmetry_multiplicity
 _atom_site_fract_x
 _atom_site_fract_y
 _atom_site_fract_z
 _atom_site_occupancy
  Ca  Ca0  1  0.62440300  0.14624700  0.37771300  1
  Ca  Ca1  1  0.37559700  0.85375300  0.62228700  1
  Ca  Ca2  1  0.62440300  0.64624700  0.12228700  1
  Ca  Ca3  1  0.12440300  0.85375300  0.12228700  1
  Ca  Ca4  1  0.87559700  0.14624700  0.87771300  1
  Ca  Ca5  1  0.37559700  0.35375300  0.87771300  1
  Ca  Ca6  1  0.12440300  0.35375300  0.37771300  1
  Ca  Ca7  1  0.87559700  0.64624700  0.62228700  1
  V  V8  1  0.36495300  0.98060200  0.87384300  1
  V  V9  1  0.63504700  0.01939800  0.12615700  1
  V  V10  1  0.86495300  0.01939800  0.62615700  1
  V  V11  1  0.13504700  0.98060200  0.37384300  1
  V  V12  1  0.36495300  0.48060200  0.62615700  1
  V  V13  1  0.63504700  0.51939800  0.37384300  1
  V  V14  1  0.86495300  0.51939800  0.87384300  1
  V  V15  1  0.13504700  0.48060200  0.12615700  1
  Si  Si16  1  0.55140500  0.66338700  0.77091700  1
  Si  Si17  1  0.72904100  0.83406800  0.47597800  1
  Si  Si18  1  0.77095900  0.83406800  0.97597800  1
  Si  Si19  1  0.94859500  0.16338700  0.22908300  1
  Si  Si20  1  0.05140500  0.33661300  0.72908300  1
  Si  Si21  1  0.44859500  0.83661300  0.27091700  1
  Si  Si22  1  0.22904100  0.66593200  0.47597800  1
  Si  Si23  1  0.72904100  0.33406800  0.02402200  1
  Si  Si24  1  0.77095900  0.33406800  0.52402200  1
  Si  Si25  1  0.94859500  0.66338700  0.27091700  1
  Si  Si26  1  0.44859500  0.33661300  0.22908300  1
  Si  Si27  1  0.55140500  0.16338700  0.72908300  1
  Si  Si28  1  0.27095900  0.16593200  0.52402200  1
  Si  Si29  1  0.05140500  0.83661300  0.77091700  1
  Si  Si30  1  0.27095900  0.66593200  0.97597800  1
  Si  Si31  1  0.22904100  0.16593200  0.02402200  1
  O  O32  1  0.95160200  0.51747100  0.31118000  1
  O  O33  1  0.30903400  0.03099800  0.06680400  1
  O  O34  1  0.04839800  0.48252900  0.68882000  1
  O  O35  1  0.73734200  0.34964500  0.94006900  1
  O  O36  1  0.23734200  0.15035500  0.94006900  1
  O  O37  1  0.93383700  0.20783200  0.04568300  1
  O  O38  1  0.97429400  0.65217100  0.18755900  1
  O  O39  1  0.02570600  0.84782900  0.68755900  1
  O  O40  1  0.73734200  0.84964500  0.55993100  1
  O  O41  1  0.97429400  0.15217100  0.31244100  1
  O  O42  1  0.45160200  0.48252900  0.18882000  1
  O  O43  1  0.76265800  0.34964500  0.44006900  1
  O  O44  1  0.69096600  0.96900200  0.93319600  1
  O  O45  1  0.47429400  0.84782900  0.18755900  1
  O  O46  1  0.54839800  0.01747100  0.68882000  1
  O  O47  1  0.30903400  0.53099800  0.43319600  1
  O  O48  1  0.45160200  0.98252900  0.31118000  1
  O  O49  1  0.16979700  0.77415300  0.29721800  1
  O  O50  1  0.33020300  0.77415300  0.79721800  1
  O  O51  1  0.56616300  0.70783200  0.95431700  1
  O  O52  1  0.76265800  0.84964500  0.05993100  1
  O  O53  1  0.52570600  0.65217100  0.68755900  1
  O  O54  1  0.80903400  0.46900200  0.06680400  1
  O  O55  1  0.16979700  0.27415300  0.20278200  1
  O  O56  1  0.26265800  0.15035500  0.44006900  1
  O  O57  1  0.52570600  0.15217100  0.81244100  1
  O  O58  1  0.69096600  0.46900200  0.56680400  1
  O  O59  1  0.23734200  0.65035500  0.55993100  1
  O  O60  1  0.19096600  0.53099800  0.93319600  1
  O  O61  1  0.66979700  0.72584700  0.29721800  1
  O  O62  1  0.04839800  0.98252900  0.81118000  1
  O  O63  1  0.83020300  0.72584700  0.79721800  1
  O  O64  1  0.83020300  0.22584700  0.70278200  1
  O  O65  1  0.80903400  0.96900200  0.43319600  1
  O  O66  1  0.26265800  0.65035500  0.05993100  1
  O  O67  1  0.19096600  0.03099800  0.56680400  1
  O  O68  1  0.33020300  0.27415300  0.70278200  1
  O  O69  1  0.06616300  0.79216800  0.95431700  1
  O  O70  1  0.43383700  0.79216800  0.45431700  1
  O  O71  1  0.66979700  0.22584700  0.20278200  1
  O  O72  1  0.43383700  0.29216800  0.04568300  1
  O  O73  1  0.56616300  0.20783200  0.54568300  1
  O  O74  1  0.06616300  0.29216800  0.54568300  1
  O  O75  1  0.47429400  0.34782900  0.31244100  1
  O  O76  1  0.54839800  0.51747100  0.81118000  1
  O  O77  1  0.93383700  0.70783200  0.45431700  1
  O  O78  1  0.02570600  0.34782900  0.81244100  1
  O  O79  1  0.95160200  0.01747100  0.18882000  1
