# generated using pymatgen
data_Al(BiO3)3
_symmetry_space_group_name_H-M   'P 1'
_cell_length_a   5.79390337
_cell_length_b   5.79390337
_cell_length_c   13.28456692
_cell_angle_alpha   86.05903113
_cell_angle_beta   86.05903113
_cell_angle_gamma   54.34890032
_symmetry_Int_Tables_number   1
_chemical_formula_structural   Al(BiO3)3
_chemical_formula_sum   'Al2 Bi6 O18'
_cell_volume   361.29069138
_cell_formula_units_Z   2
loop_
 _symmetry_equiv_pos_site_id
 _symmetry_equiv_pos_as_xyz
  1  'x, y, z'
loop_
 _atom_site_type_symbol
 _atom_site_label
 _atom_site_symmetry_multiplicity
 _atom_site_fract_x
 _atom_site_fract_y
 _atom_site_fract_z
 _atom_site_occupancy
  Al  Al0  1  0.71780300  0.70553400  0.42969700  1
  Al  Al1  1  0.70553400  0.71780300  0.92969700  1
  Bi  Bi2  1  0.63876400  0.61919400  0.66585400  1
  Bi  Bi3  1  0.30794700  0.30332000  0.31422300  1
  Bi  Bi4  1  0.96567300  0.99389900  0.99593200  1
  Bi  Bi5  1  0.30332000  0.30794700  0.81422300  1
  Bi  Bi6  1  0.99389900  0.96567300  0.49593200  1
  Bi  Bi7  1  0.61919400  0.63876400  0.16585400  1
  O  O8  1  0.64135300  0.27824300  0.73281800  1
  O  O9  1  0.32530600  0.94208000  0.40258700  1
  O  O10  1  0.89558700  0.66584600  0.05480000  1
  O  O11  1  0.50534000  0.84656000  0.80685900  1
  O  O12  1  0.11632300  0.54322600  0.44849200  1
  O  O13  1  0.83103900  0.20143200  0.13229400  1
  O  O14  1  0.02037300  0.72896400  0.86967200  1
  O  O15  1  0.72791800  0.41944400  0.51384400  1
  O  O16  1  0.38585800  0.08047200  0.18405400  1
  O  O17  1  0.94208000  0.32530600  0.90258700  1
  O  O18  1  0.66584600  0.89558700  0.55480000  1
  O  O19  1  0.27824300  0.64135300  0.23281800  1
  O  O20  1  0.08047200  0.38585800  0.68405400  1
  O  O21  1  0.72896400  0.02037300  0.36967200  1
  O  O22  1  0.41944400  0.72791800  0.01384400  1
  O  O23  1  0.20143200  0.83103900  0.63229400  1
  O  O24  1  0.84656000  0.50534000  0.30685900  1
  O  O25  1  0.54322600  0.11632300  0.94849200  1
