# generated using pymatgen
data_Li2Si4NiO10
_symmetry_space_group_name_H-M   'P 1'
_cell_length_a   6.92944226
_cell_length_b   10.09992400
_cell_length_c   14.16108783
_cell_angle_alpha   90.00000000
_cell_angle_beta   88.49257856
_cell_angle_gamma   90.00000000
_symmetry_Int_Tables_number   1
_chemical_formula_structural   Li2Si4NiO10
_chemical_formula_sum   'Li8 Si16 Ni4 O40'
_cell_volume   990.74679970
_cell_formula_units_Z   4
loop_
 _symmetry_equiv_pos_site_id
 _symmetry_equiv_pos_as_xyz
  1  'x, y, z'
loop_
 _atom_site_type_symbol
 _atom_site_label
 _atom_site_symmetry_multiplicity
 _atom_site_fract_x
 _atom_site_fract_y
 _atom_site_fract_z
 _atom_site_occupancy
  Li  Li0  1  0.15855400  0.68467100  0.94897700  1
  Li  Li1  1  0.19587700  0.40038800  0.24759200  1
  Li  Li2  1  0.30412300  0.90038800  0.25240800  1
  Li  Li3  1  0.34144600  0.18467100  0.55102300  1
  Li  Li4  1  0.65855400  0.81532900  0.44897700  1
  Li  Li5  1  0.69587700  0.09961200  0.74759200  1
  Li  Li6  1  0.80412300  0.59961200  0.75240800  1
  Li  Li7  1  0.84144600  0.31532900  0.05102300  1
  Si  Si8  1  0.00683700  0.76523700  0.36590400  1
  Si  Si9  1  0.98598700  0.04462600  0.34003300  1
  Si  Si10  1  0.22542500  0.47804700  0.67068200  1
  Si  Si11  1  0.24115500  0.23688600  0.95395800  1
  Si  Si12  1  0.25884500  0.73688600  0.54604200  1
  Si  Si13  1  0.27457500  0.97804700  0.82931800  1
  Si  Si14  1  0.50683700  0.73476300  0.86590400  1
  Si  Si15  1  0.48598700  0.45537400  0.84003300  1
  Si  Si16  1  0.51401300  0.54462600  0.15996700  1
  Si  Si17  1  0.49316300  0.26523700  0.13409600  1
  Si  Si18  1  0.72542500  0.02195300  0.17068200  1
  Si  Si19  1  0.74115500  0.26311400  0.45395800  1
  Si  Si20  1  0.75884500  0.76311400  0.04604200  1
  Si  Si21  1  0.77457500  0.52195300  0.32931800  1
  Si  Si22  1  0.01401300  0.95537400  0.65996700  1
  Si  Si23  1  0.99316300  0.23476300  0.63409600  1
  Ni  Ni24  1  0.05092100  0.62901100  0.16958200  1
  Ni  Ni25  1  0.44907900  0.12901100  0.33041800  1
  Ni  Ni26  1  0.55092100  0.87098900  0.66958200  1
  Ni  Ni27  1  0.94907900  0.37098900  0.83041800  1
  O  O28  1  0.07535800  0.95370100  0.77152100  1
  O  O29  1  0.10490500  0.82227600  0.61168600  1
  O  O30  1  0.02938400  0.30519500  0.95541900  1
  O  O31  1  0.04535300  0.51285400  0.74070700  1
  O  O32  1  0.10640500  0.09158600  0.60690300  1
  O  O33  1  0.09899400  0.76967900  0.26066700  1
  O  O34  1  0.18291100  0.33378900  0.61617300  1
  O  O35  1  0.23435100  0.08639100  0.91226900  1
  O  O36  1  0.17379900  0.72793900  0.43993000  1
  O  O37  1  0.26564900  0.58639100  0.58773100  1
  O  O38  1  0.31708900  0.83378900  0.88382700  1
  O  O39  1  0.28584700  0.52914400  0.15164100  1
  O  O40  1  0.21415300  0.02914400  0.34835900  1
  O  O41  1  0.32620100  0.22793900  0.06007000  1
  O  O42  1  0.39359500  0.59158700  0.89309700  1
  O  O43  1  0.45464600  0.01285400  0.75929300  1
  O  O44  1  0.47061600  0.80519500  0.54458100  1
  O  O45  1  0.39509500  0.32227600  0.88831400  1
  O  O46  1  0.42464200  0.45370100  0.72847900  1
  O  O47  1  0.40100600  0.26967900  0.23933300  1
  O  O48  1  0.59899400  0.73032100  0.76066700  1
  O  O49  1  0.57535800  0.54629900  0.27152100  1
  O  O50  1  0.60490500  0.67772400  0.11168600  1
  O  O51  1  0.52938400  0.19480500  0.45541900  1
  O  O52  1  0.54535300  0.98714600  0.24070700  1
  O  O53  1  0.60640500  0.40841300  0.10690300  1
  O  O54  1  0.67379900  0.77206100  0.93993000  1
  O  O55  1  0.78584700  0.97085600  0.65164100  1
  O  O56  1  0.71415300  0.47085600  0.84835900  1
  O  O57  1  0.68291100  0.16621100  0.11617300  1
  O  O58  1  0.73435100  0.41360900  0.41226900  1
  O  O59  1  0.82620100  0.27206100  0.56007000  1
  O  O60  1  0.76564900  0.91360900  0.08773100  1
  O  O61  1  0.81708900  0.66621100  0.38382700  1
  O  O62  1  0.90100600  0.23032100  0.73933300  1
  O  O63  1  0.89359500  0.90841300  0.39309700  1
  O  O64  1  0.95464700  0.48714600  0.25929300  1
  O  O65  1  0.97061600  0.69480500  0.04458100  1
  O  O66  1  0.89509500  0.17772400  0.38831400  1
  O  O67  1  0.92464200  0.04629900  0.22847900  1
