# generated using pymatgen
data_ZnCo(SiO3)2
_symmetry_space_group_name_H-M   'P 1'
_cell_length_a   5.38702497
_cell_length_b   9.36536993
_cell_length_c   9.30700639
_cell_angle_alpha   90.00612544
_cell_angle_beta   89.99385714
_cell_angle_gamma   99.91226502
_symmetry_Int_Tables_number   1
_chemical_formula_structural   ZnCo(SiO3)2
_chemical_formula_sum   'Zn4 Co4 Si8 O24'
_cell_volume   462.54301603
_cell_formula_units_Z   4
loop_
 _symmetry_equiv_pos_site_id
 _symmetry_equiv_pos_as_xyz
  1  'x, y, z'
loop_
 _atom_site_type_symbol
 _atom_site_label
 _atom_site_symmetry_multiplicity
 _atom_site_fract_x
 _atom_site_fract_y
 _atom_site_fract_z
 _atom_site_occupancy
  Zn  Zn0  1  0.25007000  0.49994600  0.27066800  1
  Zn  Zn1  1  0.75019400  0.00007500  0.77063400  1
  Zn  Zn2  1  0.75000400  0.50002900  0.72933300  1
  Zn  Zn3  1  0.24973300  0.99995300  0.22935500  1
  Co  Co4  1  0.25037300  0.00013600  0.89133200  1
  Co  Co5  1  0.25003800  0.50003300  0.60870500  1
  Co  Co6  1  0.75008700  0.49998500  0.39129600  1
  Co  Co7  1  0.74951800  0.99985100  0.10865200  1
  Si  Si8  1  0.53201300  0.30380800  0.08366900  1
  Si  Si9  1  0.03211600  0.80386800  0.58374600  1
  Si  Si10  1  0.96785300  0.69609600  0.08375500  1
  Si  Si11  1  0.46787900  0.19614500  0.58367900  1
  Si  Si12  1  0.03209600  0.30387800  0.91625600  1
  Si  Si13  1  0.53217400  0.80388500  0.41630400  1
  Si  Si14  1  0.46793300  0.69616700  0.91632500  1
  Si  Si15  1  0.96793100  0.19615400  0.41626700  1
  O  O16  1  0.82022200  0.35657100  0.02274100  1
  O  O17  1  0.32030500  0.85662100  0.52275200  1
  O  O18  1  0.67969000  0.64333400  0.02276100  1
  O  O19  1  0.17970600  0.14336800  0.52273700  1
  O  O20  1  0.17973100  0.64341800  0.97726400  1
  O  O21  1  0.67973900  0.14338400  0.47724100  1
  O  O22  1  0.32026600  0.35666000  0.97723700  1
  O  O23  1  0.82032800  0.85663800  0.47727000  1
  O  O24  1  0.50637800  0.38001400  0.23944100  1
  O  O25  1  0.00645500  0.88010200  0.73948300  1
  O  O26  1  0.99354100  0.61975300  0.23943500  1
  O  O27  1  0.49356200  0.11983000  0.73939400  1
  O  O28  1  0.49358700  0.61992900  0.76055900  1
  O  O29  1  0.99356600  0.11995300  0.26051900  1
  O  O30  1  0.00641200  0.38017500  0.76056500  1
  O  O31  1  0.50649000  0.88024500  0.26060700  1
  O  O32  1  0.97913400  0.12481400  0.91626500  1
  O  O33  1  0.47912000  0.62482100  0.41628100  1
  O  O34  1  0.52114200  0.87525100  0.91647000  1
  O  O35  1  0.02101300  0.37523200  0.41644500  1
  O  O36  1  0.47878900  0.12472600  0.08347000  1
  O  O37  1  0.97905600  0.62479800  0.58363500  1
  O  O38  1  0.02081100  0.87514400  0.08381000  1
  O  O39  1  0.52094200  0.37521500  0.58363900  1
