# generated using pymatgen
data_Al2W2O7
_symmetry_space_group_name_H-M   'P 1'
_cell_length_a   7.80050955
_cell_length_b   7.18547750
_cell_length_c   7.71829156
_cell_angle_alpha   49.80468698
_cell_angle_beta   57.25193547
_cell_angle_gamma   55.57331345
_symmetry_Int_Tables_number   1
_chemical_formula_structural   Al2W2O7
_chemical_formula_sum   'Al4 W4 O14'
_cell_volume   261.71337984
_cell_formula_units_Z   2
loop_
 _symmetry_equiv_pos_site_id
 _symmetry_equiv_pos_as_xyz
  1  'x, y, z'
loop_
 _atom_site_type_symbol
 _atom_site_label
 _atom_site_symmetry_multiplicity
 _atom_site_fract_x
 _atom_site_fract_y
 _atom_site_fract_z
 _atom_site_occupancy
  Al  Al0  1  0.44274900  0.03627600  0.59846000  1
  Al  Al1  1  0.11646300  0.44419900  0.37022000  1
  Al  Al2  1  0.54457300  0.48529400  0.98629700  1
  Al  Al3  1  0.48401000  0.60931200  0.52493000  1
  W  W4  1  0.98545000  0.50381300  0.01811200  1
  W  W5  1  0.50207600  0.99980300  0.98908900  1
  W  W6  1  0.96438800  0.97772200  0.46439500  1
  W  W7  1  0.96811100  0.02373500  0.00036700  1
  O  O8  1  0.53900000  0.70429100  0.65341500  1
  O  O9  1  0.40666300  0.30779000  0.29402600  1
  O  O10  1  0.39138000  0.83119200  0.95752500  1
  O  O11  1  0.98618600  0.63274100  0.70847200  1
  O  O12  1  0.80057900  0.33801000  0.06894500  1
  O  O13  1  0.98376600  0.77609700  0.33233900  1
  O  O14  1  0.33616600  0.38439300  0.81000300  1
  O  O15  1  0.30209400  0.87498900  0.34498400  1
  O  O16  1  0.98233200  0.28366600  0.39030300  1
  O  O17  1  0.68579200  0.66658800  0.21263700  1
  O  O18  1  0.14712000  0.19039300  0.67100000  1
  O  O19  1  0.67847600  0.17532100  0.95715300  1
  O  O20  1  0.63553600  0.09896600  0.61126000  1
  O  O21  1  0.11709200  0.65540700  0.03606900  1
