# generated using pymatgen
data_CrO
_symmetry_space_group_name_H-M   'P 1'
_cell_length_a   3.09771967
_cell_length_b   6.35081440
_cell_length_c   6.11435226
_cell_angle_alpha   67.23150298
_cell_angle_beta   83.24314552
_cell_angle_gamma   108.94221711
_symmetry_Int_Tables_number   1
_chemical_formula_structural   CrO
_chemical_formula_sum   'Cr4 O4'
_cell_volume   100.74389709
_cell_formula_units_Z   4
loop_
 _symmetry_equiv_pos_site_id
 _symmetry_equiv_pos_as_xyz
  1  'x, y, z'
loop_
 _atom_site_type_symbol
 _atom_site_label
 _atom_site_symmetry_multiplicity
 _atom_site_fract_x
 _atom_site_fract_y
 _atom_site_fract_z
 _atom_site_occupancy
  Cr  Cr0  1  0.60025700  0.50030200  0.89990800  1
  Cr  Cr1  1  0.59964500  0.00003600  0.39989900  1
  Cr  Cr2  1  0.10027700  0.00032300  0.89989700  1
  Cr  Cr3  1  0.09965800  0.50004800  0.39988500  1
  O  O4  1  0.95245500  0.36749600  0.14756500  1
  O  O5  1  0.45244300  0.86751400  0.14755800  1
  O  O6  1  0.74761200  0.13220200  0.65263400  1
  O  O7  1  0.24755200  0.63218300  0.65265300  1
