# generated using pymatgen
data_Sr2AlCu2SbO7
_symmetry_space_group_name_H-M   'P 1'
_cell_length_a   5.31317293
_cell_length_b   5.34158726
_cell_length_c   12.68612676
_cell_angle_alpha   102.13422467
_cell_angle_beta   102.07027743
_cell_angle_gamma   90.00226801
_symmetry_Int_Tables_number   1
_chemical_formula_structural   Sr2AlCu2SbO7
_chemical_formula_sum   'Sr4 Al2 Cu4 Sb2 O14'
_cell_volume   343.85133055
_cell_formula_units_Z   2
loop_
 _symmetry_equiv_pos_site_id
 _symmetry_equiv_pos_as_xyz
  1  'x, y, z'
loop_
 _atom_site_type_symbol
 _atom_site_label
 _atom_site_symmetry_multiplicity
 _atom_site_fract_x
 _atom_site_fract_y
 _atom_site_fract_z
 _atom_site_occupancy
  Sr  Sr0  1  0.33774400  0.36359200  0.71735300  1
  Sr  Sr1  1  0.62184000  0.63966800  0.28404100  1
  Sr  Sr2  1  0.83845200  0.85509600  0.71731800  1
  Sr  Sr3  1  0.12216700  0.14845700  0.28405800  1
  Al  Al4  1  0.99001700  0.99909100  0.00068300  1
  Al  Al5  1  0.48598100  0.49757800  0.00067500  1
  Cu  Cu6  1  0.92950300  0.44228700  0.88781400  1
  Cu  Cu7  1  0.04250300  0.55691800  0.11312100  1
  Cu  Cu8  1  0.43032100  0.94180200  0.88765200  1
  Cu  Cu9  1  0.54482200  0.05713600  0.11395000  1
  Sb  Sb10  1  0.24040800  0.74835100  0.50071600  1
  Sb  Sb11  1  0.74015800  0.25494800  0.50069200  1
  O  O12  1  0.10677000  0.38468300  0.50074300  1
  O  O13  1  0.60705000  0.61866300  0.50061400  1
  O  O14  1  0.25747900  0.26888000  0.89668100  1
  O  O15  1  0.36123000  0.72930500  0.10359400  1
  O  O16  1  0.75838600  0.12381700  0.89776200  1
  O  O17  1  0.86379400  0.87626200  0.10468200  1
  O  O18  1  0.61021600  0.62255200  0.89683700  1
  O  O19  1  0.71542500  0.37736500  0.10560100  1
  O  O20  1  0.11043400  0.76974300  0.89572300  1
  O  O21  1  0.21621600  0.22988700  0.10455700  1
  O  O22  1  0.33120900  0.83105700  0.67813000  1
  O  O23  1  0.65327200  0.17132000  0.32323600  1
  O  O24  1  0.83009000  0.34824200  0.67809100  1
  O  O25  1  0.15377800  0.65458100  0.32345600  1
