# generated using pymatgen
data_Ca3Si4(MoO7)2
_symmetry_space_group_name_H-M   'P 1'
_cell_length_a   9.60755284
_cell_length_b   9.60755284
_cell_length_c   10.29263043
_cell_angle_alpha   59.52509312
_cell_angle_beta   59.52509312
_cell_angle_gamma   48.05375984
_symmetry_Int_Tables_number   1
_chemical_formula_structural   Ca3Si4(MoO7)2
_chemical_formula_sum   'Ca6 Si8 Mo4 O28'
_cell_volume   587.68159267
_cell_formula_units_Z   2
loop_
 _symmetry_equiv_pos_site_id
 _symmetry_equiv_pos_as_xyz
  1  'x, y, z'
loop_
 _atom_site_type_symbol
 _atom_site_label
 _atom_site_symmetry_multiplicity
 _atom_site_fract_x
 _atom_site_fract_y
 _atom_site_fract_z
 _atom_site_occupancy
  Ca  Ca0  1  0.24191600  0.16145000  0.53582000  1
  Ca  Ca1  1  0.83855000  0.75808400  0.96418000  1
  Ca  Ca2  1  0.16145000  0.24191600  0.03582000  1
  Ca  Ca3  1  0.66613800  0.33386200  0.25000000  1
  Ca  Ca4  1  0.75808400  0.83855000  0.46418000  1
  Ca  Ca5  1  0.33386200  0.66613800  0.75000000  1
  Si  Si6  1  0.11179900  0.52995000  0.65560600  1
  Si  Si7  1  0.52995000  0.11179900  0.15560600  1
  Si  Si8  1  0.22004500  0.52148900  0.14966400  1
  Si  Si9  1  0.52148900  0.22004500  0.64966400  1
  Si  Si10  1  0.47005000  0.88820100  0.84439400  1
  Si  Si11  1  0.77995500  0.47851100  0.85033600  1
  Si  Si12  1  0.47851100  0.77995500  0.35033600  1
  Si  Si13  1  0.88820100  0.47005000  0.34439400  1
  Mo  Mo14  1  0.20515700  0.79484300  0.25000000  1
  Mo  Mo15  1  0.79484300  0.20515700  0.75000000  1
  Mo  Mo16  1  0.00000000  0.00000000  0.00000000  1
  Mo  Mo17  1  0.00000000  0.00000000  0.50000000  1
  O  O18  1  0.29904600  0.87886300  0.49315700  1
  O  O19  1  0.91918300  0.93048900  0.73827800  1
  O  O20  1  0.64043700  0.47546800  0.80933800  1
  O  O21  1  0.93048900  0.91918300  0.23827800  1
  O  O22  1  0.92667700  0.27667200  0.49213100  1
  O  O23  1  0.49866500  0.05597200  0.81824500  1
  O  O24  1  0.47546800  0.64043700  0.30933800  1
  O  O25  1  0.72332800  0.07332300  0.00786900  1
  O  O26  1  0.50133500  0.94402800  0.18175500  1
  O  O27  1  0.67755800  0.66176800  0.40724000  1
  O  O28  1  0.08081700  0.06951100  0.26172200  1
  O  O29  1  0.07332300  0.72332800  0.50786900  1
  O  O30  1  0.94402800  0.50133500  0.68175500  1
  O  O31  1  0.87886300  0.29904600  0.99315700  1
  O  O32  1  0.66176800  0.67755800  0.90724000  1
  O  O33  1  0.27667200  0.92667700  0.99213100  1
  O  O34  1  0.47563700  0.89710500  0.68155900  1
  O  O35  1  0.32244200  0.33823200  0.59276000  1
  O  O36  1  0.10289500  0.52436300  0.81844100  1
  O  O37  1  0.33823200  0.32244200  0.09276000  1
  O  O38  1  0.05597200  0.49866500  0.31824500  1
  O  O39  1  0.06951100  0.08081700  0.76172200  1
  O  O40  1  0.89710500  0.47563700  0.18155900  1
  O  O41  1  0.35956300  0.52453200  0.19066200  1
  O  O42  1  0.52436300  0.10289500  0.31844100  1
  O  O43  1  0.52453200  0.35956300  0.69066200  1
  O  O44  1  0.12113700  0.70095400  0.00684300  1
  O  O45  1  0.70095400  0.12113700  0.50684300  1
