# generated using pymatgen
data_ZnCoO2
_symmetry_space_group_name_H-M   'P 1'
_cell_length_a   5.34265882
_cell_length_b   6.13972515
_cell_length_c   6.13972138
_cell_angle_alpha   58.89281286
_cell_angle_beta   108.19464908
_cell_angle_gamma   108.19462529
_symmetry_Int_Tables_number   1
_chemical_formula_structural   ZnCoO2
_chemical_formula_sum   'Zn4 Co4 O8'
_cell_volume   160.97097186
_cell_formula_units_Z   4
loop_
 _symmetry_equiv_pos_site_id
 _symmetry_equiv_pos_as_xyz
  1  'x, y, z'
loop_
 _atom_site_type_symbol
 _atom_site_label
 _atom_site_symmetry_multiplicity
 _atom_site_fract_x
 _atom_site_fract_y
 _atom_site_fract_z
 _atom_site_occupancy
  Zn  Zn0  1  0.99999500  0.99999300  0.00001800  1
  Zn  Zn1  1  0.49998600  0.25002500  0.74999900  1
  Zn  Zn2  1  0.00000600  0.49998100  0.50000700  1
  Zn  Zn3  1  0.50001500  0.75000100  0.24997500  1
  Co  Co4  1  0.50000100  0.24979900  0.25020100  1
  Co  Co5  1  0.00000000  0.50021000  0.99978900  1
  Co  Co6  1  0.50000000  0.74976400  0.75023500  1
  Co  Co7  1  0.00000100  0.00022600  0.49977400  1
  O  O8  1  0.23658900  0.37463100  0.37431900  1
  O  O9  1  0.73656400  0.62430900  0.12461800  1
  O  O10  1  0.23658800  0.87460900  0.87431800  1
  O  O11  1  0.73656900  0.12430600  0.62460100  1
  O  O12  1  0.76340900  0.12567900  0.12536800  1
  O  O13  1  0.26343700  0.37538200  0.87569300  1
  O  O14  1  0.76341300  0.62568500  0.62539200  1
  O  O15  1  0.26342900  0.87540100  0.37569300  1
