# generated using pymatgen
data_La13Al12Si18(N13O5)3
_symmetry_space_group_name_H-M   'P 1'
_cell_length_a   11.76635944
_cell_length_b   11.74766349
_cell_length_c   11.74766286
_cell_angle_alpha   109.43896190
_cell_angle_beta   109.50345994
_cell_angle_gamma   109.50346311
_symmetry_Int_Tables_number   1
_chemical_formula_structural   La13Al12Si18(N13O5)3
_chemical_formula_sum   'La13 Al12 Si18 N39 O15'
_cell_volume   1249.54018137
_cell_formula_units_Z   1
loop_
 _symmetry_equiv_pos_site_id
 _symmetry_equiv_pos_as_xyz
  1  'x, y, z'
loop_
 _atom_site_type_symbol
 _atom_site_label
 _atom_site_symmetry_multiplicity
 _atom_site_fract_x
 _atom_site_fract_y
 _atom_site_fract_z
 _atom_site_occupancy
  La  La0  1  0.98981700  0.31375000  0.57397400  1
  La  La1  1  0.98981700  0.57397400  0.31375000  1
  La  La2  1  0.32490700  0.00000000  0.57356600  1
  La  La3  1  0.25483000  0.66884800  0.66884800  1
  La  La4  1  0.89187600  0.00000000  0.00000000  1
  La  La5  1  0.41584300  0.73977700  0.42602700  1
  La  La6  1  0.41584300  0.42602700  0.73977700  1
  La  La7  1  0.32490700  0.57356600  0.00000000  1
  La  La8  1  0.67606700  0.68625000  0.26022300  1
  La  La9  1  0.67606700  0.26022300  0.68625000  1
  La  La10  1  0.75134100  0.42643400  0.42643400  1
  La  La11  1  0.58598200  0.00000000  0.33115200  1
  La  La12  1  0.58598200  0.33115200  0.00000000  1
  Al  Al13  1  0.00164900  0.84168100  0.24589700  1
  Al  Al14  1  0.00164900  0.24589700  0.84168100  1
  Al  Al15  1  0.24709200  0.00000000  0.83733900  1
  Al  Al16  1  0.15996800  0.15831900  0.40421600  1
  Al  Al17  1  0.15996800  0.40421600  0.15831900  1
  Al  Al18  1  0.24709200  0.83733900  0.00000000  1
  Al  Al19  1  0.58515200  0.74718200  0.74718200  1
  Al  Al20  1  0.75575200  0.59578400  0.75410300  1
  Al  Al21  1  0.75575200  0.75410300  0.59578400  1
  Al  Al22  1  0.40975400  0.16266100  0.16266100  1
  Al  Al23  1  0.83797000  0.00000000  0.25281800  1
  Al  Al24  1  0.83797000  0.25281800  0.00000000  1
  Si  Si25  1  0.00332000  0.69810800  0.69810800  1
  Si  Si26  1  0.99973100  0.53836900  0.83907400  1
  Si  Si27  1  0.99973100  0.83907400  0.53836900  1
  Si  Si28  1  0.16065700  0.16092600  0.69929500  1
  Si  Si29  1  0.16065700  0.69929500  0.16092600  1
  Si  Si30  1  0.53991800  0.00000000  0.84097700  1
  Si  Si31  1  0.30112100  0.45778500  0.45778500  1
  Si  Si32  1  0.30521200  0.00000000  0.30189200  1
  Si  Si33  1  0.30521200  0.30189200  0.00000000  1
  Si  Si34  1  0.46136000  0.30070500  0.46163100  1
  Si  Si35  1  0.46136000  0.46163100  0.30070500  1
  Si  Si36  1  0.53991800  0.84097700  0.00000000  1
  Si  Si37  1  0.84333500  0.00000000  0.54221500  1
  Si  Si38  1  0.70450000  0.00000000  0.70516600  1
  Si  Si39  1  0.70450000  0.70516600  0.00000000  1
  Si  Si40  1  0.69894100  0.15902300  0.15902300  1
  Si  Si41  1  0.84333500  0.54221500  0.00000000  1
  Si  Si42  1  0.99933400  0.29483400  0.29483400  1
  N  N43  1  0.00378400  0.69651500  0.54894700  1
  N  N44  1  0.00378400  0.54894700  0.69651500  1
  N  N45  1  0.15142700  0.00000000  0.66958200  1
  N  N46  1  0.15688500  0.84014600  0.84014600  1
  N  N47  1  0.16783300  0.00000000  0.32716100  1
  N  N48  1  0.00317900  0.68102700  0.14917600  1
  N  N49  1  0.00317900  0.14917600  0.68102700  1
  N  N50  1  0.14216000  0.44136600  0.44136600  1
  N  N51  1  0.99694800  0.14467000  0.28818000  1
  N  N52  1  0.99694800  0.28818000  0.14467000  1
  N  N53  1  0.30726900  0.85243200  0.30348500  1
  N  N54  1  0.30726900  0.30348500  0.85243200  1
  N  N55  1  0.15142700  0.66958200  0.00000000  1
  N  N56  1  0.31673900  0.00000000  0.15985400  1
  N  N57  1  0.53064500  0.85421900  0.85421900  1
  N  N58  1  0.41846300  0.60771200  0.60771200  1
  N  N59  1  0.16783300  0.32716100  0.00000000  1
  N  N60  1  0.32215100  0.31897300  0.46814800  1
  N  N61  1  0.32215100  0.46814800  0.31897300  1
  N  N62  1  0.70079400  0.00000000  0.55863400  1
  N  N63  1  0.70876800  0.85649100  0.71182000  1
  N  N64  1  0.70876800  0.71182000  0.85649100  1
  N  N65  1  0.45483700  0.45105300  0.14756800  1
  N  N66  1  0.45483700  0.14756800  0.45105300  1
  N  N67  1  0.48184600  0.33041800  0.33041800  1
  N  N68  1  0.31673900  0.15985400  0.00000000  1
  N  N69  1  0.55505700  0.00000000  0.69952600  1
  N  N70  1  0.55505700  0.69952600  0.00000000  1
  N  N71  1  0.81075100  0.00000000  0.39228800  1
  N  N72  1  0.84067100  0.67283900  0.67283900  1
  N  N73  1  0.85400300  0.85082400  0.53185200  1
  N  N74  1  0.85400300  0.53185200  0.85082400  1
  N  N75  1  0.70079400  0.55863400  0.00000000  1
  N  N76  1  0.85227800  0.14350900  0.85533000  1
  N  N77  1  0.85227800  0.85533000  0.14350900  1
  N  N78  1  0.67642600  0.00000000  0.14578100  1
  N  N79  1  0.67642600  0.14578100  0.00000000  1
  N  N80  1  0.85553200  0.30047400  0.30047400  1
  N  N81  1  0.81075100  0.39228800  0.00000000  1
  O  O82  1  0.24924500  0.75282100  0.49680200  1
  O  O83  1  0.24924500  0.49680200  0.75282100  1
  O  O84  1  0.17772100  0.57428000  0.19156900  1
  O  O85  1  0.17772100  0.19156900  0.57428000  1
  O  O86  1  0.39206900  0.00000000  0.81293100  1
  O  O87  1  0.39206900  0.81293100  0.00000000  1
  O  O88  1  0.49642400  0.24717900  0.74398200  1
  O  O89  1  0.49642400  0.74398200  0.24717900  1
  O  O90  1  0.60344000  0.61729000  0.42572000  1
  O  O91  1  0.60344000  0.42572000  0.61729000  1
  O  O92  1  0.57913800  0.18706900  0.18706900  1
  O  O93  1  0.75244300  0.50319800  0.25601800  1
  O  O94  1  0.75244300  0.25601800  0.50319800  1
  O  O95  1  0.98615100  0.80843100  0.38271000  1
  O  O96  1  0.98615100  0.38271000  0.80843100  1
