# generated using pymatgen
data_CoO2
_symmetry_space_group_name_H-M   'P 1'
_cell_length_a   2.84366672
_cell_length_b   2.82939444
_cell_length_c   19.41917213
_cell_angle_alpha   92.72381081
_cell_angle_beta   88.68709753
_cell_angle_gamma   120.03741750
_symmetry_Int_Tables_number   1
_chemical_formula_structural   CoO2
_chemical_formula_sum   'Co4 O8'
_cell_volume   135.10720289
_cell_formula_units_Z   4
loop_
 _symmetry_equiv_pos_site_id
 _symmetry_equiv_pos_as_xyz
  1  'x, y, z'
loop_
 _atom_site_type_symbol
 _atom_site_label
 _atom_site_symmetry_multiplicity
 _atom_site_fract_x
 _atom_site_fract_y
 _atom_site_fract_z
 _atom_site_occupancy
  Co  Co0  1  0.00122000  0.00134200  0.49963800  1
  Co  Co1  1  0.00088300  0.00006700  0.75061600  1
  Co  Co2  1  0.99989200  0.99975000  0.00005700  1
  Co  Co3  1  0.99801400  0.99884500  0.24968700  1
  O  O4  1  0.66423200  0.31617700  0.20113000  1
  O  O5  1  0.66734400  0.31850200  0.45107100  1
  O  O6  1  0.66703600  0.31719500  0.70205900  1
  O  O7  1  0.66612400  0.31699900  0.95149500  1
  O  O8  1  0.33367800  0.68252100  0.04862000  1
  O  O9  1  0.33183800  0.68155000  0.29824200  1
  O  O10  1  0.33503900  0.68412700  0.54821300  1
  O  O11  1  0.33470000  0.68292700  0.79916900  1
