# generated using pymatgen
data_Zn3Si4(MoO7)2
_symmetry_space_group_name_H-M   'P 1'
_cell_length_a   9.22208446
_cell_length_b   9.22208446
_cell_length_c   10.28578163
_cell_angle_alpha   60.89772802
_cell_angle_beta   60.89772802
_cell_angle_gamma   51.41869014
_symmetry_Int_Tables_number   1
_chemical_formula_structural   Zn3Si4(MoO7)2
_chemical_formula_sum   'Zn6 Si8 Mo4 O28'
_cell_volume   575.64118485
_cell_formula_units_Z   2
loop_
 _symmetry_equiv_pos_site_id
 _symmetry_equiv_pos_as_xyz
  1  'x, y, z'
loop_
 _atom_site_type_symbol
 _atom_site_label
 _atom_site_symmetry_multiplicity
 _atom_site_fract_x
 _atom_site_fract_y
 _atom_site_fract_z
 _atom_site_occupancy
  Zn  Zn0  1  0.04916700  0.29255900  0.09627700  1
  Zn  Zn1  1  0.70744100  0.95083300  0.40372300  1
  Zn  Zn2  1  0.29255900  0.04916700  0.59627700  1
  Zn  Zn3  1  0.39492000  0.60508000  0.75000000  1
  Zn  Zn4  1  0.95083300  0.70744100  0.90372300  1
  Zn  Zn5  1  0.60508000  0.39492000  0.25000000  1
  Si  Si6  1  0.52126100  0.10677000  0.70727000  1
  Si  Si7  1  0.10677000  0.52126100  0.20727000  1
  Si  Si8  1  0.51647200  0.24020500  0.09987800  1
  Si  Si9  1  0.24020500  0.51647200  0.59987800  1
  Si  Si10  1  0.89323000  0.47873900  0.79273000  1
  Si  Si11  1  0.48352800  0.75979500  0.90012200  1
  Si  Si12  1  0.75979500  0.48352800  0.40012200  1
  Si  Si13  1  0.47873900  0.89323000  0.29273000  1
  Mo  Mo14  1  0.78911500  0.21088500  0.75000000  1
  Mo  Mo15  1  0.21088500  0.78911500  0.25000000  1
  Mo  Mo16  1  0.00000000  0.00000000  0.00000000  1
  Mo  Mo17  1  0.00000000  0.00000000  0.50000000  1
  O  O18  1  0.82578400  0.30245100  0.34305900  1
  O  O19  1  0.93962800  0.89199600  0.40852400  1
  O  O20  1  0.47873300  0.64004100  0.08227800  1
  O  O21  1  0.89199600  0.93962800  0.90852400  1
  O  O22  1  0.26858100  0.92770900  0.32697700  1
  O  O23  1  0.04921000  0.51459700  0.63062900  1
  O  O24  1  0.64004100  0.47873300  0.58227800  1
  O  O25  1  0.07229100  0.73141900  0.17302300  1
  O  O26  1  0.95079000  0.48540300  0.36937100  1
  O  O27  1  0.63960300  0.67274800  0.27430600  1
  O  O28  1  0.06037200  0.10800400  0.59147600  1
  O  O29  1  0.73141900  0.07229100  0.67302300  1
  O  O30  1  0.48540300  0.95079000  0.86937100  1
  O  O31  1  0.30245100  0.82578400  0.84305900  1
  O  O32  1  0.67274800  0.63960300  0.77430600  1
  O  O33  1  0.92770900  0.26858100  0.82697700  1
  O  O34  1  0.90869400  0.50893800  0.92880400  1
  O  O35  1  0.36039700  0.32725200  0.72569400  1
  O  O36  1  0.49106200  0.09130600  0.57119600  1
  O  O37  1  0.32725200  0.36039700  0.22569400  1
  O  O38  1  0.51459700  0.04921000  0.13062900  1
  O  O39  1  0.10800400  0.06037200  0.09147600  1
  O  O40  1  0.50893800  0.90869400  0.42880400  1
  O  O41  1  0.52126700  0.35995900  0.91772200  1
  O  O42  1  0.09130600  0.49106200  0.07119600  1
  O  O43  1  0.35995900  0.52126700  0.41772200  1
  O  O44  1  0.69754900  0.17421600  0.15694100  1
  O  O45  1  0.17421600  0.69754900  0.65694100  1
