# generated using pymatgen
data_TiZnSiO5
_symmetry_space_group_name_H-M   'P 1'
_cell_length_a   5.44837300
_cell_length_b   5.44768082
_cell_length_c   7.38560699
_cell_angle_alpha   106.76176667
_cell_angle_beta   107.08822095
_cell_angle_gamma   96.98675162
_symmetry_Int_Tables_number   1
_chemical_formula_structural   TiZnSiO5
_chemical_formula_sum   'Ti2 Zn2 Si2 O10'
_cell_volume   195.46462568
_cell_formula_units_Z   2
loop_
 _symmetry_equiv_pos_site_id
 _symmetry_equiv_pos_as_xyz
  1  'x, y, z'
loop_
 _atom_site_type_symbol
 _atom_site_label
 _atom_site_symmetry_multiplicity
 _atom_site_fract_x
 _atom_site_fract_y
 _atom_site_fract_z
 _atom_site_occupancy
  Ti  Ti0  1  0.00910200  0.49467800  0.50895200  1
  Ti  Ti1  1  0.99154200  0.50872900  0.00976500  1
  Zn  Zn2  1  0.82233200  0.91510700  0.35521800  1
  Zn  Zn3  1  0.41687000  0.33665400  0.86274700  1
  Si  Si4  1  0.32374600  0.13355500  0.23212600  1
  Si  Si5  1  0.63543900  0.82793400  0.72721700  1
  O  O6  1  0.26106800  0.30391500  0.07791500  1
  O  O7  1  0.13228900  0.18649900  0.36922800  1
  O  O8  1  0.69195500  0.64490200  0.87182000  1
  O  O9  1  0.81730500  0.77415800  0.58225700  1
  O  O10  1  0.32513300  0.73133100  0.58289000  1
  O  O11  1  0.69312100  0.14163600  0.85755300  1
  O  O12  1  0.63703600  0.20265900  0.36646500  1
  O  O13  1  0.24322300  0.81922600  0.09819900  1
  O  O14  1  0.07582200  0.40684600  0.73544200  1
  O  O15  1  0.88855400  0.57118700  0.22917900  1
