# generated using pymatgen
data_CaTi(SiO3)2
_symmetry_space_group_name_H-M   'P 1'
_cell_length_a   5.41239600
_cell_length_b   9.67693900
_cell_length_c   19.30553700
_cell_angle_alpha   90.00000000
_cell_angle_beta   90.00000000
_cell_angle_gamma   90.00000000
_symmetry_Int_Tables_number   1
_chemical_formula_structural   CaTi(SiO3)2
_chemical_formula_sum   'Ca8 Ti8 Si16 O48'
_cell_volume   1011.13572330
_cell_formula_units_Z   8
loop_
 _symmetry_equiv_pos_site_id
 _symmetry_equiv_pos_as_xyz
  1  'x, y, z'
loop_
 _atom_site_type_symbol
 _atom_site_label
 _atom_site_symmetry_multiplicity
 _atom_site_fract_x
 _atom_site_fract_y
 _atom_site_fract_z
 _atom_site_occupancy
  Ca  Ca0  1  0.62113500  0.14897500  0.37805400  1
  Ca  Ca1  1  0.37886500  0.85102500  0.62194600  1
  Ca  Ca2  1  0.62113500  0.64897500  0.12194600  1
  Ca  Ca3  1  0.12113500  0.85102500  0.12194600  1
  Ca  Ca4  1  0.87886500  0.14897500  0.87805400  1
  Ca  Ca5  1  0.37886500  0.35102500  0.87805400  1
  Ca  Ca6  1  0.12113500  0.35102500  0.37805400  1
  Ca  Ca7  1  0.87886500  0.64897500  0.62194600  1
  Ti  Ti8  1  0.36544200  0.97919600  0.87349800  1
  Ti  Ti9  1  0.63455800  0.02080400  0.12650200  1
  Ti  Ti10  1  0.86544200  0.02080400  0.62650200  1
  Ti  Ti11  1  0.13455800  0.97919600  0.37349800  1
  Ti  Ti12  1  0.36544200  0.47919600  0.62650200  1
  Ti  Ti13  1  0.63455800  0.52080400  0.37349800  1
  Ti  Ti14  1  0.86544200  0.52080400  0.87349800  1
  Ti  Ti15  1  0.13455800  0.47919600  0.12650200  1
  Si  Si16  1  0.55118700  0.66420000  0.77150500  1
  Si  Si17  1  0.72681300  0.83309600  0.47434400  1
  Si  Si18  1  0.77318700  0.83309600  0.97434400  1
  Si  Si19  1  0.94881300  0.16420000  0.22849500  1
  Si  Si20  1  0.05118700  0.33580000  0.72849500  1
  Si  Si21  1  0.44881300  0.83580000  0.27150500  1
  Si  Si22  1  0.22681300  0.66690400  0.47434400  1
  Si  Si23  1  0.72681300  0.33309600  0.02565600  1
  Si  Si24  1  0.77318700  0.33309600  0.52565600  1
  Si  Si25  1  0.94881300  0.66420000  0.27150500  1
  Si  Si26  1  0.44881300  0.33580000  0.22849500  1
  Si  Si27  1  0.55118700  0.16420000  0.72849500  1
  Si  Si28  1  0.27318700  0.16690400  0.52565600  1
  Si  Si29  1  0.05118700  0.83580000  0.77150500  1
  Si  Si30  1  0.27318700  0.66690400  0.97434400  1
  Si  Si31  1  0.22681300  0.16690400  0.02565600  1
  O  O32  1  0.94804500  0.51917700  0.31235600  1
  O  O33  1  0.30999400  0.03178700  0.06786400  1
  O  O34  1  0.05195500  0.48082300  0.68764400  1
  O  O35  1  0.73810500  0.34704300  0.94151100  1
  O  O36  1  0.23810500  0.15295700  0.94151100  1
  O  O37  1  0.93051400  0.20680600  0.04797800  1
  O  O38  1  0.97286800  0.65258200  0.18771000  1
  O  O39  1  0.02713200  0.84741800  0.68771000  1
  O  O40  1  0.73810500  0.84704300  0.55848900  1
  O  O41  1  0.97286800  0.15258200  0.31229000  1
  O  O42  1  0.44804500  0.48082300  0.18764400  1
  O  O43  1  0.76189500  0.34704300  0.44151100  1
  O  O44  1  0.69000600  0.96821300  0.93213600  1
  O  O45  1  0.47286800  0.84741800  0.18771000  1
  O  O46  1  0.55195500  0.01917700  0.68764400  1
  O  O47  1  0.30999400  0.53178700  0.43213600  1
  O  O48  1  0.44804500  0.98082300  0.31235600  1
  O  O49  1  0.17247500  0.77194700  0.29812500  1
  O  O50  1  0.32752500  0.77194700  0.79812500  1
  O  O51  1  0.56948600  0.70680600  0.95202200  1
  O  O52  1  0.76189500  0.84704300  0.05848900  1
  O  O53  1  0.52713200  0.65258200  0.68771000  1
  O  O54  1  0.80999400  0.46821300  0.06786400  1
  O  O55  1  0.17247500  0.27194700  0.20187500  1
  O  O56  1  0.26189500  0.15295700  0.44151100  1
  O  O57  1  0.52713200  0.15258200  0.81229000  1
  O  O58  1  0.69000600  0.46821300  0.56786400  1
  O  O59  1  0.23810500  0.65295700  0.55848900  1
  O  O60  1  0.19000600  0.53178700  0.93213600  1
  O  O61  1  0.67247500  0.72805300  0.29812500  1
  O  O62  1  0.05195500  0.98082300  0.81235600  1
  O  O63  1  0.82752500  0.72805300  0.79812500  1
  O  O64  1  0.82752500  0.22805300  0.70187500  1
  O  O65  1  0.80999400  0.96821300  0.43213600  1
  O  O66  1  0.26189500  0.65295700  0.05848900  1
  O  O67  1  0.19000600  0.03178700  0.56786400  1
  O  O68  1  0.32752500  0.27194700  0.70187500  1
  O  O69  1  0.06948600  0.79319400  0.95202200  1
  O  O70  1  0.43051400  0.79319400  0.45202200  1
  O  O71  1  0.67247500  0.22805300  0.20187500  1
  O  O72  1  0.43051400  0.29319400  0.04797800  1
  O  O73  1  0.56948600  0.20680600  0.54797800  1
  O  O74  1  0.06948600  0.29319400  0.54797800  1
  O  O75  1  0.47286800  0.34741800  0.31229000  1
  O  O76  1  0.55195500  0.51917700  0.81235600  1
  O  O77  1  0.93051400  0.70680600  0.45202200  1
  O  O78  1  0.02713200  0.34741800  0.81229000  1
  O  O79  1  0.94804500  0.01917700  0.18764400  1
