# generated using pymatgen
data_Si
_symmetry_space_group_name_H-M   'P 1'
_cell_length_a   6.88715300
_cell_length_b   6.88715285
_cell_length_c   2.46431400
_cell_angle_alpha   90.00000000
_cell_angle_beta   90.00000000
_cell_angle_gamma   120.00000551
_symmetry_Int_Tables_number   1
_chemical_formula_structural   Si
_chemical_formula_sum   Si6
_cell_volume   101.22926995
_cell_formula_units_Z   6
loop_
 _symmetry_equiv_pos_site_id
 _symmetry_equiv_pos_as_xyz
  1  'x, y, z'
loop_
 _atom_site_type_symbol
 _atom_site_label
 _atom_site_symmetry_multiplicity
 _atom_site_fract_x
 _atom_site_fract_y
 _atom_site_fract_z
 _atom_site_occupancy
  Si  Si0  1  0.14539300  0.71864700  0.00000000  1
  Si  Si1  1  0.28135300  0.42674600  0.00000000  1
  Si  Si2  1  0.57325400  0.85460700  0.00000000  1
  Si  Si3  1  0.85460700  0.28135300  0.00000000  1
  Si  Si4  1  0.71864700  0.57325400  0.00000000  1
  Si  Si5  1  0.42674600  0.14539300  0.00000000  1
