# generated using pymatgen
data_Al4Si2Sn13(SbO14)2
_symmetry_space_group_name_H-M   'P 1'
_cell_length_a   14.66050448
_cell_length_b   14.66050448
_cell_length_c   10.09293926
_cell_angle_alpha   87.86388840
_cell_angle_beta   87.86388840
_cell_angle_gamma   158.37237644
_symmetry_Int_Tables_number   1
_chemical_formula_structural   Al4Si2Sn13(SbO14)2
_chemical_formula_sum   'Al4 Si2 Sn13 Sb2 O28'
_cell_volume   783.60017101
_cell_formula_units_Z   1
loop_
 _symmetry_equiv_pos_site_id
 _symmetry_equiv_pos_as_xyz
  1  'x, y, z'
loop_
 _atom_site_type_symbol
 _atom_site_label
 _atom_site_symmetry_multiplicity
 _atom_site_fract_x
 _atom_site_fract_y
 _atom_site_fract_z
 _atom_site_occupancy
  Al  Al0  1  0.01447500  0.44909700  0.71566800  1
  Al  Al1  1  0.55090300  0.98552500  0.28433200  1
  Al  Al2  1  0.98552500  0.55090300  0.28433200  1
  Al  Al3  1  0.44909700  0.01447500  0.71566800  1
  Si  Si4  1  0.25580900  0.25580900  0.28405200  1
  Si  Si5  1  0.74419100  0.74419100  0.71594800  1
  Sn  Sn6  1  0.91016200  0.58898000  0.62437700  1
  Sn  Sn7  1  0.66853900  0.81005000  0.33881700  1
  Sn  Sn8  1  0.41102000  0.08983800  0.37562300  1
  Sn  Sn9  1  0.08983800  0.41102000  0.37562300  1
  Sn  Sn10  1  0.33146100  0.18995000  0.66118300  1
  Sn  Sn11  1  0.29630900  0.70369100  0.00000000  1
  Sn  Sn12  1  0.18995000  0.33146100  0.66118300  1
  Sn  Sn13  1  0.00000000  0.00000000  0.00000000  1
  Sn  Sn14  1  0.42628100  0.57371900  0.00000000  1
  Sn  Sn15  1  0.81005000  0.66853900  0.33881700  1
  Sn  Sn16  1  0.58898000  0.91016200  0.62437700  1
  Sn  Sn17  1  0.57371900  0.42628100  0.00000000  1
  Sn  Sn18  1  0.70369100  0.29630900  0.00000000  1
  Sb  Sb19  1  0.86068100  0.13931900  0.00000000  1
  Sb  Sb20  1  0.13931900  0.86068100  0.00000000  1
  O  O21  1  0.68618600  0.04425600  0.40148100  1
  O  O22  1  0.20834500  0.66943000  0.30718400  1
  O  O23  1  0.93916900  0.93916900  0.31400000  1
  O  O24  1  0.33540900  0.33540900  0.11806700  1
  O  O25  1  0.79165500  0.33057000  0.69281600  1
  O  O26  1  0.31381400  0.95574400  0.59851900  1
  O  O27  1  0.99721300  0.62189300  0.12640800  1
  O  O28  1  0.00278700  0.37810700  0.87359200  1
  O  O29  1  0.66459100  0.66459100  0.88193300  1
  O  O30  1  0.07635300  0.24532800  0.88050700  1
  O  O31  1  0.32228800  0.41628900  0.34096400  1
  O  O32  1  0.95574400  0.31381400  0.59851900  1
  O  O33  1  0.37810700  0.00278700  0.87359200  1
  O  O34  1  0.75467200  0.92364700  0.11949300  1
  O  O35  1  0.58371100  0.67771200  0.65903600  1
  O  O36  1  0.06083100  0.06083100  0.68600000  1
  O  O37  1  0.24532800  0.07635300  0.88050700  1
  O  O38  1  0.92364700  0.75467200  0.11949300  1
  O  O39  1  0.62189300  0.99721300  0.12640800  1
  O  O40  1  0.12856800  0.41981200  0.10181900  1
  O  O41  1  0.87143200  0.58018800  0.89818100  1
  O  O42  1  0.41628900  0.32228800  0.34096400  1
  O  O43  1  0.41981200  0.12856800  0.10181900  1
  O  O44  1  0.66943000  0.20834500  0.30718400  1
  O  O45  1  0.67771200  0.58371100  0.65903600  1
  O  O46  1  0.58018800  0.87143200  0.89818100  1
  O  O47  1  0.04425600  0.68618600  0.40148100  1
  O  O48  1  0.33057000  0.79165500  0.69281600  1
