# generated using pymatgen
data_SiO2
_symmetry_space_group_name_H-M   'P 1'
_cell_length_a   13.27544789
_cell_length_b   22.01122026
_cell_length_c   13.93751623
_cell_angle_alpha   90.00045662
_cell_angle_beta   102.47865671
_cell_angle_gamma   90.00137644
_symmetry_Int_Tables_number   1
_chemical_formula_structural   SiO2
_chemical_formula_sum   'Si64 O128'
_cell_volume   3976.45466161
_cell_formula_units_Z   64
loop_
 _symmetry_equiv_pos_site_id
 _symmetry_equiv_pos_as_xyz
  1  'x, y, z'
loop_
 _atom_site_type_symbol
 _atom_site_label
 _atom_site_symmetry_multiplicity
 _atom_site_fract_x
 _atom_site_fract_y
 _atom_site_fract_z
 _atom_site_occupancy
  Si  Si0  1  0.57332679  0.16898208  0.19089083  1
  Si  Si1  1  0.89162383  0.66897102  0.28214229  1
  Si  Si2  1  0.39163048  0.83772278  0.78213037  1
  Si  Si3  1  0.07331453  0.33772155  0.69087505  1
  Si  Si4  1  0.61748974  0.17013705  0.42536047  1
  Si  Si5  1  0.84745898  0.67012302  0.04766607  1
  Si  Si6  1  0.34746321  0.83656079  0.54766678  1
  Si  Si7  1  0.11748144  0.33657586  0.92535368  1
  Si  Si8  1  0.68127966  0.57450054  0.94698736  1
  Si  Si9  1  0.78364630  0.07450495  0.52604591  1
  Si  Si10  1  0.28364191  0.43219848  0.02604664  1
  Si  Si11  1  0.18129811  0.93219241  0.44698876  1
  Si  Si12  1  0.64795716  0.49719973  0.11813981  1
  Si  Si13  1  0.81693582  0.99719730  0.35490698  1
  Si  Si14  1  0.31693807  0.50949523  0.85491030  1
  Si  Si15  1  0.14796094  0.00949690  0.61813387  1
  Si  Si16  1  0.64453292  0.30462949  0.20453651  1
  Si  Si17  1  0.82040980  0.80461559  0.26849649  1
  Si  Si18  1  0.32041502  0.70207927  0.76851585  1
  Si  Si19  1  0.14452798  0.20207273  0.70455407  1
  Si  Si20  1  0.67056963  0.30945605  0.43289662  1
  Si  Si21  1  0.79434303  0.80943876  0.04013411  1
  Si  Si22  1  0.29435846  0.69724130  0.54015381  1
  Si  Si23  1  0.17057089  0.19725460  0.93291917  1
  Si  Si24  1  0.48497631  0.40934818  0.18174684  1
  Si  Si25  1  0.97993567  0.90935995  0.29127573  1
  Si  Si26  1  0.47993478  0.59733732  0.79127969  1
  Si  Si27  1  0.98497810  0.09734352  0.68174802  1
  Si  Si28  1  0.44758920  0.10029475  0.50701557  1
  Si  Si29  1  0.01732379  0.60028205  0.96597811  1
  Si  Si30  1  0.51731837  0.90641938  0.46597705  1
  Si  Si31  1  0.94759346  0.40641961  0.00703095  1
  Si  Si32  1  0.75421421  0.55560072  0.31701602  1
  Si  Si33  1  0.71073793  0.05561491  0.15604284  1
  Si  Si34  1  0.21074128  0.45108761  0.65603607  1
  Si  Si35  1  0.25422589  0.95109626  0.81701069  1
  Si  Si36  1  0.35608748  0.00265066  0.36370021  1
  Si  Si37  1  0.10883756  0.50265588  0.10931726  1
  Si  Si38  1  0.60882682  0.00406054  0.60930714  1
  Si  Si39  1  0.85607864  0.50405312  0.86370191  1
  Si  Si40  1  0.12927833  0.50340073  0.34112400  1
  Si  Si41  1  0.33566165  0.00340185  0.13191650  1
  Si  Si42  1  0.83567717  0.50331081  0.63191511  1
  Si  Si43  1  0.62926151  0.00328939  0.84111147  1
  Si  Si44  1  0.80662086  0.38813862  0.14881279  1
  Si  Si45  1  0.65830788  0.88811585  0.32423308  1
  Si  Si46  1  0.15832258  0.61858363  0.82423129  1
  Si  Si47  1  0.30661538  0.11857075  0.64880654  1
  Si  Si48  1  0.51728208  0.41847377  0.41498159  1
  Si  Si49  1  0.94763725  0.91847771  0.05803918  1
  Si  Si50  1  0.44763156  0.58820700  0.55804831  1
  Si  Si51  1  0.01727654  0.08822102  0.91498518  1
  Si  Si52  1  0.87090428  0.37610410  0.54336199  1
  Si  Si53  1  0.59401554  0.87608540  0.92968889  1
  Si  Si54  1  0.09403272  0.63061289  0.42967747  1
  Si  Si55  1  0.37091781  0.13061032  0.04336609  1
  Si  Si56  1  0.32692501  0.46429714  0.49009796  1
  Si  Si57  1  0.13800549  0.96430357  0.98292458  1
  Si  Si58  1  0.63801307  0.54239760  0.48293766  1
  Si  Si59  1  0.82690832  0.04239151  0.99009703  1
  Si  Si60  1  0.91065497  0.44260654  0.35495387  1
  Si  Si61  1  0.55430697  0.94261264  0.11809945  1
  Si  Si62  1  0.05433120  0.56409316  0.61809387  1
  Si  Si63  1  0.41065470  0.06409964  0.85495038  1
  O  O64  1  0.62077188  0.53458083  0.01540244  1
  O  O65  1  0.84416432  0.03456622  0.45765766  1
  O  O66  1  0.34417133  0.47213026  0.95766027  1
  O  O67  1  0.12077759  0.97211879  0.51539332  1
  O  O68  1  0.57439492  0.16165997  0.30744172  1
  O  O69  1  0.89056740  0.66165584  0.16558704  1
  O  O70  1  0.39058460  0.84504377  0.66558228  1
  O  O71  1  0.07440718  0.34504810  0.80743351  1
  O  O72  1  0.87909579  0.40017599  0.25737732  1
  O  O73  1  0.58584664  0.90016918  0.21565922  1
  O  O74  1  0.08587679  0.60654668  0.71564523  1
  O  O75  1  0.37910352  0.10652827  0.75737186  1
  O  O76  1  0.64210656  0.24037665  0.45619376  1
  O  O77  1  0.82288472  0.74036980  0.01685232  1
  O  O78  1  0.32290233  0.76631152  0.51687596  1
  O  O79  1  0.14209048  0.26633395  0.95618550  1
  O  O80  1  0.52870278  0.14905784  0.48161504  1
  O  O81  1  0.93621002  0.64903671  0.99138485  1
  O  O82  1  0.43620302  0.85766153  0.49137861  1
  O  O83  1  0.02870394  0.35766348  0.98160907  1
  O  O84  1  0.73149758  0.33014913  0.14938428  1
  O  O85  1  0.73346563  0.83014060  0.32367727  1
  O  O86  1  0.23347594  0.67656865  0.82371677  1
  O  O87  1  0.23147059  0.17654796  0.64937291  1
  O  O88  1  0.73949057  0.44903979  0.11313636  1
  O  O89  1  0.72540869  0.94903290  0.35989715  1
  O  O90  1  0.22541137  0.55766076  0.85990357  1
  O  O91  1  0.23949610  0.05765806  0.61315035  1
  O  O92  1  0.62385411  0.23416493  0.17320053  1
  O  O93  1  0.84110910  0.73415504  0.29984044  1
  O  O94  1  0.34111213  0.77254074  0.79982983  1
  O  O95  1  0.12383966  0.27253609  0.67321073  1
  O  O96  1  0.41507866  0.42068516  0.46171149  1
  O  O97  1  0.04982758  0.92069227  0.01128877  1
  O  O98  1  0.54983385  0.58599352  0.51131811  1
  O  O99  1  0.91506490  0.08599811  0.96169632  1
  O  O100  1  0.91976005  0.39979758  0.45183346  1
  O  O101  1  0.54518951  0.89980240  0.02121922  1
  O  O102  1  0.04519178  0.60689923  0.52120619  1
  O  O103  1  0.41975419  0.10691402  0.95182447  1
  O  O104  1  0.37513470  0.13502816  0.56930669  1
  O  O105  1  0.08977121  0.63504196  0.90370403  1
  O  O106  1  0.58977083  0.87164899  0.40371645  1
  O  O107  1  0.87514194  0.37167832  0.06931671  1
  O  O108  1  0.54599074  0.46257049  0.13639482  1
  O  O109  1  0.91889930  0.96259062  0.33659226  1
  O  O110  1  0.41889508  0.54410523  0.83658794  1
  O  O111  1  0.04598140  0.04411518  0.63639023  1
  O  O112  1  0.59744801  0.60123857  0.85445550  1
  O  O113  1  0.86745094  0.10124471  0.61859697  1
  O  O114  1  0.36744055  0.40546931  0.11861119  1
  O  O115  1  0.09745200  0.90547311  0.35444893  1
  O  O116  1  0.72161755  0.12979383  0.46141536  1
  O  O117  1  0.74332732  0.62978672  0.01162141  1
  O  O118  1  0.24333224  0.87689928  0.51161603  1
  O  O119  1  0.22161824  0.37690694  0.96141922  1
  O  O120  1  0.48451316  0.42541467  0.29575073  1
  O  O121  1  0.98044778  0.92542958  0.17727666  1
  O  O122  1  0.48044510  0.58126730  0.67728278  1
  O  O123  1  0.98451506  0.08127330  0.79575308  1
  O  O124  1  0.37969404  0.07152979  0.40552314  1
  O  O125  1  0.08525968  0.57153229  0.06746496  1
  O  O126  1  0.58525041  0.93518496  0.56745319  1
  O  O127  1  0.87969459  0.43518010  0.90553999  1
  O  O128  1  0.68857665  0.54561899  0.20574375  1
  O  O129  1  0.77629354  0.04564278  0.26734272  1
  O  O130  1  0.27630091  0.46105085  0.76733935  1
  O  O131  1  0.18857436  0.96107570  0.70574174  1
  O  O132  1  0.63740062  0.11436969  0.15398246  1
  O  O133  1  0.82751244  0.61436427  0.31901252  1
  O  O134  1  0.32752654  0.89233544  0.81900116  1
  O  O135  1  0.13739997  0.39233197  0.65396857  1
  O  O136  1  0.45640922  0.16600328  0.12531610  1
  O  O137  1  0.00852774  0.66599128  0.34772367  1
  O  O138  1  0.50852592  0.84069827  0.84773245  1
  O  O139  1  0.95639200  0.34071269  0.62531396  1
  O  O140  1  0.57572754  0.35397712  0.44441799  1
  O  O141  1  0.88916213  0.85398571  0.02862238  1
  O  O142  1  0.38916978  0.65270022  0.52863012  1
  O  O143  1  0.07573374  0.15271740  0.94442784  1
  O  O144  1  0.50589067  0.04554723  0.57589179  1
  O  O145  1  0.95901255  0.54554407  0.89709773  1
  O  O146  1  0.45900988  0.96115561  0.39709327  1
  O  O147  1  0.00589429  0.46116701  0.07590821  1
  O  O148  1  0.22635328  0.46399929  0.39998719  1
  O  O149  1  0.23856267  0.96401135  0.07304737  1
  O  O150  1  0.73858535  0.54270582  0.57304716  1
  O  O151  1  0.72633696  0.04269728  0.89998509  1
  O  O152  1  0.76128827  0.53143061  0.90572290  1
  O  O153  1  0.70363512  0.03143784  0.56731107  1
  O  O154  1  0.20362901  0.47526546  0.06730999  1
  O  O155  1  0.26131149  0.97526892  0.40573969  1
  O  O156  1  0.67270051  0.56907690  0.38618316  1
  O  O157  1  0.79228297  0.06907632  0.08688911  1
  O  O158  1  0.29228836  0.43761346  0.58688581  1
  O  O159  1  0.17272194  0.93760947  0.88619196  1
  O  O160  1  0.13891630  0.57294461  0.37984208  1
  O  O161  1  0.32603144  0.07293805  0.09318470  1
  O  O162  1  0.82602985  0.43377342  0.59318690  1
  O  O163  1  0.63889900  0.93374970  0.87983845  1
  O  O164  1  0.69023757  0.31316792  0.32176370  1
  O  O165  1  0.77468515  0.81313187  0.15127353  1
  O  O166  1  0.27469866  0.69353518  0.65129114  1
  O  O167  1  0.19023760  0.19353651  0.82178015  1
  O  O168  1  0.53764837  0.34321343  0.17327802  1
  O  O169  1  0.92726764  0.84321964  0.29973620  1
  O  O170  1  0.42726490  0.66347218  0.79975981  1
  O  O171  1  0.03764501  0.16348358  0.67328393  1
  O  O172  1  0.82320372  0.49510796  0.35566624  1
  O  O173  1  0.64177919  0.99510512  0.11738859  1
  O  O174  1  0.14180323  0.51160507  0.61738592  1
  O  O175  1  0.32319350  0.01160226  0.85566137  1
  O  O176  1  0.02153823  0.47405978  0.35659359  1
  O  O177  1  0.44342137  0.97406164  0.11647004  1
  O  O178  1  0.94344834  0.53264079  0.61647477  1
  O  O179  1  0.52152765  0.03263639  0.85658576  1
  O  O180  1  0.32742810  0.00394500  0.24567624  1
  O  O181  1  0.13741307  0.50395611  0.22734097  1
  O  O182  1  0.63740465  0.00274083  0.72732904  1
  O  O183  1  0.82743205  0.50274837  0.74567468  1
  O  O184  1  0.77698958  0.32869331  0.50728300  1
  O  O185  1  0.68790250  0.82865747  0.96575511  1
  O  O186  1  0.18791109  0.67804616  0.46576153  1
  O  O187  1  0.27699649  0.17802185  0.00730455  1
  O  O188  1  0.59494087  0.47338585  0.46079917  1
  O  O189  1  0.86995430  0.97337645  0.01222267  1
  O  O190  1  0.36995285  0.53331228  0.51222063  1
  O  O191  1  0.09493566  0.03330952  0.96078655  1
