# generated using pymatgen
data_Mg3Cr2(Si2O7)2
_symmetry_space_group_name_H-M   'P 1'
_cell_length_a   9.18276890
_cell_length_b   9.18276890
_cell_length_c   9.78868361
_cell_angle_alpha   59.50484206
_cell_angle_beta   59.50484206
_cell_angle_gamma   48.79458042
_symmetry_Int_Tables_number   1
_chemical_formula_structural   Mg3Cr2(Si2O7)2
_chemical_formula_sum   'Mg6 Cr4 Si8 O28'
_cell_volume   515.65669326
_cell_formula_units_Z   2
loop_
 _symmetry_equiv_pos_site_id
 _symmetry_equiv_pos_as_xyz
  1  'x, y, z'
loop_
 _atom_site_type_symbol
 _atom_site_label
 _atom_site_symmetry_multiplicity
 _atom_site_fract_x
 _atom_site_fract_y
 _atom_site_fract_z
 _atom_site_occupancy
  Mg  Mg0  1  0.09863500  0.26540000  0.08498300  1
  Mg  Mg1  1  0.73460000  0.90136500  0.41501700  1
  Mg  Mg2  1  0.26540000  0.09863500  0.58498300  1
  Mg  Mg3  1  0.37907900  0.62092100  0.75000000  1
  Mg  Mg4  1  0.90136500  0.73460000  0.91501700  1
  Mg  Mg5  1  0.62092100  0.37907900  0.25000000  1
  Cr  Cr6  1  0.78894100  0.21105900  0.75000000  1
  Cr  Cr7  1  0.21105900  0.78894100  0.25000000  1
  Cr  Cr8  1  0.00000000  0.00000000  0.00000000  1
  Cr  Cr9  1  0.00000000  0.00000000  0.50000000  1
  Si  Si10  1  0.53253900  0.10690300  0.70765400  1
  Si  Si11  1  0.10690300  0.53253900  0.20765400  1
  Si  Si12  1  0.52553100  0.22910200  0.10235900  1
  Si  Si13  1  0.22910200  0.52553100  0.60235900  1
  Si  Si14  1  0.89309700  0.46746100  0.79234600  1
  Si  Si15  1  0.47446900  0.77089800  0.89764100  1
  Si  Si16  1  0.77089800  0.47446900  0.39764100  1
  Si  Si17  1  0.46746100  0.89309700  0.29234600  1
  O  O18  1  0.85776900  0.28953100  0.32925000  1
  O  O19  1  0.96092700  0.87508700  0.42278800  1
  O  O20  1  0.47284000  0.62983500  0.08453000  1
  O  O21  1  0.87508700  0.96092700  0.92278800  1
  O  O22  1  0.25564700  0.93113800  0.32026500  1
  O  O23  1  0.06633000  0.48618100  0.62230900  1
  O  O24  1  0.62983500  0.47284000  0.58453000  1
  O  O25  1  0.06886200  0.74435300  0.17973500  1
  O  O26  1  0.93367000  0.51381900  0.37769100  1
  O  O27  1  0.64966400  0.67170300  0.25560400  1
  O  O28  1  0.03907300  0.12491300  0.57721200  1
  O  O29  1  0.74435300  0.06886200  0.67973500  1
  O  O30  1  0.51381900  0.93367000  0.87769100  1
  O  O31  1  0.28953100  0.85776900  0.82925000  1
  O  O32  1  0.67170300  0.64966400  0.75560400  1
  O  O33  1  0.93113800  0.25564700  0.82026500  1
  O  O34  1  0.90737800  0.49154700  0.93758500  1
  O  O35  1  0.35033600  0.32829700  0.74439600  1
  O  O36  1  0.50845300  0.09262200  0.56241500  1
  O  O37  1  0.32829700  0.35033600  0.24439600  1
  O  O38  1  0.48618100  0.06633000  0.12230900  1
  O  O39  1  0.12491300  0.03907300  0.07721200  1
  O  O40  1  0.49154700  0.90737800  0.43758500  1
  O  O41  1  0.52716000  0.37016500  0.91547000  1
  O  O42  1  0.09262200  0.50845300  0.06241500  1
  O  O43  1  0.37016500  0.52716000  0.41547000  1
  O  O44  1  0.71046900  0.14223100  0.17075000  1
  O  O45  1  0.14223100  0.71046900  0.67075000  1
