# generated using pymatgen
data_Zn3Si4(NiO7)2
_symmetry_space_group_name_H-M   'P 1'
_cell_length_a   9.13958804
_cell_length_b   9.13958804
_cell_length_c   9.69278129
_cell_angle_alpha   60.18617049
_cell_angle_beta   60.18617049
_cell_angle_gamma   48.80559925
_symmetry_Int_Tables_number   1
_chemical_formula_structural   Zn3Si4(NiO7)2
_chemical_formula_sum   'Zn6 Si8 Ni4 O28'
_cell_volume   510.43833588
_cell_formula_units_Z   2
loop_
 _symmetry_equiv_pos_site_id
 _symmetry_equiv_pos_as_xyz
  1  'x, y, z'
loop_
 _atom_site_type_symbol
 _atom_site_label
 _atom_site_symmetry_multiplicity
 _atom_site_fract_x
 _atom_site_fract_y
 _atom_site_fract_z
 _atom_site_occupancy
  Zn  Zn0  1  0.07212300  0.26351400  0.10528600  1
  Zn  Zn1  1  0.73648600  0.92787700  0.39471400  1
  Zn  Zn2  1  0.26351400  0.07212300  0.60528600  1
  Zn  Zn3  1  0.38148100  0.61851900  0.75000000  1
  Zn  Zn4  1  0.92787700  0.73648600  0.89471400  1
  Zn  Zn5  1  0.61851900  0.38148100  0.25000000  1
  Si  Si6  1  0.53656200  0.09888500  0.70632100  1
  Si  Si7  1  0.09888500  0.53656200  0.20632100  1
  Si  Si8  1  0.52755100  0.23234800  0.09972100  1
  Si  Si9  1  0.23234800  0.52755100  0.59972100  1
  Si  Si10  1  0.90111500  0.46343800  0.79367900  1
  Si  Si11  1  0.47244900  0.76765200  0.90027900  1
  Si  Si12  1  0.76765200  0.47244900  0.40027900  1
  Si  Si13  1  0.46343800  0.90111500  0.29367900  1
  Ni  Ni14  1  0.78501000  0.21499000  0.75000000  1
  Ni  Ni15  1  0.21499000  0.78501000  0.25000000  1
  Ni  Ni16  1  0.00000000  0.00000000  0.00000000  1
  Ni  Ni17  1  0.00000000  0.00000000  0.50000000  1
  O  O18  1  0.84133800  0.29183500  0.33240600  1
  O  O19  1  0.97535900  0.87548100  0.41710100  1
  O  O20  1  0.45900900  0.63913400  0.09179700  1
  O  O21  1  0.87548100  0.97535900  0.91710100  1
  O  O22  1  0.24068400  0.96495800  0.31457500  1
  O  O23  1  0.05288400  0.51229100  0.62181100  1
  O  O24  1  0.63913400  0.45900800  0.59179700  1
  O  O25  1  0.03504200  0.75931600  0.18542500  1
  O  O26  1  0.94711600  0.48770900  0.37818900  1
  O  O27  1  0.63393700  0.67258300  0.27083500  1
  O  O28  1  0.02464100  0.12451900  0.58289900  1
  O  O29  1  0.75931600  0.03504200  0.68542500  1
  O  O30  1  0.48770900  0.94711600  0.87818900  1
  O  O31  1  0.29183500  0.84133800  0.83240600  1
  O  O32  1  0.67258300  0.63393700  0.77083500  1
  O  O33  1  0.96495800  0.24068400  0.81457500  1
  O  O34  1  0.90761300  0.49427300  0.94147800  1
  O  O35  1  0.36606300  0.32741700  0.72916500  1
  O  O36  1  0.50572700  0.09238700  0.55852200  1
  O  O37  1  0.32741700  0.36606300  0.22916500  1
  O  O38  1  0.51229100  0.05288400  0.12181100  1
  O  O39  1  0.12451900  0.02464100  0.08289900  1
  O  O40  1  0.49427300  0.90761300  0.44147800  1
  O  O41  1  0.54099200  0.36086600  0.90820300  1
  O  O42  1  0.09238700  0.50572700  0.05852200  1
  O  O43  1  0.36086600  0.54099100  0.40820300  1
  O  O44  1  0.70816500  0.15866200  0.16759400  1
  O  O45  1  0.15866200  0.70816500  0.66759400  1
