# generated using pymatgen
data_AlV2O4
_symmetry_space_group_name_H-M   'P 1'
_cell_length_a   5.96061840
_cell_length_b   10.32965015
_cell_length_c   5.96481737
_cell_angle_alpha   90.78701492
_cell_angle_beta   60.08549230
_cell_angle_gamma   73.00134888
_symmetry_Int_Tables_number   1
_chemical_formula_structural   AlV2O4
_chemical_formula_sum   'Al4 V8 O16'
_cell_volume   298.73176856
_cell_formula_units_Z   4
loop_
 _symmetry_equiv_pos_site_id
 _symmetry_equiv_pos_as_xyz
  1  'x, y, z'
loop_
 _atom_site_type_symbol
 _atom_site_label
 _atom_site_symmetry_multiplicity
 _atom_site_fract_x
 _atom_site_fract_y
 _atom_site_fract_z
 _atom_site_occupancy
  Al  Al0  1  0.63318800  0.31409300  0.93493300  1
  Al  Al1  1  0.61931100  0.81538400  0.43503900  1
  Al  Al2  1  0.38155200  0.18570500  0.56455500  1
  Al  Al3  1  0.36553100  0.68641000  0.06447700  1
  V  V4  1  0.49757700  0.00087800  0.00115300  1
  V  V5  1  0.50270300  0.49993000  0.49788500  1
  V  V6  1  0.99978300  0.99982300  0.50194500  1
  V  V7  1  0.99839400  0.50028900  0.00192700  1
  V  V8  1  0.01460200  0.24871200  0.24848600  1
  V  V9  1  0.98679300  0.74943300  0.75037300  1
  V  V10  1  0.00024800  0.50099000  0.50111700  1
  V  V11  1  0.99965100  0.99984000  0.99788400  1
  O  O12  1  0.25787600  0.12146900  0.37916700  1
  O  O13  1  0.23702200  0.62431100  0.88224800  1
  O  O14  1  0.76554300  0.37364100  0.11598800  1
  O  O15  1  0.74044400  0.87915100  0.62322100  1
  O  O16  1  0.75896700  0.37816600  0.62927400  1
  O  O17  1  0.73899700  0.87730500  0.12945500  1
  O  O18  1  0.24679100  0.37399400  0.62880700  1
  O  O19  1  0.24871200  0.87342200  0.12936900  1
  O  O20  1  0.75421600  0.12605900  0.38192200  1
  O  O21  1  0.74062200  0.62007300  0.87665000  1
  O  O22  1  0.74755500  0.12736800  0.87162800  1
  O  O23  1  0.75502400  0.62721400  0.37227800  1
  O  O24  1  0.25951200  0.12298600  0.86941800  1
  O  O25  1  0.24438800  0.62112600  0.36842200  1
  O  O26  1  0.25774700  0.37976400  0.12567700  1
  O  O27  1  0.24725100  0.87246700  0.61670500  1
