# generated using pymatgen
data_NaNiO2
_symmetry_space_group_name_H-M   'P 1'
_cell_length_a   3.03900440
_cell_length_b   11.09424770
_cell_length_c   5.05677013
_cell_angle_alpha   76.92896378
_cell_angle_beta   92.27977287
_cell_angle_gamma   81.57052373
_symmetry_Int_Tables_number   1
_chemical_formula_structural   NaNiO2
_chemical_formula_sum   'Na4 Ni4 O8'
_cell_volume   163.80866990
_cell_formula_units_Z   4
loop_
 _symmetry_equiv_pos_site_id
 _symmetry_equiv_pos_as_xyz
  1  'x, y, z'
loop_
 _atom_site_type_symbol
 _atom_site_label
 _atom_site_symmetry_multiplicity
 _atom_site_fract_x
 _atom_site_fract_y
 _atom_site_fract_z
 _atom_site_occupancy
  Na  Na0  1  0.87360000  0.25002700  0.22024900  1
  Na  Na1  1  0.34631200  0.25026700  0.72111100  1
  Na  Na2  1  0.12595300  0.75002400  0.77952900  1
  Na  Na3  1  0.65318200  0.74975100  0.27886100  1
  Ni  Ni4  1  0.25049100  0.49977700  0.25030800  1
  Ni  Ni5  1  0.49988400  0.00014400  0.49976700  1
  Ni  Ni6  1  0.75038200  0.49990500  0.75016700  1
  Ni  Ni7  1  0.99984200  0.00012200  0.99977200  1
  O  O8  1  0.26619400  0.40208500  0.97987000  1
  O  O9  1  0.76405300  0.40171300  0.48041800  1
  O  O10  1  0.73450900  0.59775500  0.02063400  1
  O  O11  1  0.23633300  0.59806900  0.51998900  1
  O  O12  1  0.51738000  0.90263900  0.86849600  1
  O  O13  1  0.10317800  0.90236900  0.36856000  1
  O  O14  1  0.48231400  0.09753300  0.13114300  1
  O  O15  1  0.89639200  0.09782200  0.63112600  1
