# generated using pymatgen
data_NbVO4
_symmetry_space_group_name_H-M   'P 1'
_cell_length_a   3.96432501
_cell_length_b   9.85188075
_cell_length_c   7.92865054
_cell_angle_alpha   90.00468276
_cell_angle_beta   90.36395291
_cell_angle_gamma   90.00074722
_symmetry_Int_Tables_number   1
_chemical_formula_structural   NbVO4
_chemical_formula_sum   'Nb4 V4 O16'
_cell_volume   309.65558098
_cell_formula_units_Z   4
loop_
 _symmetry_equiv_pos_site_id
 _symmetry_equiv_pos_as_xyz
  1  'x, y, z'
loop_
 _atom_site_type_symbol
 _atom_site_label
 _atom_site_symmetry_multiplicity
 _atom_site_fract_x
 _atom_site_fract_y
 _atom_site_fract_z
 _atom_site_occupancy
  Nb  Nb0  1  0.48138200  0.49998000  0.75918300  1
  Nb  Nb1  1  0.01893300  0.99995900  0.49056300  1
  Nb  Nb2  1  0.48078400  0.49991500  0.25934500  1
  Nb  Nb3  1  0.01874900  0.00016100  0.99074400  1
  V  V4  1  0.50867500  0.75009600  0.50333800  1
  V  V5  1  0.99094100  0.25023100  0.24692200  1
  V  V6  1  0.99306500  0.24987900  0.74646400  1
  V  V7  1  0.50725800  0.74997700  0.00343800  1
  O  O8  1  0.99636900  0.46355100  0.74739900  1
  O  O9  1  0.50452200  0.96351000  0.50223800  1
  O  O10  1  0.99529800  0.46355600  0.24773300  1
  O  O11  1  0.50385500  0.96361900  0.00249000  1
  O  O12  1  0.99451800  0.03657800  0.74786500  1
  O  O13  1  0.50653700  0.53621500  0.50198900  1
  O  O14  1  0.99341500  0.03627900  0.24803700  1
  O  O15  1  0.50575100  0.53650600  0.00207500  1
  O  O16  1  0.00030500  0.79572400  0.49555300  1
  O  O17  1  0.49944700  0.29579200  0.25446900  1
  O  O18  1  0.99937200  0.79580700  0.99503900  1
  O  O19  1  0.50085400  0.29573500  0.75505000  1
  O  O20  1  0.48800300  0.70416200  0.74979900  1
  O  O21  1  0.01251100  0.20427300  0.49982000  1
  O  O22  1  0.48738400  0.70430400  0.25014300  1
  O  O23  1  0.01207200  0.20419100  0.00030500  1
