# generated using pymatgen
data_NaNiO2
_symmetry_space_group_name_H-M   'P 1'
_cell_length_a   3.04885380
_cell_length_b   5.06740004
_cell_length_c   10.65425301
_cell_angle_alpha   89.99725124
_cell_angle_beta   90.00277741
_cell_angle_gamma   85.62260123
_symmetry_Int_Tables_number   1
_chemical_formula_structural   NaNiO2
_chemical_formula_sum   'Na4 Ni4 O8'
_cell_volume   164.12550619
_cell_formula_units_Z   4
loop_
 _symmetry_equiv_pos_site_id
 _symmetry_equiv_pos_as_xyz
  1  'x, y, z'
loop_
 _atom_site_type_symbol
 _atom_site_label
 _atom_site_symmetry_multiplicity
 _atom_site_fract_x
 _atom_site_fract_y
 _atom_site_fract_z
 _atom_site_occupancy
  Na  Na0  1  0.47872000  0.15407800  0.25001100  1
  Na  Na1  1  0.97872500  0.65407000  0.24998500  1
  Na  Na2  1  0.02127200  0.34592100  0.75001600  1
  Na  Na3  1  0.52126900  0.84592900  0.74998600  1
  Ni  Ni4  1  0.49990400  0.50015200  0.49999500  1
  Ni  Ni5  1  0.00008600  0.99985200  0.99999300  1
  Ni  Ni6  1  0.00011000  0.99985300  0.49999600  1
  Ni  Ni7  1  0.49989800  0.50014700  0.99999500  1
  O  O8  1  0.95912000  0.31897400  0.40194400  1
  O  O9  1  0.45905400  0.81892800  0.40199900  1
  O  O10  1  0.54087000  0.18102800  0.59805400  1
  O  O11  1  0.04095100  0.68106400  0.59800300  1
  O  O12  1  0.54082800  0.18105100  0.90195400  1
  O  O13  1  0.04089300  0.68109400  0.90200400  1
  O  O14  1  0.95918700  0.31894600  0.09805700  1
  O  O15  1  0.45911100  0.81891400  0.09800800  1
