# generated using pymatgen
data_Sr2VMoO6
_symmetry_space_group_name_H-M   'P 1'
_cell_length_a   5.66592337
_cell_length_b   5.69810037
_cell_length_c   7.91486809
_cell_angle_alpha   89.98257071
_cell_angle_beta   90.00329325
_cell_angle_gamma   89.95216655
_symmetry_Int_Tables_number   1
_chemical_formula_structural   Sr2VMoO6
_chemical_formula_sum   'Sr4 V2 Mo2 O12'
_cell_volume   255.53141559
_cell_formula_units_Z   2
loop_
 _symmetry_equiv_pos_site_id
 _symmetry_equiv_pos_as_xyz
  1  'x, y, z'
loop_
 _atom_site_type_symbol
 _atom_site_label
 _atom_site_symmetry_multiplicity
 _atom_site_fract_x
 _atom_site_fract_y
 _atom_site_fract_z
 _atom_site_occupancy
  Sr  Sr0  1  0.50007700  0.99716700  0.23045000  1
  Sr  Sr1  1  0.99966800  0.50269300  0.23040700  1
  Sr  Sr2  1  0.50009000  0.00301700  0.76957400  1
  Sr  Sr3  1  0.00014600  0.49718500  0.76958900  1
  V  V4  1  0.49989900  0.50009500  0.99990200  1
  V  V5  1  0.99997500  0.00002300  0.00008200  1
  Mo  Mo6  1  0.00003400  0.99994100  0.50009500  1
  Mo  Mo7  1  0.49998000  0.49997400  0.49990900  1
  O  O8  1  0.99042800  0.04678100  0.23840800  1
  O  O9  1  0.50995600  0.45312000  0.23801300  1
  O  O10  1  0.00965900  0.95317000  0.76175700  1
  O  O11  1  0.49000400  0.54695000  0.76181800  1
  O  O12  1  0.24988600  0.24998600  0.98281300  1
  O  O13  1  0.75010700  0.75006900  0.01719500  1
  O  O14  1  0.25000100  0.75009200  0.02517000  1
  O  O15  1  0.75002700  0.24993900  0.97486900  1
  O  O16  1  0.25103400  0.24895000  0.52754200  1
  O  O17  1  0.74904400  0.75094100  0.47246500  1
  O  O18  1  0.24900800  0.74867500  0.45737200  1
  O  O19  1  0.75097700  0.25123400  0.54256800  1
