# generated using pymatgen
data_CaLa2FeO6
_symmetry_space_group_name_H-M   'P 1'
_cell_length_a   5.93110557
_cell_length_b   10.03618364
_cell_length_c   10.03034774
_cell_angle_alpha   76.35179165
_cell_angle_beta   84.99104528
_cell_angle_gamma   71.90105755
_symmetry_Int_Tables_number   1
_chemical_formula_structural   CaLa2FeO6
_chemical_formula_sum   'Ca4 La8 Fe4 O24'
_cell_volume   551.43267495
_cell_formula_units_Z   4
loop_
 _symmetry_equiv_pos_site_id
 _symmetry_equiv_pos_as_xyz
  1  'x, y, z'
loop_
 _atom_site_type_symbol
 _atom_site_label
 _atom_site_symmetry_multiplicity
 _atom_site_fract_x
 _atom_site_fract_y
 _atom_site_fract_z
 _atom_site_occupancy
  Ca  Ca0  1  0.87501600  0.24994900  0.62498900  1
  Ca  Ca1  1  0.12499200  0.75004100  0.37498700  1
  Ca  Ca2  1  0.37499100  0.25000800  0.12506300  1
  Ca  Ca3  1  0.62502000  0.74999400  0.87495500  1
  La  La4  1  0.33562300  0.37728800  0.43407600  1
  La  La5  1  0.58562200  0.87726600  0.18397300  1
  La  La6  1  0.83568900  0.37722600  0.93401100  1
  La  La7  1  0.08567400  0.87725300  0.68397900  1
  La  La8  1  0.41433200  0.12276900  0.81599600  1
  La  La9  1  0.66444600  0.62270000  0.56596200  1
  La  La10  1  0.91427400  0.12275400  0.31597300  1
  La  La11  1  0.16438200  0.62272300  0.06599700  1
  Fe  Fe12  1  0.50017800  0.99976400  0.50037300  1
  Fe  Fe13  1  0.74963400  0.50034700  0.24972900  1
  Fe  Fe14  1  0.00030400  0.99987100  0.00026000  1
  Fe  Fe15  1  0.24971900  0.50016100  0.74965400  1
  O  O16  1  0.76906800  0.06273900  0.57957100  1
  O  O17  1  0.01901800  0.56300200  0.32946000  1
  O  O18  1  0.26905000  0.06275900  0.07953400  1
  O  O19  1  0.51912800  0.56296000  0.82942700  1
  O  O20  1  0.97150900  0.15753600  0.84986200  1
  O  O21  1  0.22201700  0.65750400  0.59966700  1
  O  O22  1  0.47149000  0.15761500  0.34991100  1
  O  O23  1  0.72190000  0.65757800  0.09968500  1
  O  O24  1  0.48619800  0.37717800  0.65303300  1
  O  O25  1  0.73632900  0.87737300  0.40297400  1
  O  O26  1  0.98610100  0.37726100  0.15298600  1
  O  O27  1  0.23629100  0.87734000  0.90298800  1
  O  O28  1  0.98098700  0.43720700  0.67044700  1
  O  O29  1  0.23086100  0.93705800  0.42057600  1
  O  O30  1  0.48091800  0.43724600  0.17045300  1
  O  O31  1  0.73094900  0.93700800  0.92055400  1
  O  O32  1  0.26390900  0.12271400  0.59704500  1
  O  O33  1  0.51367800  0.62269800  0.34696300  1
  O  O34  1  0.76384900  0.12275000  0.09701600  1
  O  O35  1  0.01375800  0.62264100  0.84697100  1
  O  O36  1  0.77839300  0.34246200  0.40015800  1
  O  O37  1  0.02808100  0.84243900  0.15029300  1
  O  O38  1  0.27848800  0.34246600  0.90015700  1
  O  O39  1  0.52813500  0.84235000  0.65029300  1
