# generated using pymatgen
data_Zn2CrWO6
_symmetry_space_group_name_H-M   'P 1'
_cell_length_a   5.23233909
_cell_length_b   5.55214536
_cell_length_c   7.63106745
_cell_angle_alpha   85.48920969
_cell_angle_beta   90.00957084
_cell_angle_gamma   89.50526170
_symmetry_Int_Tables_number   1
_chemical_formula_structural   Zn2CrWO6
_chemical_formula_sum   'Zn4 Cr2 W2 O12'
_cell_volume   220.99291785
_cell_formula_units_Z   2
loop_
 _symmetry_equiv_pos_site_id
 _symmetry_equiv_pos_as_xyz
  1  'x, y, z'
loop_
 _atom_site_type_symbol
 _atom_site_label
 _atom_site_symmetry_multiplicity
 _atom_site_fract_x
 _atom_site_fract_y
 _atom_site_fract_z
 _atom_site_occupancy
  Zn  Zn0  1  0.01025700  0.48643800  0.23307900  1
  Zn  Zn1  1  0.51025400  0.98657700  0.73316500  1
  Zn  Zn2  1  0.50538200  0.06270700  0.26804300  1
  Zn  Zn3  1  0.00540300  0.56324700  0.76817700  1
  Cr  Cr4  1  0.50810600  0.50382500  0.99020200  1
  Cr  Cr5  1  0.00801400  0.00392600  0.49010400  1
  W  W6  1  0.50839100  0.50883500  0.49267800  1
  W  W7  1  0.00844900  0.00888200  0.99261900  1
  O  O8  1  0.18511400  0.68929000  0.04935500  1
  O  O9  1  0.68517200  0.18929800  0.54949500  1
  O  O10  1  0.20555100  0.30988800  0.42006500  1
  O  O11  1  0.70548900  0.80985500  0.92007300  1
  O  O12  1  0.64012900  0.49351600  0.24202200  1
  O  O13  1  0.14009000  0.99340000  0.74195800  1
  O  O14  1  0.32798300  0.81747600  0.42872800  1
  O  O15  1  0.82820200  0.31748900  0.92889700  1
  O  O16  1  0.87408000  0.00631900  0.24050500  1
  O  O17  1  0.37404400  0.50621900  0.74061700  1
  O  O18  1  0.31848200  0.19340100  0.05625100  1
  O  O19  1  0.81808200  0.69357300  0.55628800  1
