# generated using pymatgen
data_YMn(WO4)2
_symmetry_space_group_name_H-M   'P 1'
_cell_length_a   5.26217270
_cell_length_b   6.85477275
_cell_length_c   9.86397152
_cell_angle_alpha   89.18355577
_cell_angle_beta   74.69601866
_cell_angle_gamma   69.88724799
_symmetry_Int_Tables_number   1
_chemical_formula_structural   YMn(WO4)2
_chemical_formula_sum   'Y2 Mn2 W4 O16'
_cell_volume   321.10600991
_cell_formula_units_Z   2
loop_
 _symmetry_equiv_pos_site_id
 _symmetry_equiv_pos_as_xyz
  1  'x, y, z'
loop_
 _atom_site_type_symbol
 _atom_site_label
 _atom_site_symmetry_multiplicity
 _atom_site_fract_x
 _atom_site_fract_y
 _atom_site_fract_z
 _atom_site_occupancy
  Y  Y0  1  0.52972000  0.41767600  0.68758900  1
  Y  Y1  1  0.52981500  0.91757900  0.18761200  1
  Mn  Mn2  1  0.00546300  0.26598400  0.88688000  1
  Mn  Mn3  1  0.00554500  0.76580400  0.38690200  1
  W  W4  1  0.29344300  0.47772600  0.10546400  1
  W  W5  1  0.29338500  0.97777800  0.60546800  1
  W  W6  1  0.76668900  0.83029900  0.77938400  1
  W  W7  1  0.76682400  0.33019300  0.27937800  1
  O  O8  1  0.28655200  0.74707300  0.10922600  1
  O  O9  1  0.28643100  0.24713600  0.60925600  1
  O  O10  1  0.27943800  0.41071500  0.91455500  1
  O  O11  1  0.27943700  0.91071600  0.41455700  1
  O  O12  1  0.36883700  0.47755300  0.30959500  1
  O  O13  1  0.36868400  0.97761400  0.80961200  1
  O  O14  1  0.17674300  0.22266300  0.17606700  1
  O  O15  1  0.17661400  0.72272800  0.67603800  1
  O  O16  1  0.77455600  0.88312100  0.95659200  1
  O  O17  1  0.77462000  0.38302900  0.45660200  1
  O  O18  1  0.76891000  0.55583000  0.79678500  1
  O  O19  1  0.76903300  0.05572600  0.29677600  1
  O  O20  1  0.69838400  0.30176800  0.07342700  1
  O  O21  1  0.69833000  0.80177000  0.57340200  1
  O  O22  1  0.85122400  0.59702700  0.21322000  1
  O  O23  1  0.85112400  0.09708500  0.71321400  1
