# generated using pymatgen
data_Na2CoO3
_symmetry_space_group_name_H-M   'P 1'
_cell_length_a   5.41832798
_cell_length_b   8.52230446
_cell_length_c   6.39377525
_cell_angle_alpha   79.85262469
_cell_angle_beta   73.02286886
_cell_angle_gamma   85.22833601
_symmetry_Int_Tables_number   1
_chemical_formula_structural   Na2CoO3
_chemical_formula_sum   'Na8 Co4 O12'
_cell_volume   277.80176318
_cell_formula_units_Z   4
loop_
 _symmetry_equiv_pos_site_id
 _symmetry_equiv_pos_as_xyz
  1  'x, y, z'
loop_
 _atom_site_type_symbol
 _atom_site_label
 _atom_site_symmetry_multiplicity
 _atom_site_fract_x
 _atom_site_fract_y
 _atom_site_fract_z
 _atom_site_occupancy
  Na  Na0  1  0.50313900  0.50033800  0.00030300  1
  Na  Na1  1  0.99645300  0.99949800  0.49967800  1
  Na  Na2  1  0.99812300  0.00009500  0.99931100  1
  Na  Na3  1  0.50210800  0.49969200  0.50062800  1
  Na  Na4  1  0.00059200  0.31885100  0.16609100  1
  Na  Na5  1  0.49802600  0.82002000  0.66472200  1
  Na  Na6  1  0.00167200  0.67993900  0.83526500  1
  Na  Na7  1  0.49946800  0.18106300  0.33394100  1
  Co  Co8  1  0.47650500  0.85717400  0.16614300  1
  Co  Co9  1  0.51999900  0.14502600  0.83310400  1
  Co  Co10  1  0.98024800  0.35498200  0.66697300  1
  Co  Co11  1  0.02344900  0.64279500  0.33381400  1
  O  O12  1  0.27399600  0.74072100  0.05695900  1
  O  O13  1  0.77405000  0.24134900  0.55707300  1
  O  O14  1  0.72626000  0.25860900  0.94305400  1
  O  O15  1  0.22598800  0.75931500  0.44296800  1
  O  O16  1  0.18319300  0.40844400  0.80656300  1
  O  O17  1  0.67907500  0.91083300  0.30561100  1
  O  O18  1  0.80702300  0.57994700  0.62233000  1
  O  O19  1  0.30259800  0.08128200  0.12148700  1
  O  O20  1  0.82088800  0.58919800  0.19437800  1
  O  O21  1  0.31671500  0.09204400  0.69351900  1
  O  O22  1  0.19749000  0.41872400  0.37851600  1
  O  O23  1  0.69294200  0.92006200  0.87757000  1
