# generated using pymatgen
data_Zn2CoWO6
_symmetry_space_group_name_H-M   'P 1'
_cell_length_a   5.25897978
_cell_length_b   5.25986614
_cell_length_c   9.83612493
_cell_angle_alpha   74.46417167
_cell_angle_beta   105.53555136
_cell_angle_gamma   119.99755908
_symmetry_Int_Tables_number   1
_chemical_formula_structural   Zn2CoWO6
_chemical_formula_sum   'Zn4 Co2 W2 O12'
_cell_volume   224.08317422
_cell_formula_units_Z   2
loop_
 _symmetry_equiv_pos_site_id
 _symmetry_equiv_pos_as_xyz
  1  'x, y, z'
loop_
 _atom_site_type_symbol
 _atom_site_label
 _atom_site_symmetry_multiplicity
 _atom_site_fract_x
 _atom_site_fract_y
 _atom_site_fract_z
 _atom_site_occupancy
  Zn  Zn0  1  0.61425700  0.38651100  0.82644100  1
  Zn  Zn1  1  0.11426800  0.88651000  0.32643900  1
  Zn  Zn2  1  0.38329500  0.61754500  0.13424300  1
  Zn  Zn3  1  0.88330100  0.11755400  0.63424100  1
  Co  Co4  1  0.25822400  0.74259200  0.75867800  1
  Co  Co5  1  0.75823000  0.24258600  0.25867800  1
  W  W6  1  0.00704500  0.99393900  0.00529900  1
  W  W7  1  0.50704400  0.49394000  0.50529200  1
  O  O8  1  0.26883600  0.46578500  0.64411700  1
  O  O9  1  0.76883800  0.96577700  0.14411300  1
  O  O10  1  0.76603100  0.50690400  0.39691700  1
  O  O11  1  0.26603900  0.00689400  0.89692000  1
  O  O12  1  0.99421600  0.34866800  0.89713900  1
  O  O13  1  0.49421900  0.84866600  0.39714200  1
  O  O14  1  0.65256300  0.73414000  0.89708600  1
  O  O15  1  0.15257200  0.23413000  0.39709000  1
  O  O16  1  0.35652400  0.23237500  0.14425100  1
  O  O17  1  0.85652400  0.73237600  0.64424900  1
  O  O18  1  0.03564300  0.64515900  0.14457200  1
  O  O19  1  0.53564100  0.14515700  0.64456500  1
