# generated using pymatgen
data_Mg2V3O8
_symmetry_space_group_name_H-M   'P 1'
_cell_length_a   4.92362107
_cell_length_b   5.94879600
_cell_length_c   9.86248643
_cell_angle_alpha   90.07707172
_cell_angle_beta   83.29900800
_cell_angle_gamma   90.01730830
_symmetry_Int_Tables_number   1
_chemical_formula_structural   Mg2V3O8
_chemical_formula_sum   'Mg4 V6 O16'
_cell_volume   286.89482302
_cell_formula_units_Z   2
loop_
 _symmetry_equiv_pos_site_id
 _symmetry_equiv_pos_as_xyz
  1  'x, y, z'
loop_
 _atom_site_type_symbol
 _atom_site_label
 _atom_site_symmetry_multiplicity
 _atom_site_fract_x
 _atom_site_fract_y
 _atom_site_fract_z
 _atom_site_occupancy
  Mg  Mg0  1  0.43477400  0.50198000  0.22410300  1
  Mg  Mg1  1  0.92465800  0.99702400  0.72465600  1
  Mg  Mg2  1  0.07479600  0.99699300  0.27559100  1
  Mg  Mg3  1  0.56546500  0.50137000  0.77578100  1
  V  V4  1  0.99920700  0.49890300  0.50004300  1
  V  V5  1  0.50009400  0.00135700  0.00010000  1
  V  V6  1  0.99996400  0.73317700  0.99993600  1
  V  V7  1  0.50161700  0.25596500  0.49956300  1
  V  V8  1  0.49881500  0.78252000  0.50031400  1
  V  V9  1  0.00002300  0.26773000  0.00007100  1
  O  O10  1  0.69047900  0.98568700  0.39503900  1
  O  O11  1  0.18688400  0.50054400  0.89537900  1
  O  O12  1  0.81313100  0.50096600  0.10439500  1
  O  O13  1  0.30953100  0.98589800  0.60524400  1
  O  O14  1  0.67370000  0.50509700  0.39076400  1
  O  O15  1  0.20631100  0.00053800  0.89323400  1
  O  O16  1  0.79374300  0.00070300  0.10681800  1
  O  O17  1  0.32718100  0.50608800  0.60821700  1
  O  O18  1  0.27725800  0.22636000  0.11702600  1
  O  O19  1  0.77971600  0.72650900  0.61417900  1
  O  O20  1  0.27685200  0.77586200  0.11714600  1
  O  O21  1  0.78266800  0.26040100  0.61410100  1
  O  O22  1  0.22096500  0.72632200  0.38542400  1
  O  O23  1  0.72267300  0.22605700  0.88326000  1
  O  O24  1  0.21642000  0.26034900  0.38689200  1
  O  O25  1  0.72307400  0.77559800  0.88272600  1
