# generated using pymatgen
data_VO
_symmetry_space_group_name_H-M   'P 1'
_cell_length_a   3.13190718
_cell_length_b   8.78596307
_cell_length_c   3.12927960
_cell_angle_alpha   89.99928263
_cell_angle_beta   90.00000552
_cell_angle_gamma   90.29660470
_symmetry_Int_Tables_number   1
_chemical_formula_structural   VO
_chemical_formula_sum   'V4 O4'
_cell_volume   86.10667222
_cell_formula_units_Z   4
loop_
 _symmetry_equiv_pos_site_id
 _symmetry_equiv_pos_as_xyz
  1  'x, y, z'
loop_
 _atom_site_type_symbol
 _atom_site_label
 _atom_site_symmetry_multiplicity
 _atom_site_fract_x
 _atom_site_fract_y
 _atom_site_fract_z
 _atom_site_occupancy
  V  V0  1  0.99855000  0.49332000  0.00000100  1
  V  V1  1  0.50144800  0.75668200  0.49999900  1
  V  V2  1  0.99855700  0.99332200  0.00000200  1
  V  V3  1  0.50144100  0.25668000  0.49999800  1
  O  O4  1  0.00168900  0.74355800  0.00000000  1
  O  O5  1  0.49832000  0.00644300  0.50000100  1
  O  O6  1  0.00168100  0.24355500  0.99999900  1
  O  O7  1  0.49831300  0.50644000  0.50000000  1
