# generated using pymatgen
data_MnZn2SbO6
_symmetry_space_group_name_H-M   'P 1'
_cell_length_a   5.36751896
_cell_length_b   10.64147836
_cell_length_c   7.66834200
_cell_angle_alpha   90.00053295
_cell_angle_beta   90.00027212
_cell_angle_gamma   93.86371889
_symmetry_Int_Tables_number   1
_chemical_formula_structural   MnZn2SbO6
_chemical_formula_sum   'Mn4 Zn8 Sb4 O24'
_cell_volume   437.00742568
_cell_formula_units_Z   4
loop_
 _symmetry_equiv_pos_site_id
 _symmetry_equiv_pos_as_xyz
  1  'x, y, z'
loop_
 _atom_site_type_symbol
 _atom_site_label
 _atom_site_symmetry_multiplicity
 _atom_site_fract_x
 _atom_site_fract_y
 _atom_site_fract_z
 _atom_site_occupancy
  Mn  Mn0  1  0.50001900  0.50004300  0.50003300  1
  Mn  Mn1  1  0.50014500  0.49997500  0.99999700  1
  Mn  Mn2  1  0.49984200  0.00003500  0.49997300  1
  Mn  Mn3  1  0.49989200  0.99992200  0.00021200  1
  Zn  Zn4  1  0.52137800  0.27645600  0.75000100  1
  Zn  Zn5  1  0.52137000  0.77648900  0.74997200  1
  Zn  Zn6  1  0.47868100  0.22355600  0.24997500  1
  Zn  Zn7  1  0.47863600  0.72348500  0.25000100  1
  Zn  Zn8  1  0.04099500  0.00699600  0.74998800  1
  Zn  Zn9  1  0.04093500  0.50701200  0.74998200  1
  Zn  Zn10  1  0.95898200  0.49301200  0.24998200  1
  Zn  Zn11  1  0.95903900  0.99299500  0.24998300  1
  Sb  Sb12  1  0.00006000  0.25002200  0.49998500  1
  Sb  Sb13  1  0.00002600  0.75001500  0.49998400  1
  Sb  Sb14  1  0.99998900  0.24999500  0.99997400  1
  Sb  Sb15  1  0.99996000  0.74999000  0.99997500  1
  O  O16  1  0.87133100  0.29472600  0.24998900  1
  O  O17  1  0.87132200  0.79472500  0.24998800  1
  O  O18  1  0.12868400  0.20527400  0.74998900  1
  O  O19  1  0.12868000  0.70526800  0.74998800  1
  O  O20  1  0.39907500  0.45919900  0.74999500  1
  O  O21  1  0.39909500  0.95920300  0.75001400  1
  O  O22  1  0.60093900  0.04081300  0.25001800  1
  O  O23  1  0.60090500  0.54079900  0.24998900  1
  O  O24  1  0.33037300  0.33875300  0.43664700  1
  O  O25  1  0.33035000  0.83872200  0.43663900  1
  O  O26  1  0.66964900  0.16126100  0.93666700  1
  O  O27  1  0.66963700  0.66124400  0.93663100  1
  O  O28  1  0.33033100  0.33871400  0.06336100  1
  O  O29  1  0.33031100  0.83868700  0.06340300  1
  O  O30  1  0.66968200  0.16129100  0.56337300  1
  O  O31  1  0.66968600  0.66129400  0.56334800  1
  O  O32  1  0.15559000  0.09608600  0.07058400  1
  O  O33  1  0.15557400  0.59608900  0.07057800  1
  O  O34  1  0.84442100  0.40392100  0.57057500  1
  O  O35  1  0.84442000  0.90391900  0.57056900  1
  O  O36  1  0.15559100  0.09609100  0.42940200  1
  O  O37  1  0.15557600  0.59609600  0.42940800  1
  O  O38  1  0.84441300  0.40391500  0.92940900  1
  O  O39  1  0.84441800  0.90391000  0.92941800  1
