# generated using pymatgen
data_CaLa2CoO6
_symmetry_space_group_name_H-M   'P 1'
_cell_length_a   5.82620470
_cell_length_b   5.81415035
_cell_length_c   9.56940527
_cell_angle_alpha   107.61225957
_cell_angle_beta   89.95366546
_cell_angle_gamma   119.89492600
_symmetry_Int_Tables_number   1
_chemical_formula_structural   CaLa2CoO6
_chemical_formula_sum   'Ca2 La4 Co2 O12'
_cell_volume   263.40294964
_cell_formula_units_Z   2
loop_
 _symmetry_equiv_pos_site_id
 _symmetry_equiv_pos_as_xyz
  1  'x, y, z'
loop_
 _atom_site_type_symbol
 _atom_site_label
 _atom_site_symmetry_multiplicity
 _atom_site_fract_x
 _atom_site_fract_y
 _atom_site_fract_z
 _atom_site_occupancy
  Ca  Ca0  1  0.25072100  0.50033600  0.75012400  1
  Ca  Ca1  1  0.74928000  0.49966400  0.24987600  1
  La  La2  1  0.38063800  0.75991500  0.14082600  1
  La  La3  1  0.88003900  0.76040700  0.64122600  1
  La  La4  1  0.11996100  0.23959300  0.35877400  1
  La  La5  1  0.61936100  0.24008400  0.85917400  1
  Co  Co6  1  0.50000000  0.00000000  0.50000000  1
  Co  Co7  1  0.00000000  0.00000000  0.00000000  1
  O  O8  1  0.30557400  0.13838400  0.62273100  1
  O  O9  1  0.80609700  0.13783900  0.12213500  1
  O  O10  1  0.83236100  0.31643400  0.62244100  1
  O  O11  1  0.33410400  0.31834900  0.12304500  1
  O  O12  1  0.48413200  0.79008200  0.62258000  1
  O  O13  1  0.98412800  0.79056200  0.12215300  1
  O  O14  1  0.19390300  0.86216100  0.87786500  1
  O  O15  1  0.69442600  0.86161600  0.37726900  1
  O  O16  1  0.01587300  0.20943800  0.87784700  1
  O  O17  1  0.51586800  0.20991800  0.37742000  1
  O  O18  1  0.66589600  0.68165100  0.87695500  1
  O  O19  1  0.16763900  0.68356600  0.37756000  1
