# generated using pymatgen
data_VZn2SbO6
_symmetry_space_group_name_H-M   'P 1'
_cell_length_a   7.43651616
_cell_length_b   7.55592936
_cell_length_c   7.76190900
_cell_angle_alpha   89.99859016
_cell_angle_beta   90.00002901
_cell_angle_gamma   89.77277738
_symmetry_Int_Tables_number   1
_chemical_formula_structural   VZn2SbO6
_chemical_formula_sum   'V4 Zn8 Sb4 O24'
_cell_volume   436.13661336
_cell_formula_units_Z   4
loop_
 _symmetry_equiv_pos_site_id
 _symmetry_equiv_pos_as_xyz
  1  'x, y, z'
loop_
 _atom_site_type_symbol
 _atom_site_label
 _atom_site_symmetry_multiplicity
 _atom_site_fract_x
 _atom_site_fract_y
 _atom_site_fract_z
 _atom_site_occupancy
  V  V0  1  0.74998400  0.24999000  0.50002900  1
  V  V1  1  0.24999300  0.74999900  0.00000300  1
  V  V2  1  0.25003100  0.75000000  0.49998000  1
  V  V3  1  0.75000800  0.25000100  0.00004400  1
  Zn  Zn4  1  0.53265100  0.01848000  0.75014900  1
  Zn  Zn5  1  0.03261000  0.51853900  0.74983500  1
  Zn  Zn6  1  0.46739000  0.98146900  0.25015500  1
  Zn  Zn7  1  0.96734700  0.48152600  0.24985500  1
  Zn  Zn8  1  0.02134400  0.99223300  0.74985700  1
  Zn  Zn9  1  0.52131600  0.49228500  0.75011500  1
  Zn  Zn10  1  0.97868500  0.00771100  0.24988400  1
  Zn  Zn11  1  0.47865800  0.50776200  0.25013700  1
  Sb  Sb12  1  0.24999700  0.25000200  0.49999700  1
  Sb  Sb13  1  0.75000500  0.74999900  0.49999700  1
  Sb  Sb14  1  0.24999900  0.25000100  0.99999700  1
  Sb  Sb15  1  0.74999800  0.75000100  0.99999700  1
  O  O16  1  0.72579100  0.85560100  0.25013300  1
  O  O17  1  0.22582600  0.35558700  0.24984200  1
  O  O18  1  0.27417300  0.14441600  0.75015200  1
  O  O19  1  0.77420200  0.64440100  0.74986100  1
  O  O20  1  0.65590500  0.26392200  0.75001500  1
  O  O21  1  0.15596900  0.76394100  0.74998900  1
  O  O22  1  0.34403500  0.73605800  0.25000500  1
  O  O23  1  0.84409600  0.23607600  0.25000100  1
  O  O24  1  0.49865700  0.17522500  0.43350400  1
  O  O25  1  0.99890500  0.67554400  0.43362000  1
  O  O26  1  0.50135900  0.82478100  0.93351200  1
  O  O27  1  0.00104500  0.32443900  0.93361000  1
  O  O28  1  0.49895100  0.17555800  0.06639200  1
  O  O29  1  0.99863500  0.67521700  0.06648700  1
  O  O30  1  0.50110600  0.82446200  0.56637200  1
  O  O31  1  0.00133600  0.32477500  0.56649000  1
  O  O32  1  0.17427900  0.00913100  0.06769300  1
  O  O33  1  0.67405200  0.50934300  0.06791700  1
  O  O34  1  0.82573700  0.99086400  0.56770800  1
  O  O35  1  0.32593600  0.49065100  0.56788500  1
  O  O36  1  0.17406800  0.00934900  0.43210600  1
  O  O37  1  0.67425800  0.50913400  0.43228800  1
  O  O38  1  0.82594400  0.99065800  0.93208300  1
  O  O39  1  0.32571900  0.49086900  0.93230500  1
