# generated using pymatgen
data_Ca3Mn2(WO6)2
_symmetry_space_group_name_H-M   'P 1'
_cell_length_a   5.51906204
_cell_length_b   5.64416475
_cell_length_c   7.60970804
_cell_angle_alpha   90.54105184
_cell_angle_beta   89.81194726
_cell_angle_gamma   94.30410633
_symmetry_Int_Tables_number   1
_chemical_formula_structural   Ca3Mn2(WO6)2
_chemical_formula_sum   'Ca3 Mn2 W2 O12'
_cell_volume   236.36632140
_cell_formula_units_Z   1
loop_
 _symmetry_equiv_pos_site_id
 _symmetry_equiv_pos_as_xyz
  1  'x, y, z'
loop_
 _atom_site_type_symbol
 _atom_site_label
 _atom_site_symmetry_multiplicity
 _atom_site_fract_x
 _atom_site_fract_y
 _atom_site_fract_z
 _atom_site_occupancy
  Ca  Ca0  1  0.00000000  0.05100900  0.25466200  1
  Ca  Ca1  1  0.00162300  0.95283200  0.75080700  1
  Ca  Ca2  1  0.48019400  0.44783600  0.75028300  1
  Mn  Mn3  1  0.99334000  0.50120100  0.50075300  1
  Mn  Mn4  1  0.50251300  0.98858800  0.00040100  1
  W  W5  1  0.99529600  0.50201500  0.00992000  1
  W  W6  1  0.50105800  0.98988900  0.49181900  1
  O  O7  1  0.71616900  0.27590500  0.46114200  1
  O  O8  1  0.83075500  0.78929300  0.03515400  1
  O  O9  1  0.28587800  0.71167000  0.55437900  1
  O  O10  1  0.18966400  0.23607700  0.95036500  1
  O  O11  1  0.22856600  0.18604200  0.54199600  1
  O  O12  1  0.28777700  0.71246500  0.94330200  1
  O  O13  1  0.78417800  0.81596600  0.46834400  1
  O  O14  1  0.71638100  0.28183800  0.03839900  1
  O  O15  1  0.07303800  0.48387300  0.25116200  1
  O  O16  1  0.41341700  0.97229700  0.24941100  1
  O  O17  1  0.58057600  0.02381000  0.75152200  1
  O  O18  1  0.90545200  0.52174500  0.74948200  1
