# generated using pymatgen
data_Mg2CrSbO6
_symmetry_space_group_name_H-M   'P 1'
_cell_length_a   5.17777219
_cell_length_b   5.36812823
_cell_length_c   7.64032200
_cell_angle_alpha   89.99998198
_cell_angle_beta   89.99993683
_cell_angle_gamma   90.48976429
_symmetry_Int_Tables_number   1
_chemical_formula_structural   Mg2CrSbO6
_chemical_formula_sum   'Mg4 Cr2 Sb2 O12'
_cell_volume   212.35457181
_cell_formula_units_Z   2
loop_
 _symmetry_equiv_pos_site_id
 _symmetry_equiv_pos_as_xyz
  1  'x, y, z'
loop_
 _atom_site_type_symbol
 _atom_site_label
 _atom_site_symmetry_multiplicity
 _atom_site_fract_x
 _atom_site_fract_y
 _atom_site_fract_z
 _atom_site_occupancy
  Mg  Mg0  1  0.51880500  0.57139000  0.75000000  1
  Mg  Mg1  1  0.48119400  0.42860700  0.25000200  1
  Mg  Mg2  1  0.00478200  0.03773200  0.75000200  1
  Mg  Mg3  1  0.99521800  0.96226700  0.24999800  1
  Cr  Cr4  1  0.50000400  0.00000200  0.49999700  1
  Cr  Cr5  1  0.50000200  0.00000400  0.99999600  1
  Sb  Sb6  1  0.00000000  0.50000000  0.50000000  1
  Sb  Sb7  1  0.00000000  0.50000000  0.00000000  1
  O  O8  1  0.31796100  0.67972700  0.43000200  1
  O  O9  1  0.17596100  0.18863200  0.06993400  1
  O  O10  1  0.68204000  0.32027200  0.93000300  1
  O  O11  1  0.82403700  0.81137000  0.56993400  1
  O  O12  1  0.17596300  0.18863000  0.43006700  1
  O  O13  1  0.82403600  0.81136900  0.93006500  1
  O  O14  1  0.86219600  0.57190600  0.25000000  1
  O  O15  1  0.31795900  0.67972600  0.06999800  1
  O  O16  1  0.37559100  0.92903300  0.75000100  1
  O  O17  1  0.68203900  0.32027400  0.56999700  1
  O  O18  1  0.13780200  0.42809400  0.75000100  1
  O  O19  1  0.62440900  0.07096700  0.25000100  1
