# generated using pymatgen
data_Sr2CrOsO6
_symmetry_space_group_name_H-M   'P 1'
_cell_length_a   5.63020280
_cell_length_b   5.58134644
_cell_length_c   7.93027807
_cell_angle_alpha   90.74536528
_cell_angle_beta   89.97717246
_cell_angle_gamma   89.99410261
_symmetry_Int_Tables_number   1
_chemical_formula_structural   Sr2CrOsO6
_chemical_formula_sum   'Sr4 Cr2 Os2 O12'
_cell_volume   249.18084143
_cell_formula_units_Z   2
loop_
 _symmetry_equiv_pos_site_id
 _symmetry_equiv_pos_as_xyz
  1  'x, y, z'
loop_
 _atom_site_type_symbol
 _atom_site_label
 _atom_site_symmetry_multiplicity
 _atom_site_fract_x
 _atom_site_fract_y
 _atom_site_fract_z
 _atom_site_occupancy
  Sr  Sr0  1  0.00104700  0.50450500  0.74907000  1
  Sr  Sr1  1  0.49908300  0.99545700  0.25104700  1
  Sr  Sr2  1  0.99895600  0.49559800  0.25097700  1
  Sr  Sr3  1  0.50100400  0.00451100  0.74900500  1
  Cr  Cr4  1  0.99985400  0.00001200  0.49999600  1
  Cr  Cr5  1  0.49982100  0.50002400  0.99991700  1
  Os  Os6  1  0.49992300  0.49996700  0.49991000  1
  Os  Os7  1  0.99998200  0.00004800  0.99997800  1
  O  O8  1  0.73156300  0.23519100  0.52192600  1
  O  O9  1  0.21634800  0.72165800  0.02470300  1
  O  O10  1  0.23508600  0.26831400  0.47763500  1
  O  O11  1  0.72288600  0.78263500  0.97447000  1
  O  O12  1  0.05229700  0.99786500  0.75267200  1
  O  O13  1  0.54352400  0.50051100  0.25183400  1
  O  O14  1  0.26858400  0.76487200  0.47819400  1
  O  O15  1  0.78364400  0.27829200  0.97534000  1
  O  O16  1  0.76491700  0.73162600  0.52245500  1
  O  O17  1  0.27718600  0.21729300  0.02553800  1
  O  O18  1  0.94783100  0.00212200  0.24739900  1
  O  O19  1  0.45646600  0.49950000  0.74793500  1
