data_image0
_chemical_formula_structural       Pt8Ti
_chemical_formula_sum              "Pt8 Ti1"
_cell_length_a       3.92284
_cell_length_b       6.23904
_cell_length_c       6.23904
_cell_angle_alpha    95.672
_cell_angle_beta     71.6767
_cell_angle_gamma    108.323

_space_group_name_H-M_alt    "P 1"
_space_group_IT_number       1

loop_
  _space_group_symop_operation_xyz
  'x, y, z'

loop_
  _atom_site_type_symbol
  _atom_site_label
  _atom_site_symmetry_multiplicity
  _atom_site_fract_x
  _atom_site_fract_y
  _atom_site_fract_z
  _atom_site_occupancy
  Pt  Pt1       1.0  0.66200  0.32400  0.00000  1.0000
  Pt  Pt2       1.0  0.33800  0.67600  0.00000  1.0000
  Pt  Pt3       1.0  0.33800  0.00000  0.32400  1.0000
  Pt  Pt4       1.0  0.00000  0.32900  0.32900  1.0000
  Pt  Pt5       1.0  0.67100  0.67100  0.32900  1.0000
  Pt  Pt6       1.0  0.32900  0.32900  0.67100  1.0000
  Pt  Pt7       1.0  0.00000  0.67100  0.67100  1.0000
  Pt  Pt8       1.0  0.66200  0.00000  0.67600  1.0000
  Ti  Ti1       1.0  0.00000  0.00000  0.00000  1.0000
