# generated using pymatgen
data_CoO2
_symmetry_space_group_name_H-M   'P 1'
_cell_length_a   2.82253965
_cell_length_b   7.11076029
_cell_length_c   4.92880462
_cell_angle_alpha   96.64342046
_cell_angle_beta   90.01219883
_cell_angle_gamma   78.55540472
_symmetry_Int_Tables_number   1
_chemical_formula_structural   CoO2
_chemical_formula_sum   'Co2 O4'
_cell_volume   96.27890431
_cell_formula_units_Z   2
loop_
 _symmetry_equiv_pos_site_id
 _symmetry_equiv_pos_as_xyz
  1  'x, y, z'
loop_
 _atom_site_type_symbol
 _atom_site_label
 _atom_site_symmetry_multiplicity
 _atom_site_fract_x
 _atom_site_fract_y
 _atom_site_fract_z
 _atom_site_occupancy
  Co  Co0  1  0.50000000  0.00000000  0.50000000  1
  Co  Co1  1  0.00000000  0.00000000  0.00000000  1
  O  O2  1  0.56795500  0.86408900  0.81061600  1
  O  O3  1  0.06796200  0.86410400  0.31059100  1
  O  O4  1  0.93203700  0.13589700  0.68941000  1
  O  O5  1  0.43204500  0.13591000  0.18938400  1
