# generated using pymatgen
data_KCoO2
_symmetry_space_group_name_H-M   'P 1'
_cell_length_a   6.51227272
_cell_length_b   6.49269733
_cell_length_c   6.92327503
_cell_angle_alpha   73.38821918
_cell_angle_beta   76.37590778
_cell_angle_gamma   104.05179943
_symmetry_Int_Tables_number   1
_chemical_formula_structural   KCoO2
_chemical_formula_sum   'K4 Co4 O8'
_cell_volume   257.05977685
_cell_formula_units_Z   4
loop_
 _symmetry_equiv_pos_site_id
 _symmetry_equiv_pos_as_xyz
  1  'x, y, z'
loop_
 _atom_site_type_symbol
 _atom_site_label
 _atom_site_symmetry_multiplicity
 _atom_site_fract_x
 _atom_site_fract_y
 _atom_site_fract_z
 _atom_site_occupancy
  K  K0  1  0.73219100  0.65236900  0.73128900  1
  K  K1  1  0.23224300  0.65246900  0.73124500  1
  K  K2  1  0.26776100  0.34754400  0.26875400  1
  K  K3  1  0.76781200  0.34763500  0.26871300  1
  Co  Co4  1  0.92236100  0.89234000  0.20691100  1
  Co  Co5  1  0.57763800  0.10765900  0.79309000  1
  Co  Co6  1  0.42240700  0.89247600  0.20688300  1
  Co  Co7  1  0.07759300  0.10752300  0.79311600  1
  O  O8  1  0.04365700  0.20617100  0.02813000  1
  O  O9  1  0.54364300  0.20609300  0.02811700  1
  O  O10  1  0.95635600  0.79390700  0.97188400  1
  O  O11  1  0.45634300  0.79382900  0.97187000  1
  O  O12  1  0.88130400  0.18136300  0.65007100  1
  O  O13  1  0.38141100  0.18138100  0.65007700  1
  O  O14  1  0.11858500  0.81860700  0.34992200  1
  O  O15  1  0.61869500  0.81863500  0.34992900  1
