# generated using pymatgen
data_BaYMnCoO5
_symmetry_space_group_name_H-M   'P 1'
_cell_length_a   5.59491765
_cell_length_b   5.60105620
_cell_length_c   8.70795592
_cell_angle_alpha   70.74373217
_cell_angle_beta   70.97979133
_cell_angle_gamma   88.74059765
_symmetry_Int_Tables_number   1
_chemical_formula_structural   BaYMnCoO5
_chemical_formula_sum   'Ba2 Y2 Mn2 Co2 O10'
_cell_volume   242.43283954
_cell_formula_units_Z   2
loop_
 _symmetry_equiv_pos_site_id
 _symmetry_equiv_pos_as_xyz
  1  'x, y, z'
loop_
 _atom_site_type_symbol
 _atom_site_label
 _atom_site_symmetry_multiplicity
 _atom_site_fract_x
 _atom_site_fract_y
 _atom_site_fract_z
 _atom_site_occupancy
  Ba  Ba0  1  0.00774200  0.00608100  0.98935300  1
  Ba  Ba1  1  0.50363200  0.50047000  0.99015200  1
  Y  Y2  1  0.24969800  0.24946100  0.50207700  1
  Y  Y3  1  0.74903900  0.74894700  0.50141300  1
  Mn  Mn4  1  0.36337800  0.86279500  0.27376600  1
  Mn  Mn5  1  0.87259500  0.37415400  0.25319400  1
  Co  Co6  1  0.13137600  0.63195000  0.73683900  1
  Co  Co7  1  0.63300500  0.12245200  0.74424800  1
  O  O8  1  0.49735300  0.99869100  0.00287400  1
  O  O9  1  0.00190600  0.50863900  0.98969000  1
  O  O10  1  0.41473900  0.91626300  0.68523900  1
  O  O11  1  0.89927700  0.40012400  0.68571100  1
  O  O12  1  0.92387400  0.89423900  0.68263100  1
  O  O13  1  0.39106600  0.42413900  0.68596400  1
  O  O14  1  0.58177400  0.08155000  0.31543100  1
  O  O15  1  0.10241600  0.60261200  0.31600600  1
  O  O16  1  0.09621600  0.08278500  0.32110200  1
  O  O17  1  0.58091000  0.59464700  0.32430700  1
