# generated using pymatgen
data_CaYMg6
_symmetry_space_group_name_H-M   'P 1'
_cell_length_a   6.68688221
_cell_length_b   6.68688221
_cell_length_c   5.22650000
_cell_angle_alpha   90.00000000
_cell_angle_beta   90.00000000
_cell_angle_gamma   117.36911387
_symmetry_Int_Tables_number   1
_chemical_formula_structural   CaYMg6
_chemical_formula_sum   'Ca1 Y1 Mg6'
_cell_volume   207.54020465
_cell_formula_units_Z   1
loop_
 _symmetry_equiv_pos_site_id
 _symmetry_equiv_pos_as_xyz
  1  'x, y, z'
loop_
 _atom_site_type_symbol
 _atom_site_label
 _atom_site_symmetry_multiplicity
 _atom_site_fract_x
 _atom_site_fract_y
 _atom_site_fract_z
 _atom_site_occupancy
  Ca  Ca0  1  0.90417200  0.09582800  0.00000000  1
  Y  Y1  1  0.59405000  0.40595000  0.50000000  1
  Mg  Mg2  1  0.92567300  0.60322500  0.00000000  1
  Mg  Mg3  1  0.39677500  0.07432700  0.00000000  1
  Mg  Mg4  1  0.41516700  0.58483300  0.00000000  1
  Mg  Mg5  1  0.56759200  0.89370800  0.50000000  1
  Mg  Mg6  1  0.10629200  0.43240800  0.50000000  1
  Mg  Mg7  1  0.09027900  0.90972100  0.50000000  1
