# generated using pymatgen
data_MgFe2O3
_symmetry_space_group_name_H-M   'P 1'
_cell_length_a   3.10567948
_cell_length_b   6.86106827
_cell_length_c   3.07922792
_cell_angle_alpha   103.95298443
_cell_angle_beta   91.25240500
_cell_angle_gamma   103.50031769
_symmetry_Int_Tables_number   1
_chemical_formula_structural   MgFe2O3
_chemical_formula_sum   'Mg1 Fe2 O3'
_cell_volume   61.70490352
_cell_formula_units_Z   1
loop_
 _symmetry_equiv_pos_site_id
 _symmetry_equiv_pos_as_xyz
  1  'x, y, z'
loop_
 _atom_site_type_symbol
 _atom_site_label
 _atom_site_symmetry_multiplicity
 _atom_site_fract_x
 _atom_site_fract_y
 _atom_site_fract_z
 _atom_site_occupancy
  Mg  Mg0  1  0.99998200  0.00004700  0.00003500  1
  Fe  Fe1  1  0.66610800  0.33445800  0.67002200  1
  Fe  Fe2  1  0.33390900  0.66548500  0.32993200  1
  O  O3  1  0.49996100  0.00004300  0.50006000  1
  O  O4  1  0.16361800  0.32822600  0.16763400  1
  O  O5  1  0.83642100  0.67174200  0.83231700  1
