# generated using pymatgen
data_FePH5CO4
_symmetry_space_group_name_H-M   'P 1'
_cell_length_a   4.84571300
_cell_length_b   5.80041720
_cell_length_c   9.04309983
_cell_angle_alpha   90.42517829
_cell_angle_beta   90.00068077
_cell_angle_gamma   90.00444399
_symmetry_Int_Tables_number   1
_chemical_formula_structural   FePH5CO4
_chemical_formula_sum   'Fe2 P2 H10 C2 O8'
_cell_volume   254.16882800
_cell_formula_units_Z   2
loop_
 _symmetry_equiv_pos_site_id
 _symmetry_equiv_pos_as_xyz
  1  'x, y, z'
loop_
 _atom_site_type_symbol
 _atom_site_label
 _atom_site_symmetry_multiplicity
 _atom_site_fract_x
 _atom_site_fract_y
 _atom_site_fract_z
 _atom_site_occupancy
  Fe  Fe0  1  0.71994700  0.50115600  0.02618500  1
  Fe  Fe1  1  0.21987300  0.99894200  0.97376000  1
  P  P2  1  0.65531700  0.00362900  0.18930700  1
  P  P3  1  0.15550400  0.49641400  0.81080600  1
  H  H4  1  0.15394000  0.36661300  0.19654400  1
  H  H5  1  0.86081200  0.50019700  0.59831900  1
  H  H6  1  0.65434600  0.13312300  0.80348300  1
  H  H7  1  0.17470000  0.34705100  0.56253900  1
  H  H8  1  0.67411800  0.84492300  0.43471800  1
  H  H9  1  0.36072400  0.99982000  0.40169800  1
  H  H10  1  0.67454100  0.15294400  0.43744000  1
  H  H11  1  0.64560500  0.86328900  0.80229300  1
  H  H12  1  0.17428500  0.65519400  0.56530300  1
  H  H13  1  0.14591100  0.63645000  0.19755400  1
  C  C14  1  0.58486500  0.99950800  0.38469600  1
  C  C15  1  0.08502400  0.50051100  0.61532200  1
  O  O16  1  0.51382900  0.22337900  0.12411600  1
  O  O17  1  0.02778000  0.49912800  0.20559000  1
  O  O18  1  0.00326800  0.70640700  0.88495300  1
  O  O19  1  0.01398700  0.27654700  0.87596300  1
  O  O20  1  0.46712600  0.50155200  0.83502600  1
  O  O21  1  0.96686100  0.99859300  0.16498600  1
  O  O22  1  0.52786600  0.00088500  0.79434700  1
  O  O23  1  0.50316800  0.79374500  0.11505500  1
