# generated using pymatgen
data_DySi2
_symmetry_space_group_name_H-M   'P 1'
_cell_length_a   7.78539163
_cell_length_b   7.78539163
_cell_length_c   7.78539163
_cell_angle_alpha   150.27154120
_cell_angle_beta   150.27154120
_cell_angle_gamma   42.54295579
_symmetry_Int_Tables_number   1
_chemical_formula_structural   DySi2
_chemical_formula_sum   'Dy2 Si4'
_cell_volume   115.75292555
_cell_formula_units_Z   2
loop_
 _symmetry_equiv_pos_site_id
 _symmetry_equiv_pos_as_xyz
  1  'x, y, z'
loop_
 _atom_site_type_symbol
 _atom_site_label
 _atom_site_symmetry_multiplicity
 _atom_site_fract_x
 _atom_site_fract_y
 _atom_site_fract_z
 _atom_site_occupancy
  Dy  Dy0  1  0.75000000  0.25000000  0.50000000  1
  Dy  Dy1  1  0.00000000  0.00000000  0.00000000  1
  Si  Si2  1  0.16725300  0.66725300  0.50000000  1
  Si  Si3  1  0.58274700  0.58274700  0.00000000  1
  Si  Si4  1  0.33274700  0.83274700  0.50000000  1
  Si  Si5  1  0.41725300  0.41725300  0.00000000  1
