# generated using pymatgen
data_Ba2NbVO6
_symmetry_space_group_name_H-M   'P 1'
_cell_length_a   5.80689969
_cell_length_b   5.79440054
_cell_length_c   10.06140097
_cell_angle_alpha   73.08323375
_cell_angle_beta   90.30977849
_cell_angle_gamma   119.75657617
_symmetry_Int_Tables_number   1
_chemical_formula_structural   Ba2NbVO6
_chemical_formula_sum   'Ba4 Nb2 V2 O12'
_cell_volume   277.21777229
_cell_formula_units_Z   2
loop_
 _symmetry_equiv_pos_site_id
 _symmetry_equiv_pos_as_xyz
  1  'x, y, z'
loop_
 _atom_site_type_symbol
 _atom_site_label
 _atom_site_symmetry_multiplicity
 _atom_site_fract_x
 _atom_site_fract_y
 _atom_site_fract_z
 _atom_site_occupancy
  Ba  Ba0  1  0.62540000  0.25122800  0.12424900  1
  Ba  Ba1  1  0.12445600  0.24844100  0.62582400  1
  Ba  Ba2  1  0.87554400  0.75155900  0.37417600  1
  Ba  Ba3  1  0.37460000  0.74877300  0.87575100  1
  Nb  Nb4  1  0.25052200  0.49836900  0.25230100  1
  Nb  Nb5  1  0.74947800  0.50163100  0.74770000  1
  V  V6  1  0.50000000  0.00000000  0.50000000  1
  V  V7  1  0.00000000  0.00000000  0.00000000  1
  O  O8  1  0.12528400  0.25507200  0.12409100  1
  O  O9  1  0.62719400  0.24985300  0.62840900  1
  O  O10  1  0.37347100  0.25839700  0.37199100  1
  O  O11  1  0.87917600  0.23922800  0.87934100  1
  O  O12  1  0.62259800  0.75255700  0.12469800  1
  O  O13  1  0.11575600  0.73879000  0.62936300  1
  O  O14  1  0.37280600  0.75014700  0.37159100  1
  O  O15  1  0.87471600  0.74492800  0.87590900  1
  O  O16  1  0.12082400  0.76077200  0.12065900  1
  O  O17  1  0.62653000  0.74160300  0.62800900  1
  O  O18  1  0.88424400  0.26121000  0.37063700  1
  O  O19  1  0.37740200  0.24744300  0.87530200  1
