# generated using pymatgen
data_SrLaCoO4
_symmetry_space_group_name_H-M   'P 1'
_cell_length_a   3.86865709
_cell_length_b   7.70154707
_cell_length_c   6.94108757
_cell_angle_alpha   106.11235543
_cell_angle_beta   106.19921996
_cell_angle_gamma   90.01056084
_symmetry_Int_Tables_number   1
_chemical_formula_structural   SrLaCoO4
_chemical_formula_sum   'Sr2 La2 Co2 O8'
_cell_volume   190.11922376
_cell_formula_units_Z   2
loop_
 _symmetry_equiv_pos_site_id
 _symmetry_equiv_pos_as_xyz
  1  'x, y, z'
loop_
 _atom_site_type_symbol
 _atom_site_label
 _atom_site_symmetry_multiplicity
 _atom_site_fract_x
 _atom_site_fract_y
 _atom_site_fract_z
 _atom_site_occupancy
  Sr  Sr0  1  0.64114900  0.32244700  0.28252100  1
  Sr  Sr1  1  0.64350000  0.81990700  0.28694400  1
  La  La2  1  0.35833800  0.67378700  0.71648500  1
  La  La3  1  0.35718000  0.18422800  0.71455900  1
  Co  Co4  1  0.00255900  0.00132000  0.00512300  1
  Co  Co5  1  0.00667400  0.50318000  0.01326400  1
  O  O6  1  0.83052300  0.41492400  0.66109300  1
  O  O7  1  0.83604700  0.91806500  0.67146500  1
  O  O8  1  0.17446900  0.58731100  0.34896100  1
  O  O9  1  0.17183300  0.08605200  0.34449300  1
  O  O10  1  0.49039600  0.49523800  0.98069600  1
  O  O11  1  0.49667400  0.99817300  0.99326300  1
  O  O12  1  0.99576900  0.74300000  0.99121400  1
  O  O13  1  0.99489000  0.25236700  0.98992000  1
