# generated using pymatgen
data_TlFeS2
_symmetry_space_group_name_H-M   'P 1'
_cell_length_a   6.77745468
_cell_length_b   6.77745468
_cell_length_c   6.77745468
_cell_angle_alpha   148.35656115
_cell_angle_beta   148.35656115
_cell_angle_gamma   45.35928428
_symmetry_Int_Tables_number   1
_chemical_formula_structural   TlFeS2
_chemical_formula_sum   'Tl1 Fe1 S2'
_cell_volume   85.40901133
_cell_formula_units_Z   1
loop_
 _symmetry_equiv_pos_site_id
 _symmetry_equiv_pos_as_xyz
  1  'x, y, z'
loop_
 _atom_site_type_symbol
 _atom_site_label
 _atom_site_symmetry_multiplicity
 _atom_site_fract_x
 _atom_site_fract_y
 _atom_site_fract_z
 _atom_site_occupancy
  Tl  Tl0  1  0.00000000  0.00000000  0.00000000  1
  Fe  Fe1  1  0.75000000  0.25000000  0.50000000  1
  S  S2  1  0.66524400  0.66524400  0.00000000  1
  S  S3  1  0.33475600  0.33475600  0.00000000  1
