# generated using pymatgen
data_NaNiO2
_symmetry_space_group_name_H-M   'P 1'
_cell_length_a   3.05116551
_cell_length_b   5.06931603
_cell_length_c   10.66552202
_cell_angle_alpha   89.95793221
_cell_angle_beta   89.96728384
_cell_angle_gamma   85.69196248
_symmetry_Int_Tables_number   1
_chemical_formula_structural   NaNiO2
_chemical_formula_sum   'Na4 Ni4 O8'
_cell_volume   164.50090233
_cell_formula_units_Z   4
loop_
 _symmetry_equiv_pos_site_id
 _symmetry_equiv_pos_as_xyz
  1  'x, y, z'
loop_
 _atom_site_type_symbol
 _atom_site_label
 _atom_site_symmetry_multiplicity
 _atom_site_fract_x
 _atom_site_fract_y
 _atom_site_fract_z
 _atom_site_occupancy
  Na  Na0  1  0.47238400  0.15693100  0.24990100  1
  Na  Na1  1  0.97194900  0.65687300  0.24993000  1
  Na  Na2  1  0.02832500  0.34329100  0.75000500  1
  Na  Na3  1  0.52788200  0.84323100  0.75004900  1
  Ni  Ni4  1  0.50006300  0.49990100  0.50005700  1
  Ni  Ni5  1  0.49950900  0.49983000  0.99995300  1
  Ni  Ni6  1  0.00006200  0.99999100  0.50004800  1
  Ni  Ni7  1  0.99962800  0.99979200  0.99991100  1
  O  O8  1  0.95803900  0.31911600  0.40198200  1
  O  O9  1  0.45750200  0.81913800  0.40196300  1
  O  O10  1  0.54240100  0.18084800  0.59824100  1
  O  O11  1  0.04184600  0.68082400  0.59824600  1
  O  O12  1  0.54215500  0.18091200  0.90176400  1
  O  O13  1  0.04168000  0.68090800  0.90177800  1
  O  O14  1  0.95852900  0.31921000  0.09808100  1
  O  O15  1  0.45804400  0.81920400  0.09809100  1
