# generated using pymatgen
data_YFeO3
_symmetry_space_group_name_H-M   'P 1'
_cell_length_a   3.55839400
_cell_length_b   12.38297644
_cell_length_c   6.16244600
_cell_angle_alpha   75.59394272
_cell_angle_beta   90.00009482
_cell_angle_gamma   81.73611877
_symmetry_Int_Tables_number   1
_chemical_formula_structural   YFeO3
_chemical_formula_sum   'Y4 Fe4 O12'
_cell_volume   260.08890107
_cell_formula_units_Z   4
loop_
 _symmetry_equiv_pos_site_id
 _symmetry_equiv_pos_as_xyz
  1  'x, y, z'
loop_
 _atom_site_type_symbol
 _atom_site_label
 _atom_site_symmetry_multiplicity
 _atom_site_fract_x
 _atom_site_fract_y
 _atom_site_fract_z
 _atom_site_occupancy
  Y  Y0  1  0.24999700  0.50000900  0.24999400  1
  Y  Y1  1  0.75000600  0.49998800  0.75000800  1
  Y  Y2  1  0.49999900  0.99999900  0.50000100  1
  Y  Y3  1  0.00000000  0.00000100  0.00000000  1
  Fe  Fe4  1  0.62499700  0.75000300  0.95547600  1
  Fe  Fe5  1  0.37500100  0.25000500  0.04451300  1
  Fe  Fe6  1  0.12499100  0.74999800  0.45546600  1
  Fe  Fe7  1  0.87499900  0.25000700  0.54453800  1
  O  O8  1  0.37499100  0.25000700  0.37288500  1
  O  O9  1  0.87499200  0.25000800  0.87287200  1
  O  O10  1  0.12501100  0.74998700  0.12712800  1
  O  O11  1  0.62500900  0.74998900  0.62711900  1
  O  O12  1  0.29290100  0.41421800  0.95914800  1
  O  O13  1  0.79290100  0.41421500  0.45913300  1
  O  O14  1  0.54289800  0.91422000  0.87657200  1
  O  O15  1  0.04290400  0.91421600  0.37659100  1
  O  O16  1  0.70709900  0.58578500  0.04085400  1
  O  O17  1  0.20709800  0.58578700  0.54086500  1
  O  O18  1  0.45710100  0.08577900  0.12342700  1
  O  O19  1  0.95709900  0.08578200  0.62341000  1
