# generated using pymatgen
data_La2MgFeO6
_symmetry_space_group_name_H-M   'P 1'
_cell_length_a   5.53110774
_cell_length_b   7.81460909
_cell_length_c   5.71406361
_cell_angle_alpha   91.30342926
_cell_angle_beta   92.21002842
_cell_angle_gamma   90.24795503
_symmetry_Int_Tables_number   1
_chemical_formula_structural   La2MgFeO6
_chemical_formula_sum   'La4 Mg2 Fe2 O12'
_cell_volume   246.73059599
_cell_formula_units_Z   2
loop_
 _symmetry_equiv_pos_site_id
 _symmetry_equiv_pos_as_xyz
  1  'x, y, z'
loop_
 _atom_site_type_symbol
 _atom_site_label
 _atom_site_symmetry_multiplicity
 _atom_site_fract_x
 _atom_site_fract_y
 _atom_site_fract_z
 _atom_site_occupancy
  La  La0  1  0.50136700  0.75138500  0.99347100  1
  La  La1  1  0.00087200  0.25185500  0.49335100  1
  La  La2  1  0.49878900  0.24867500  0.00648700  1
  La  La3  1  0.99902900  0.74812900  0.50671600  1
  Mg  Mg4  1  0.00008000  0.50001100  0.00003200  1
  Mg  Mg5  1  0.49993300  0.00000000  0.49997300  1
  Fe  Fe6  1  0.49995400  0.49999000  0.50005100  1
  Fe  Fe7  1  0.00000900  0.99992100  0.99994800  1
  O  O8  1  0.79024700  0.49063800  0.68940600  1
  O  O9  1  0.29137800  0.99087600  0.18830400  1
  O  O10  1  0.97258900  0.23969500  0.05866900  1
  O  O11  1  0.47271900  0.73999100  0.55882300  1
  O  O12  1  0.70643000  0.53990700  0.20412000  1
  O  O13  1  0.20520100  0.03945600  0.70284900  1
  O  O14  1  0.20969700  0.50933800  0.31070300  1
  O  O15  1  0.70866800  0.00915200  0.81156500  1
  O  O16  1  0.29368200  0.46014600  0.79601900  1
  O  O17  1  0.79466300  0.96049700  0.29700900  1
  O  O18  1  0.02738300  0.76033000  0.94136500  1
  O  O19  1  0.52731100  0.26000900  0.44113600  1
