# generated using pymatgen
data_VO2
_symmetry_space_group_name_H-M   'P 1'
_cell_length_a   5.01927596
_cell_length_b   9.15056731
_cell_length_c   4.99508350
_cell_angle_alpha   90.62715351
_cell_angle_beta   111.11506362
_cell_angle_gamma   92.21971941
_symmetry_Int_Tables_number   1
_chemical_formula_structural   VO2
_chemical_formula_sum   'V6 O12'
_cell_volume   213.77986990
_cell_formula_units_Z   6
loop_
 _symmetry_equiv_pos_site_id
 _symmetry_equiv_pos_as_xyz
  1  'x, y, z'
loop_
 _atom_site_type_symbol
 _atom_site_label
 _atom_site_symmetry_multiplicity
 _atom_site_fract_x
 _atom_site_fract_y
 _atom_site_fract_z
 _atom_site_occupancy
  V  V0  1  0.99783600  0.00016200  0.00353000  1
  V  V1  1  0.49642400  0.50008100  0.50238200  1
  V  V2  1  0.55478700  0.73921200  0.93033900  1
  V  V3  1  0.43865800  0.26145200  0.07564800  1
  V  V4  1  0.93041200  0.76062900  0.57933000  1
  V  V5  1  0.06275500  0.23924500  0.42663400  1
  O  O6  1  0.31069800  0.11706100  0.29174000  1
  O  O7  1  0.79870700  0.61593500  0.80131300  1
  O  O8  1  0.19269900  0.38386900  0.20429100  1
  O  O9  1  0.68395900  0.88307300  0.71567500  1
  O  O10  1  0.08707900  0.14461000  0.74844700  1
  O  O11  1  0.57645500  0.64172900  0.25939900  1
  O  O12  1  0.77003400  0.13652700  0.10436400  1
  O  O13  1  0.26240200  0.63988800  0.61904700  1
  O  O14  1  0.41689900  0.35831600  0.74674000  1
  O  O15  1  0.90748300  0.85527900  0.25861100  1
  O  O16  1  0.73133700  0.35960800  0.38818700  1
  O  O17  1  0.22388100  0.86332500  0.90181800  1
