# generated using pymatgen
data_CaLa3(CoO4)2
_symmetry_space_group_name_H-M   'P 1'
_cell_length_a   5.37801020
_cell_length_b   12.85135907
_cell_length_c   5.38198120
_cell_angle_alpha   90.01015556
_cell_angle_beta   90.02824248
_cell_angle_gamma   90.01138546
_symmetry_Int_Tables_number   1
_chemical_formula_structural   CaLa3(CoO4)2
_chemical_formula_sum   'Ca2 La6 Co4 O16'
_cell_volume   371.97417372
_cell_formula_units_Z   2
loop_
 _symmetry_equiv_pos_site_id
 _symmetry_equiv_pos_as_xyz
  1  'x, y, z'
loop_
 _atom_site_type_symbol
 _atom_site_label
 _atom_site_symmetry_multiplicity
 _atom_site_fract_x
 _atom_site_fract_y
 _atom_site_fract_z
 _atom_site_occupancy
  Ca  Ca0  1  0.49988400  0.14249200  0.99872600  1
  Ca  Ca1  1  0.49997800  0.64340700  0.49929800  1
  La  La2  1  0.99963000  0.13999900  0.49845700  1
  La  La3  1  0.99993100  0.63980900  0.99818600  1
  La  La4  1  0.99996400  0.35638300  0.99705400  1
  La  La5  1  0.00026200  0.85714400  0.49701600  1
  La  La6  1  0.50009600  0.35898300  0.49865700  1
  La  La7  1  0.50006800  0.85962900  0.99834800  1
  Co  Co8  1  0.49997500  0.50248700  0.99575600  1
  Co  Co9  1  0.50009600  0.00508500  0.49582500  1
  Co  Co10  1  0.00008300  0.00557600  0.99602600  1
  Co  Co11  1  0.00008300  0.50930700  0.49553200  1
  O  O12  1  0.50002400  0.32109400  0.98973500  1
  O  O13  1  0.49995700  0.82504200  0.49047800  1
  O  O14  1  0.99994400  0.32118600  0.49316000  1
  O  O15  1  0.00004000  0.81869800  0.99312300  1
  O  O16  1  0.99993300  0.17776400  0.99059700  1
  O  O17  1  0.00005600  0.67690900  0.49103700  1
  O  O18  1  0.50008600  0.17634200  0.49137400  1
  O  O19  1  0.50000500  0.67917200  0.99092100  1
  O  O20  1  0.74298600  0.49732200  0.23941900  1
  O  O21  1  0.75539300  0.99784500  0.75046300  1
  O  O22  1  0.25691000  0.49720300  0.23936600  1
  O  O23  1  0.24464200  0.99793800  0.75037300  1
  O  O24  1  0.25521400  0.49793300  0.75372800  1
  O  O25  1  0.24344600  0.99862400  0.24290000  1
  O  O26  1  0.74474500  0.49802900  0.75370100  1
  O  O27  1  0.75657000  0.99860000  0.24274500  1
