# generated using pymatgen
data_NaCo2O3
_symmetry_space_group_name_H-M   'P 1'
_cell_length_a   5.22373736
_cell_length_b   5.90708806
_cell_length_c   5.89567154
_cell_angle_alpha   120.81172800
_cell_angle_beta   90.20567164
_cell_angle_gamma   90.06905133
_symmetry_Int_Tables_number   1
_chemical_formula_structural   NaCo2O3
_chemical_formula_sum   'Na2 Co4 O6'
_cell_volume   156.24366452
_cell_formula_units_Z   2
loop_
 _symmetry_equiv_pos_site_id
 _symmetry_equiv_pos_as_xyz
  1  'x, y, z'
loop_
 _atom_site_type_symbol
 _atom_site_label
 _atom_site_symmetry_multiplicity
 _atom_site_fract_x
 _atom_site_fract_y
 _atom_site_fract_z
 _atom_site_occupancy
  Na  Na0  1  0.99753600  0.32573400  0.32614400  1
  Na  Na1  1  0.49733800  0.67488000  0.67460400  1
  Co  Co2  1  0.51934500  0.99592100  0.33498600  1
  Co  Co3  1  0.01384900  0.67099100  0.00559500  1
  Co  Co4  1  0.52051100  0.33501100  0.99541400  1
  Co  Co5  1  0.01383300  0.00526200  0.67097300  1
  O  O6  1  0.46358300  0.26061100  0.26086700  1
  O  O7  1  0.95852000  0.71144800  0.71114000  1
  O  O8  1  0.39174600  0.06296600  0.65983000  1
  O  O9  1  0.87693100  0.34007400  0.95689900  1
  O  O10  1  0.39245100  0.65972700  0.06371200  1
  O  O11  1  0.87615400  0.95737500  0.33983500  1
