# generated using pymatgen
data_Sr2FeWO6
_symmetry_space_group_name_H-M   'P 1'
_cell_length_a   5.76283833
_cell_length_b   5.64325205
_cell_length_c   9.84789796
_cell_angle_alpha   106.15101140
_cell_angle_beta   89.41946674
_cell_angle_gamma   119.63250439
_symmetry_Int_Tables_number   1
_chemical_formula_structural   Sr2FeWO6
_chemical_formula_sum   'Sr4 Fe2 W2 O12'
_cell_volume   264.26029207
_cell_formula_units_Z   2
loop_
 _symmetry_equiv_pos_site_id
 _symmetry_equiv_pos_as_xyz
  1  'x, y, z'
loop_
 _atom_site_type_symbol
 _atom_site_label
 _atom_site_symmetry_multiplicity
 _atom_site_fract_x
 _atom_site_fract_y
 _atom_site_fract_z
 _atom_site_occupancy
  Sr  Sr0  1  0.37395600  0.75151000  0.12169900  1
  Sr  Sr1  1  0.87705800  0.75034000  0.62888400  1
  Sr  Sr2  1  0.12609100  0.24855200  0.37835200  1
  Sr  Sr3  1  0.62286400  0.24957600  0.87111800  1
  Fe  Fe4  1  0.24997100  0.49998400  0.75002300  1
  Fe  Fe5  1  0.75011100  0.50012300  0.24983100  1
  W  W6  1  0.99916700  0.00744200  0.00141300  1
  W  W7  1  0.50086600  0.99254400  0.49853900  1
  O  O8  1  0.35359700  0.24542600  0.12042700  1
  O  O9  1  0.85552100  0.22445100  0.61843300  1
  O  O10  1  0.14643000  0.75450200  0.37954000  1
  O  O11  1  0.64441000  0.77556300  0.88166300  1
  O  O12  1  0.59678000  0.70420500  0.40826000  1
  O  O13  1  0.08921900  0.71988100  0.90387500  1
  O  O14  1  0.90331100  0.29580400  0.09175100  1
  O  O15  1  0.41064900  0.28002400  0.59616000  1
  O  O16  1  0.85587500  0.81587400  0.14509800  1
  O  O17  1  0.35041700  0.79680400  0.64243600  1
  O  O18  1  0.64418600  0.18424900  0.35492800  1
  O  O19  1  0.14951900  0.20314900  0.85757100  1
