# generated using pymatgen
data_NaCo2O3
_symmetry_space_group_name_H-M   'P 1'
_cell_length_a   5.99683356
_cell_length_b   5.88731488
_cell_length_c   5.17598500
_cell_angle_alpha   89.99981502
_cell_angle_beta   90.00028587
_cell_angle_gamma   119.68786280
_symmetry_Int_Tables_number   1
_chemical_formula_structural   NaCo2O3
_chemical_formula_sum   'Na2 Co4 O6'
_cell_volume   158.75240470
_cell_formula_units_Z   2
loop_
 _symmetry_equiv_pos_site_id
 _symmetry_equiv_pos_as_xyz
  1  'x, y, z'
loop_
 _atom_site_type_symbol
 _atom_site_label
 _atom_site_symmetry_multiplicity
 _atom_site_fract_x
 _atom_site_fract_y
 _atom_site_fract_z
 _atom_site_occupancy
  Na  Na0  1  0.32712700  0.32847900  0.99351200  1
  Na  Na1  1  0.67287700  0.67151900  0.49351300  1
  Co  Co2  1  0.32689200  0.98839800  0.51750300  1
  Co  Co3  1  0.00430400  0.67342100  0.00605300  1
  Co  Co4  1  0.99569200  0.32657800  0.50605200  1
  Co  Co5  1  0.67310800  0.01160200  0.01750300  1
  O  O6  1  0.04324500  0.65670800  0.38029600  1
  O  O7  1  0.32932900  0.93713900  0.90038600  1
  O  O8  1  0.27706300  0.29179900  0.46314800  1
  O  O9  1  0.72293900  0.70820000  0.96314900  1
  O  O10  1  0.67067100  0.06286300  0.40038600  1
  O  O11  1  0.95675500  0.34329400  0.88029600  1
