# generated using pymatgen
data_Sr2FeWO6
_symmetry_space_group_name_H-M   'P 1'
_cell_length_a   5.74668694
_cell_length_b   5.66322939
_cell_length_c   9.85443671
_cell_angle_alpha   73.29002316
_cell_angle_beta   105.36798498
_cell_angle_gamma   119.51406433
_symmetry_Int_Tables_number   1
_chemical_formula_structural   Sr2FeWO6
_chemical_formula_sum   'Sr4 Fe2 W2 O12'
_cell_volume   264.36372484
_cell_formula_units_Z   2
loop_
 _symmetry_equiv_pos_site_id
 _symmetry_equiv_pos_as_xyz
  1  'x, y, z'
loop_
 _atom_site_type_symbol
 _atom_site_label
 _atom_site_symmetry_multiplicity
 _atom_site_fract_x
 _atom_site_fract_y
 _atom_site_fract_z
 _atom_site_occupancy
  Sr  Sr0  1  0.62795900  0.37413500  0.87680900  1
  Sr  Sr1  1  0.12195400  0.87597200  0.37353700  1
  Sr  Sr2  1  0.37793600  0.62402900  0.12642500  1
  Sr  Sr3  1  0.87210000  0.12584500  0.62322500  1
  Fe  Fe4  1  0.75004300  0.25006900  0.24998700  1
  Fe  Fe5  1  0.25007200  0.74997400  0.75002100  1
  W  W6  1  0.49700200  0.50218400  0.50130300  1
  W  W7  1  0.00301900  0.99780800  0.99869800  1
  O  O8  1  0.35900500  0.11383900  0.11673300  1
  O  O9  1  0.85298800  0.62616500  0.61859800  1
  O  O10  1  0.64704900  0.87387700  0.88139200  1
  O  O11  1  0.14094700  0.38609300  0.38330000  1
  O  O12  1  0.85814100  0.65875700  0.14381700  1
  O  O13  1  0.35622700  0.17342600  0.64543800  1
  O  O14  1  0.14381000  0.32659500  0.85459600  1
  O  O15  1  0.64177600  0.84122700  0.35614500  1
  O  O16  1  0.40020500  0.69945900  0.59506900  1
  O  O17  1  0.90967700  0.18642200  0.09528300  1
  O  O18  1  0.59027900  0.31351200  0.40472700  1
  O  O19  1  0.09981100  0.80061500  0.90489600  1
