# generated using pymatgen
data_Sr2CoO4
_symmetry_space_group_name_H-M   'P 1'
_cell_length_a   6.80983308
_cell_length_b   8.69560953
_cell_length_c   7.86723280
_cell_angle_alpha   116.91875765
_cell_angle_beta   73.18218812
_cell_angle_gamma   112.63087255
_symmetry_Int_Tables_number   1
_chemical_formula_structural   Sr2CoO4
_chemical_formula_sum   'Sr8 Co4 O16'
_cell_volume   379.63355392
_cell_formula_units_Z   4
loop_
 _symmetry_equiv_pos_site_id
 _symmetry_equiv_pos_as_xyz
  1  'x, y, z'
loop_
 _atom_site_type_symbol
 _atom_site_label
 _atom_site_symmetry_multiplicity
 _atom_site_fract_x
 _atom_site_fract_y
 _atom_site_fract_z
 _atom_site_occupancy
  Sr  Sr0  1  0.28182100  0.32033600  0.33677800  1
  Sr  Sr1  1  0.28144300  0.31997100  0.84257500  1
  Sr  Sr2  1  0.28216700  0.81873600  0.09284900  1
  Sr  Sr3  1  0.28244000  0.81937600  0.58519700  1
  Sr  Sr4  1  0.71767900  0.67716700  0.65579700  1
  Sr  Sr5  1  0.71811000  0.67749100  0.16276900  1
  Sr  Sr6  1  0.71826700  0.17988600  0.40704200  1
  Sr  Sr7  1  0.71820700  0.17978800  0.91385300  1
  Co  Co8  1  0.00006100  0.49540700  0.74792500  1
  Co  Co9  1  0.99938600  0.00107600  0.50084100  1
  Co  Co10  1  0.00087500  0.49828700  0.24922100  1
  Co  Co11  1  0.00095400  0.98306600  0.99122000  1
  O  O12  1  0.68232700  0.42186200  0.29198600  1
  O  O13  1  0.69290400  0.42235100  0.78621200  1
  O  O14  1  0.68138300  0.92678200  0.04368800  1
  O  O15  1  0.69124000  0.91942100  0.53631500  1
  O  O16  1  0.30747100  0.57544500  0.71093700  1
  O  O17  1  0.31845900  0.58036500  0.21018700  1
  O  O18  1  0.30749000  0.07400100  0.46159700  1
  O  O19  1  0.31800200  0.08707200  0.96216300  1
  O  O20  1  0.00080200  0.50458200  0.49083500  1
  O  O21  1  0.99853200  0.50328400  0.01307900  1
  O  O22  1  0.00026400  0.00471700  0.24413100  1
  O  O23  1  0.99868900  0.00380900  0.76019700  1
  O  O24  1  0.99979200  0.24762100  0.62350500  1
  O  O25  1  0.00118700  0.26885500  0.13437600  1
  O  O26  1  0.99940700  0.74166200  0.37159100  1
  O  O27  1  0.00064000  0.74758300  0.87313600  1
