# generated using pymatgen
data_NaMnO2
_symmetry_space_group_name_H-M   'P 1'
_cell_length_a   2.92019007
_cell_length_b   3.21008035
_cell_length_c   21.84829646
_cell_angle_alpha   89.83193099
_cell_angle_beta   90.13180314
_cell_angle_gamma   117.07590647
_symmetry_Int_Tables_number   1
_chemical_formula_structural   NaMnO2
_chemical_formula_sum   'Na4 Mn4 O8'
_cell_volume   182.36005828
_cell_formula_units_Z   4
loop_
 _symmetry_equiv_pos_site_id
 _symmetry_equiv_pos_as_xyz
  1  'x, y, z'
loop_
 _atom_site_type_symbol
 _atom_site_label
 _atom_site_symmetry_multiplicity
 _atom_site_fract_x
 _atom_site_fract_y
 _atom_site_fract_z
 _atom_site_occupancy
  Na  Na0  1  0.68264000  0.38312000  0.12498700  1
  Na  Na1  1  0.70940400  0.40942600  0.62504800  1
  Na  Na2  1  0.31581100  0.61778700  0.37491900  1
  Na  Na3  1  0.29133800  0.58887500  0.87494700  1
  Mn  Mn4  1  0.00189300  0.99885700  0.75003200  1
  Mn  Mn5  1  0.02111000  0.02452300  0.50015500  1
  Mn  Mn6  1  0.99941300  0.00097200  0.25009500  1
  Mn  Mn7  1  0.97870200  0.97656400  0.99983100  1
  O  O8  1  0.37298000  0.74991700  0.19919800  1
  O  O9  1  0.37676800  0.75002500  0.69915900  1
  O  O10  1  0.62542400  0.25190500  0.30090800  1
  O  O11  1  0.62610900  0.24748600  0.80094200  1
  O  O12  1  0.64478500  0.27235100  0.44914800  1
  O  O13  1  0.60453200  0.22817100  0.94892800  1
  O  O14  1  0.35439200  0.72808000  0.05074000  1
  O  O15  1  0.39470000  0.77194200  0.55096400  1
