# generated using pymatgen
data_VO
_symmetry_space_group_name_H-M   'P 1'
_cell_length_a   3.16457923
_cell_length_b   5.26802041
_cell_length_c   5.42603401
_cell_angle_alpha   98.06922822
_cell_angle_beta   73.21622668
_cell_angle_gamma   90.26605233
_symmetry_Int_Tables_number   1
_chemical_formula_structural   VO
_chemical_formula_sum   'V4 O4'
_cell_volume   85.68546465
_cell_formula_units_Z   4
loop_
 _symmetry_equiv_pos_site_id
 _symmetry_equiv_pos_as_xyz
  1  'x, y, z'
loop_
 _atom_site_type_symbol
 _atom_site_label
 _atom_site_symmetry_multiplicity
 _atom_site_fract_x
 _atom_site_fract_y
 _atom_site_fract_z
 _atom_site_occupancy
  V  V0  1  0.49971200  0.49423000  0.99962000  1
  V  V1  1  0.75030000  0.75576600  0.50037900  1
  V  V2  1  0.99972400  0.99423100  0.99961500  1
  V  V3  1  0.25028700  0.25576600  0.50038400  1
  O  O4  1  0.87501200  0.37501900  0.24999800  1
  O  O5  1  0.12496600  0.62498400  0.75000700  1
  O  O6  1  0.37503400  0.87502000  0.24999100  1
  O  O7  1  0.62496500  0.12498400  0.75000700  1
