# generated using pymatgen
data_NaMn3V4O12
_symmetry_space_group_name_H-M   'P 1'
_cell_length_a   6.48165988
_cell_length_b   6.52276920
_cell_length_c   10.55785922
_cell_angle_alpha   88.78176184
_cell_angle_beta   91.29614904
_cell_angle_gamma   109.10731523
_symmetry_Int_Tables_number   1
_chemical_formula_structural   NaMn3V4O12
_chemical_formula_sum   'Na2 Mn6 V8 O24'
_cell_volume   421.62405609
_cell_formula_units_Z   2
loop_
 _symmetry_equiv_pos_site_id
 _symmetry_equiv_pos_as_xyz
  1  'x, y, z'
loop_
 _atom_site_type_symbol
 _atom_site_label
 _atom_site_symmetry_multiplicity
 _atom_site_fract_x
 _atom_site_fract_y
 _atom_site_fract_z
 _atom_site_occupancy
  Na  Na0  1  0.00020200  0.00020500  0.99982100  1
  Na  Na1  1  0.49979900  0.49975500  0.50018600  1
  Mn  Mn2  1  0.25012100  0.75001100  0.75014000  1
  Mn  Mn3  1  0.49897300  0.50166700  0.00052000  1
  Mn  Mn4  1  0.00098200  0.99840100  0.49953000  1
  Mn  Mn5  1  0.24993500  0.74994100  0.25001000  1
  Mn  Mn6  1  0.74998800  0.24997200  0.74996700  1
  Mn  Mn7  1  0.74998200  0.24991900  0.25000700  1
  V  V8  1  0.74998900  0.74996100  0.25000900  1
  V  V9  1  0.24998400  0.25002200  0.74998600  1
  V  V10  1  0.49979400  0.00144200  0.00014300  1
  V  V11  1  0.00027300  0.49863200  0.49989100  1
  V  V12  1  0.99933500  0.49996400  0.99992800  1
  V  V13  1  0.50061100  0.99998200  0.50007100  1
  V  V14  1  0.25000500  0.24999900  0.25002700  1
  V  V15  1  0.75000200  0.74998100  0.74996500  1
  O  O16  1  0.43784700  0.56669100  0.25443700  1
  O  O17  1  0.93799800  0.06640500  0.75510800  1
  O  O18  1  0.26170600  0.74939300  0.43570100  1
  O  O19  1  0.76208300  0.24911800  0.93600300  1
  O  O20  1  0.23828200  0.75063300  0.06426800  1
  O  O21  1  0.73796900  0.25083000  0.56395700  1
  O  O22  1  0.06212000  0.93329700  0.24552400  1
  O  O23  1  0.56200100  0.43359100  0.74481700  1
  O  O24  1  0.45728700  0.16602400  0.34814400  1
  O  O25  1  0.95235700  0.66445100  0.84954800  1
  O  O26  1  0.84627600  0.53318800  0.35435200  1
  O  O27  1  0.34641900  0.03660400  0.85604000  1
  O  O28  1  0.65370300  0.96671900  0.14561300  1
  O  O29  1  0.15361700  0.46354700  0.64400900  1
  O  O30  1  0.04272600  0.33402700  0.15187500  1
  O  O31  1  0.54765400  0.83560300  0.65045400  1
  O  O32  1  0.09184300  0.27311000  0.40802000  1
  O  O33  1  0.59134400  0.77526700  0.90748600  1
  O  O34  1  0.78042800  0.58458000  0.09039300  1
  O  O35  1  0.28199300  0.08341600  0.59031700  1
  O  O36  1  0.71959200  0.91542900  0.40956000  1
  O  O37  1  0.21800300  0.41659800  0.90969500  1
  O  O38  1  0.40822000  0.22691300  0.09200000  1
  O  O39  1  0.90855300  0.72471400  0.59247700  1
