# generated using pymatgen
data_SrCoO3
_symmetry_space_group_name_H-M   'P 1'
_cell_length_a   3.89993801
_cell_length_b   5.52610245
_cell_length_c   5.52632307
_cell_angle_alpha   90.00972117
_cell_angle_beta   90.00380851
_cell_angle_gamma   90.00525125
_symmetry_Int_Tables_number   1
_chemical_formula_structural   SrCoO3
_chemical_formula_sum   'Sr2 Co2 O6'
_cell_volume   119.10031140
_cell_formula_units_Z   2
loop_
 _symmetry_equiv_pos_site_id
 _symmetry_equiv_pos_as_xyz
  1  'x, y, z'
loop_
 _atom_site_type_symbol
 _atom_site_label
 _atom_site_symmetry_multiplicity
 _atom_site_fract_x
 _atom_site_fract_y
 _atom_site_fract_z
 _atom_site_occupancy
  Sr  Sr0  1  0.50000000  0.50000000  0.00000000  1
  Sr  Sr1  1  0.50000000  0.00000000  0.50000000  1
  Co  Co2  1  0.00000000  0.49999900  0.50000100  1
  Co  Co3  1  0.00000000  0.00000000  0.00000000  1
  O  O4  1  0.00002800  0.27059900  0.27073400  1
  O  O5  1  0.99997200  0.72940100  0.72926700  1
  O  O6  1  0.00003100  0.22948700  0.77064400  1
  O  O7  1  0.99996900  0.77051300  0.22935500  1
  O  O8  1  0.50000000  0.00000000  0.00000000  1
  O  O9  1  0.50000000  0.50000000  0.49999900  1
