# generated using pymatgen
data_CaMn2O4
_symmetry_space_group_name_H-M   'P 1'
_cell_length_a   5.91839286
_cell_length_b   6.64647887
_cell_length_c   5.91839769
_cell_angle_alpha   116.40867015
_cell_angle_beta   90.05952085
_cell_angle_gamma   116.40845069
_symmetry_Int_Tables_number   1
_chemical_formula_structural   CaMn2O4
_chemical_formula_sum   'Ca2 Mn4 O8'
_cell_volume   180.92546310
_cell_formula_units_Z   2
loop_
 _symmetry_equiv_pos_site_id
 _symmetry_equiv_pos_as_xyz
  1  'x, y, z'
loop_
 _atom_site_type_symbol
 _atom_site_label
 _atom_site_symmetry_multiplicity
 _atom_site_fract_x
 _atom_site_fract_y
 _atom_site_fract_z
 _atom_site_occupancy
  Ca  Ca0  1  0.62501100  0.74999400  0.37499600  1
  Ca  Ca1  1  0.37500500  0.24999400  0.62499700  1
  Mn  Mn2  1  0.99995900  0.49990400  0.49998800  1
  Mn  Mn3  1  0.00008400  0.00011200  0.00003500  1
  Mn  Mn4  1  0.99989900  0.50008800  0.00006100  1
  Mn  Mn5  1  0.49997300  0.99995000  0.99995700  1
  O  O6  1  0.79859700  0.52992700  0.76529600  1
  O  O7  1  0.23535300  0.97006300  0.76867500  1
  O  O8  1  0.23471000  0.97006200  0.20140800  1
  O  O9  1  0.20142300  0.47006500  0.23469700  1
  O  O10  1  0.76869100  0.47006700  0.23533900  1
  O  O11  1  0.76465900  0.02992400  0.23131700  1
  O  O12  1  0.23133000  0.52992400  0.76464900  1
  O  O13  1  0.76530400  0.02992500  0.79858500  1
