# generated using pymatgen
data_Mg3Fe2O5
_symmetry_space_group_name_H-M   'P 1'
_cell_length_a   5.27418974
_cell_length_b   8.08033769
_cell_length_c   5.30415240
_cell_angle_alpha   103.08234700
_cell_angle_beta   79.61667578
_cell_angle_gamma   71.42550137
_symmetry_Int_Tables_number   1
_chemical_formula_structural   Mg3Fe2O5
_chemical_formula_sum   'Mg6 Fe4 O10'
_cell_volume   200.76666696
_cell_formula_units_Z   2
loop_
 _symmetry_equiv_pos_site_id
 _symmetry_equiv_pos_as_xyz
  1  'x, y, z'
loop_
 _atom_site_type_symbol
 _atom_site_label
 _atom_site_symmetry_multiplicity
 _atom_site_fract_x
 _atom_site_fract_y
 _atom_site_fract_z
 _atom_site_occupancy
  Mg  Mg0  1  0.79955700  0.39947400  0.99959000  1
  Mg  Mg1  1  0.79951600  0.89946400  0.49958900  1
  Mg  Mg2  1  0.99944300  0.99818800  0.99512800  1
  Mg  Mg3  1  0.99736200  0.50197300  0.49953700  1
  Mg  Mg4  1  0.60161500  0.29703200  0.49964900  1
  Mg  Mg5  1  0.59950200  0.80078200  0.00410300  1
  Fe  Fe6  1  0.20184900  0.60026500  0.99471600  1
  Fe  Fe7  1  0.39716400  0.19868100  0.00434900  1
  Fe  Fe8  1  0.20125200  0.10012700  0.49862200  1
  Fe  Fe9  1  0.39770100  0.69886200  0.50049700  1
  O  O10  1  0.78796300  0.15118400  0.75605900  1
  O  O11  1  0.81107200  0.64775600  0.24308000  1
  O  O12  1  0.19521600  0.34709300  0.73514300  1
  O  O13  1  0.19631300  0.86022200  0.24817700  1
  O  O14  1  0.40382100  0.45189600  0.26399700  1
  O  O15  1  0.40260500  0.93872300  0.75100300  1
  O  O16  1  0.99288300  0.25512100  0.24041100  1
  O  O17  1  0.98232700  0.75446300  0.74643600  1
  O  O18  1  0.61656800  0.04454900  0.25282100  1
  O  O19  1  0.60615200  0.54383000  0.75875200  1
