# generated using pymatgen
data_Co2As2O7
_symmetry_space_group_name_H-M   'P 1'
_cell_length_a   4.86132764
_cell_length_b   5.45004822
_cell_length_c   5.45551794
_cell_angle_alpha   105.33286427
_cell_angle_beta   97.34370235
_cell_angle_gamma   97.46137846
_symmetry_Int_Tables_number   1
_chemical_formula_structural   Co2As2O7
_chemical_formula_sum   'Co2 As2 O7'
_cell_volume   136.21407157
_cell_formula_units_Z   1
loop_
 _symmetry_equiv_pos_site_id
 _symmetry_equiv_pos_as_xyz
  1  'x, y, z'
loop_
 _atom_site_type_symbol
 _atom_site_label
 _atom_site_symmetry_multiplicity
 _atom_site_fract_x
 _atom_site_fract_y
 _atom_site_fract_z
 _atom_site_occupancy
  Co  Co0  1  0.49792700  0.30912200  0.69366300  1
  Co  Co1  1  0.49949400  0.69332700  0.31036500  1
  As  As2  1  0.09911400  0.75925400  0.76094000  1
  As  As3  1  0.90085500  0.23670800  0.23521700  1
  O  O4  1  0.00891300  0.00362900  0.99964200  1
  O  O5  1  0.77059500  0.59697400  0.59861700  1
  O  O6  1  0.22396200  0.40591900  0.40586200  1
  O  O7  1  0.29216000  0.92759900  0.59703700  1
  O  O8  1  0.28945400  0.59447100  0.92925600  1
  O  O9  1  0.70990900  0.40343100  0.07013500  1
  O  O10  1  0.70761700  0.06956400  0.39926600  1
