# generated using pymatgen
data_Ba3Cr2O8
_symmetry_space_group_name_H-M   'P 1'
_cell_length_a   5.84613355
_cell_length_b   7.97334288
_cell_length_c   10.13049764
_cell_angle_alpha   102.19357038
_cell_angle_beta   89.97944966
_cell_angle_gamma   68.52461673
_symmetry_Int_Tables_number   1
_chemical_formula_structural   Ba3Cr2O8
_chemical_formula_sum   'Ba6 Cr4 O16'
_cell_volume   427.94846669
_cell_formula_units_Z   2
loop_
 _symmetry_equiv_pos_site_id
 _symmetry_equiv_pos_as_xyz
  1  'x, y, z'
loop_
 _atom_site_type_symbol
 _atom_site_label
 _atom_site_symmetry_multiplicity
 _atom_site_fract_x
 _atom_site_fract_y
 _atom_site_fract_z
 _atom_site_occupancy
  Ba  Ba0  1  0.50430700  0.00002900  0.50664400  1
  Ba  Ba1  1  0.99862200  0.99995000  0.00652300  1
  Ba  Ba2  1  0.30921200  0.38122600  0.89694600  1
  Ba  Ba3  1  0.80994000  0.38100300  0.39685300  1
  Ba  Ba4  1  0.19085400  0.61908300  0.60307200  1
  Ba  Ba5  1  0.69026900  0.61897100  0.10292500  1
  Cr  Cr6  1  0.60971600  0.77953500  0.79704700  1
  Cr  Cr7  1  0.38954600  0.22062900  0.20392500  1
  Cr  Cr8  1  0.11125700  0.77898400  0.29736600  1
  Cr  Cr9  1  0.88985500  0.22075300  0.70387900  1
  O  O10  1  0.48608000  0.01565000  0.82700400  1
  O  O11  1  0.99468400  0.01516200  0.32743500  1
  O  O12  1  0.99658900  0.98453700  0.65689000  1
  O  O13  1  0.51593800  0.98442800  0.15623200  1
  O  O14  1  0.85360800  0.30237800  0.87816200  1
  O  O15  1  0.34447400  0.30227700  0.37817900  1
  O  O16  1  0.60680100  0.30327600  0.63679600  1
  O  O17  1  0.10479700  0.30381200  0.13994800  1
  O  O18  1  0.09179500  0.30335300  0.63969900  1
  O  O19  1  0.59090100  0.30259000  0.13693600  1
  O  O20  1  0.88993200  0.69676300  0.86525800  1
  O  O21  1  0.39176700  0.69781300  0.36607200  1
  O  O22  1  0.65294200  0.69708000  0.62222200  1
  O  O23  1  0.15141500  0.69692200  0.12242000  1
  O  O24  1  0.41072900  0.69782100  0.86583300  1
  O  O25  1  0.91396800  0.69597300  0.36573400  1
