# generated using pymatgen
data_CrO
_symmetry_space_group_name_H-M   'P 1'
_cell_length_a   3.09174522
_cell_length_b   3.82213621
_cell_length_c   6.60157245
_cell_angle_alpha   56.10459799
_cell_angle_beta   110.16189611
_cell_angle_gamma   128.17766315
_symmetry_Int_Tables_number   1
_chemical_formula_structural   CrO
_chemical_formula_sum   'Cr2 O2'
_cell_volume   50.90281938
_cell_formula_units_Z   2
loop_
 _symmetry_equiv_pos_site_id
 _symmetry_equiv_pos_as_xyz
  1  'x, y, z'
loop_
 _atom_site_type_symbol
 _atom_site_label
 _atom_site_symmetry_multiplicity
 _atom_site_fract_x
 _atom_site_fract_y
 _atom_site_fract_z
 _atom_site_occupancy
  Cr  Cr0  1  0.00005400  0.00013700  0.89999800  1
  Cr  Cr1  1  0.99995100  0.00010000  0.39999300  1
  O  O2  1  0.48760200  0.74374200  0.15000000  1
  O  O3  1  0.51239300  0.25612200  0.65000900  1
