# generated using pymatgen
data_SrLaTiMnO6
_symmetry_space_group_name_H-M   'P 1'
_cell_length_a   5.48246317
_cell_length_b   16.40975878
_cell_length_c   5.51899913
_cell_angle_alpha   89.37172014
_cell_angle_beta   90.04473501
_cell_angle_gamma   90.62407142
_symmetry_Int_Tables_number   1
_chemical_formula_structural   SrLaTiMnO6
_chemical_formula_sum   'Sr4 La4 Ti4 Mn4 O24'
_cell_volume   496.46230283
_cell_formula_units_Z   4
loop_
 _symmetry_equiv_pos_site_id
 _symmetry_equiv_pos_as_xyz
  1  'x, y, z'
loop_
 _atom_site_type_symbol
 _atom_site_label
 _atom_site_symmetry_multiplicity
 _atom_site_fract_x
 _atom_site_fract_y
 _atom_site_fract_z
 _atom_site_occupancy
  Sr  Sr0  1  0.50161000  0.62451200  0.00429700  1
  Sr  Sr1  1  0.99294900  0.87543400  0.50225800  1
  Sr  Sr2  1  0.49760800  0.12502200  0.00442300  1
  Sr  Sr3  1  0.99700600  0.37521100  0.50675300  1
  La  La4  1  0.48813200  0.87317300  0.99676800  1
  La  La5  1  0.99654500  0.12314100  0.49292300  1
  La  La6  1  0.49473500  0.37349100  0.99770200  1
  La  La7  1  0.00375500  0.62312900  0.50275200  1
  Ti  Ti8  1  0.99493800  0.99941000  0.99722100  1
  Ti  Ti9  1  0.49624400  0.24909700  0.50209000  1
  Ti  Ti10  1  0.99700600  0.49887700  0.00562300  1
  Ti  Ti11  1  0.49714100  0.74948200  0.49959900  1
  Mn  Mn12  1  0.99964200  0.74963600  0.00128200  1
  Mn  Mn13  1  0.49851700  0.00012000  0.49978900  1
  Mn  Mn14  1  0.99857200  0.24983300  0.00137400  1
  Mn  Mn15  1  0.49969900  0.49987400  0.50322300  1
  O  O16  1  0.28385100  0.73943500  0.21263800  1
  O  O17  1  0.76323100  0.98510200  0.73178200  1
  O  O18  1  0.26560300  0.23425900  0.23155000  1
  O  O19  1  0.76879900  0.48640500  0.73080600  1
  O  O20  1  0.00564800  0.88320400  0.05022200  1
  O  O21  1  0.50347000  0.13337500  0.55445400  1
  O  O22  1  0.00441900  0.38314200  0.05452600  1
  O  O23  1  0.49280900  0.63333300  0.54871500  1
  O  O24  1  0.21787300  0.76328400  0.71837300  1
  O  O25  1  0.73519700  0.01589300  0.23563200  1
  O  O26  1  0.23209800  0.26588700  0.73531400  1
  O  O27  1  0.73101100  0.51450900  0.23482100  1
  O  O28  1  0.00544600  0.61752200  0.93149900  1
  O  O29  1  0.50817800  0.86750800  0.42782900  1
  O  O30  1  0.00338400  0.11744800  0.92196600  1
  O  O31  1  0.50374000  0.36723900  0.42538100  1
  O  O32  1  0.79367600  0.73293100  0.28850100  1
  O  O33  1  0.27515500  0.98263500  0.76946100  1
  O  O34  1  0.77868800  0.23239100  0.27496600  1
  O  O35  1  0.28080900  0.48323500  0.77781800  1
  O  O36  1  0.71336700  0.76636800  0.79069200  1
  O  O37  1  0.22900100  0.01879800  0.27358800  1
  O  O38  1  0.72534000  0.26932400  0.77955700  1
  O  O39  1  0.22511900  0.51733100  0.28182600  1
