# generated using pymatgen
data_V2PO5
_symmetry_space_group_name_H-M   'P 1'
_cell_length_a   5.48005048
_cell_length_b   5.48055311
_cell_length_c   7.37117456
_cell_angle_alpha   68.21382291
_cell_angle_beta   111.77385428
_cell_angle_gamma   89.99388389
_symmetry_Int_Tables_number   1
_chemical_formula_structural   V2PO5
_chemical_formula_sum   'V4 P2 O10'
_cell_volume   188.45245631
_cell_formula_units_Z   2
loop_
 _symmetry_equiv_pos_site_id
 _symmetry_equiv_pos_as_xyz
  1  'x, y, z'
loop_
 _atom_site_type_symbol
 _atom_site_label
 _atom_site_symmetry_multiplicity
 _atom_site_fract_x
 _atom_site_fract_y
 _atom_site_fract_z
 _atom_site_occupancy
  V  V0  1  0.50000100  0.00000000  0.00000200  1
  V  V1  1  0.50000100  0.49999700  0.00000200  1
  V  V2  1  0.00000200  0.00000000  0.49999900  1
  V  V3  1  0.49999800  0.00000200  0.50000000  1
  P  P4  1  0.87306900  0.37310900  0.75003400  1
  P  P5  1  0.12693000  0.62689200  0.24996400  1
  O  O6  1  0.38469600  0.88482700  0.75000500  1
  O  O7  1  0.61530400  0.11517000  0.24999800  1
  O  O8  1  0.19482900  0.32244800  0.38159900  1
  O  O9  1  0.82258900  0.69478700  0.11828100  1
  O  O10  1  0.29415400  0.69730200  0.11343900  1
  O  O11  1  0.80516900  0.67755500  0.61839900  1
  O  O12  1  0.19736600  0.79394700  0.38658000  1
  O  O13  1  0.70584800  0.30269600  0.88656400  1
  O  O14  1  0.17741200  0.30521300  0.88171700  1
  O  O15  1  0.80263200  0.20605500  0.61341700  1
