# generated using pymatgen
data_SrCoO3
_symmetry_space_group_name_H-M   'P 1'
_cell_length_a   5.49019555
_cell_length_b   6.73615954
_cell_length_c   6.73608611
_cell_angle_alpha   70.94369734
_cell_angle_beta   90.00015650
_cell_angle_gamma   90.00014446
_symmetry_Int_Tables_number   1
_chemical_formula_structural   SrCoO3
_chemical_formula_sum   'Sr4 Co4 O12'
_cell_volume   235.46734734
_cell_formula_units_Z   4
loop_
 _symmetry_equiv_pos_site_id
 _symmetry_equiv_pos_as_xyz
  1  'x, y, z'
loop_
 _atom_site_type_symbol
 _atom_site_label
 _atom_site_symmetry_multiplicity
 _atom_site_fract_x
 _atom_site_fract_y
 _atom_site_fract_z
 _atom_site_occupancy
  Sr  Sr0  1  0.50003500  0.74641600  0.25195400  1
  Sr  Sr1  1  0.00001000  0.00781000  0.49840900  1
  Sr  Sr2  1  0.50003500  0.25198300  0.74641300  1
  Sr  Sr3  1  0.00001100  0.49841800  0.00779000  1
  Co  Co4  1  0.00006000  0.50070900  0.50070700  1
  Co  Co5  1  0.49999500  0.75151000  0.75133700  1
  Co  Co6  1  0.00016800  0.00699400  0.00699000  1
  Co  Co7  1  0.50010800  0.25059000  0.25054500  1
  O  O8  1  0.26328600  0.63344900  0.63345500  1
  O  O9  1  0.74135100  0.87073700  0.87076700  1
  O  O10  1  0.25143900  0.11960300  0.11962300  1
  O  O11  1  0.74617500  0.37138200  0.37141800  1
  O  O12  1  0.99996300  0.74256600  0.26164200  1
  O  O13  1  0.49989200  0.01221400  0.47885700  1
  O  O14  1  0.99995800  0.26162500  0.74258000  1
  O  O15  1  0.49989700  0.47881700  0.01223300  1
  O  O16  1  0.25370200  0.37133500  0.37137100  1
  O  O17  1  0.73685000  0.63346200  0.63347200  1
  O  O18  1  0.25853300  0.87072400  0.87075700  1
  O  O19  1  0.74853400  0.11965700  0.11967900  1
