# generated using pymatgen
data_MnO
_symmetry_space_group_name_H-M   'P 1'
_cell_length_a   3.20364697
_cell_length_b   4.48906700
_cell_length_c   6.33540169
_cell_angle_alpha   89.99997291
_cell_angle_beta   90.00001904
_cell_angle_gamma   90.00000000
_symmetry_Int_Tables_number   1
_chemical_formula_structural   MnO
_chemical_formula_sum   'Mn4 O4'
_cell_volume   91.11185668
_cell_formula_units_Z   4
loop_
 _symmetry_equiv_pos_site_id
 _symmetry_equiv_pos_as_xyz
  1  'x, y, z'
loop_
 _atom_site_type_symbol
 _atom_site_label
 _atom_site_symmetry_multiplicity
 _atom_site_fract_x
 _atom_site_fract_y
 _atom_site_fract_z
 _atom_site_occupancy
  Mn  Mn0  1  0.50000200  0.49999800  0.74417700  1
  Mn  Mn1  1  0.00000300  0.00000200  0.00582300  1
  Mn  Mn2  1  0.49999900  0.50000000  0.24417600  1
  Mn  Mn3  1  0.99999700  0.99999900  0.50582400  1
  O  O4  1  0.00000000  0.50000000  0.49590900  1
  O  O5  1  0.49999900  0.00000000  0.75409600  1
  O  O6  1  0.00000000  0.50000100  0.99590400  1
  O  O7  1  0.50000000  0.00000000  0.25409100  1
