# generated using pymatgen
data_Sr2MnNbO6
_symmetry_space_group_name_H-M   'P 1'
_cell_length_a   5.67552016
_cell_length_b   9.94334854
_cell_length_c   9.79792143
_cell_angle_alpha   98.91914980
_cell_angle_beta   105.73943817
_cell_angle_gamma   91.14326420
_symmetry_Int_Tables_number   1
_chemical_formula_structural   Sr2MnNbO6
_chemical_formula_sum   'Sr8 Mn4 Nb4 O24'
_cell_volume   524.64615637
_cell_formula_units_Z   4
loop_
 _symmetry_equiv_pos_site_id
 _symmetry_equiv_pos_as_xyz
  1  'x, y, z'
loop_
 _atom_site_type_symbol
 _atom_site_label
 _atom_site_symmetry_multiplicity
 _atom_site_fract_x
 _atom_site_fract_y
 _atom_site_fract_z
 _atom_site_occupancy
  Sr  Sr0  1  0.81348800  0.93687000  0.62578100  1
  Sr  Sr1  1  0.56247500  0.18819800  0.12580000  1
  Sr  Sr2  1  0.31463400  0.43668900  0.62553100  1
  Sr  Sr3  1  0.06266500  0.68811500  0.12567300  1
  Sr  Sr4  1  0.93811000  0.31123200  0.87421300  1
  Sr  Sr5  1  0.68689200  0.56276800  0.37429800  1
  Sr  Sr6  1  0.43739400  0.81140200  0.87436000  1
  Sr  Sr7  1  0.18586300  0.06269900  0.37443100  1
  Mn  Mn8  1  0.25058400  0.74997500  0.50017200  1
  Mn  Mn9  1  0.50009300  0.49975900  0.99989500  1
  Mn  Mn10  1  0.99980400  0.99963700  0.99992400  1
  Mn  Mn11  1  0.75012300  0.24991700  0.49996700  1
  Nb  Nb12  1  0.38238800  0.11700600  0.75012300  1
  Nb  Nb13  1  0.11751300  0.38277800  0.24987300  1
  Nb  Nb14  1  0.88343100  0.61697600  0.75001800  1
  Nb  Nb15  1  0.61699400  0.88277400  0.25004700  1
  O  O16  1  0.32982300  0.92136600  0.63226500  1
  O  O17  1  0.04592500  0.20951300  0.11968600  1
  O  O18  1  0.82955800  0.42129600  0.63214200  1
  O  O19  1  0.54591600  0.70948900  0.11987700  1
  O  O20  1  0.70270000  0.04559500  0.86756800  1
  O  O21  1  0.41450900  0.33213500  0.37923400  1
  O  O22  1  0.20369100  0.54565700  0.86735500  1
  O  O23  1  0.91205900  0.83139700  0.38055500  1
  O  O24  1  0.57776200  0.17674100  0.62424900  1
  O  O25  1  0.30325500  0.45197400  0.12414700  1
  O  O26  1  0.08173200  0.67587500  0.62516100  1
  O  O27  1  0.80484100  0.95178100  0.12517600  1
  O  O28  1  0.45297400  0.29079300  0.87991200  1
  O  O29  1  0.16986800  0.57908000  0.36718900  1
  O  O30  1  0.95362200  0.79079200  0.87976600  1
  O  O31  1  0.66937000  0.07904400  0.36730900  1
  O  O32  1  0.08529000  0.16839200  0.62096500  1
  O  O33  1  0.79627700  0.45476500  0.13324100  1
  O  O34  1  0.58825600  0.66917700  0.61999100  1
  O  O35  1  0.29692400  0.95494000  0.13266000  1
  O  O36  1  0.19533600  0.04795600  0.87520200  1
  O  O37  1  0.92248700  0.32332000  0.37595900  1
  O  O38  1  0.69638300  0.54802800  0.87527800  1
  O  O39  1  0.41899300  0.82409800  0.37500800  1
