# generated using pymatgen
data_Mn2FeReO6
_symmetry_space_group_name_H-M   'P 1'
_cell_length_a   5.29230437
_cell_length_b   5.42311450
_cell_length_c   7.74436212
_cell_angle_alpha   90.38438042
_cell_angle_beta   90.02829342
_cell_angle_gamma   90.10463407
_symmetry_Int_Tables_number   1
_chemical_formula_structural   Mn2FeReO6
_chemical_formula_sum   'Mn4 Fe2 Re2 O12'
_cell_volume   222.26377495
_cell_formula_units_Z   2
loop_
 _symmetry_equiv_pos_site_id
 _symmetry_equiv_pos_as_xyz
  1  'x, y, z'
loop_
 _atom_site_type_symbol
 _atom_site_label
 _atom_site_symmetry_multiplicity
 _atom_site_fract_x
 _atom_site_fract_y
 _atom_site_fract_z
 _atom_site_occupancy
  Mn  Mn0  1  0.50787000  0.44731100  0.24852100  1
  Mn  Mn1  1  0.99467300  0.94911000  0.24624600  1
  Mn  Mn2  1  0.00671600  0.05217900  0.75601100  1
  Mn  Mn3  1  0.49181400  0.55276500  0.74804600  1
  Fe  Fe4  1  0.00064700  0.50024100  0.99786100  1
  Fe  Fe5  1  0.50062900  0.99961200  0.50002700  1
  Re  Re6  1  0.99963400  0.49991400  0.49907600  1
  Re  Re7  1  0.50069600  0.00071200  0.00163400  1
  O  O8  1  0.15828500  0.80245600  0.56745000  1
  O  O9  1  0.68148900  0.69822300  0.06717400  1
  O  O10  1  0.84051200  0.19627000  0.43287300  1
  O  O11  1  0.31963800  0.30347500  0.93321400  1
  O  O12  1  0.19221500  0.81206800  0.94092500  1
  O  O13  1  0.68723900  0.67178200  0.44050500  1
  O  O14  1  0.81070400  0.18714400  0.05815900  1
  O  O15  1  0.30806500  0.32344600  0.56046100  1
  O  O16  1  0.61939200  0.94038700  0.76369900  1
  O  O17  1  0.11903200  0.55822200  0.25880300  1
  O  O18  1  0.37981600  0.06080500  0.23799800  1
  O  O19  1  0.88093200  0.44387700  0.74131700  1
