# generated using pymatgen
data_Al(FeO2)2
_symmetry_space_group_name_H-M   'P 1'
_cell_length_a   5.99778728
_cell_length_b   5.94287822
_cell_length_c   5.94060713
_cell_angle_alpha   59.09886906
_cell_angle_beta   59.60939611
_cell_angle_gamma   59.62211611
_symmetry_Int_Tables_number   1
_chemical_formula_structural   Al(FeO2)2
_chemical_formula_sum   'Al2 Fe4 O8'
_cell_volume   147.82431888
_cell_formula_units_Z   2
loop_
 _symmetry_equiv_pos_site_id
 _symmetry_equiv_pos_as_xyz
  1  'x, y, z'
loop_
 _atom_site_type_symbol
 _atom_site_label
 _atom_site_symmetry_multiplicity
 _atom_site_fract_x
 _atom_site_fract_y
 _atom_site_fract_z
 _atom_site_occupancy
  Al  Al0  1  0.88234200  0.86725500  0.86753800  1
  Al  Al1  1  0.11766000  0.13273600  0.13246800  1
  Fe  Fe2  1  0.49995100  0.49999900  0.50003200  1
  Fe  Fe3  1  0.49999400  0.50002000  0.99998600  1
  Fe  Fe4  1  0.00001400  0.50005900  0.49993900  1
  Fe  Fe5  1  0.50001300  0.99995900  0.50002900  1
  O  O6  1  0.23725800  0.25640200  0.25716800  1
  O  O7  1  0.75688000  0.73844600  0.24782500  1
  O  O8  1  0.25140300  0.74320000  0.74371100  1
  O  O9  1  0.75688200  0.24735900  0.73862500  1
  O  O10  1  0.74860100  0.25680300  0.25629100  1
  O  O11  1  0.24312300  0.75263200  0.26137900  1
  O  O12  1  0.24312900  0.26154200  0.75217700  1
  O  O13  1  0.76275100  0.74358900  0.74283200  1
