# generated using pymatgen
data_Fe3O4
_symmetry_space_group_name_H-M   'P 1'
_cell_length_a   6.07178986
_cell_length_b   6.09073648
_cell_length_c   10.50103103
_cell_angle_alpha   89.78676563
_cell_angle_beta   73.12446406
_cell_angle_gamma   59.57543615
_symmetry_Int_Tables_number   1
_chemical_formula_structural   Fe3O4
_chemical_formula_sum   'Fe12 O16'
_cell_volume   315.58086296
_cell_formula_units_Z   4
loop_
 _symmetry_equiv_pos_site_id
 _symmetry_equiv_pos_as_xyz
  1  'x, y, z'
loop_
 _atom_site_type_symbol
 _atom_site_label
 _atom_site_symmetry_multiplicity
 _atom_site_fract_x
 _atom_site_fract_y
 _atom_site_fract_z
 _atom_site_occupancy
  Fe  Fe0  1  0.49952700  0.74966100  0.75080600  1
  Fe  Fe1  1  0.50090000  0.00132400  0.49682000  1
  Fe  Fe2  1  0.00058400  0.74969000  0.24919100  1
  Fe  Fe3  1  0.50085700  0.74652400  0.24682500  1
  Fe  Fe4  1  0.50043900  0.25160500  0.75208400  1
  Fe  Fe5  1  0.13141200  0.18799700  0.06297900  1
  Fe  Fe6  1  0.13095600  0.68814100  0.56284000  1
  Fe  Fe7  1  0.86952600  0.31287600  0.43736700  1
  Fe  Fe8  1  0.86880800  0.81074200  0.93745400  1
  Fe  Fe9  1  0.49965700  0.25108400  0.24929300  1
  Fe  Fe10  1  0.49866900  0.49888700  0.00202800  1
  Fe  Fe11  1  0.99876900  0.25030300  0.75045700  1
  O  O12  1  0.25615700  0.38011200  0.12589600  1
  O  O13  1  0.26758700  0.87840100  0.62597100  1
  O  O14  1  0.73680400  0.11909300  0.38154300  1
  O  O15  1  0.73885200  0.62365200  0.86683700  1
  O  O16  1  0.74638600  0.86509200  0.13100400  1
  O  O17  1  0.72759600  0.38784000  0.63436000  1
  O  O18  1  0.74120500  0.39101700  0.13153900  1
  O  O19  1  0.72908100  0.88337600  0.62770600  1
  O  O20  1  0.26437500  0.10726000  0.37957700  1
  O  O21  1  0.26491600  0.61951500  0.86181500  1
  O  O22  1  0.25880900  0.87077400  0.13239700  1
  O  O23  1  0.27170500  0.35411300  0.62320900  1
  O  O24  1  0.25175500  0.63574900  0.37110200  1
  O  O25  1  0.27329400  0.11235900  0.86376500  1
  O  O26  1  0.73045200  0.64414400  0.37838200  1
  O  O27  1  0.74092200  0.12867000  0.86675400  1
