# generated using pymatgen
data_Co2As2O7
_symmetry_space_group_name_H-M   'P 1'
_cell_length_a   6.48952203
_cell_length_b   6.83685651
_cell_length_c   6.83682045
_cell_angle_alpha   100.24020577
_cell_angle_beta   70.90676737
_cell_angle_gamma   109.11411381
_symmetry_Int_Tables_number   1
_chemical_formula_structural   Co2As2O7
_chemical_formula_sum   'Co4 As4 O14'
_cell_volume   269.99540380
_cell_formula_units_Z   2
loop_
 _symmetry_equiv_pos_site_id
 _symmetry_equiv_pos_as_xyz
  1  'x, y, z'
loop_
 _atom_site_type_symbol
 _atom_site_label
 _atom_site_symmetry_multiplicity
 _atom_site_fract_x
 _atom_site_fract_y
 _atom_site_fract_z
 _atom_site_occupancy
  Co  Co0  1  0.75158500  0.06408500  0.56291300  1
  Co  Co1  1  0.74833600  0.43833600  0.93764200  1
  Co  Co2  1  0.25122900  0.56224900  0.06331000  1
  Co  Co3  1  0.24775700  0.93957700  0.43911100  1
  As  As4  1  0.72981200  0.95457500  0.04467700  1
  As  As5  1  0.19352400  0.44559100  0.55917200  1
  As  As6  1  0.76787200  0.54571400  0.45521300  1
  As  As7  1  0.30551300  0.05425900  0.94138600  1
  O  O8  1  0.47454400  0.45167400  0.55526300  1
  O  O9  1  0.02348300  0.03341200  0.93885300  1
  O  O10  1  0.24571900  0.62013700  0.38293500  1
  O  O11  1  0.68004900  0.10743200  0.89484500  1
  O  O12  1  0.26020400  0.88254100  0.11825500  1
  O  O13  1  0.82380800  0.39700600  0.60493400  1
  O  O14  1  0.62495600  0.69612700  0.98008700  1
  O  O15  1  0.11004700  0.18305400  0.48130100  1
  O  O16  1  0.63579500  0.02532900  0.30204300  1
  O  O17  1  0.10736900  0.52306800  0.82099900  1
  O  O18  1  0.86688700  0.47825900  0.19747700  1
  O  O19  1  0.39487500  0.97734300  0.67956200  1
  O  O20  1  0.87057600  0.80413900  0.51919900  1
  O  O21  1  0.38605600  0.31609200  0.02082200  1
