# generated using pymatgen
data_Mg2V3O8
_symmetry_space_group_name_H-M   'P 1'
_cell_length_a   5.99571210
_cell_length_b   8.85987994
_cell_length_c   6.47547646
_cell_angle_alpha   95.01722133
_cell_angle_beta   117.57646421
_cell_angle_gamma   70.22309189
_symmetry_Int_Tables_number   1
_chemical_formula_structural   Mg2V3O8
_chemical_formula_sum   'Mg4 V6 O16'
_cell_volume   285.93391254
_cell_formula_units_Z   2
loop_
 _symmetry_equiv_pos_site_id
 _symmetry_equiv_pos_as_xyz
  1  'x, y, z'
loop_
 _atom_site_type_symbol
 _atom_site_label
 _atom_site_symmetry_multiplicity
 _atom_site_fract_x
 _atom_site_fract_y
 _atom_site_fract_z
 _atom_site_occupancy
  Mg  Mg0  1  0.82802500  0.89678900  0.55270300  1
  Mg  Mg1  1  0.32809300  0.39689700  0.05300200  1
  Mg  Mg2  1  0.17201500  0.10310200  0.44700400  1
  Mg  Mg3  1  0.67212900  0.60320900  0.94729500  1
  V  V4  1  0.74974000  0.24999200  0.75002700  1
  V  V5  1  0.27167000  0.00015000  0.99985300  1
  V  V6  1  0.77197200  0.49983900  0.50013500  1
  V  V7  1  0.24973200  0.75000500  0.24996000  1
  V  V8  1  0.22810600  0.49982800  0.50019600  1
  V  V9  1  0.72775000  0.00018000  0.99983000  1
  O  O10  1  0.04351500  0.35038700  0.43759000  1
  O  O11  1  0.54329700  0.85055400  0.93733200  1
  O  O12  1  0.95650300  0.64944200  0.56266800  1
  O  O13  1  0.45628900  0.14962100  0.06241000  1
  O  O14  1  0.54887600  0.34491500  0.44275000  1
  O  O15  1  0.04878300  0.84499900  0.94268400  1
  O  O16  1  0.45106300  0.65499900  0.55731600  1
  O  O17  1  0.95100000  0.15508900  0.05725200  1
  O  O18  1  0.42240400  0.91987800  0.31421400  1
  O  O19  1  0.92256700  0.41981600  0.81437500  1
  O  O20  1  0.97213400  0.91980500  0.31396100  1
  O  O21  1  0.47229800  0.41972100  0.81417700  1
  O  O22  1  0.02803900  0.08020300  0.68563100  1
  O  O23  1  0.52810500  0.58013600  0.18579400  1
  O  O24  1  0.57788400  0.08026500  0.68581800  1
  O  O25  1  0.07800900  0.58017700  0.18602600  1
