# generated using pymatgen
data_Na3(CoO2)5
_symmetry_space_group_name_H-M   'P 1'
_cell_length_a   4.94583037
_cell_length_b   11.28144400
_cell_length_c   7.78733790
_cell_angle_alpha   87.61939400
_cell_angle_beta   108.52994108
_cell_angle_gamma   97.60430549
_symmetry_Int_Tables_number   1
_chemical_formula_structural   Na3(CoO2)5
_chemical_formula_sum   'Na6 Co10 O20'
_cell_volume   408.35435445
_cell_formula_units_Z   2
loop_
 _symmetry_equiv_pos_site_id
 _symmetry_equiv_pos_as_xyz
  1  'x, y, z'
loop_
 _atom_site_type_symbol
 _atom_site_label
 _atom_site_symmetry_multiplicity
 _atom_site_fract_x
 _atom_site_fract_y
 _atom_site_fract_z
 _atom_site_occupancy
  Na  Na0  1  0.81208400  0.25138000  0.79997200  1
  Na  Na1  1  0.31787400  0.75076400  0.80021100  1
  Na  Na2  1  0.01876900  0.24911400  0.19492900  1
  Na  Na3  1  0.50535500  0.74419400  0.19350700  1
  Na  Na4  1  0.62278100  0.24871800  0.40450800  1
  Na  Na5  1  0.11114600  0.74442400  0.40684700  1
  Co  Co6  1  0.90895700  0.50738800  0.79993800  1
  Co  Co7  1  0.39767300  0.01528600  0.80018100  1
  Co  Co8  1  0.49611000  0.49809500  0.99604800  1
  Co  Co9  1  0.99462700  0.99032500  0.99847800  1
  Co  Co10  1  0.29996400  0.49806700  0.60382800  1
  Co  Co11  1  0.79749800  0.99013700  0.60240100  1
  Co  Co12  1  0.60494400  0.00296100  0.20469100  1
  Co  Co13  1  0.09860100  0.50214700  0.19583700  1
  Co  Co14  1  0.19945700  0.00269500  0.39420600  1
  Co  Co15  1  0.70270600  0.50200400  0.40414000  1
  O  O16  1  0.08827500  0.09432600  0.79984600  1
  O  O17  1  0.58886200  0.58571700  0.79999200  1
  O  O18  1  0.20962600  0.41604500  0.79987900  1
  O  O19  1  0.68381400  0.90763600  0.80118300  1
  O  O20  1  0.30598800  0.09284300  0.21397900  1
  O  O21  1  0.78649700  0.58687100  0.20009800  1
  O  O22  1  0.89282000  0.09238800  0.38470500  1
  O  O23  1  0.38646300  0.58697000  0.40010100  1
  O  O24  1  0.70780400  0.09478900  0.01845000  1
  O  O25  1  0.21156000  0.59498300  0.98807300  1
  O  O26  1  0.49108600  0.09458800  0.58204400  1
  O  O27  1  0.02344700  0.59491000  0.61195200  1
  O  O28  1  0.81118500  0.41609800  0.99544300  1
  O  O29  1  0.32515500  0.91083200  0.01838800  1
  O  O30  1  0.61552400  0.41604300  0.60429700  1
  O  O31  1  0.10635100  0.91028500  0.58277000  1
  O  O32  1  0.00446500  0.40755500  0.41607900  1
  O  O33  1  0.48700300  0.90816400  0.38226000  1
  O  O34  1  0.38824900  0.40774400  0.18373800  1
  O  O35  1  0.90528100  0.90751800  0.21700000  1
