# generated using pymatgen
data_YMn2O4
_symmetry_space_group_name_H-M   'P 1'
_cell_length_a   6.28871517
_cell_length_b   6.43500271
_cell_length_c   6.28878061
_cell_angle_alpha   61.38877148
_cell_angle_beta   91.04830478
_cell_angle_gamma   118.60839854
_symmetry_Int_Tables_number   1
_chemical_formula_structural   YMn2O4
_chemical_formula_sum   'Y2 Mn4 O8'
_cell_volume   188.64757526
_cell_formula_units_Z   2
loop_
 _symmetry_equiv_pos_site_id
 _symmetry_equiv_pos_as_xyz
  1  'x, y, z'
loop_
 _atom_site_type_symbol
 _atom_site_label
 _atom_site_symmetry_multiplicity
 _atom_site_fract_x
 _atom_site_fract_y
 _atom_site_fract_z
 _atom_site_occupancy
  Y  Y0  1  0.49985800  0.99991400  0.99995000  1
  Y  Y1  1  0.00005700  0.49991600  0.50014800  1
  Mn  Mn2  1  0.36469700  0.25000700  0.36472900  1
  Mn  Mn3  1  0.99909600  0.99950500  0.00009700  1
  Mn  Mn4  1  0.63529600  0.75001300  0.63532300  1
  Mn  Mn5  1  0.99990600  0.49949800  0.00091500  1
  O  O6  1  0.76848300  0.48636700  0.22417200  1
  O  O7  1  0.22418900  0.01376800  0.76788700  1
  O  O8  1  0.23212100  0.51376900  0.77581400  1
  O  O9  1  0.77583500  0.98636700  0.23152100  1
  O  O10  1  0.21455500  0.97584500  0.23498900  1
  O  O11  1  0.76497600  0.47591600  0.78537100  1
  O  O12  1  0.23532300  0.52455700  0.21439700  1
  O  O13  1  0.78561200  0.02456100  0.76468500  1
