# generated using pymatgen
data_TiCo3O8
_symmetry_space_group_name_H-M   'P 1'
_cell_length_a   5.75227545
_cell_length_b   8.30423929
_cell_length_c   5.99078783
_cell_angle_alpha   93.31507514
_cell_angle_beta   89.99587200
_cell_angle_gamma   90.00365380
_symmetry_Int_Tables_number   1
_chemical_formula_structural   TiCo3O8
_chemical_formula_sum   'Ti2 Co6 O16'
_cell_volume   285.69071446
_cell_formula_units_Z   2
loop_
 _symmetry_equiv_pos_site_id
 _symmetry_equiv_pos_as_xyz
  1  'x, y, z'
loop_
 _atom_site_type_symbol
 _atom_site_label
 _atom_site_symmetry_multiplicity
 _atom_site_fract_x
 _atom_site_fract_y
 _atom_site_fract_z
 _atom_site_occupancy
  Ti  Ti0  1  0.00001900  0.98680600  0.02856800  1
  Ti  Ti1  1  0.50004200  0.48701300  0.52813200  1
  Co  Co2  1  0.74912100  0.75365700  0.74415100  1
  Co  Co3  1  0.00001800  0.50238900  0.49206100  1
  Co  Co4  1  0.25087900  0.75364300  0.74414900  1
  Co  Co5  1  0.24911400  0.25363600  0.24415800  1
  Co  Co6  1  0.50000300  0.00232500  0.99222600  1
  Co  Co7  1  0.75087400  0.25362300  0.24416000  1
  O  O8  1  0.99994300  0.27262100  0.45505900  1
  O  O9  1  0.49993700  0.77254600  0.95508200  1
  O  O10  1  0.50004500  0.23324000  0.03353600  1
  O  O11  1  0.00005800  0.73333600  0.53348800  1
  O  O12  1  0.26320900  0.02384700  0.21547600  1
  O  O13  1  0.76319000  0.52389400  0.71521500  1
  O  O14  1  0.49994600  0.26124000  0.45279300  1
  O  O15  1  0.99995300  0.76110500  0.95279100  1
  O  O16  1  0.73667800  0.02385100  0.21546200  1
  O  O17  1  0.23673600  0.52389700  0.71519900  1
  O  O18  1  0.75695000  0.47739200  0.28754800  1
  O  O19  1  0.25688700  0.97736600  0.78781300  1
  O  O20  1  0.00004400  0.23382300  0.04380600  1
  O  O21  1  0.50005000  0.73401500  0.54376800  1
  O  O22  1  0.24313100  0.47737800  0.28754600  1
  O  O23  1  0.74317100  0.97735800  0.78781400  1
