# generated using pymatgen
data_ZnCoO2
_symmetry_space_group_name_H-M   'P 1'
_cell_length_a   3.05529058
_cell_length_b   3.00929089
_cell_length_c   19.89446675
_cell_angle_alpha   85.73453833
_cell_angle_beta   90.85117817
_cell_angle_gamma   119.41945467
_symmetry_Int_Tables_number   1
_chemical_formula_structural   ZnCoO2
_chemical_formula_sum   'Zn4 Co4 O8'
_cell_volume   158.83665212
_cell_formula_units_Z   4
loop_
 _symmetry_equiv_pos_site_id
 _symmetry_equiv_pos_as_xyz
  1  'x, y, z'
loop_
 _atom_site_type_symbol
 _atom_site_label
 _atom_site_symmetry_multiplicity
 _atom_site_fract_x
 _atom_site_fract_y
 _atom_site_fract_z
 _atom_site_occupancy
  Zn  Zn0  1  0.01292400  0.00615800  0.00140400  1
  Zn  Zn1  1  0.23848900  0.49196200  0.24907400  1
  Zn  Zn2  1  0.51177800  0.00341000  0.50093200  1
  Zn  Zn3  1  0.73661300  0.49841700  0.74860000  1
  Co  Co4  1  0.37499900  0.75187400  0.87499700  1
  Co  Co5  1  0.62553300  0.24946500  0.12520700  1
  Co  Co6  1  0.87503100  0.74801400  0.37500300  1
  Co  Co7  1  0.12444700  0.25062800  0.62479500  1
  O  O8  1  0.89496600  0.84863900  0.18578300  1
  O  O9  1  0.19069000  0.37472800  0.43752100  1
  O  O10  1  0.39342000  0.85953900  0.68537700  1
  O  O11  1  0.69428300  0.37601200  0.93788000  1
  O  O12  1  0.85552800  0.64193300  0.56421000  1
  O  O13  1  0.05592600  0.12753300  0.81210300  1
  O  O14  1  0.35597000  0.65029300  0.06463200  1
  O  O15  1  0.55940300  0.12139400  0.31248300  1
