# generated using pymatgen
data_Sr2CoGe2O7
_symmetry_space_group_name_H-M   'P 1'
_cell_length_a   9.85866329
_cell_length_b   9.89652956
_cell_length_c   9.86337976
_cell_angle_alpha   72.44531218
_cell_angle_beta   66.46964215
_cell_angle_gamma   107.25833312
_symmetry_Int_Tables_number   1
_chemical_formula_structural   Sr2CoGe2O7
_chemical_formula_sum   'Sr8 Co4 Ge8 O28'
_cell_volume   739.29080122
_cell_formula_units_Z   4
loop_
 _symmetry_equiv_pos_site_id
 _symmetry_equiv_pos_as_xyz
  1  'x, y, z'
loop_
 _atom_site_type_symbol
 _atom_site_label
 _atom_site_symmetry_multiplicity
 _atom_site_fract_x
 _atom_site_fract_y
 _atom_site_fract_z
 _atom_site_occupancy
  Sr  Sr0  1  0.83752800  0.83174100  0.49755500  1
  Sr  Sr1  1  0.33710800  0.83272200  0.99909400  1
  Sr  Sr2  1  0.99407000  0.66378300  0.83715500  1
  Sr  Sr3  1  0.49577600  0.66457400  0.33727200  1
  Sr  Sr4  1  0.67131200  0.16845500  0.99335900  1
  Sr  Sr5  1  0.16876900  0.16753300  0.49513300  1
  Sr  Sr6  1  0.49788000  0.33561800  0.67040800  1
  Sr  Sr7  1  0.99843600  0.33641000  0.16930700  1
  Co  Co8  1  0.00107600  0.50065500  0.49828400  1
  Co  Co9  1  0.49985400  0.99978600  0.50042100  1
  Co  Co10  1  0.49970400  0.50009300  0.00023300  1
  Co  Co11  1  0.99889300  0.99985800  0.00101100  1
  Ge  Ge12  1  0.08639900  0.36114400  0.77156400  1
  Ge  Ge13  1  0.57993000  0.35615900  0.27495200  1
  Ge  Ge14  1  0.27933900  0.14759900  0.08222700  1
  Ge  Ge15  1  0.77425900  0.14215200  0.58291700  1
  Ge  Ge16  1  0.86639700  0.63976000  0.27435000  1
  Ge  Ge17  1  0.36837100  0.64324800  0.77682400  1
  Ge  Ge18  1  0.77086400  0.85224800  0.86846200  1
  Ge  Ge19  1  0.27519600  0.85774200  0.36823300  1
  O  O20  1  0.34307700  0.00044300  0.15702200  1
  O  O21  1  0.84355100  0.00015800  0.65774800  1
  O  O22  1  0.65553100  0.49547200  0.34533400  1
  O  O23  1  0.15886600  0.50321300  0.84079300  1
  O  O24  1  0.74555800  0.36214900  0.11217300  1
  O  O25  1  0.25148000  0.36518300  0.61051100  1
  O  O26  1  0.61278200  0.13733500  0.74848700  1
  O  O27  1  0.11913500  0.14406700  0.24775200  1
  O  O28  1  0.52552100  0.63732200  0.61756500  1
  O  O29  1  0.02421900  0.63602800  0.11378000  1
  O  O30  1  0.11414500  0.86253500  0.52456400  1
  O  O31  1  0.60889300  0.85624100  0.02469800  1
  O  O32  1  0.48290900  0.32126400  0.94304400  1
  O  O33  1  0.97300400  0.32016600  0.44568800  1
  O  O34  1  0.94831800  0.18239800  0.96880200  1
  O  O35  1  0.44124700  0.17655000  0.47218000  1
  O  O36  1  0.73568300  0.67879800  0.83795100  1
  O  O37  1  0.23459900  0.68014200  0.34668400  1
  O  O38  1  0.84451900  0.81693800  0.23457600  1
  O  O39  1  0.35092500  0.82299000  0.73562000  1
  O  O40  1  0.84814400  0.58227900  0.47259500  1
  O  O41  1  0.34071300  0.57869200  0.98041900  1
  O  O42  1  0.96471200  0.90680500  0.85709300  1
  O  O43  1  0.47386100  0.91632800  0.34861000  1
  O  O44  1  0.94611700  0.41989500  0.73254500  1
  O  O45  1  0.44116500  0.42085700  0.23754200  1
  O  O46  1  0.23489800  0.09134600  0.94439500  1
  O  O47  1  0.73526600  0.08312400  0.44307000  1
