# generated using pymatgen
data_CaMn2O4
_symmetry_space_group_name_H-M   'P 1'
_cell_length_a   6.27310012
_cell_length_b   10.70582465
_cell_length_c   6.35743850
_cell_angle_alpha   73.65884567
_cell_angle_beta   60.96776989
_cell_angle_gamma   89.02010885
_symmetry_Int_Tables_number   1
_chemical_formula_structural   CaMn2O4
_chemical_formula_sum   'Ca4 Mn8 O16'
_cell_volume   354.58003465
_cell_formula_units_Z   4
loop_
 _symmetry_equiv_pos_site_id
 _symmetry_equiv_pos_as_xyz
  1  'x, y, z'
loop_
 _atom_site_type_symbol
 _atom_site_label
 _atom_site_symmetry_multiplicity
 _atom_site_fract_x
 _atom_site_fract_y
 _atom_site_fract_z
 _atom_site_occupancy
  Ca  Ca0  1  0.01238400  0.00166400  0.97753000  1
  Ca  Ca1  1  0.52251100  0.50596900  0.96181600  1
  Ca  Ca2  1  0.93833900  0.31113500  0.11855700  1
  Ca  Ca3  1  0.43420000  0.81199000  0.13305200  1
  Mn  Mn4  1  0.93445100  0.81419500  0.63425900  1
  Mn  Mn5  1  0.18759200  0.56305800  0.63020800  1
  Mn  Mn6  1  0.43170300  0.81348800  0.63372800  1
  Mn  Mn7  1  0.35286300  0.11827700  0.27892400  1
  Mn  Mn8  1  0.85414700  0.61916800  0.28756300  1
  Mn  Mn9  1  0.43822600  0.31012900  0.61542800  1
  Mn  Mn10  1  0.68354100  0.06193400  0.62111600  1
  Mn  Mn11  1  0.95030600  0.31330200  0.61095700  1
  O  O12  1  0.54343600  0.18216700  0.84916900  1
  O  O13  1  0.05377400  0.68874200  0.90052300  1
  O  O14  1  0.34668200  0.41779600  0.38531800  1
  O  O15  1  0.79974600  0.96078700  0.39681600  1
  O  O16  1  0.56006900  0.18480500  0.41890900  1
  O  O17  1  0.05743300  0.68652600  0.43605600  1
  O  O18  1  0.77960900  0.41003500  0.43342800  1
  O  O19  1  0.27494600  0.91487100  0.44154600  1
  O  O20  1  0.00657200  0.18153600  0.43173500  1
  O  O21  1  0.50483800  0.68446700  0.44540500  1
  O  O22  1  0.88403100  0.43793100  0.79902100  1
  O  O23  1  0.37928600  0.94354000  0.81276500  1
  O  O24  1  0.10623800  0.21629000  0.79979000  1
  O  O25  1  0.59963400  0.72198700  0.81083600  1
  O  O26  1  0.31483700  0.43006200  0.81334800  1
  O  O27  1  0.79859700  0.94415200  0.82220600  1
