# generated using pymatgen
data_Sr2MnNbO6
_symmetry_space_group_name_H-M   'P 1'
_cell_length_a   5.76883097
_cell_length_b   7.93809600
_cell_length_c   11.45277874
_cell_angle_alpha   90.00036882
_cell_angle_beta   89.99822443
_cell_angle_gamma   89.99926504
_symmetry_Int_Tables_number   1
_chemical_formula_structural   Sr2MnNbO6
_chemical_formula_sum   'Sr8 Mn4 Nb4 O24'
_cell_volume   524.46321338
_cell_formula_units_Z   4
loop_
 _symmetry_equiv_pos_site_id
 _symmetry_equiv_pos_as_xyz
  1  'x, y, z'
loop_
 _atom_site_type_symbol
 _atom_site_label
 _atom_site_symmetry_multiplicity
 _atom_site_fract_x
 _atom_site_fract_y
 _atom_site_fract_z
 _atom_site_occupancy
  Sr  Sr0  1  0.49463800  0.25103100  0.49885900  1
  Sr  Sr1  1  0.00533500  0.75108400  0.75109000  1
  Sr  Sr2  1  0.50447400  0.24998700  0.99934800  1
  Sr  Sr3  1  0.99562400  0.75002600  0.25064500  1
  Sr  Sr4  1  0.49463900  0.74898300  0.49885600  1
  Sr  Sr5  1  0.00531800  0.24893500  0.75107300  1
  Sr  Sr6  1  0.50447700  0.75003700  0.99934800  1
  Sr  Sr7  1  0.99561500  0.24999400  0.25065800  1
  Mn  Mn8  1  0.99336000  0.99989300  0.50010700  1
  Mn  Mn9  1  0.50650700  0.49995800  0.74993000  1
  Mn  Mn10  1  0.00629100  0.00001800  0.00011600  1
  Mn  Mn11  1  0.49374700  0.49996200  0.24982000  1
  Nb  Nb12  1  0.98360000  0.49997800  0.50028400  1
  Nb  Nb13  1  0.51626200  0.99997900  0.74975000  1
  Nb  Nb14  1  0.01608100  0.50001300  0.99958800  1
  Nb  Nb15  1  0.48402400  0.99997300  0.25036800  1
  O  O16  1  0.98231800  0.24686800  0.49942600  1
  O  O17  1  0.51760900  0.74685000  0.75062400  1
  O  O18  1  0.01752000  0.24692900  0.99920000  1
  O  O19  1  0.48237600  0.74691700  0.25073400  1
  O  O20  1  0.20821900  0.49998700  0.62714700  1
  O  O21  1  0.78552600  0.99997900  0.87242000  1
  O  O22  1  0.28112900  0.49999000  0.11921300  1
  O  O23  1  0.69852000  0.00001200  0.38121900  1
  O  O24  1  0.20457700  0.49998800  0.37198600  1
  O  O25  1  0.78687600  0.00000900  0.63340200  1
  O  O26  1  0.29166100  0.49999400  0.88037400  1
  O  O27  1  0.71462500  0.99999600  0.12612200  1
  O  O28  1  0.98234600  0.75313000  0.49942000  1
  O  O29  1  0.51767000  0.25313700  0.75063600  1
  O  O30  1  0.01764200  0.75310100  0.99919000  1
  O  O31  1  0.48240700  0.25305400  0.25071500  1
  O  O32  1  0.71474800  0.49998700  0.37742000  1
  O  O33  1  0.29079200  0.00001600  0.62325500  1
  O  O34  1  0.80191400  0.50004900  0.86858000  1
  O  O35  1  0.21901000  0.00001800  0.13075100  1
  O  O36  1  0.71225000  0.50000500  0.61631500  1
  O  O37  1  0.29580100  0.00003400  0.87825600  1
  O  O38  1  0.78559700  0.50006700  0.12387900  1
  O  O39  1  0.20887200  0.00003100  0.36987300  1
