# generated using pymatgen
data_Mn3(OF2)2
_symmetry_space_group_name_H-M   'P 1'
_cell_length_a   4.78881000
_cell_length_b   7.97296096
_cell_length_c   5.76318307
_cell_angle_alpha   92.71127398
_cell_angle_beta   90.00142449
_cell_angle_gamma   90.00240453
_symmetry_Int_Tables_number   1
_chemical_formula_structural   Mn3(OF2)2
_chemical_formula_sum   'Mn6 O4 F8'
_cell_volume   219.79774434
_cell_formula_units_Z   2
loop_
 _symmetry_equiv_pos_site_id
 _symmetry_equiv_pos_as_xyz
  1  'x, y, z'
loop_
 _atom_site_type_symbol
 _atom_site_label
 _atom_site_symmetry_multiplicity
 _atom_site_fract_x
 _atom_site_fract_y
 _atom_site_fract_z
 _atom_site_occupancy
  Mn  Mn0  1  0.01609300  0.66770600  0.66024200  1
  Mn  Mn1  1  0.53680000  0.34376700  0.83309400  1
  Mn  Mn2  1  0.96026400  0.34684900  0.33814400  1
  Mn  Mn3  1  0.51606900  0.66570900  0.17310200  1
  Mn  Mn4  1  0.46030900  0.98645900  0.49518900  1
  Mn  Mn5  1  0.03688400  0.98957100  0.00020900  1
  O  O6  1  0.82624400  0.45432300  0.61905100  1
  O  O7  1  0.69850100  0.45103200  0.13981900  1
  O  O8  1  0.32627800  0.87897700  0.21428700  1
  O  O9  1  0.19852800  0.88224200  0.69353200  1
  F  F10  1  0.79165700  0.76369100  0.96256000  1
  F  F11  1  0.72986000  0.76452900  0.46562200  1
  F  F12  1  0.29164200  0.56965200  0.87077300  1
  F  F13  1  0.22981500  0.56878300  0.36770400  1
  F  F14  1  0.77302600  0.09301600  0.30563300  1
  F  F15  1  0.66754600  0.09008900  0.78034000  1
  F  F16  1  0.27300000  0.24030700  0.52770800  1
  F  F17  1  0.16748200  0.24330000  0.05299400  1
