# generated using pymatgen
data_VReO4
_symmetry_space_group_name_H-M   'P 1'
_cell_length_a   5.72088302
_cell_length_b   7.42647133
_cell_length_c   6.66851193
_cell_angle_alpha   90.00152966
_cell_angle_beta   89.99543120
_cell_angle_gamma   112.66358238
_symmetry_Int_Tables_number   1
_chemical_formula_structural   VReO4
_chemical_formula_sum   'V4 Re4 O16'
_cell_volume   261.44129169
_cell_formula_units_Z   4
loop_
 _symmetry_equiv_pos_site_id
 _symmetry_equiv_pos_as_xyz
  1  'x, y, z'
loop_
 _atom_site_type_symbol
 _atom_site_label
 _atom_site_symmetry_multiplicity
 _atom_site_fract_x
 _atom_site_fract_y
 _atom_site_fract_z
 _atom_site_occupancy
  V  V0  1  0.23827100  0.97644800  0.49998400  1
  V  V1  1  0.51157300  0.52347200  0.99999300  1
  V  V2  1  0.75752200  0.01508100  0.49998500  1
  V  V3  1  0.99252500  0.48495000  0.00000200  1
  Re  Re4  1  0.47151500  0.00283800  0.99998100  1
  Re  Re5  1  0.71843000  0.49711200  0.50001200  1
  Re  Re6  1  0.03154500  0.00286700  0.99999900  1
  Re  Re7  1  0.27850300  0.49715500  0.50002200  1
  O  O8  1  0.38669600  0.27313000  0.50000800  1
  O  O9  1  0.65762300  0.81506300  0.99998300  1
  O  O10  1  0.90499300  0.31024100  0.50000900  1
  O  O11  1  0.13820500  0.77628400  0.99999700  1
  O  O12  1  0.09237900  0.68495400  0.50001500  1
  O  O13  1  0.36343600  0.22696100  0.00000200  1
  O  O14  1  0.61188500  0.72370000  0.50000800  1
  O  O15  1  0.84500500  0.18977000  0.99999200  1
  O  O16  1  0.49437300  0.99992700  0.28738700  1
  O  O17  1  0.74444300  0.50018900  0.78709200  1
  O  O18  1  0.00550100  0.99979400  0.28715200  1
  O  O19  1  0.25555400  0.50005900  0.78746100  1
  O  O20  1  0.49441300  0.99994400  0.71261100  1
  O  O21  1  0.74447300  0.50019400  0.21292900  1
  O  O22  1  0.00553500  0.99979500  0.71282900  1
  O  O23  1  0.25560100  0.50007400  0.21254600  1
