# generated using pymatgen
data_Yb2S3
_symmetry_space_group_name_H-M   'P 1'
_cell_length_a   7.92540498
_cell_length_b   7.92540498
_cell_length_c   7.92540470
_cell_angle_alpha   50.02295719
_cell_angle_beta   50.02295719
_cell_angle_gamma   50.02296010
_symmetry_Int_Tables_number   1
_chemical_formula_structural   Yb2S3
_chemical_formula_sum   'Yb4 S6'
_cell_volume   269.03166230
_cell_formula_units_Z   2
loop_
 _symmetry_equiv_pos_site_id
 _symmetry_equiv_pos_as_xyz
  1  'x, y, z'
loop_
 _atom_site_type_symbol
 _atom_site_label
 _atom_site_symmetry_multiplicity
 _atom_site_fract_x
 _atom_site_fract_y
 _atom_site_fract_z
 _atom_site_occupancy
  Yb  Yb0  1  0.34860800  0.34860800  0.34860800  1
  Yb  Yb1  1  0.15139200  0.15139200  0.15139200  1
  Yb  Yb2  1  0.65139200  0.65139200  0.65139200  1
  Yb  Yb3  1  0.84860800  0.84860800  0.84860800  1
  S  S4  1  0.96389100  0.53610900  0.25000000  1
  S  S5  1  0.53610900  0.25000000  0.96389100  1
  S  S6  1  0.25000000  0.96389100  0.53610900  1
  S  S7  1  0.03610900  0.46389100  0.75000000  1
  S  S8  1  0.46389100  0.75000000  0.03610900  1
  S  S9  1  0.75000000  0.03610900  0.46389100  1
