# generated using pymatgen
data_Y(FeO2)2
_symmetry_space_group_name_H-M   'P 1'
_cell_length_a   3.50588017
_cell_length_b   8.79180107
_cell_length_c   6.12205263
_cell_angle_alpha   103.91934092
_cell_angle_beta   90.50341482
_cell_angle_gamma   90.62399700
_symmetry_Int_Tables_number   1
_chemical_formula_structural   Y(FeO2)2
_chemical_formula_sum   'Y2 Fe4 O8'
_cell_volume   183.13541189
_cell_formula_units_Z   2
loop_
 _symmetry_equiv_pos_site_id
 _symmetry_equiv_pos_as_xyz
  1  'x, y, z'
loop_
 _atom_site_type_symbol
 _atom_site_label
 _atom_site_symmetry_multiplicity
 _atom_site_fract_x
 _atom_site_fract_y
 _atom_site_fract_z
 _atom_site_occupancy
  Y  Y0  1  0.49965100  0.99988300  0.49986200  1
  Y  Y1  1  0.99986700  0.00016600  0.00000500  1
  Fe  Fe2  1  0.49887900  0.36188700  0.29177400  1
  Fe  Fe3  1  0.50136300  0.63826900  0.70840400  1
  Fe  Fe4  1  0.00955400  0.35665200  0.79055900  1
  Fe  Fe5  1  0.99072700  0.64320500  0.20921300  1
  O  O6  1  0.50386800  0.61120000  0.38267900  1
  O  O7  1  0.00311900  0.61642300  0.85895900  1
  O  O8  1  0.49656900  0.38867600  0.61771800  1
  O  O9  1  0.99727400  0.38366200  0.14115400  1
  O  O10  1  0.50273900  0.13159200  0.20995200  1
  O  O11  1  0.00807500  0.11873900  0.71046600  1
  O  O12  1  0.49712100  0.86853900  0.79011700  1
  O  O13  1  0.99119400  0.88110800  0.28913900  1
