# generated using pymatgen
data_NaV2O4
_symmetry_space_group_name_H-M   'P 1'
_cell_length_a   3.00396623
_cell_length_b   9.24573100
_cell_length_c   10.75055488
_cell_angle_alpha   89.91805938
_cell_angle_beta   90.01929825
_cell_angle_gamma   89.95870831
_symmetry_Int_Tables_number   1
_chemical_formula_structural   NaV2O4
_chemical_formula_sum   'Na4 V8 O16'
_cell_volume   298.58404619
_cell_formula_units_Z   4
loop_
 _symmetry_equiv_pos_site_id
 _symmetry_equiv_pos_as_xyz
  1  'x, y, z'
loop_
 _atom_site_type_symbol
 _atom_site_label
 _atom_site_symmetry_multiplicity
 _atom_site_fract_x
 _atom_site_fract_y
 _atom_site_fract_z
 _atom_site_occupancy
  Na  Na0  1  0.74996700  0.25501500  0.84644200  1
  Na  Na1  1  0.75022400  0.75634300  0.65123700  1
  Na  Na2  1  0.25004300  0.24588500  0.34617900  1
  Na  Na3  1  0.24983200  0.74406300  0.15121000  1
  V  V4  1  0.24931500  0.06471000  0.10823300  1
  V  V5  1  0.75262800  0.43483800  0.61237500  1
  V  V6  1  0.74992100  0.92026200  0.39509100  1
  V  V7  1  0.24994900  0.58222900  0.89550300  1
  V  V8  1  0.25022900  0.56650500  0.38725900  1
  V  V9  1  0.75016300  0.93025700  0.88853000  1
  V  V10  1  0.24965300  0.07671700  0.60501800  1
  V  V11  1  0.75020400  0.42244400  0.10431300  1
  O  O12  1  0.25016800  0.48198400  0.21956800  1
  O  O13  1  0.24978200  0.97739200  0.28248700  1
  O  O14  1  0.74978700  0.01853500  0.72076000  1
  O  O15  1  0.74957600  0.52406400  0.78484900  1
  O  O16  1  0.75009200  0.42556000  0.43015300  1
  O  O17  1  0.25185400  0.57499400  0.57497900  1
  O  O18  1  0.25011800  0.07907200  0.93665000  1
  O  O19  1  0.74974100  0.92539200  0.07724800  1
  O  O20  1  0.74969700  0.10647400  0.47390700  1
  O  O21  1  0.25006700  0.88227300  0.51415900  1
  O  O22  1  0.25018500  0.39299800  0.97565700  1
  O  O23  1  0.74993500  0.61816900  0.01525400  1
  O  O24  1  0.75007000  0.71621200  0.35083200  1
  O  O25  1  0.24682100  0.29550100  0.65074500  1
  O  O26  1  0.25014400  0.78269500  0.85050100  1
  O  O27  1  0.74983300  0.19941500  0.15086300  1
