# generated using pymatgen
data_Na4FeO5
_symmetry_space_group_name_H-M   'P 1'
_cell_length_a   7.31393414
_cell_length_b   8.84426439
_cell_length_c   8.75133258
_cell_angle_alpha   95.54771215
_cell_angle_beta   89.55802548
_cell_angle_gamma   114.32600601
_symmetry_Int_Tables_number   1
_chemical_formula_structural   Na4FeO5
_chemical_formula_sum   'Na16 Fe4 O20'
_cell_volume   513.09423690
_cell_formula_units_Z   4
loop_
 _symmetry_equiv_pos_site_id
 _symmetry_equiv_pos_as_xyz
  1  'x, y, z'
loop_
 _atom_site_type_symbol
 _atom_site_label
 _atom_site_symmetry_multiplicity
 _atom_site_fract_x
 _atom_site_fract_y
 _atom_site_fract_z
 _atom_site_occupancy
  Na  Na0  1  0.19293900  0.79890800  0.20453500  1
  Na  Na1  1  0.94999600  0.30452600  0.45654800  1
  Na  Na2  1  0.43680600  0.29905000  0.95291000  1
  Na  Na3  1  0.68937300  0.80168000  0.69684600  1
  Na  Na4  1  0.09539900  0.39171800  0.09328300  1
  Na  Na5  1  0.84959100  0.89570000  0.34753100  1
  Na  Na6  1  0.34878700  0.89463800  0.83709700  1
  Na  Na7  1  0.59831900  0.39969100  0.59924100  1
  Na  Na8  1  0.65304900  0.10041500  0.15108200  1
  Na  Na9  1  0.40591200  0.61047200  0.39905600  1
  Na  Na10  1  0.89347500  0.59982300  0.91246700  1
  Na  Na11  1  0.15119700  0.09639000  0.65657000  1
  Na  Na12  1  0.56172300  0.70494500  0.06834700  1
  Na  Na13  1  0.30260100  0.19697400  0.29643900  1
  Na  Na14  1  0.80083700  0.19171400  0.80151500  1
  Na  Na15  1  0.05893400  0.70760300  0.54192900  1
  Fe  Fe16  1  0.24792700  0.49785200  0.75557500  1
  Fe  Fe17  1  0.51788400  0.03626600  0.48082500  1
  Fe  Fe18  1  0.98505400  0.96960700  0.00877200  1
  Fe  Fe19  1  0.73255000  0.46385200  0.26800400  1
  O  O20  1  0.89735800  0.78857700  0.10793900  1
  O  O21  1  0.62675300  0.25037500  0.37531500  1
  O  O22  1  0.14382900  0.30023900  0.83656100  1
  O  O23  1  0.33143400  0.68068500  0.64404200  1
  O  O24  1  0.25555300  0.03578600  0.04326100  1
  O  O25  1  0.00722200  0.53063800  0.30400800  1
  O  O26  1  0.50905700  0.54710900  0.81929600  1
  O  O27  1  0.75893700  0.03736800  0.55143500  1
  O  O28  1  0.25661700  0.62403700  0.94006900  1
  O  O29  1  0.99300600  0.12111100  0.16997500  1
  O  O30  1  0.49221400  0.12406300  0.67936500  1
  O  O31  1  0.73728500  0.61627100  0.43434600  1
  O  O32  1  0.51425300  0.88313700  0.31643500  1
  O  O33  1  0.27028900  0.38178600  0.57208300  1
  O  O34  1  0.75673700  0.37454600  0.06978800  1
  O  O35  1  0.01000200  0.87661800  0.81628200  1
  O  O36  1  0.48816900  0.45875200  0.20011000  1
  O  O37  1  0.24287100  0.96952200  0.44459800  1
  O  O38  1  0.74408700  0.96368700  0.94285000  1
  O  O39  1  0.99197400  0.47386500  0.70366700  1
