# generated using pymatgen
data_Ba2V2O5
_symmetry_space_group_name_H-M   'P 1'
_cell_length_a   4.13204724
_cell_length_b   7.96758355
_cell_length_c   8.25039012
_cell_angle_alpha   90.01261936
_cell_angle_beta   90.01567568
_cell_angle_gamma   89.96194831
_symmetry_Int_Tables_number   1
_chemical_formula_structural   Ba2V2O5
_chemical_formula_sum   'Ba4 V4 O10'
_cell_volume   271.62282794
_cell_formula_units_Z   2
loop_
 _symmetry_equiv_pos_site_id
 _symmetry_equiv_pos_as_xyz
  1  'x, y, z'
loop_
 _atom_site_type_symbol
 _atom_site_label
 _atom_site_symmetry_multiplicity
 _atom_site_fract_x
 _atom_site_fract_y
 _atom_site_fract_z
 _atom_site_occupancy
  Ba  Ba0  1  0.00129900  0.00004100  0.00006900  1
  Ba  Ba1  1  0.99929400  0.50003000  0.99995300  1
  Ba  Ba2  1  0.00060500  0.99998500  0.49997900  1
  Ba  Ba3  1  0.00051400  0.50002700  0.50017100  1
  V  V4  1  0.50245200  0.75036600  0.27245200  1
  V  V5  1  0.49993200  0.24972200  0.72736700  1
  V  V6  1  0.49987400  0.25040400  0.25641700  1
  V  V7  1  0.49995800  0.74980100  0.74363200  1
  O  O8  1  0.50049600  0.24989600  0.49812600  1
  O  O9  1  0.49819700  0.74998000  0.50179500  1
  O  O10  1  0.49998800  0.99869200  0.22568200  1
  O  O11  1  0.49980900  0.50150100  0.22548400  1
  O  O12  1  0.49990400  0.00135000  0.77445500  1
  O  O13  1  0.49986700  0.49836000  0.77447000  1
  O  O14  1  0.99990800  0.25020800  0.22945400  1
  O  O15  1  0.99809300  0.74988800  0.23600500  1
  O  O16  1  0.00018000  0.24989900  0.76389700  1
  O  O17  1  0.99964100  0.74985600  0.77059600  1
