# generated using pymatgen
data_Na3CoPCO7
_symmetry_space_group_name_H-M   'P 1'
_cell_length_a   6.71497913
_cell_length_b   8.93109326
_cell_length_c   10.46139265
_cell_angle_alpha   88.77429338
_cell_angle_beta   90.02638388
_cell_angle_gamma   90.05973702
_symmetry_Int_Tables_number   1
_chemical_formula_structural   Na3CoPCO7
_chemical_formula_sum   'Na12 Co4 P4 C4 O28'
_cell_volume   627.24778007
_cell_formula_units_Z   4
loop_
 _symmetry_equiv_pos_site_id
 _symmetry_equiv_pos_as_xyz
  1  'x, y, z'
loop_
 _atom_site_type_symbol
 _atom_site_label
 _atom_site_symmetry_multiplicity
 _atom_site_fract_x
 _atom_site_fract_y
 _atom_site_fract_z
 _atom_site_occupancy
  Na  Na0  1  0.25055200  0.08150500  0.38629300  1
  Na  Na1  1  0.24985700  0.08148500  0.88602200  1
  Na  Na2  1  0.74953900  0.91827400  0.11524000  1
  Na  Na3  1  0.75021900  0.91749100  0.61275500  1
  Na  Na4  1  0.00578700  0.26920000  0.12732400  1
  Na  Na5  1  0.00636600  0.26931000  0.62631800  1
  Na  Na6  1  0.49417400  0.27047100  0.12757300  1
  Na  Na7  1  0.49370600  0.26867300  0.62583100  1
  Na  Na8  1  0.99412300  0.73149600  0.37415100  1
  Na  Na9  1  0.99320100  0.72981700  0.87267600  1
  Na  Na10  1  0.50619100  0.73041400  0.37276600  1
  Na  Na11  1  0.50665700  0.73006500  0.87414700  1
  Co  Co12  1  0.75020400  0.34814000  0.88847400  1
  Co  Co13  1  0.24650500  0.64746800  0.10996900  1
  Co  Co14  1  0.75267700  0.35368400  0.39062500  1
  Co  Co15  1  0.25320400  0.64699000  0.60976700  1
  P  P16  1  0.24981000  0.41539000  0.35653400  1
  P  P17  1  0.25026200  0.41545900  0.85663000  1
  P  P18  1  0.74996000  0.58516400  0.14305200  1
  P  P19  1  0.74989700  0.58447300  0.64385500  1
  C  C20  1  0.74973500  0.06270300  0.35823300  1
  C  C21  1  0.75005600  0.06182500  0.85773800  1
  C  C22  1  0.25020500  0.93822400  0.14229100  1
  C  C23  1  0.24983700  0.93758800  0.64228600  1
  O  O24  1  0.74995900  0.12421900  0.47030800  1
  O  O25  1  0.75018000  0.12141000  0.97052600  1
  O  O26  1  0.24975500  0.87677800  0.03022000  1
  O  O27  1  0.25030800  0.87617100  0.53013000  1
  O  O28  1  0.24980700  0.08235000  0.15227100  1
  O  O29  1  0.24981100  0.08168700  0.65212000  1
  O  O30  1  0.75032000  0.91850800  0.34853500  1
  O  O31  1  0.75001100  0.91826500  0.84515000  1
  O  O32  1  0.74861400  0.14989600  0.25663600  1
  O  O33  1  0.74995900  0.15234200  0.75805100  1
  O  O34  1  0.25140900  0.85076700  0.24378000  1
  O  O35  1  0.24907900  0.85018400  0.74375900  1
  O  O36  1  0.75141000  0.43425100  0.07345100  1
  O  O37  1  0.74903700  0.43263500  0.57528900  1
  O  O38  1  0.24880100  0.56719000  0.42497900  1
  O  O39  1  0.25013000  0.56692600  0.92556100  1
  O  O40  1  0.25090200  0.44632100  0.20855300  1
  O  O41  1  0.24915100  0.44644800  0.70871800  1
  O  O42  1  0.74921800  0.55367900  0.29109500  1
  O  O43  1  0.74980000  0.55391400  0.79169100  1
  O  O44  1  0.06432900  0.31780800  0.39264600  1
  O  O45  1  0.06482900  0.31801400  0.89271600  1
  O  O46  1  0.43480300  0.31898100  0.39396700  1
  O  O47  1  0.43564600  0.31812100  0.89243500  1
  O  O48  1  0.93541500  0.68323300  0.10763400  1
  O  O49  1  0.93512200  0.68092400  0.60610300  1
  O  O50  1  0.56481700  0.68184200  0.10636400  1
  O  O51  1  0.56465000  0.68182700  0.60676300  1
