# generated using pymatgen
data_Sr2MnGaO5
_symmetry_space_group_name_H-M   'P 1'
_cell_length_a   5.47060823
_cell_length_b   5.64279551
_cell_length_c   8.96834556
_cell_angle_alpha   108.54294828
_cell_angle_beta   107.76168673
_cell_angle_gamma   89.79347938
_symmetry_Int_Tables_number   1
_chemical_formula_structural   Sr2MnGaO5
_chemical_formula_sum   'Sr4 Mn2 Ga2 O10'
_cell_volume   248.62354167
_cell_formula_units_Z   2
loop_
 _symmetry_equiv_pos_site_id
 _symmetry_equiv_pos_as_xyz
  1  'x, y, z'
loop_
 _atom_site_type_symbol
 _atom_site_label
 _atom_site_symmetry_multiplicity
 _atom_site_fract_x
 _atom_site_fract_y
 _atom_site_fract_z
 _atom_site_occupancy
  Sr  Sr0  1  0.10973600  0.59604800  0.22236300  1
  Sr  Sr1  1  0.61119300  0.13033300  0.22293200  1
  Sr  Sr2  1  0.88712900  0.40364200  0.77757700  1
  Sr  Sr3  1  0.38823600  0.86956700  0.77708000  1
  Mn  Mn4  1  0.99493600  0.99973400  0.99986500  1
  Mn  Mn5  1  0.49483100  0.50000900  0.99991900  1
  Ga  Ga6  1  0.28583700  0.18162700  0.50370600  1
  Ga  Ga7  1  0.78251000  0.81827000  0.49637100  1
  O  O8  1  0.62805200  0.12143200  0.49943800  1
  O  O9  1  0.12870700  0.87899700  0.50071100  1
  O  O10  1  0.33726200  0.40212700  0.71875700  1
  O  O11  1  0.61930000  0.59797300  0.28134400  1
  O  O12  1  0.82159900  0.79524300  0.70315300  1
  O  O13  1  0.11958000  0.20504000  0.29689300  1
  O  O14  1  0.25454400  0.75639000  0.01293900  1
  O  O15  1  0.23733600  0.23815500  0.98436500  1
  O  O16  1  0.73769500  0.24797600  0.98660900  1
  O  O17  1  0.75551700  0.75743800  0.01597800  1
