# generated using pymatgen
data_Mn2V2O7
_symmetry_space_group_name_H-M   'P 1'
_cell_length_a   5.09092376
_cell_length_b   5.47796277
_cell_length_c   5.38825820
_cell_angle_alpha   109.36335357
_cell_angle_beta   96.27110050
_cell_angle_gamma   96.00748774
_symmetry_Int_Tables_number   1
_chemical_formula_structural   Mn2V2O7
_chemical_formula_sum   'Mn2 V2 O7'
_cell_volume   139.31989087
_cell_formula_units_Z   1
loop_
 _symmetry_equiv_pos_site_id
 _symmetry_equiv_pos_as_xyz
  1  'x, y, z'
loop_
 _atom_site_type_symbol
 _atom_site_label
 _atom_site_symmetry_multiplicity
 _atom_site_fract_x
 _atom_site_fract_y
 _atom_site_fract_z
 _atom_site_occupancy
  Mn  Mn0  1  0.99386536  0.82813769  0.16719468  1
  Mn  Mn1  1  0.98989196  0.20803859  0.82325243  1
  V  V2  1  0.38186846  0.76644675  0.75142953  1
  V  V3  1  0.60904106  0.25294514  0.26773212  1
  O  O4  1  0.77079058  0.47094176  0.14554675  1
  O  O5  1  0.23726257  0.84741663  0.49061930  1
  O  O6  1  0.15958476  0.58834774  0.90770677  1
  O  O7  1  0.83358045  0.09034585  0.42120033  1
  O  O8  1  0.50009752  0.44116441  0.54765974  1
  O  O9  1  0.28639223  0.08036234  0.05569175  1
  O  O10  1  0.73762505  0.92585310  0.92196660  1
