# generated using pymatgen
data_Sr2FeSnO6
_symmetry_space_group_name_H-M   'P 1'
_cell_length_a   4.02753400
_cell_length_b   8.10111900
_cell_length_c   8.01113400
_cell_angle_alpha   89.99765302
_cell_angle_beta   89.99692590
_cell_angle_gamma   89.99968081
_symmetry_Int_Tables_number   1
_chemical_formula_structural   Sr2FeSnO6
_chemical_formula_sum   'Sr4 Fe2 Sn2 O12'
_cell_volume   261.38353233
_cell_formula_units_Z   2
loop_
 _symmetry_equiv_pos_site_id
 _symmetry_equiv_pos_as_xyz
  1  'x, y, z'
loop_
 _atom_site_type_symbol
 _atom_site_label
 _atom_site_symmetry_multiplicity
 _atom_site_fract_x
 _atom_site_fract_y
 _atom_site_fract_z
 _atom_site_occupancy
  Sr  Sr0  1  0.00000800  0.99945400  0.98427400  1
  Sr  Sr1  1  0.99999900  0.50054900  0.98427900  1
  Sr  Sr2  1  0.00000000  0.99945100  0.51571800  1
  Sr  Sr3  1  0.99999100  0.50054600  0.51572200  1
  Fe  Fe4  1  0.50000000  0.75000000  0.74999800  1
  Fe  Fe5  1  0.50000000  0.25000000  0.74999800  1
  Sn  Sn6  1  0.50000200  0.24999900  0.25000800  1
  Sn  Sn7  1  0.50000100  0.75000100  0.25002400  1
  O  O8  1  0.49999800  0.25000700  0.99086300  1
  O  O9  1  0.49999100  0.74999600  0.99062100  1
  O  O10  1  0.50000000  0.24999300  0.50913300  1
  O  O11  1  0.50001000  0.75000400  0.50937500  1
  O  O12  1  0.49999600  0.99980000  0.24999700  1
  O  O13  1  0.50000300  0.50019900  0.25000000  1
  O  O14  1  0.99999900  0.25000000  0.24999900  1
  O  O15  1  0.00000100  0.75000000  0.24999800  1
  O  O16  1  0.49998900  0.99339400  0.74999200  1
  O  O17  1  0.50001100  0.50660600  0.75000500  1
  O  O18  1  0.00000000  0.25000000  0.74999800  1
  O  O19  1  0.00000000  0.75000000  0.74999800  1
