# generated using pymatgen
data_LaMnO3
_symmetry_space_group_name_H-M   'P 1'
_cell_length_a   5.58273474
_cell_length_b   5.58158627
_cell_length_c   5.58272201
_cell_angle_alpha   60.00796122
_cell_angle_beta   89.97534049
_cell_angle_gamma   119.99205557
_symmetry_Int_Tables_number   1
_chemical_formula_structural   LaMnO3
_chemical_formula_sum   'La2 Mn2 O6'
_cell_volume   123.01173613
_cell_formula_units_Z   2
loop_
 _symmetry_equiv_pos_site_id
 _symmetry_equiv_pos_as_xyz
  1  'x, y, z'
loop_
 _atom_site_type_symbol
 _atom_site_label
 _atom_site_symmetry_multiplicity
 _atom_site_fract_x
 _atom_site_fract_y
 _atom_site_fract_z
 _atom_site_occupancy
  La  La0  1  0.00000200  0.00000100  0.00000100  1
  La  La1  1  0.49999600  0.00000200  0.49999500  1
  Mn  Mn2  1  0.25000300  0.49999800  0.25000200  1
  Mn  Mn3  1  0.74999500  0.49999700  0.75000100  1
  O  O4  1  0.48908000  0.49999800  0.01092100  1
  O  O5  1  0.01092400  0.50000400  0.48907700  1
  O  O6  1  0.48944100  0.50000000  0.48944100  1
  O  O7  1  0.01056200  0.50000100  0.01056000  1
  O  O8  1  0.48940600  0.97882100  0.01059300  1
  O  O9  1  0.01059100  0.02117700  0.48940800  1
