# generated using pymatgen
data_KCoO2
_symmetry_space_group_name_H-M   'P 1'
_cell_length_a   5.58244286
_cell_length_b   5.58244996
_cell_length_c   8.12131395
_cell_angle_alpha   89.84379714
_cell_angle_beta   89.84223723
_cell_angle_gamma   86.48606760
_symmetry_Int_Tables_number   1
_chemical_formula_structural   KCoO2
_chemical_formula_sum   'K4 Co4 O8'
_cell_volume   252.61264005
_cell_formula_units_Z   4
loop_
 _symmetry_equiv_pos_site_id
 _symmetry_equiv_pos_as_xyz
  1  'x, y, z'
loop_
 _atom_site_type_symbol
 _atom_site_label
 _atom_site_symmetry_multiplicity
 _atom_site_fract_x
 _atom_site_fract_y
 _atom_site_fract_z
 _atom_site_occupancy
  K  K0  1  0.99945100  0.50002100  0.24702400  1
  K  K1  1  0.49998700  0.00055000  0.75297700  1
  K  K2  1  0.50073100  0.49927300  0.99999900  1
  K  K3  1  0.99981700  0.00018400  0.49999900  1
  Co  Co4  1  0.49947100  0.50053600  0.49999600  1
  Co  Co5  1  0.00124300  0.50161000  0.74710500  1
  Co  Co6  1  0.49839900  0.99876900  0.25288700  1
  Co  Co7  1  0.99910700  0.00090000  0.99999300  1
  O  O8  1  0.31486000  0.54333000  0.69036300  1
  O  O9  1  0.82244000  0.04321100  0.19642900  1
  O  O10  1  0.45664400  0.68515200  0.30965200  1
  O  O11  1  0.95676800  0.17756800  0.80357900  1
  O  O12  1  0.30868000  0.07964100  0.06688200  1
  O  O13  1  0.79950100  0.57742500  0.57204900  1
  O  O14  1  0.92035300  0.69132300  0.93311700  1
  O  O15  1  0.42255100  0.20050700  0.42794800  1
