# generated using pymatgen
data_NaFe2(SiO3)4
_symmetry_space_group_name_H-M   'P 1'
_cell_length_a   5.35694443
_cell_length_b   8.80645800
_cell_length_c   9.51513628
_cell_angle_alpha   90.00110380
_cell_angle_beta   103.74929578
_cell_angle_gamma   89.99954988
_symmetry_Int_Tables_number   1
_chemical_formula_structural   NaFe2(SiO3)4
_chemical_formula_sum   'Na2 Fe4 Si8 O24'
_cell_volume   436.02051875
_cell_formula_units_Z   2
loop_
 _symmetry_equiv_pos_site_id
 _symmetry_equiv_pos_as_xyz
  1  'x, y, z'
loop_
 _atom_site_type_symbol
 _atom_site_label
 _atom_site_symmetry_multiplicity
 _atom_site_fract_x
 _atom_site_fract_y
 _atom_site_fract_z
 _atom_site_occupancy
  Na  Na0  1  0.74998700  0.70434000  0.00000800  1
  Na  Na1  1  0.24998700  0.20345800  0.49999200  1
  Fe  Fe2  1  0.25000500  0.90561000  0.99999400  1
  Fe  Fe3  1  0.74999500  0.40087700  0.50000900  1
  Fe  Fe4  1  0.24996300  0.59945200  0.50002700  1
  Fe  Fe5  1  0.75002600  0.10517200  0.99999800  1
  Si  Si6  1  0.94620100  0.41383700  0.20797300  1
  Si  Si7  1  0.44206300  0.90886100  0.70226000  1
  Si  Si8  1  0.55379900  0.41383900  0.79202500  1
  Si  Si9  1  0.05793000  0.90886100  0.29773800  1
  Si  Si10  1  0.43589900  0.59010000  0.20792500  1
  Si  Si11  1  0.93996800  0.08556900  0.70592100  1
  Si  Si12  1  0.06412400  0.59008500  0.79207800  1
  Si  Si13  1  0.56003300  0.08556400  0.29408100  1
  O  O14  1  0.03209400  0.42551900  0.38779700  1
  O  O15  1  0.52180200  0.91769900  0.88179600  1
  O  O16  1  0.46788800  0.42552000  0.61220600  1
  O  O17  1  0.97820500  0.91770800  0.11819800  1
  O  O18  1  0.50765100  0.57640000  0.38800400  1
  O  O19  1  0.01744600  0.07242900  0.88450300  1
  O  O20  1  0.99234600  0.57639700  0.61200500  1
  O  O21  1  0.48256500  0.07241400  0.11549400  1
  O  O22  1  0.92877700  0.24222700  0.14857300  1
  O  O23  1  0.43119300  0.73460100  0.64326500  1
  O  O24  1  0.57122400  0.24221200  0.85141500  1
  O  O25  1  0.06884500  0.73460000  0.35674400  1
  O  O26  1  0.66813400  0.50109700  0.15413500  1
  O  O27  1  0.16663000  0.99753900  0.64554400  1
  O  O28  1  0.83185600  0.50109400  0.84585700  1
  O  O29  1  0.33336200  0.99754700  0.35445500  1
  O  O30  1  0.43842200  0.75775000  0.13889500  1
  O  O31  1  0.93352100  0.25587500  0.63939700  1
  O  O32  1  0.06158400  0.75775500  0.86109900  1
  O  O33  1  0.56647000  0.25587100  0.36059700  1
  O  O34  1  0.15700900  0.50911000  0.14294100  1
  O  O35  1  0.66029500  0.00383600  0.64336400  1
  O  O36  1  0.34299700  0.50909700  0.85705600  1
  O  O37  1  0.83970000  0.00383800  0.35663200  1
