# generated using pymatgen
data_Ti5CuSb2
_symmetry_space_group_name_H-M   'P 1'
_cell_length_a   7.82507153
_cell_length_b   7.82507153
_cell_length_c   7.82507153
_cell_angle_alpha   96.17452874
_cell_angle_beta   96.17452874
_cell_angle_gamma   141.71006414
_symmetry_Int_Tables_number   1
_chemical_formula_structural   Ti5CuSb2
_chemical_formula_sum   'Ti10 Cu2 Sb4'
_cell_volume   280.47578066
_cell_formula_units_Z   2
loop_
 _symmetry_equiv_pos_site_id
 _symmetry_equiv_pos_as_xyz
  1  'x, y, z'
loop_
 _atom_site_type_symbol
 _atom_site_label
 _atom_site_symmetry_multiplicity
 _atom_site_fract_x
 _atom_site_fract_y
 _atom_site_fract_z
 _atom_site_occupancy
  Ti  Ti0  1  0.57409600  0.71465200  0.28874800  1
  Ti  Ti1  1  0.42590400  0.28534800  0.71125200  1
  Ti  Ti2  1  0.75000000  0.25000000  0.50000000  1
  Ti  Ti3  1  0.25000000  0.75000000  0.50000000  1
  Ti  Ti4  1  0.71465200  0.42590400  0.14055600  1
  Ti  Ti5  1  0.28534800  0.57409600  0.85944400  1
  Ti  Ti6  1  0.92590400  0.21465200  0.14055600  1
  Ti  Ti7  1  0.21465200  0.07409600  0.28874800  1
  Ti  Ti8  1  0.07409600  0.78534800  0.85944400  1
  Ti  Ti9  1  0.78534800  0.92590400  0.71125200  1
  Cu  Cu10  1  0.75000000  0.75000000  0.00000000  1
  Cu  Cu11  1  0.25000000  0.25000000  0.00000000  1
  Sb  Sb12  1  0.33595900  0.83595900  0.17191800  1
  Sb  Sb13  1  0.16404100  0.33595900  0.50000000  1
  Sb  Sb14  1  0.66404100  0.16404100  0.82808200  1
  Sb  Sb15  1  0.83595900  0.66404100  0.50000000  1
