# generated using pymatgen
data_Cd(CoO2)2
_symmetry_space_group_name_H-M   'P 1'
_cell_length_a   5.86139037
_cell_length_b   6.42509990
_cell_length_c   5.80046548
_cell_angle_alpha   62.86545974
_cell_angle_beta   90.75396720
_cell_angle_gamma   118.29026926
_symmetry_Int_Tables_number   1
_chemical_formula_structural   Cd(CoO2)2
_chemical_formula_sum   'Cd2 Co4 O8'
_cell_volume   165.34002325
_cell_formula_units_Z   2
loop_
 _symmetry_equiv_pos_site_id
 _symmetry_equiv_pos_as_xyz
  1  'x, y, z'
loop_
 _atom_site_type_symbol
 _atom_site_label
 _atom_site_symmetry_multiplicity
 _atom_site_fract_x
 _atom_site_fract_y
 _atom_site_fract_z
 _atom_site_occupancy
  Cd  Cd0  1  0.00679900  0.99628500  0.00435900  1
  Cd  Cd1  1  0.74320000  0.50371400  0.74564200  1
  Co  Co2  1  0.37500100  0.25000100  0.37500000  1
  Co  Co3  1  0.87500000  0.25000000  0.37500000  1
  Co  Co4  1  0.37500000  0.75000000  0.37500000  1
  Co  Co5  1  0.37500100  0.75000100  0.87500000  1
  O  O6  1  0.16166600  0.29630600  0.12750900  1
  O  O7  1  0.60481900  0.22077300  0.17617900  1
  O  O8  1  0.56844200  0.71359200  0.14570400  1
  O  O9  1  0.12758900  0.69059600  0.15413300  1
  O  O10  1  0.58833300  0.20369500  0.62249000  1
  O  O11  1  0.14518100  0.27922700  0.57382100  1
  O  O12  1  0.18155800  0.78640700  0.60429600  1
  O  O13  1  0.62241100  0.80940400  0.59586700  1
