# generated using pymatgen
data_Mn(GeO3)2
_symmetry_space_group_name_H-M   'P 1'
_cell_length_a   5.53404582
_cell_length_b   9.51289532
_cell_length_c   8.73598428
_cell_angle_alpha   90.00066638
_cell_angle_beta   89.99947227
_cell_angle_gamma   102.12682162
_symmetry_Int_Tables_number   1
_chemical_formula_structural   Mn(GeO3)2
_chemical_formula_sum   'Mn4 Ge8 O24'
_cell_volume   449.64137296
_cell_formula_units_Z   4
loop_
 _symmetry_equiv_pos_site_id
 _symmetry_equiv_pos_as_xyz
  1  'x, y, z'
loop_
 _atom_site_type_symbol
 _atom_site_label
 _atom_site_symmetry_multiplicity
 _atom_site_fract_x
 _atom_site_fract_y
 _atom_site_fract_z
 _atom_site_occupancy
  Mn  Mn0  1  0.75001800  0.99999500  0.08812700  1
  Mn  Mn1  1  0.74997000  0.49998600  0.41189700  1
  Mn  Mn2  1  0.25001200  0.49999400  0.58808400  1
  Mn  Mn3  1  0.25005500  0.00000900  0.91193700  1
  Ge  Ge4  1  0.05900700  0.29708600  0.90757800  1
  Ge  Ge5  1  0.55901600  0.79714300  0.40760500  1
  Ge  Ge6  1  0.44097200  0.70290100  0.90756800  1
  Ge  Ge7  1  0.94096900  0.20287500  0.40758700  1
  Ge  Ge8  1  0.94096300  0.70287300  0.09237200  1
  Ge  Ge9  1  0.44095800  0.20286700  0.59244500  1
  Ge  Ge10  1  0.55901300  0.29714500  0.09236700  1
  Ge  Ge11  1  0.05902900  0.79711300  0.59245700  1
  O  O12  1  0.80832200  0.36640200  0.97239500  1
  O  O13  1  0.30827000  0.86639100  0.47240200  1
  O  O14  1  0.69171400  0.63363000  0.97235900  1
  O  O15  1  0.19167600  0.13360000  0.47242400  1
  O  O16  1  0.19171500  0.63362000  0.02758200  1
  O  O17  1  0.69167800  0.13360500  0.52759500  1
  O  O18  1  0.30827400  0.36639700  0.02758100  1
  O  O19  1  0.80830900  0.86638300  0.52761100  1
  O  O20  1  0.59531700  0.35202100  0.28488400  1
  O  O21  1  0.09537400  0.85205000  0.78489600  1
  O  O22  1  0.90463700  0.64794600  0.28486000  1
  O  O23  1  0.40468100  0.14797400  0.78490800  1
  O  O24  1  0.40465000  0.64798800  0.71508700  1
  O  O25  1  0.90470700  0.14796400  0.21512000  1
  O  O26  1  0.09534600  0.35202400  0.71511200  1
  O  O27  1  0.59532500  0.85202400  0.21511300  1
  O  O28  1  0.97439100  0.10227000  0.92099900  1
  O  O29  1  0.47436400  0.60226100  0.42097600  1
  O  O30  1  0.52564200  0.89773800  0.92100200  1
  O  O31  1  0.02559200  0.39772500  0.42098800  1
  O  O32  1  0.02562900  0.89772400  0.07904200  1
  O  O33  1  0.52560600  0.39771400  0.57901000  1
  O  O34  1  0.47441100  0.10228300  0.07903000  1
  O  O35  1  0.97439200  0.60228100  0.57900100  1
