# generated using pymatgen
data_Na3V5O10
_symmetry_space_group_name_H-M   'P 1'
_cell_length_a   7.28732397
_cell_length_b   8.34427600
_cell_length_c   8.07793496
_cell_angle_alpha   68.89581482
_cell_angle_beta   104.76410978
_cell_angle_gamma   88.05107734
_symmetry_Int_Tables_number   1
_chemical_formula_structural   Na3V5O10
_chemical_formula_sum   'Na6 V10 O20'
_cell_volume   438.79513062
_cell_formula_units_Z   2
loop_
 _symmetry_equiv_pos_site_id
 _symmetry_equiv_pos_as_xyz
  1  'x, y, z'
loop_
 _atom_site_type_symbol
 _atom_site_label
 _atom_site_symmetry_multiplicity
 _atom_site_fract_x
 _atom_site_fract_y
 _atom_site_fract_z
 _atom_site_occupancy
  Na  Na0  1  0.44984200  0.04845100  0.15247300  1
  Na  Na1  1  0.95039800  0.55129500  0.64764500  1
  Na  Na2  1  0.85385800  0.65191000  0.94545700  1
  Na  Na3  1  0.35245400  0.14828300  0.44840500  1
  Na  Na4  1  0.04736500  0.45185000  0.35129200  1
  Na  Na5  1  0.54598200  0.94828900  0.85438300  1
  V  V6  1  0.20007400  0.79992900  0.40007100  1
  V  V7  1  0.69994000  0.29997200  0.89995200  1
  V  V8  1  0.59897200  0.40551600  0.19676400  1
  V  V9  1  0.10250700  0.90313500  0.69754500  1
  V  V10  1  0.80115700  0.19439700  0.60324800  1
  V  V11  1  0.29735400  0.69693100  0.10240700  1
  V  V12  1  0.89794300  0.09565200  0.30156500  1
  V  V13  1  0.39162700  0.59478000  0.80213000  1
  V  V14  1  0.00837300  0.00523200  0.99805800  1
  V  V15  1  0.50220200  0.50431500  0.49833600  1
  O  O16  1  0.64433300  0.53790500  0.73788400  1
  O  O17  1  0.15236800  0.03823300  0.23997800  1
  O  O18  1  0.75557500  0.06224900  0.06204200  1
  O  O19  1  0.24774200  0.56144900  0.56028100  1
  O  O20  1  0.05552600  0.75246800  0.17246700  1
  O  O21  1  0.56668800  0.24657700  0.67485300  1
  O  O22  1  0.83324700  0.35349800  0.12505600  1
  O  O23  1  0.34448900  0.84747100  0.62765400  1
  O  O24  1  0.74867000  0.43713900  0.43363700  1
  O  O25  1  0.24228200  0.94988300  0.92836100  1
  O  O26  1  0.65141200  0.16289300  0.36635600  1
  O  O27  1  0.15764200  0.65021200  0.87163400  1
  O  O28  1  0.47149100  0.34559100  0.98179800  1
  O  O29  1  0.96816800  0.84961700  0.47434400  1
  O  O30  1  0.43200900  0.75034900  0.32573600  1
  O  O31  1  0.92845400  0.25441000  0.81817100  1
  O  O32  1  0.03320200  0.15473600  0.51980100  1
  O  O33  1  0.55072200  0.64065200  0.03559300  1
  O  O34  1  0.84915700  0.95937900  0.76444500  1
  O  O35  1  0.36677600  0.44535300  0.28017700  1
