# generated using pymatgen
data_Sr3TaCoO7
_symmetry_space_group_name_H-M   'P 1'
_cell_length_a   3.96452124
_cell_length_b   21.53448802
_cell_length_c   7.89744018
_cell_angle_alpha   89.99366612
_cell_angle_beta   89.97666490
_cell_angle_gamma   90.03371353
_symmetry_Int_Tables_number   1
_chemical_formula_structural   Sr3TaCoO7
_chemical_formula_sum   'Sr12 Ta4 Co4 O28'
_cell_volume   674.23536942
_cell_formula_units_Z   4
loop_
 _symmetry_equiv_pos_site_id
 _symmetry_equiv_pos_as_xyz
  1  'x, y, z'
loop_
 _atom_site_type_symbol
 _atom_site_label
 _atom_site_symmetry_multiplicity
 _atom_site_fract_x
 _atom_site_fract_y
 _atom_site_fract_z
 _atom_site_occupancy
  Sr  Sr0  1  0.50046600  0.98112600  0.24453600  1
  Sr  Sr1  1  0.99724000  0.47990300  0.99617400  1
  Sr  Sr2  1  0.49970000  0.98097100  0.75559600  1
  Sr  Sr3  1  0.99669000  0.47999300  0.50414900  1
  Sr  Sr4  1  0.99979900  0.69247300  0.49874400  1
  Sr  Sr5  1  0.50095900  0.19323800  0.25074000  1
  Sr  Sr6  1  0.99975800  0.69122900  0.00134500  1
  Sr  Sr7  1  0.50092200  0.19201600  0.74916600  1
  Sr  Sr8  1  0.50030100  0.81703500  0.24551200  1
  Sr  Sr9  1  0.00426900  0.31749600  0.00291400  1
  Sr  Sr10  1  0.49965600  0.81699400  0.75461400  1
  Sr  Sr11  1  0.00364000  0.31755500  0.49661200  1
  Ta  Ta12  1  0.49968100  0.59675500  0.25035800  1
  Ta  Ta13  1  0.00046100  0.09884200  0.00001800  1
  Ta  Ta14  1  0.49933300  0.59903900  0.74964600  1
  Ta  Ta15  1  0.00042500  0.09771200  0.50000100  1
  Co  Co16  1  0.50033100  0.39657900  0.24995500  1
  Co  Co17  1  0.00002300  0.89236800  0.00019800  1
  Co  Co18  1  0.99848400  0.89455700  0.49993800  1
  Co  Co19  1  0.49915000  0.39181000  0.75000900  1
  O  O20  1  0.00088600  0.80318600  0.49838400  1
  O  O21  1  0.49759800  0.30270000  0.25033800  1
  O  O22  1  0.99997400  0.80017800  0.00129600  1
  O  O23  1  0.49863700  0.30025200  0.74992100  1
  O  O24  1  0.50090000  0.69408500  0.25074500  1
  O  O25  1  0.00066700  0.19517900  0.00227700  1
  O  O26  1  0.50007000  0.69607200  0.74900100  1
  O  O27  1  0.00066300  0.19449900  0.49775500  1
  O  O28  1  0.50130500  0.50731100  0.24993900  1
  O  O29  1  0.00016800  0.00970500  0.99885400  1
  O  O30  1  0.49987000  0.51057600  0.74998900  1
  O  O31  1  0.00027600  0.00824500  0.50118400  1
  O  O32  1  0.50087800  0.90415400  0.49989100  1
  O  O33  1  0.99849400  0.40231200  0.25004800  1
  O  O34  1  0.50001100  0.90288300  0.00021300  1
  O  O35  1  0.99885300  0.40121000  0.74993800  1
  O  O36  1  0.99993700  0.90256300  0.24307400  1
  O  O37  1  0.49865200  0.40444000  0.98720600  1
  O  O38  1  0.00022200  0.90196700  0.75695000  1
  O  O39  1  0.49852400  0.40450800  0.51291800  1
  O  O40  1  0.00022800  0.60173300  0.25016100  1
  O  O41  1  0.50043500  0.10347800  0.99980200  1
  O  O42  1  0.99976000  0.60476900  0.74974600  1
  O  O43  1  0.50043400  0.10283600  0.50019400  1
  O  O44  1  0.50025800  0.60342800  0.49943800  1
  O  O45  1  0.00033400  0.10258300  0.25018500  1
  O  O46  1  0.50022300  0.60353100  0.00050600  1
  O  O47  1  0.00045700  0.10392500  0.74981900  1
