# generated using pymatgen
data_Co2NiO4
_symmetry_space_group_name_H-M   'P 1'
_cell_length_a   5.88844331
_cell_length_b   5.90909921
_cell_length_c   8.26665017
_cell_angle_alpha   44.85417754
_cell_angle_beta   45.37483367
_cell_angle_gamma   60.47912445
_symmetry_Int_Tables_number   1
_chemical_formula_structural   Co2NiO4
_chemical_formula_sum   'Co4 Ni2 O8'
_cell_volume   144.38172572
_cell_formula_units_Z   2
loop_
 _symmetry_equiv_pos_site_id
 _symmetry_equiv_pos_as_xyz
  1  'x, y, z'
loop_
 _atom_site_type_symbol
 _atom_site_label
 _atom_site_symmetry_multiplicity
 _atom_site_fract_x
 _atom_site_fract_y
 _atom_site_fract_z
 _atom_site_occupancy
  Co  Co0  1  0.75001600  0.75001300  0.87497500  1
  Co  Co1  1  0.75000000  0.25000400  0.37500100  1
  Co  Co2  1  0.25001300  0.74999500  0.37498000  1
  Co  Co3  1  0.25000000  0.25001100  0.37499300  1
  Ni  Ni4  1  0.49797400  0.51631700  0.74777900  1
  Ni  Ni5  1  0.00194700  0.98360500  0.00239600  1
  O  O6  1  0.28697100  0.24817700  0.58677300  1
  O  O7  1  0.28863800  0.70525600  0.12825100  1
  O  O8  1  0.70663400  0.24859000  0.14099100  1
  O  O9  1  0.73738200  0.70783200  0.13465400  1
  O  O10  1  0.21302100  0.25181500  0.16322900  1
  O  O11  1  0.21139500  0.79475400  0.62169200  1
  O  O12  1  0.79337000  0.25145100  0.60898200  1
  O  O13  1  0.76264000  0.79218100  0.61530500  1
