# generated using pymatgen
data_Sr3(CoO3)2
_symmetry_space_group_name_H-M   'P 1'
_cell_length_a   6.52768236
_cell_length_b   7.01926204
_cell_length_c   6.52445092
_cell_angle_alpha   91.59881868
_cell_angle_beta   94.75046602
_cell_angle_gamma   91.58136566
_symmetry_Int_Tables_number   1
_chemical_formula_structural   Sr3(CoO3)2
_chemical_formula_sum   'Sr6 Co4 O12'
_cell_volume   297.67000720
_cell_formula_units_Z   2
loop_
 _symmetry_equiv_pos_site_id
 _symmetry_equiv_pos_as_xyz
  1  'x, y, z'
loop_
 _atom_site_type_symbol
 _atom_site_label
 _atom_site_symmetry_multiplicity
 _atom_site_fract_x
 _atom_site_fract_y
 _atom_site_fract_z
 _atom_site_occupancy
  Sr  Sr0  1  0.61824200  0.88884000  0.25417200  1
  Sr  Sr1  1  0.88412700  0.25004100  0.61590300  1
  Sr  Sr2  1  0.24591900  0.61130000  0.88168600  1
  Sr  Sr3  1  0.11585600  0.74998200  0.38408700  1
  Sr  Sr4  1  0.75407000  0.38867500  0.11831300  1
  Sr  Sr5  1  0.38176900  0.11114000  0.74582300  1
  Co  Co6  1  0.49999300  0.50001200  0.50001000  1
  Co  Co7  1  0.00001700  0.00000500  0.99999600  1
  Co  Co8  1  0.24207700  0.25008600  0.25761700  1
  Co  Co9  1  0.75792300  0.74994300  0.74239900  1
  O  O10  1  0.53222100  0.20803500  0.39015700  1
  O  O11  1  0.21332900  0.41753000  0.52211700  1
  O  O12  1  0.42723300  0.56107300  0.23455000  1
  O  O13  1  0.02278300  0.91747600  0.71367900  1
  O  O14  1  0.89011000  0.70774200  0.03232100  1
  O  O15  1  0.73461900  0.06088600  0.92646300  1
  O  O16  1  0.46777200  0.79195500  0.60984800  1
  O  O17  1  0.78664700  0.58251100  0.47789500  1
  O  O18  1  0.57275700  0.43891300  0.76545500  1
  O  O19  1  0.97723200  0.08255400  0.28630800  1
  O  O20  1  0.10990600  0.29222300  0.96767500  1
  O  O21  1  0.26539600  0.93907700  0.07352600  1
