# generated using pymatgen
data_MgMn2O4
_symmetry_space_group_name_H-M   'P 1'
_cell_length_a   6.01154013
_cell_length_b   6.05619140
_cell_length_c   10.46804720
_cell_angle_alpha   89.98242524
_cell_angle_beta   106.47913770
_cell_angle_gamma   119.41404379
_symmetry_Int_Tables_number   1
_chemical_formula_structural   MgMn2O4
_chemical_formula_sum   'Mg4 Mn8 O16'
_cell_volume   313.90713743
_cell_formula_units_Z   4
loop_
 _symmetry_equiv_pos_site_id
 _symmetry_equiv_pos_as_xyz
  1  'x, y, z'
loop_
 _atom_site_type_symbol
 _atom_site_label
 _atom_site_symmetry_multiplicity
 _atom_site_fract_x
 _atom_site_fract_y
 _atom_site_fract_z
 _atom_site_occupancy
  Mg  Mg0  1  0.00774200  0.51825500  0.50654100  1
  Mg  Mg1  1  0.99078200  0.01770800  0.00516700  1
  Mg  Mg2  1  0.37223200  0.44260900  0.81255000  1
  Mg  Mg3  1  0.37875500  0.93508000  0.31315100  1
  Mn  Mn4  1  0.75628200  0.86593200  0.62061800  1
  Mn  Mn5  1  0.75007900  0.35196600  0.11863400  1
  Mn  Mn6  1  0.36755700  0.93879700  0.81300300  1
  Mn  Mn7  1  0.36752600  0.68583500  0.06101900  1
  Mn  Mn8  1  0.87506900  0.44570100  0.81348100  1
  Mn  Mn9  1  0.38038400  0.43315500  0.31385500  1
  Mn  Mn10  1  0.38189000  0.19157300  0.56179600  1
  Mn  Mn11  1  0.87684200  0.92899000  0.31158600  1
  O  O12  1  0.60239400  0.07197300  0.66965800  1
  O  O13  1  0.60159600  0.53310500  0.20074200  1
  O  O14  1  0.11832200  0.81825200  0.93820600  1
  O  O15  1  0.16793200  0.32687100  0.44224700  1
  O  O16  1  0.16795700  0.08719000  0.68243300  1
  O  O17  1  0.16931700  0.56500900  0.19805900  1
  O  O18  1  0.60850800  0.29067900  0.91062900  1
  O  O19  1  0.61724800  0.78482200  0.41356000  1
  O  O20  1  0.61152000  0.51847900  0.68665900  1
  O  O21  1  0.61985400  0.01040200  0.19260500  1
  O  O22  1  0.12391100  0.35396900  0.93395700  1
  O  O23  1  0.14058100  0.85811400  0.43784700  1
  O  O24  1  0.13286700  0.58853000  0.70864100  1
  O  O25  1  0.13666600  0.08096700  0.21117400  1
  O  O26  1  0.58305000  0.80271000  0.93694100  1
  O  O27  1  0.59314000  0.30332200  0.43524000  1
