# generated using pymatgen
data_Mg2VWO6
_symmetry_space_group_name_H-M   'P 1'
_cell_length_a   5.17557641
_cell_length_b   7.63410928
_cell_length_c   5.59915311
_cell_angle_alpha   94.84222299
_cell_angle_beta   90.26563826
_cell_angle_gamma   90.52582839
_symmetry_Int_Tables_number   1
_chemical_formula_structural   Mg2VWO6
_chemical_formula_sum   'Mg4 V2 W2 O12'
_cell_volume   220.42555573
_cell_formula_units_Z   2
loop_
 _symmetry_equiv_pos_site_id
 _symmetry_equiv_pos_as_xyz
  1  'x, y, z'
loop_
 _atom_site_type_symbol
 _atom_site_label
 _atom_site_symmetry_multiplicity
 _atom_site_fract_x
 _atom_site_fract_y
 _atom_site_fract_z
 _atom_site_occupancy
  Mg  Mg0  1  0.51227000  0.28341600  0.92656600  1
  Mg  Mg1  1  0.01240900  0.78369300  0.42618500  1
  Mg  Mg2  1  0.01263700  0.27861500  0.41976100  1
  Mg  Mg3  1  0.51268100  0.77875000  0.91974400  1
  V  V4  1  0.51360400  0.99090900  0.50932900  1
  V  V5  1  0.01364400  0.49091300  0.00860600  1
  W  W6  1  0.51354200  0.48844400  0.51250100  1
  W  W7  1  0.01347700  0.98832400  0.01247900  1
  O  O8  1  0.21735400  0.40430200  0.70100900  1
  O  O9  1  0.71732900  0.90493200  0.20107800  1
  O  O10  1  0.33068100  0.04169200  0.85255500  1
  O  O11  1  0.83080700  0.54210500  0.35261600  1
  O  O12  1  0.87558000  0.23646200  0.04615400  1
  O  O13  1  0.37629200  0.73680500  0.54573700  1
  O  O14  1  0.31483800  0.40450800  0.21071700  1
  O  O15  1  0.81424800  0.90468400  0.71012200  1
  O  O16  1  0.17713100  0.03960800  0.34753800  1
  O  O17  1  0.67579600  0.53944800  0.84726900  1
  O  O18  1  0.64894900  0.23549900  0.54429000  1
  O  O19  1  0.14975100  0.73611300  0.04415200  1
