# generated using pymatgen
data_Zr5Si4
_symmetry_space_group_name_H-M   'P 1'
_cell_length_a   7.15966200
_cell_length_b   7.15966200
_cell_length_c   13.06564700
_cell_angle_alpha   90.00000000
_cell_angle_beta   90.00000000
_cell_angle_gamma   90.00000000
_symmetry_Int_Tables_number   1
_chemical_formula_structural   Zr5Si4
_chemical_formula_sum   'Zr20 Si16'
_cell_volume   669.75499451
_cell_formula_units_Z   4
loop_
 _symmetry_equiv_pos_site_id
 _symmetry_equiv_pos_as_xyz
  1  'x, y, z'
loop_
 _atom_site_type_symbol
 _atom_site_label
 _atom_site_symmetry_multiplicity
 _atom_site_fract_x
 _atom_site_fract_y
 _atom_site_fract_z
 _atom_site_occupancy
  Zr  Zr0  1  0.35444000  0.50124600  0.37680600  1
  Zr  Zr1  1  0.85444000  0.99875400  0.37319400  1
  Zr  Zr2  1  0.00124600  0.14556000  0.12680600  1
  Zr  Zr3  1  0.99875400  0.85444000  0.62680600  1
  Zr  Zr4  1  0.64556000  0.49875400  0.87680600  1
  Zr  Zr5  1  0.50124600  0.35444000  0.62319400  1
  Zr  Zr6  1  0.49875400  0.64556000  0.12319400  1
  Zr  Zr7  1  0.14556000  0.00124600  0.87319400  1
  Zr  Zr8  1  0.99812000  0.64921100  0.03567100  1
  Zr  Zr9  1  0.00188000  0.35078900  0.53567100  1
  Zr  Zr10  1  0.64921100  0.99812000  0.96432900  1
  Zr  Zr11  1  0.14921100  0.50188000  0.78567100  1
  Zr  Zr12  1  0.85078900  0.49812000  0.28567100  1
  Zr  Zr13  1  0.50188000  0.14921100  0.21432900  1
  Zr  Zr14  1  0.49812000  0.85078900  0.71432900  1
  Zr  Zr15  1  0.35078900  0.00188000  0.46432900  1
  Zr  Zr16  1  0.67585000  0.67585000  0.50000000  1
  Zr  Zr17  1  0.82415000  0.17585000  0.75000000  1
  Zr  Zr18  1  0.17585000  0.82415000  0.25000000  1
  Zr  Zr19  1  0.32415000  0.32415000  0.00000000  1
  Si  Si20  1  0.05107600  0.69929100  0.43759200  1
  Si  Si21  1  0.94892400  0.30070900  0.93759200  1
  Si  Si22  1  0.69929100  0.05107600  0.56240800  1
  Si  Si23  1  0.19929100  0.44892400  0.18759200  1
  Si  Si24  1  0.80070900  0.55107600  0.68759200  1
  Si  Si25  1  0.44892400  0.19929100  0.81240800  1
  Si  Si26  1  0.55107600  0.80070900  0.31240800  1
  Si  Si27  1  0.30070900  0.94892400  0.06240800  1
  Si  Si28  1  0.85316200  0.79467800  0.82257800  1
  Si  Si29  1  0.14683800  0.20532200  0.32257800  1
  Si  Si30  1  0.79467800  0.85316200  0.17742200  1
  Si  Si31  1  0.29467800  0.64683800  0.57257800  1
  Si  Si32  1  0.70532200  0.35316200  0.07257800  1
  Si  Si33  1  0.64683800  0.29467800  0.42742200  1
  Si  Si34  1  0.35316200  0.70532200  0.92742200  1
  Si  Si35  1  0.20532200  0.14683800  0.67742200  1
