# generated using pymatgen
data_MnVO4
_symmetry_space_group_name_H-M   'P 1'
_cell_length_a   6.31046381
_cell_length_b   5.60863197
_cell_length_c   5.60553265
_cell_angle_alpha   63.12409017
_cell_angle_beta   124.17597759
_cell_angle_gamma   124.15664649
_symmetry_Int_Tables_number   1
_chemical_formula_structural   MnVO4
_chemical_formula_sum   'Mn2 V2 O8'
_cell_volume   133.09036962
_cell_formula_units_Z   2
loop_
 _symmetry_equiv_pos_site_id
 _symmetry_equiv_pos_as_xyz
  1  'x, y, z'
loop_
 _atom_site_type_symbol
 _atom_site_label
 _atom_site_symmetry_multiplicity
 _atom_site_fract_x
 _atom_site_fract_y
 _atom_site_fract_z
 _atom_site_occupancy
  Mn  Mn0  1  0.99992700  0.99996900  0.49990800  1
  Mn  Mn1  1  0.00003500  0.50001000  0.00006700  1
  V  V2  1  0.46309200  0.21302800  0.21307300  1
  V  V3  1  0.53681400  0.78694800  0.78684100  1
  O  O4  1  0.21126700  0.26059100  0.26076800  1
  O  O5  1  0.81057300  0.26102700  0.26109500  1
  O  O6  1  0.78889300  0.73944500  0.73939100  1
  O  O7  1  0.18949500  0.73900700  0.73904200  1
  O  O8  1  0.67964500  0.16503400  0.69418600  1
  O  O9  1  0.67962500  0.69414500  0.16516600  1
  O  O10  1  0.32033900  0.83486100  0.30585200  1
  O  O11  1  0.32029500  0.30593600  0.83461200  1
