# generated using pymatgen
data_Y3AlNi8
_symmetry_space_group_name_H-M   'P 1'
_cell_length_a   5.06052011
_cell_length_b   5.06052011
_cell_length_c   16.64032000
_cell_angle_alpha   90.00000000
_cell_angle_beta   90.00000000
_cell_angle_gamma   120.00000140
_symmetry_Int_Tables_number   1
_chemical_formula_structural   Y3AlNi8
_chemical_formula_sum   'Y6 Al2 Ni16'
_cell_volume   369.04778991
_cell_formula_units_Z   2
loop_
 _symmetry_equiv_pos_site_id
 _symmetry_equiv_pos_as_xyz
  1  'x, y, z'
loop_
 _atom_site_type_symbol
 _atom_site_label
 _atom_site_symmetry_multiplicity
 _atom_site_fract_x
 _atom_site_fract_y
 _atom_site_fract_z
 _atom_site_occupancy
  Y  Y0  1  0.33333300  0.66666700  0.25000000  1
  Y  Y1  1  0.66666700  0.33333300  0.75000000  1
  Y  Y2  1  0.33333300  0.66666700  0.95228400  1
  Y  Y3  1  0.66666700  0.33333300  0.45228400  1
  Y  Y4  1  0.66666700  0.33333300  0.04771600  1
  Y  Y5  1  0.33333300  0.66666700  0.54771600  1
  Al  Al6  1  0.33333300  0.66666700  0.75000000  1
  Al  Al7  1  0.66666700  0.33333300  0.25000000  1
  Ni  Ni8  1  0.32360700  0.16180300  0.61980600  1
  Ni  Ni9  1  0.67639300  0.83819700  0.11980600  1
  Ni  Ni10  1  0.16180300  0.83819700  0.11980600  1
  Ni  Ni11  1  0.83819700  0.67639300  0.88019400  1
  Ni  Ni12  1  0.83819700  0.16180300  0.88019400  1
  Ni  Ni13  1  0.83819700  0.67639300  0.61980600  1
  Ni  Ni14  1  0.32360700  0.16180300  0.88019400  1
  Ni  Ni15  1  0.67639300  0.83819700  0.38019400  1
  Ni  Ni16  1  0.16180300  0.32360700  0.38019400  1
  Ni  Ni17  1  0.16180300  0.83819700  0.38019400  1
  Ni  Ni18  1  0.00000000  0.00000000  0.50000000  1
  Ni  Ni19  1  0.00000000  0.00000000  0.00000000  1
  Ni  Ni20  1  0.00000000  0.00000000  0.75000000  1
  Ni  Ni21  1  0.00000000  0.00000000  0.25000000  1
  Ni  Ni22  1  0.16180300  0.32360700  0.11980600  1
  Ni  Ni23  1  0.83819700  0.16180300  0.61980600  1
