# generated using pymatgen
data_V2FeO6
_symmetry_space_group_name_H-M   'P 1'
_cell_length_a   5.93431256
_cell_length_b   6.93536913
_cell_length_c   6.83138235
_cell_angle_alpha   95.58970288
_cell_angle_beta   75.26371190
_cell_angle_gamma   105.30655714
_symmetry_Int_Tables_number   1
_chemical_formula_structural   V2FeO6
_chemical_formula_sum   'V4 Fe2 O12'
_cell_volume   262.12532433
_cell_formula_units_Z   2
loop_
 _symmetry_equiv_pos_site_id
 _symmetry_equiv_pos_as_xyz
  1  'x, y, z'
loop_
 _atom_site_type_symbol
 _atom_site_label
 _atom_site_symmetry_multiplicity
 _atom_site_fract_x
 _atom_site_fract_y
 _atom_site_fract_z
 _atom_site_occupancy
  V  V0  1  0.74213900  0.61482500  0.20879500  1
  V  V1  1  0.24345600  0.79088900  0.38659000  1
  V  V2  1  0.75663900  0.20918900  0.61349000  1
  V  V3  1  0.25787500  0.38515000  0.79109600  1
  Fe  Fe4  1  0.24647700  0.91010200  0.91365700  1
  Fe  Fe5  1  0.75368500  0.09005500  0.08646100  1
  O  O6  1  0.64665000  0.04335600  0.80713000  1
  O  O7  1  0.14113000  0.19583600  0.96009500  1
  O  O8  1  0.85846400  0.80389000  0.03958800  1
  O  O9  1  0.35376600  0.95656900  0.19271700  1
  O  O10  1  0.77081900  0.09218900  0.38416400  1
  O  O11  1  0.72177400  0.38864500  0.09380900  1
  O  O12  1  0.27797800  0.61111300  0.90650500  1
  O  O13  1  0.22879600  0.90788000  0.61590400  1
  O  O14  1  0.55352800  0.36727700  0.64856000  1
  O  O15  1  0.05200000  0.35108800  0.62869300  1
  O  O16  1  0.94822000  0.64909000  0.37100400  1
  O  O17  1  0.44660500  0.63285700  0.35174100  1
