# generated using pymatgen
data_Ba2YTlCo2O7
_symmetry_space_group_name_H-M   'P 1'
_cell_length_a   5.61588344
_cell_length_b   5.61253719
_cell_length_c   13.13598330
_cell_angle_alpha   77.77658498
_cell_angle_beta   102.25760422
_cell_angle_gamma   89.91630584
_symmetry_Int_Tables_number   1
_chemical_formula_structural   Ba2YTlCo2O7
_chemical_formula_sum   'Ba4 Y2 Tl2 Co4 O14'
_cell_volume   394.95920879
_cell_formula_units_Z   2
loop_
 _symmetry_equiv_pos_site_id
 _symmetry_equiv_pos_as_xyz
  1  'x, y, z'
loop_
 _atom_site_type_symbol
 _atom_site_label
 _atom_site_symmetry_multiplicity
 _atom_site_fract_x
 _atom_site_fract_y
 _atom_site_fract_z
 _atom_site_occupancy
  Ba  Ba0  1  0.60772800  0.89248400  0.20967500  1
  Ba  Ba1  1  0.10080000  0.39192900  0.20731500  1
  Ba  Ba2  1  0.89262000  0.60243400  0.79019500  1
  Ba  Ba3  1  0.39904700  0.10109200  0.79273200  1
  Y  Y4  1  0.75108900  0.74736900  0.50010800  1
  Y  Y5  1  0.24947300  0.24601000  0.49998000  1
  Tl  Tl6  1  0.46112100  0.46583900  0.99995700  1
  Tl  Tl7  1  0.03924100  0.96353200  0.00000400  1
  Co  Co8  1  0.68333700  0.31425900  0.36722900  1
  Co  Co9  1  0.81707300  0.17975900  0.63448000  1
  Co  Co10  1  0.18365900  0.81286000  0.36691600  1
  Co  Co11  1  0.31720100  0.68036500  0.63177000  1
  O  O12  1  0.43776300  0.05521200  0.00078500  1
  O  O13  1  0.05806000  0.55436400  0.99922600  1
  O  O14  1  0.59497600  0.42142000  0.17059800  1
  O  O15  1  0.07416100  0.91821800  0.17126900  1
  O  O16  1  0.42515500  0.59079000  0.82963000  1
  O  O17  1  0.90345100  0.09180200  0.82834500  1
  O  O18  1  0.94248000  0.05518900  0.38639700  1
  O  O19  1  0.44016700  0.55429600  0.38492300  1
  O  O20  1  0.94456800  0.55201200  0.38718100  1
  O  O21  1  0.44028400  0.05698600  0.38372100  1
  O  O22  1  0.06180300  0.43693600  0.61594400  1
  O  O23  1  0.55684200  0.93953800  0.61248300  1
  O  O24  1  0.06018700  0.93844400  0.61557900  1
  O  O25  1  0.55771900  0.43685800  0.61356500  1
