# generated using pymatgen
data_CaLaCrSnO6
_symmetry_space_group_name_H-M   'P 1'
_cell_length_a   5.59499756
_cell_length_b   5.68928700
_cell_length_c   7.96452780
_cell_angle_alpha   89.99985747
_cell_angle_beta   89.76834304
_cell_angle_gamma   89.99985763
_symmetry_Int_Tables_number   1
_chemical_formula_structural   CaLaCrSnO6
_chemical_formula_sum   'Ca2 La2 Cr2 Sn2 O12'
_cell_volume   253.52116757
_cell_formula_units_Z   2
loop_
 _symmetry_equiv_pos_site_id
 _symmetry_equiv_pos_as_xyz
  1  'x, y, z'
loop_
 _atom_site_type_symbol
 _atom_site_label
 _atom_site_symmetry_multiplicity
 _atom_site_fract_x
 _atom_site_fract_y
 _atom_site_fract_z
 _atom_site_occupancy
  Ca  Ca0  1  0.48747100  0.45377200  0.74946800  1
  Ca  Ca1  1  0.98746900  0.04621700  0.24947000  1
  La  La2  1  0.01083100  0.95974800  0.75044600  1
  La  La3  1  0.51082400  0.54025100  0.25044600  1
  Cr  Cr4  1  0.50061300  0.00029000  0.49941000  1
  Cr  Cr5  1  0.00059100  0.49972500  0.99938100  1
  Sn  Sn6  1  0.50024800  0.00072900  0.00087900  1
  Sn  Sn7  1  0.00024900  0.49927000  0.50088000  1
  O  O8  1  0.08989000  0.46957700  0.24659600  1
  O  O9  1  0.20534500  0.21302200  0.95121000  1
  O  O10  1  0.21230700  0.20647400  0.54850700  1
  O  O11  1  0.29135900  0.70438000  0.94911000  1
  O  O12  1  0.29829800  0.70975600  0.55079300  1
  O  O13  1  0.40364600  0.97313300  0.25359900  1
  O  O14  1  0.58989400  0.03042700  0.74659600  1
  O  O15  1  0.70534600  0.28697900  0.45120800  1
  O  O16  1  0.71231200  0.29352500  0.04850800  1
  O  O17  1  0.79135800  0.79561600  0.44911100  1
  O  O18  1  0.79830100  0.79024100  0.05079200  1
  O  O19  1  0.90364800  0.52686400  0.75359700  1
