# generated using pymatgen
data_Sr5Mn5O13
_symmetry_space_group_name_H-M   'P 1'
_cell_length_a   7.76679000
_cell_length_b   9.57573763
_cell_length_c   8.73836218
_cell_angle_alpha   89.88492927
_cell_angle_beta   89.99945188
_cell_angle_gamma   66.07509485
_symmetry_Int_Tables_number   1
_chemical_formula_structural   Sr5Mn5O13
_chemical_formula_sum   'Sr10 Mn10 O26'
_cell_volume   594.05402350
_cell_formula_units_Z   2
loop_
 _symmetry_equiv_pos_site_id
 _symmetry_equiv_pos_as_xyz
  1  'x, y, z'
loop_
 _atom_site_type_symbol
 _atom_site_label
 _atom_site_symmetry_multiplicity
 _atom_site_fract_x
 _atom_site_fract_y
 _atom_site_fract_z
 _atom_site_occupancy
  Sr  Sr0  1  0.99887800  0.50120800  0.49946500  1
  Sr  Sr1  1  0.49991800  0.50119000  0.49946400  1
  Sr  Sr2  1  0.19199400  0.11571900  0.28219300  1
  Sr  Sr3  1  0.69228200  0.11572200  0.28218800  1
  Sr  Sr4  1  0.10841300  0.28243700  0.88573500  1
  Sr  Sr5  1  0.60912600  0.28244200  0.88574400  1
  Sr  Sr6  1  0.89067400  0.71750500  0.11422600  1
  Sr  Sr7  1  0.39184400  0.71748900  0.11422300  1
  Sr  Sr8  1  0.80783200  0.88473000  0.71797700  1
  Sr  Sr9  1  0.30744800  0.88472300  0.71796900  1
  Mn  Mn10  1  0.49978400  0.00035600  0.99987500  1
  Mn  Mn11  1  0.00013900  0.99977900  0.00000900  1
  Mn  Mn12  1  0.29969400  0.40062500  0.19557800  1
  Mn  Mn13  1  0.70024700  0.59950500  0.80478500  1
  Mn  Mn14  1  0.09793200  0.80417800  0.39908800  1
  Mn  Mn15  1  0.79970800  0.40060400  0.19443800  1
  Mn  Mn16  1  0.20017400  0.59961000  0.80559000  1
  Mn  Mn17  1  0.40238000  0.19521000  0.60030300  1
  Mn  Mn18  1  0.90237800  0.19521600  0.60013500  1
  Mn  Mn19  1  0.59753400  0.80496900  0.39903700  1
  O  O20  1  0.25026800  0.99954600  0.00044100  1
  O  O21  1  0.75018500  0.99956200  0.00044700  1
  O  O22  1  0.29885300  0.40230500  0.71389600  1
  O  O23  1  0.79870400  0.40262100  0.71698800  1
  O  O24  1  0.14036400  0.71924900  0.59704300  1
  O  O25  1  0.64065400  0.71867400  0.59682500  1
  O  O26  1  0.20042900  0.59910100  0.28513200  1
  O  O27  1  0.70121500  0.59754800  0.28557000  1
  O  O28  1  0.35815200  0.28370900  0.40368700  1
  O  O29  1  0.85641500  0.28713700  0.40326600  1
  O  O30  1  0.46401300  0.07199500  0.78863700  1
  O  O31  1  0.96420100  0.07163400  0.78980900  1
  O  O32  1  0.39373800  0.21251700  0.07002700  1
  O  O33  1  0.89444300  0.21112400  0.07198800  1
  O  O34  1  0.03431400  0.93135100  0.21451600  1
  O  O35  1  0.53558100  0.92884500  0.21243500  1
  O  O36  1  0.10541900  0.78914300  0.93009200  1
  O  O37  1  0.60704000  0.78595800  0.93009500  1
  O  O38  1  0.95541400  0.58848300  0.83380100  1
  O  O39  1  0.45609900  0.58849600  0.83378900  1
  O  O40  1  0.04335600  0.41248000  0.16629100  1
  O  O41  1  0.54416500  0.41248200  0.16629000  1
  O  O42  1  0.83430700  0.83147400  0.40885400  1
  O  O43  1  0.33423100  0.83147000  0.40884800  1
  O  O44  1  0.17116900  0.15993800  0.58659500  1
  O  O45  1  0.66889100  0.15994300  0.58661700  1
