# generated using pymatgen
data_Sr2La2MnZnO8
_symmetry_space_group_name_H-M   'P 1'
_cell_length_a   5.50077000
_cell_length_b   5.50082161
_cell_length_c   25.57989709
_cell_angle_alpha   83.87452378
_cell_angle_beta   83.87467175
_cell_angle_gamma   90.44069536
_symmetry_Int_Tables_number   1
_chemical_formula_structural   Sr2La2MnZnO8
_chemical_formula_sum   'Sr8 La8 Mn4 Zn4 O32'
_cell_volume   765.06044386
_cell_formula_units_Z   4
loop_
 _symmetry_equiv_pos_site_id
 _symmetry_equiv_pos_as_xyz
  1  'x, y, z'
loop_
 _atom_site_type_symbol
 _atom_site_label
 _atom_site_symmetry_multiplicity
 _atom_site_fract_x
 _atom_site_fract_y
 _atom_site_fract_z
 _atom_site_occupancy
  Sr  Sr0  1  0.59081000  0.59075300  0.81829000  1
  Sr  Sr1  1  0.34068400  0.34080200  0.31855900  1
  Sr  Sr2  1  0.09082600  0.09082500  0.81829000  1
  Sr  Sr3  1  0.84084700  0.84077900  0.31855900  1
  Sr  Sr4  1  0.65904400  0.65898800  0.68180000  1
  Sr  Sr5  1  0.40930000  0.40937400  0.18133400  1
  Sr  Sr6  1  0.15906900  0.15906800  0.68180000  1
  Sr  Sr7  1  0.90941300  0.90938500  0.18133400  1
  La  La8  1  0.71378200  0.21376800  0.57259100  1
  La  La9  1  0.46366300  0.96366600  0.07240700  1
  La  La10  1  0.21362300  0.71362300  0.57283700  1
  La  La11  1  0.96358300  0.46357200  0.07257000  1
  La  La12  1  0.53642700  0.03641700  0.92735800  1
  La  La13  1  0.28606400  0.78604800  0.42766000  1
  La  La14  1  0.03654800  0.53656100  0.92714800  1
  La  La15  1  0.78620900  0.28622400  0.42738000  1
  Mn  Mn16  1  0.37518500  0.87514800  0.24997200  1
  Mn  Mn17  1  0.12487700  0.62510200  0.75013100  1
  Mn  Mn18  1  0.62503300  0.12500200  0.75011800  1
  Mn  Mn19  1  0.87508500  0.37493900  0.24985600  1
  Zn  Zn20  1  0.74993700  0.74994700  0.50009800  1
  Zn  Zn21  1  0.50004300  0.50004800  0.99990400  1
  Zn  Zn22  1  0.24993900  0.24994000  0.50009800  1
  Zn  Zn23  1  0.00004400  0.00005000  0.99990400  1
  O  O24  1  0.66556800  0.16551800  0.66875700  1
  O  O25  1  0.41586800  0.91594000  0.16839900  1
  O  O26  1  0.16574700  0.66580000  0.66827600  1
  O  O27  1  0.91652800  0.41647500  0.16715500  1
  O  O28  1  0.58430800  0.08425800  0.83124100  1
  O  O29  1  0.33428000  0.83435500  0.33151800  1
  O  O30  1  0.08394700  0.58400400  0.83186700  1
  O  O31  1  0.83374000  0.33368400  0.33273900  1
  O  O32  1  0.54337100  0.54340900  0.91269100  1
  O  O33  1  0.29386700  0.29393100  0.41290300  1
  O  O34  1  0.04339700  0.04337600  0.91269000  1
  O  O35  1  0.79391600  0.79388400  0.41290300  1
  O  O36  1  0.70601100  0.70599200  0.58734600  1
  O  O37  1  0.45674800  0.45678000  0.08706000  1
  O  O38  1  0.20598600  0.20604200  0.58734600  1
  O  O39  1  0.95679200  0.95680200  0.08706000  1
  O  O40  1  0.36773600  0.38213000  0.75009100  1
  O  O41  1  0.13468600  0.11542200  0.24992500  1
  O  O42  1  0.88217300  0.86769400  0.75009100  1
  O  O43  1  0.61550400  0.63460500  0.24992500  1
  O  O44  1  0.87963900  0.37964600  0.75009600  1
  O  O45  1  0.62432200  0.12434100  0.24990800  1
  O  O46  1  0.37005600  0.87006300  0.75009500  1
  O  O47  1  0.12589900  0.62591400  0.24990600  1
  O  O48  1  0.00015400  0.50016000  0.50016200  1
  O  O49  1  0.74959100  0.24959600  0.99984000  1
  O  O50  1  0.49963300  0.99963900  0.50016300  1
  O  O51  1  0.25053900  0.75054600  0.99984400  1
  O  O52  1  0.49974900  0.50007100  0.50016100  1
  O  O53  1  0.25055400  0.24959300  0.99983900  1
  O  O54  1  0.00006900  0.99974800  0.50016400  1
  O  O55  1  0.74959100  0.75055700  0.99984000  1
