data_image0
_chemical_formula_structural       B2Ce2O6
_chemical_formula_sum              "B2 Ce2 O6"
_cell_length_a       6.24097
_cell_length_b       5.06297
_cell_length_c       4.16558
_cell_angle_alpha    90
_cell_angle_beta     107.539
_cell_angle_gamma    90

_space_group_name_H-M_alt    "P 1"
_space_group_IT_number       1

loop_
  _space_group_symop_operation_xyz
  'x, y, z'

loop_
  _atom_site_type_symbol
  _atom_site_label
  _atom_site_symmetry_multiplicity
  _atom_site_fract_x
  _atom_site_fract_y
  _atom_site_fract_z
  _atom_site_occupancy
  B   B1        1.0  0.25300  0.25000  0.99800  1.0000
  B   B2        1.0  0.74700  0.75000  0.00200  1.0000
  Ce  Ce1       1.0  0.22400  0.75000  0.37700  1.0000
  Ce  Ce2       1.0  0.77600  0.25000  0.62300  1.0000
  O   O1        1.0  0.82800  0.98500  0.15900  1.0000
  O   O2        1.0  0.82800  0.51500  0.15900  1.0000
  O   O3        1.0  0.38000  0.25000  0.33200  1.0000
  O   O4        1.0  0.62000  0.75000  0.66800  1.0000
  O   O5        1.0  0.17200  0.01540  0.84100  1.0000
  O   O6        1.0  0.17200  0.48500  0.84100  1.0000
