# generated using pymatgen
data_Co3TeO8
_symmetry_space_group_name_H-M   'P 1'
_cell_length_a   6.00684815
_cell_length_b   10.43692330
_cell_length_c   6.01072260
_cell_angle_alpha   90.15050724
_cell_angle_beta   120.04266379
_cell_angle_gamma   73.15115612
_symmetry_Int_Tables_number   1
_chemical_formula_structural   Co3TeO8
_chemical_formula_sum   'Co6 Te2 O16'
_cell_volume   307.54954311
_cell_formula_units_Z   2
loop_
 _symmetry_equiv_pos_site_id
 _symmetry_equiv_pos_as_xyz
  1  'x, y, z'
loop_
 _atom_site_type_symbol
 _atom_site_label
 _atom_site_symmetry_multiplicity
 _atom_site_fract_x
 _atom_site_fract_y
 _atom_site_fract_z
 _atom_site_occupancy
  Co  Co0  1  0.50446600  0.75235500  0.25223200  1
  Co  Co1  1  0.00369300  0.74813900  0.75245400  1
  Co  Co2  1  0.50311500  0.99917900  0.50329800  1
  Co  Co3  1  0.49945600  0.24817500  0.74815000  1
  Co  Co4  1  0.99547300  0.25233800  0.24326500  1
  Co  Co5  1  0.49764000  0.49915400  0.99757600  1
  Te  Te6  1  0.00409600  0.99917400  0.00595800  1
  Te  Te7  1  0.99488900  0.49912900  0.49669700  1
  O  O8  1  0.28967000  0.14319300  0.60691900  1
  O  O9  1  0.24966100  0.64316100  0.06690000  1
  O  O10  1  0.71537800  0.35681700  0.89237500  1
  O  O11  1  0.75099100  0.85682400  0.42816600  1
  O  O12  1  0.76490200  0.62358500  0.60140600  1
  O  O13  1  0.77473000  0.12361300  0.11126700  1
  O  O14  1  0.25635000  0.88504300  0.35070200  1
  O  O15  1  0.25586000  0.38335600  0.84388800  1
  O  O16  1  0.77239000  0.88340200  0.86055600  1
  O  O17  1  0.76399500  0.38502900  0.35830200  1
  O  O18  1  0.22153700  0.61880000  0.63416500  1
  O  O19  1  0.23920500  0.11319300  0.15048100  1
  O  O20  1  0.73657800  0.61320800  0.14785100  1
  O  O21  1  0.74724500  0.11883600  0.65993000  1
  O  O22  1  0.23421000  0.87714800  0.89863400  1
  O  O23  1  0.22447100  0.37714700  0.38882900  1
