# generated using pymatgen
data_V2CrO6
_symmetry_space_group_name_H-M   'P 1'
_cell_length_a   5.52775392
_cell_length_b   7.10483048
_cell_length_c   6.76814225
_cell_angle_alpha   96.40839286
_cell_angle_beta   71.57788423
_cell_angle_gamma   101.85575318
_symmetry_Int_Tables_number   1
_chemical_formula_structural   V2CrO6
_chemical_formula_sum   'V4 Cr2 O12'
_cell_volume   246.49673601
_cell_formula_units_Z   2
loop_
 _symmetry_equiv_pos_site_id
 _symmetry_equiv_pos_as_xyz
  1  'x, y, z'
loop_
 _atom_site_type_symbol
 _atom_site_label
 _atom_site_symmetry_multiplicity
 _atom_site_fract_x
 _atom_site_fract_y
 _atom_site_fract_z
 _atom_site_occupancy
  V  V0  1  0.74506000  0.21174900  0.61229100  1
  V  V1  1  0.25488300  0.78826600  0.38765000  1
  V  V2  1  0.18559100  0.39176500  0.83689700  1
  V  V3  1  0.81430600  0.60822400  0.16318900  1
  Cr  Cr4  1  0.74597700  0.08280900  0.08191300  1
  Cr  Cr5  1  0.25425800  0.91718700  0.91802600  1
  O  O6  1  0.63941100  0.03727800  0.80935700  1
  O  O7  1  0.13192700  0.16736500  0.96483400  1
  O  O8  1  0.86812600  0.83257800  0.03510900  1
  O  O9  1  0.36065500  0.96273300  0.19057800  1
  O  O10  1  0.76440600  0.10706700  0.36950100  1
  O  O11  1  0.78118500  0.37196700  0.04293200  1
  O  O12  1  0.21886100  0.62802500  0.95715800  1
  O  O13  1  0.23559000  0.89298300  0.63037500  1
  O  O14  1  0.53126100  0.37207200  0.67557600  1
  O  O15  1  0.05545400  0.33531900  0.60942800  1
  O  O16  1  0.94441500  0.66472800  0.39067800  1
  O  O17  1  0.46863500  0.62788500  0.32450800  1
