# generated using pymatgen
data_TiCrO4
_symmetry_space_group_name_H-M   'P 1'
_cell_length_a   3.74315584
_cell_length_b   14.20874601
_cell_length_c   5.53397819
_cell_angle_alpha   91.90663031
_cell_angle_beta   109.79456573
_cell_angle_gamma   82.39747854
_symmetry_Int_Tables_number   1
_chemical_formula_structural   TiCrO4
_chemical_formula_sum   'Ti4 Cr4 O16'
_cell_volume   274.48136848
_cell_formula_units_Z   4
loop_
 _symmetry_equiv_pos_site_id
 _symmetry_equiv_pos_as_xyz
  1  'x, y, z'
loop_
 _atom_site_type_symbol
 _atom_site_label
 _atom_site_symmetry_multiplicity
 _atom_site_fract_x
 _atom_site_fract_y
 _atom_site_fract_z
 _atom_site_occupancy
  Ti  Ti0  1  0.25053000  0.06175800  0.56241600  1
  Ti  Ti1  1  0.24899300  0.31220600  0.80989700  1
  Ti  Ti2  1  0.25045400  0.56181500  0.06234000  1
  Ti  Ti3  1  0.24896500  0.81217100  0.30978600  1
  Cr  Cr4  1  0.00082200  0.50272300  0.50490300  1
  Cr  Cr5  1  0.99955100  0.75211300  0.75408900  1
  Cr  Cr6  1  0.00080800  0.00278300  0.00485400  1
  Cr  Cr7  1  0.99978200  0.25209400  0.25419900  1
  O  O8  1  0.03922600  0.11459100  0.19094400  1
  O  O9  1  0.03980400  0.36426800  0.44162600  1
  O  O10  1  0.03930800  0.61455800  0.69106500  1
  O  O11  1  0.03976900  0.86425600  0.94146600  1
  O  O12  1  0.46179000  0.00692200  0.92955100  1
  O  O13  1  0.46093700  0.25623100  0.17757300  1
  O  O14  1  0.46182900  0.50691300  0.42968900  1
  O  O15  1  0.46083800  0.75618800  0.67741600  1
  O  O16  1  0.20237500  0.94963600  0.35535700  1
  O  O17  1  0.20189000  0.19920900  0.60488100  1
  O  O18  1  0.20241900  0.44963700  0.85556500  1
  O  O19  1  0.20179500  0.69923100  0.10484200  1
  O  O20  1  0.79674300  0.80286800  0.39669300  1
  O  O21  1  0.79727200  0.05249500  0.64698400  1
  O  O22  1  0.79680600  0.30281200  0.89672300  1
  O  O23  1  0.79729400  0.55252200  0.14714100  1
