# generated using pymatgen
data_Zn2NiIrO6
_symmetry_space_group_name_H-M   'P 1'
_cell_length_a   7.39489527
_cell_length_b   9.24987708
_cell_length_c   7.39512635
_cell_angle_alpha   66.88279264
_cell_angle_beta   90.38066275
_cell_angle_gamma   113.11788129
_symmetry_Int_Tables_number   1
_chemical_formula_structural   Zn2NiIrO6
_chemical_formula_sum   'Zn8 Ni4 Ir4 O24'
_cell_volume   421.30930327
_cell_formula_units_Z   4
loop_
 _symmetry_equiv_pos_site_id
 _symmetry_equiv_pos_as_xyz
  1  'x, y, z'
loop_
 _atom_site_type_symbol
 _atom_site_label
 _atom_site_symmetry_multiplicity
 _atom_site_fract_x
 _atom_site_fract_y
 _atom_site_fract_z
 _atom_site_occupancy
  Zn  Zn0  1  0.62833400  0.24162900  0.40248200  1
  Zn  Zn1  1  0.12837900  0.24163100  0.90248800  1
  Zn  Zn2  1  0.65222800  0.25781500  0.87893200  1
  Zn  Zn3  1  0.15227800  0.25781500  0.37895300  1
  Zn  Zn4  1  0.84754500  0.74166900  0.62161500  1
  Zn  Zn5  1  0.34746700  0.74159600  0.12158200  1
  Zn  Zn6  1  0.87105500  0.75782200  0.09770500  1
  Zn  Zn7  1  0.37103000  0.75780500  0.59775600  1
  Ni  Ni8  1  0.25057300  0.00048500  0.24919800  1
  Ni  Ni9  1  0.00047600  0.50029800  0.99996100  1
  Ni  Ni10  1  0.75063300  0.00082700  0.74915600  1
  Ni  Ni11  1  0.50110000  0.50081000  0.49960400  1
  Ir  Ir12  1  0.50004900  0.49972100  0.00009900  1
  Ir  Ir13  1  0.00008100  0.49970100  0.50017800  1
  Ir  Ir14  1  0.74990100  0.99969700  0.24993200  1
  Ir  Ir15  1  0.24987200  0.99970500  0.74987300  1
  O  O16  1  0.72115700  0.73939200  0.86792700  1
  O  O17  1  0.22116100  0.73936800  0.36793600  1
  O  O18  1  0.61784900  0.76070700  0.47196300  1
  O  O19  1  0.11780800  0.76067600  0.97193000  1
  O  O20  1  0.88200600  0.23935200  0.02881100  1
  O  O21  1  0.38204200  0.23938800  0.52882600  1
  O  O22  1  0.77802300  0.26071500  0.63211800  1
  O  O23  1  0.27805600  0.26069500  0.13213100  1
  O  O24  1  0.53363300  0.05645800  0.30003400  1
  O  O25  1  0.03359100  0.05648900  0.80000400  1
  O  O26  1  0.55023200  0.44329000  0.78381600  1
  O  O27  1  0.05024400  0.44330700  0.28380900  1
  O  O28  1  0.94993200  0.55644300  0.71639900  1
  O  O29  1  0.44998300  0.55647700  0.21643500  1
  O  O30  1  0.96621800  0.94335600  0.19971400  1
  O  O31  1  0.46619000  0.94330900  0.69976300  1
  O  O32  1  0.70010200  0.42543300  0.11887300  1
  O  O33  1  0.20012200  0.42548000  0.61879400  1
  O  O34  1  0.36881500  0.07494300  0.94956900  1
  O  O35  1  0.86875400  0.07492000  0.44957900  1
  O  O36  1  0.13114300  0.92547700  0.54980700  1
  O  O37  1  0.63114400  0.92547300  0.04985500  1
  O  O38  1  0.80042800  0.57492500  0.38119900  1
  O  O39  1  0.30036300  0.57490200  0.88119500  1
