# generated using pymatgen
data_VO2
_symmetry_space_group_name_H-M   'P 1'
_cell_length_a   5.49233237
_cell_length_b   6.29419005
_cell_length_c   6.29568599
_cell_angle_alpha   97.24418542
_cell_angle_beta   90.79024237
_cell_angle_gamma   89.21673284
_symmetry_Int_Tables_number   1
_chemical_formula_structural   VO2
_chemical_formula_sum   'V6 O12'
_cell_volume   215.86709032
_cell_formula_units_Z   6
loop_
 _symmetry_equiv_pos_site_id
 _symmetry_equiv_pos_as_xyz
  1  'x, y, z'
loop_
 _atom_site_type_symbol
 _atom_site_label
 _atom_site_symmetry_multiplicity
 _atom_site_fract_x
 _atom_site_fract_y
 _atom_site_fract_z
 _atom_site_occupancy
  V  V0  1  0.00007300  0.99614800  0.99621700  1
  V  V1  1  0.75208700  0.07984000  0.55747500  1
  V  V2  1  0.24798400  0.55755500  0.07972800  1
  V  V3  1  0.49998300  0.49833900  0.49820100  1
  V  V4  1  0.74513700  0.43170000  0.92000700  1
  V  V5  1  0.25469600  0.91998300  0.43187200  1
  O  O6  1  0.30045000  0.87228000  0.12466200  1
  O  O7  1  0.81711100  0.37043900  0.60923300  1
  O  O8  1  0.18286500  0.60922600  0.37039400  1
  O  O9  1  0.69961200  0.12454700  0.87222900  1
  O  O10  1  0.91092700  0.02860100  0.31215100  1
  O  O11  1  0.43833300  0.52952200  0.82008700  1
  O  O12  1  0.94005200  0.67165500  0.96434000  1
  O  O13  1  0.44126300  0.18283800  0.47334700  1
  O  O14  1  0.55871600  0.47336000  0.18274800  1
  O  O15  1  0.05995200  0.96430700  0.67165500  1
  O  O16  1  0.56165500  0.82003200  0.52945200  1
  O  O17  1  0.08910200  0.31213100  0.02870500  1
