# generated using pymatgen
data_TiV3O8
_symmetry_space_group_name_H-M   'P 1'
_cell_length_a   3.79201173
_cell_length_b   7.80146861
_cell_length_c   10.34723811
_cell_angle_alpha   89.26845148
_cell_angle_beta   100.57458084
_cell_angle_gamma   75.94123698
_symmetry_Int_Tables_number   1
_chemical_formula_structural   TiV3O8
_chemical_formula_sum   'Ti2 V6 O16'
_cell_volume   291.36507940
_cell_formula_units_Z   2
loop_
 _symmetry_equiv_pos_site_id
 _symmetry_equiv_pos_as_xyz
  1  'x, y, z'
loop_
 _atom_site_type_symbol
 _atom_site_label
 _atom_site_symmetry_multiplicity
 _atom_site_fract_x
 _atom_site_fract_y
 _atom_site_fract_z
 _atom_site_occupancy
  Ti  Ti0  1  0.31200600  0.33317600  0.94959200  1
  Ti  Ti1  1  0.30550700  0.83258000  0.44975000  1
  V  V2  1  0.64583500  0.55104000  0.75456600  1
  V  V3  1  0.70013100  0.16121200  0.56336900  1
  V  V4  1  0.70152800  0.66194200  0.06310500  1
  V  V5  1  0.55801100  0.05169800  0.25490500  1
  V  V6  1  0.40294800  0.45047000  0.25110100  1
  V  V7  1  0.39742200  0.95035500  0.75138900  1
  O  O8  1  0.85913100  0.99258200  0.71357600  1
  O  O9  1  0.86137000  0.49341700  0.21351900  1
  O  O10  1  0.75938800  0.91153300  0.43429200  1
  O  O11  1  0.76340500  0.41215200  0.93366900  1
  O  O12  1  0.63197700  0.36165400  0.63188900  1
  O  O13  1  0.63545200  0.86344200  0.12934100  1
  O  O14  1  0.55567100  0.25776000  0.36818800  1
  O  O15  1  0.55670700  0.75765700  0.86809000  1
  O  O16  1  0.44376800  0.24027800  0.12402800  1
  O  O17  1  0.43668600  0.73925500  0.62382800  1
  O  O18  1  0.36248500  0.13863800  0.86422700  1
  O  O19  1  0.36381600  0.63837700  0.36411500  1
  O  O20  1  0.24305600  0.58312600  0.06724700  1
  O  O21  1  0.24117100  0.08291100  0.56765900  1
  O  O22  1  0.13262700  0.51741300  0.77915200  1
  O  O23  1  0.12990300  0.01733100  0.27939800  1
