# generated using pymatgen
data_Li5Fe3(SbO5)2
_symmetry_space_group_name_H-M   'P 1'
_cell_length_a   5.41061001
_cell_length_b   8.28363167
_cell_length_c   10.59662418
_cell_angle_alpha   101.23324210
_cell_angle_beta   80.80695536
_cell_angle_gamma   70.08122194
_symmetry_Int_Tables_number   1
_chemical_formula_structural   Li5Fe3(SbO5)2
_chemical_formula_sum   'Li10 Fe6 Sb4 O20'
_cell_volume   424.59703183
_cell_formula_units_Z   2
loop_
 _symmetry_equiv_pos_site_id
 _symmetry_equiv_pos_as_xyz
  1  'x, y, z'
loop_
 _atom_site_type_symbol
 _atom_site_label
 _atom_site_symmetry_multiplicity
 _atom_site_fract_x
 _atom_site_fract_y
 _atom_site_fract_z
 _atom_site_occupancy
  Li  Li0  1  0.00098200  0.49718200  0.49647800  1
  Li  Li1  1  0.00268400  0.49804900  0.99933200  1
  Li  Li2  1  0.80694500  0.42006600  0.26196100  1
  Li  Li3  1  0.82238400  0.40658200  0.74586000  1
  Li  Li4  1  0.18853800  0.59278000  0.73565000  1
  Li  Li5  1  0.16534400  0.59294400  0.25076900  1
  Li  Li6  1  0.61531500  0.78701800  0.74124600  1
  Li  Li7  1  0.59708100  0.83098200  0.26383100  1
  Li  Li8  1  0.37637200  0.21894900  0.26231100  1
  Li  Li9  1  0.41842900  0.17759300  0.73495800  1
  Fe  Fe10  1  0.99988300  0.00494000  0.24975900  1
  Fe  Fe11  1  0.80760900  0.88656300  0.99437900  1
  Fe  Fe12  1  0.19358200  0.11402000  0.50250100  1
  Fe  Fe13  1  0.99710700  0.99627100  0.74895200  1
  Fe  Fe14  1  0.81139000  0.89108300  0.49935900  1
  Fe  Fe15  1  0.20199100  0.10133400  0.99921100  1
  Sb  Sb16  1  0.39978300  0.71235200  0.49456400  1
  Sb  Sb17  1  0.40612000  0.69667700  0.00025200  1
  Sb  Sb18  1  0.59565300  0.30089700  0.49963100  1
  Sb  Sb19  1  0.59579600  0.29676700  0.00342900  1
  O  O20  1  0.21614000  0.84138000  0.88659500  1
  O  O21  1  0.20171500  0.88045400  0.37391300  1
  O  O22  1  0.80210100  0.14051400  0.10931000  1
  O  O23  1  0.78863300  0.14866300  0.61176800  1
  O  O24  1  0.39480800  0.94719800  0.62789500  1
  O  O25  1  0.41257400  0.91957400  0.11545500  1
  O  O26  1  0.60329400  0.07011400  0.38035700  1
  O  O27  1  0.58268400  0.08009300  0.88581800  1
  O  O28  1  0.61092700  0.51722200  0.61857400  1
  O  O29  1  0.59927900  0.52935900  0.11075600  1
  O  O30  1  0.40900800  0.42542300  0.37665500  1
  O  O31  1  0.40360700  0.46182300  0.89555100  1
  O  O32  1  0.96075500  0.25619200  0.37953200  1
  O  O33  1  0.95779600  0.24205500  0.88077700  1
  O  O34  1  0.97526100  0.77165300  0.64763100  1
  O  O35  1  0.04165700  0.74910500  0.11718500  1
  O  O36  1  0.79954200  0.66846000  0.37667800  1
  O  O37  1  0.76912300  0.65552800  0.88993400  1
  O  O38  1  0.23364600  0.33721500  0.61644000  1
  O  O39  1  0.23445800  0.33492700  0.11474400  1
