# generated using pymatgen
data_Sr3(CoO3)2
_symmetry_space_group_name_H-M   'P 1'
_cell_length_a   6.61063171
_cell_length_b   6.70222961
_cell_length_c   6.69144028
_cell_angle_alpha   92.85408071
_cell_angle_beta   92.91808374
_cell_angle_gamma   92.80345585
_symmetry_Int_Tables_number   1
_chemical_formula_structural   Sr3(CoO3)2
_chemical_formula_sum   'Sr6 Co4 O12'
_cell_volume   295.32549549
_cell_formula_units_Z   2
loop_
 _symmetry_equiv_pos_site_id
 _symmetry_equiv_pos_as_xyz
  1  'x, y, z'
loop_
 _atom_site_type_symbol
 _atom_site_label
 _atom_site_symmetry_multiplicity
 _atom_site_fract_x
 _atom_site_fract_y
 _atom_site_fract_z
 _atom_site_occupancy
  Sr  Sr0  1  0.88585200  0.25096200  0.61620500  1
  Sr  Sr1  1  0.24858400  0.61554500  0.88444700  1
  Sr  Sr2  1  0.61420400  0.88212100  0.24823400  1
  Sr  Sr3  1  0.75136700  0.38454700  0.11564800  1
  Sr  Sr4  1  0.38388400  0.11563900  0.74934300  1
  Sr  Sr5  1  0.11612000  0.75024500  0.38407400  1
  Co  Co6  1  0.99817100  0.99847100  0.00259200  1
  Co  Co7  1  0.75110300  0.75387800  0.74923300  1
  Co  Co8  1  0.50135000  0.49654900  0.50377200  1
  Co  Co9  1  0.25401900  0.25882900  0.24139500  1
  O  O10  1  0.22433200  0.41116600  0.53760900  1
  O  O11  1  0.40728000  0.54217900  0.21375600  1
  O  O12  1  0.53924800  0.21968200  0.41329900  1
  O  O13  1  0.90842300  0.71512700  0.04302600  1
  O  O14  1  0.72148700  0.03912000  0.91534000  1
  O  O15  1  0.03519600  0.91101800  0.72064300  1
  O  O16  1  0.77639200  0.58489500  0.46195400  1
  O  O17  1  0.59144900  0.45684000  0.78398000  1
  O  O18  1  0.46349900  0.77750500  0.59098400  1
  O  O19  1  0.09113300  0.28516700  0.95799000  1
  O  O20  1  0.27543400  0.96373400  0.08831500  1
  O  O21  1  0.96147300  0.08678200  0.27816100  1
