data_image0
_chemical_formula_structural       V4Zn5
_chemical_formula_sum              "V4 Zn5"
_cell_length_a       3.17845
_cell_length_b       6.46616
_cell_length_c       6.46616
_cell_angle_alpha    93.4631
_cell_angle_beta     75.7723
_cell_angle_gamma    104.228

_space_group_name_H-M_alt    "P 1"
_space_group_IT_number       1

loop_
  _space_group_symop_operation_xyz
  'x, y, z'

loop_
  _atom_site_type_symbol
  _atom_site_label
  _atom_site_symmetry_multiplicity
  _atom_site_fract_x
  _atom_site_fract_y
  _atom_site_fract_z
  _atom_site_occupancy
  V   V1        1.0  0.65500  0.65500  0.34500  1.0000
  V   V2        1.0  0.00000  0.34500  0.34500  1.0000
  V   V3        1.0  0.34500  0.34500  0.65500  1.0000
  V   V4        1.0  0.00000  0.65500  0.65500  1.0000
  Zn  Zn1       1.0  0.00000  0.00000  0.00000  1.0000
  Zn  Zn2       1.0  0.67000  0.34000  0.00000  1.0000
  Zn  Zn3       1.0  0.33000  0.66000  0.00000  1.0000
  Zn  Zn4       1.0  0.33000  0.00000  0.34000  1.0000
  Zn  Zn5       1.0  0.67000  0.00000  0.66000  1.0000
