data_image0
_chemical_formula_structural       NiSc6Te2
_chemical_formula_sum              "Ni1 Sc6 Te2"
_cell_length_a       7.78034
_cell_length_b       7.78034
_cell_length_c       3.73065
_cell_angle_alpha    90
_cell_angle_beta     90
_cell_angle_gamma    120

_space_group_name_H-M_alt    "P 1"
_space_group_IT_number       1

loop_
  _space_group_symop_operation_xyz
  'x, y, z'

loop_
  _atom_site_type_symbol
  _atom_site_label
  _atom_site_symmetry_multiplicity
  _atom_site_fract_x
  _atom_site_fract_y
  _atom_site_fract_z
  _atom_site_occupancy
  Ni  Ni1       1.0  0.00001  0.00001  0.00000  1.0000
  Sc  Sc1       1.0  0.60800  0.00003  0.00000  1.0000
  Sc  Sc2       1.0  0.39200  0.39200  0.00000  1.0000
  Sc  Sc3       1.0  0.00003  0.60800  0.00000  1.0000
  Sc  Sc4       1.0  0.23800  0.00000  0.50000  1.0000
  Sc  Sc5       1.0  0.00000  0.23800  0.50000  1.0000
  Sc  Sc6       1.0  0.76200  0.76200  0.50000  1.0000
  Te  Te1       1.0  0.66700  0.33300  0.50000  1.0000
  Te  Te2       1.0  0.33300  0.66700  0.50000  1.0000
