# generated using pymatgen
data_Nd2AlCo2
_symmetry_space_group_name_H-M   'P 1'
_cell_length_a   5.61126123
_cell_length_b   5.61126123
_cell_length_c   5.61126123
_cell_angle_alpha   138.01028484
_cell_angle_beta   119.98433251
_cell_angle_gamma   75.93466997
_symmetry_Int_Tables_number   1
_chemical_formula_structural   Nd2AlCo2
_chemical_formula_sum   'Nd2 Al1 Co2'
_cell_volume   99.83144733
_cell_formula_units_Z   1
loop_
 _symmetry_equiv_pos_site_id
 _symmetry_equiv_pos_as_xyz
  1  'x, y, z'
loop_
 _atom_site_type_symbol
 _atom_site_label
 _atom_site_symmetry_multiplicity
 _atom_site_fract_x
 _atom_site_fract_y
 _atom_site_fract_z
 _atom_site_occupancy
  Nd  Nd0  1  0.30084900  0.80084900  0.50000000  1
  Nd  Nd1  1  0.69915100  0.19915100  0.50000000  1
  Al  Al2  1  0.00000000  0.00000000  0.00000000  1
  Co  Co3  1  0.27024200  0.50000000  0.77024200  1
  Co  Co4  1  0.72975800  0.50000000  0.22975800  1
