# generated using pymatgen
data_Y3Fe29
_symmetry_space_group_name_H-M   'P 1'
_cell_length_a   6.41619733
_cell_length_b   6.41619733
_cell_length_c   10.47133232
_cell_angle_alpha   85.13818324
_cell_angle_beta   85.13818324
_cell_angle_gamma   82.67279058
_symmetry_Int_Tables_number   1
_chemical_formula_structural   Y3Fe29
_chemical_formula_sum   'Y3 Fe29'
_cell_volume   424.82676387
_cell_formula_units_Z   1
loop_
 _symmetry_equiv_pos_site_id
 _symmetry_equiv_pos_as_xyz
  1  'x, y, z'
loop_
 _atom_site_type_symbol
 _atom_site_label
 _atom_site_symmetry_multiplicity
 _atom_site_fract_x
 _atom_site_fract_y
 _atom_site_fract_z
 _atom_site_occupancy
  Y  Y0  1  0.00000000  0.00000000  0.00000000  1
  Y  Y1  1  0.18794100  0.18794100  0.40182300  1
  Y  Y2  1  0.81205900  0.81205900  0.59817700  1
  Fe  Fe3  1  0.50000000  0.50000000  0.50000000  1
  Fe  Fe4  1  0.29047200  0.29047200  0.85940900  1
  Fe  Fe5  1  0.70952800  0.70952800  0.14059100  1
  Fe  Fe6  1  0.52029400  0.52029400  0.74582800  1
  Fe  Fe7  1  0.47970600  0.47970600  0.25417200  1
  Fe  Fe8  1  0.12687300  0.68901500  0.80243000  1
  Fe  Fe9  1  0.31098500  0.87312700  0.19757000  1
  Fe  Fe10  1  0.87312700  0.31098500  0.19757000  1
  Fe  Fe11  1  0.68901500  0.12687300  0.80243000  1
  Fe  Fe12  1  0.16468100  0.46066300  0.62185900  1
  Fe  Fe13  1  0.53933700  0.83531900  0.37814100  1
  Fe  Fe14  1  0.83531900  0.53933700  0.37814100  1
  Fe  Fe15  1  0.46066300  0.16468100  0.62185900  1
  Fe  Fe16  1  0.64161500  0.35838500  0.00000000  1
  Fe  Fe17  1  0.35838500  0.64161500  0.00000000  1
  Fe  Fe18  1  0.27796400  0.27796400  0.10801600  1
  Fe  Fe19  1  0.72203600  0.72203600  0.89198400  1
  Fe  Fe20  1  0.40729200  0.90221900  0.80186700  1
  Fe  Fe21  1  0.09778100  0.59270800  0.19813300  1
  Fe  Fe22  1  0.59270800  0.09778100  0.19813300  1
  Fe  Fe23  1  0.90221900  0.40729200  0.80186700  1
  Fe  Fe24  1  0.90781900  0.90781900  0.29165800  1
  Fe  Fe25  1  0.09218100  0.09218100  0.70834200  1
  Fe  Fe26  1  0.31398600  0.81253400  0.59514200  1
  Fe  Fe27  1  0.18746600  0.68601400  0.40485800  1
  Fe  Fe28  1  0.68601400  0.18746600  0.40485800  1
  Fe  Fe29  1  0.81253400  0.31398600  0.59514200  1
  Fe  Fe30  1  0.50000000  0.00000000  0.00000000  1
  Fe  Fe31  1  0.00000000  0.50000000  0.00000000  1
