# generated using pymatgen
data_Ba2YV3O8
_symmetry_space_group_name_H-M   'P 1'
_cell_length_a   4.09492433
_cell_length_b   12.00516121
_cell_length_c   7.81737593
_cell_angle_alpha   89.99816796
_cell_angle_beta   89.95163875
_cell_angle_gamma   90.02136676
_symmetry_Int_Tables_number   1
_chemical_formula_structural   Ba2YV3O8
_chemical_formula_sum   'Ba4 Y2 V6 O16'
_cell_volume   384.30380946
_cell_formula_units_Z   2
loop_
 _symmetry_equiv_pos_site_id
 _symmetry_equiv_pos_as_xyz
  1  'x, y, z'
loop_
 _atom_site_type_symbol
 _atom_site_label
 _atom_site_symmetry_multiplicity
 _atom_site_fract_x
 _atom_site_fract_y
 _atom_site_fract_z
 _atom_site_occupancy
  Ba  Ba0  1  0.49960400  0.16349900  0.24996900  1
  Ba  Ba1  1  0.50034200  0.16349300  0.75003400  1
  Ba  Ba2  1  0.50107800  0.83651300  0.25000700  1
  Ba  Ba3  1  0.49904300  0.83653000  0.74997900  1
  Y  Y4  1  0.49993300  0.50002700  0.24991400  1
  Y  Y5  1  0.50008300  0.50002100  0.75013700  1
  V  V6  1  0.99985600  0.00006800  0.49990500  1
  V  V7  1  0.99967300  0.34087600  0.50003500  1
  V  V8  1  0.00046200  0.65919400  0.50000100  1
  V  V9  1  0.99995100  0.00003200  0.99997200  1
  V  V10  1  0.00006000  0.34070700  0.99996100  1
  V  V11  1  0.99983500  0.65920400  0.99999600  1
  O  O12  1  0.00016000  0.00001500  0.24998100  1
  O  O13  1  0.99988000  0.00002100  0.74997000  1
  O  O14  1  0.50002500  0.99999500  0.00000200  1
  O  O15  1  0.50000000  0.00004300  0.49998100  1
  O  O16  1  0.99990700  0.18440000  0.00001000  1
  O  O17  1  0.00020500  0.18449600  0.49998400  1
  O  O18  1  0.00018200  0.81549500  0.99999600  1
  O  O19  1  0.99974000  0.81550900  0.49998500  1
  O  O20  1  0.49994400  0.38058500  0.00003100  1
  O  O21  1  0.50050900  0.38066100  0.50003500  1
  O  O22  1  0.00010100  0.38651600  0.24985200  1
  O  O23  1  0.99994500  0.38651600  0.75017400  1
  O  O24  1  0.49935900  0.61933400  0.50002400  1
  O  O25  1  0.50015800  0.61933300  0.00002300  1
  O  O26  1  0.00030900  0.61346500  0.25001800  1
  O  O27  1  0.99965100  0.61345600  0.75002100  1
