# generated using pymatgen
data_Ni(HO)2
_symmetry_space_group_name_H-M   'P 1'
_cell_length_a   3.15267573
_cell_length_b   3.15335176
_cell_length_c   4.66302032
_cell_angle_alpha   90.00026370
_cell_angle_beta   90.49968418
_cell_angle_gamma   120.00771214
_symmetry_Int_Tables_number   1
_chemical_formula_structural   Ni(HO)2
_chemical_formula_sum   'Ni1 H2 O2'
_cell_volume   40.14152526
_cell_formula_units_Z   1
loop_
 _symmetry_equiv_pos_site_id
 _symmetry_equiv_pos_as_xyz
  1  'x, y, z'
loop_
 _atom_site_type_symbol
 _atom_site_label
 _atom_site_symmetry_multiplicity
 _atom_site_fract_x
 _atom_site_fract_y
 _atom_site_fract_z
 _atom_site_occupancy
  Ni  Ni0  1  0.99985200  0.92876600  0.99991200  1
  H  H1  1  0.66443200  0.27881800  0.57137300  1
  H  H2  1  0.33565400  0.61442700  0.42868500  1
  O  O3  1  0.66452100  0.26276400  0.77961500  1
  O  O4  1  0.33554100  0.59827300  0.22041500  1
