# generated using pymatgen
data_Mg15Cd
_symmetry_space_group_name_H-M   'P 1'
_cell_length_a   6.37666485
_cell_length_b   6.37666485
_cell_length_c   10.30834900
_cell_angle_alpha   90.00000000
_cell_angle_beta   90.00000000
_cell_angle_gamma   120.00000885
_symmetry_Int_Tables_number   1
_chemical_formula_structural   Mg15Cd
_chemical_formula_sum   'Mg15 Cd1'
_cell_volume   363.00022158
_cell_formula_units_Z   1
loop_
 _symmetry_equiv_pos_site_id
 _symmetry_equiv_pos_as_xyz
  1  'x, y, z'
loop_
 _atom_site_type_symbol
 _atom_site_label
 _atom_site_symmetry_multiplicity
 _atom_site_fract_x
 _atom_site_fract_y
 _atom_site_fract_z
 _atom_site_occupancy
  Mg  Mg0  1  0.66666700  0.33333300  0.50000000  1
  Mg  Mg1  1  0.16633300  0.33266700  0.00000000  1
  Mg  Mg2  1  0.16674300  0.33348600  0.50000000  1
  Mg  Mg3  1  0.16633300  0.83366700  0.00000000  1
  Mg  Mg4  1  0.16674300  0.83325700  0.50000000  1
  Mg  Mg5  1  0.66733300  0.83366700  0.00000000  1
  Mg  Mg6  1  0.66651400  0.83325700  0.50000000  1
  Mg  Mg7  1  0.99989500  0.49994700  0.24966100  1
  Mg  Mg8  1  0.99989500  0.49994700  0.75033900  1
  Mg  Mg9  1  0.50005300  0.49994700  0.24966100  1
  Mg  Mg10  1  0.50005300  0.49994700  0.75033900  1
  Mg  Mg11  1  0.50005300  0.00010500  0.24966100  1
  Mg  Mg12  1  0.50005300  0.00010500  0.75033900  1
  Mg  Mg13  1  0.00000000  0.00000000  0.25033100  1
  Mg  Mg14  1  0.00000000  0.00000000  0.74966900  1
  Cd  Cd15  1  0.66666700  0.33333300  0.00000000  1
