# generated using pymatgen
data_Li5Co2Ni3O10
_symmetry_space_group_name_H-M   'P 1'
_cell_length_a   5.02898811
_cell_length_b   10.05167809
_cell_length_c   7.62830384
_cell_angle_alpha   71.82895210
_cell_angle_beta   78.10983637
_cell_angle_gamma   100.39639465
_symmetry_Int_Tables_number   1
_chemical_formula_structural   Li5Co2Ni3O10
_chemical_formula_sum   'Li10 Co4 Ni6 O20'
_cell_volume   345.87662331
_cell_formula_units_Z   2
loop_
 _symmetry_equiv_pos_site_id
 _symmetry_equiv_pos_as_xyz
  1  'x, y, z'
loop_
 _atom_site_type_symbol
 _atom_site_label
 _atom_site_symmetry_multiplicity
 _atom_site_fract_x
 _atom_site_fract_y
 _atom_site_fract_z
 _atom_site_occupancy
  Li  Li0  1  0.00037700  0.00145900  0.50044500  1
  Li  Li1  1  0.50072100  0.50108500  0.00116300  1
  Li  Li2  1  0.59603300  0.09992200  0.30683500  1
  Li  Li3  1  0.09752000  0.60008700  0.80680900  1
  Li  Li4  1  0.40990900  0.90372500  0.69194400  1
  Li  Li5  1  0.91005900  0.40271200  0.19185100  1
  Li  Li6  1  0.70023000  0.19831100  0.59116000  1
  Li  Li7  1  0.20087800  0.69851800  0.08976300  1
  Li  Li8  1  0.29330300  0.79671700  0.41131200  1
  Li  Li9  1  0.79345400  0.29677300  0.91180600  1
  Co  Co10  1  0.29888200  0.29653600  0.39780900  1
  Co  Co11  1  0.79767500  0.79569100  0.89741400  1
  Co  Co12  1  0.69942300  0.70408600  0.60001200  1
  Co  Co13  1  0.20089100  0.20407700  0.10098000  1
  Ni  Ni14  1  0.00275900  0.50180500  0.49816400  1
  Ni  Ni15  1  0.60211800  0.60054100  0.29511500  1
  Ni  Ni16  1  0.39961700  0.39908800  0.70219000  1
  Ni  Ni17  1  0.50431400  0.00195500  0.99840300  1
  Ni  Ni18  1  0.10310100  0.10083200  0.79541400  1
  Ni  Ni19  1  0.89912700  0.89888100  0.20170400  1
  O  O20  1  0.61988800  0.39583700  0.45759200  1
  O  O21  1  0.12046900  0.89542500  0.95816500  1
  O  O22  1  0.37175900  0.60504400  0.55563500  1
  O  O23  1  0.86973200  0.10490500  0.05533400  1
  O  O24  1  0.08116600  0.30604700  0.63649700  1
  O  O25  1  0.58093400  0.80576700  0.13570500  1
  O  O26  1  0.93578500  0.69892700  0.36943400  1
  O  O27  1  0.43647600  0.19901400  0.87012800  1
  O  O28  1  0.98862100  0.20955300  0.33777600  1
  O  O29  1  0.48730800  0.70969700  0.83756800  1
  O  O30  1  0.00670300  0.78938000  0.66244200  1
  O  O31  1  0.50862600  0.29047700  0.16323000  1
  O  O32  1  0.23044200  0.00883200  0.23207800  1
  O  O33  1  0.73063500  0.50909700  0.73320400  1
  O  O34  1  0.74910800  0.98476700  0.76589200  1
  O  O35  1  0.24904400  0.48470800  0.26585100  1
  O  O36  1  0.34866200  0.11739200  0.53739600  1
  O  O37  1  0.84920500  0.61752700  0.03693700  1
  O  O38  1  0.66286800  0.88316700  0.44846000  1
  O  O39  1  0.16217600  0.38163700  0.95038100  1
