# generated using pymatgen
data_Ca2Fe3O8
_symmetry_space_group_name_H-M   'P 1'
_cell_length_a   5.01745529
_cell_length_b   6.27321462
_cell_length_c   10.42692643
_cell_angle_alpha   90.18793246
_cell_angle_beta   85.04365206
_cell_angle_gamma   93.09140881
_symmetry_Int_Tables_number   1
_chemical_formula_structural   Ca2Fe3O8
_chemical_formula_sum   'Ca4 Fe6 O16'
_cell_volume   326.49018999
_cell_formula_units_Z   2
loop_
 _symmetry_equiv_pos_site_id
 _symmetry_equiv_pos_as_xyz
  1  'x, y, z'
loop_
 _atom_site_type_symbol
 _atom_site_label
 _atom_site_symmetry_multiplicity
 _atom_site_fract_x
 _atom_site_fract_y
 _atom_site_fract_z
 _atom_site_occupancy
  Ca  Ca0  1  0.43735300  0.50559700  0.22176600  1
  Ca  Ca1  1  0.93742600  0.00553200  0.72181400  1
  Ca  Ca2  1  0.06251900  0.99448700  0.27819300  1
  Ca  Ca3  1  0.56265700  0.49439300  0.77821500  1
  Fe  Fe4  1  0.99992100  0.49997200  0.49998900  1
  Fe  Fe5  1  0.01492200  0.72886300  0.99017000  1
  Fe  Fe6  1  0.98496900  0.27105700  0.00983700  1
  Fe  Fe7  1  0.50008500  0.99998800  0.00001900  1
  Fe  Fe8  1  0.51466100  0.22906400  0.49033400  1
  Fe  Fe9  1  0.48551300  0.77102700  0.50968400  1
  O  O10  1  0.64999700  0.96985100  0.39446500  1
  O  O11  1  0.14987400  0.46964400  0.89434700  1
  O  O12  1  0.85011600  0.53034100  0.10562900  1
  O  O13  1  0.34997000  0.03019000  0.60554200  1
  O  O14  1  0.71090600  0.45640600  0.39494400  1
  O  O15  1  0.21128600  0.95583900  0.89476000  1
  O  O16  1  0.78860800  0.04417800  0.10527000  1
  O  O17  1  0.28925700  0.54355700  0.60503000  1
  O  O18  1  0.27301800  0.22769100  0.10259300  1
  O  O19  1  0.77318400  0.72765000  0.60265500  1
  O  O20  1  0.29169700  0.79043800  0.10491500  1
  O  O21  1  0.79174900  0.29037400  0.60482200  1
  O  O22  1  0.20831300  0.70969800  0.39511200  1
  O  O23  1  0.70820800  0.20948800  0.89516500  1
  O  O24  1  0.22678300  0.27239000  0.39728300  1
  O  O25  1  0.72700500  0.77227900  0.89744800  1
