# generated using pymatgen
data_Na4CO4
_symmetry_space_group_name_H-M   'P 1'
_cell_length_a   5.30110453
_cell_length_b   5.30110453
_cell_length_c   5.46060595
_cell_angle_alpha   67.06518432
_cell_angle_beta   67.06518432
_cell_angle_gamma   60.13954741
_symmetry_Int_Tables_number   1
_chemical_formula_structural   Na4CO4
_chemical_formula_sum   'Na4 C1 O4'
_cell_volume   118.82523931
_cell_formula_units_Z   1
loop_
 _symmetry_equiv_pos_site_id
 _symmetry_equiv_pos_as_xyz
  1  'x, y, z'
loop_
 _atom_site_type_symbol
 _atom_site_label
 _atom_site_symmetry_multiplicity
 _atom_site_fract_x
 _atom_site_fract_y
 _atom_site_fract_z
 _atom_site_occupancy
  Na  Na0  1  0.74686900  0.93502100  0.53303000  1
  Na  Na1  1  0.06497900  0.25313100  0.46697000  1
  Na  Na2  1  0.48846300  0.77662300  0.11309600  1
  Na  Na3  1  0.22337700  0.51153700  0.88690400  1
  C  C4  1  0.77515800  0.22484200  0.00000000  1
  O  O5  1  0.84333100  0.99043200  0.88855400  1
  O  O6  1  0.00956800  0.15666900  0.11144600  1
  O  O7  1  0.72979200  0.49907600  0.78713200  1
  O  O8  1  0.50092400  0.27020800  0.21286800  1
