# generated using pymatgen
data_Ba3CaIr2O9
_symmetry_space_group_name_H-M   'P 1'
_cell_length_a   5.89772553
_cell_length_b   5.89772553
_cell_length_c   7.25207600
_cell_angle_alpha   90.00000000
_cell_angle_beta   90.00000000
_cell_angle_gamma   119.99999475
_symmetry_Int_Tables_number   1
_chemical_formula_structural   Ba3CaIr2O9
_chemical_formula_sum   'Ba3 Ca1 Ir2 O9'
_cell_volume   218.45506395
_cell_formula_units_Z   1
loop_
 _symmetry_equiv_pos_site_id
 _symmetry_equiv_pos_as_xyz
  1  'x, y, z'
loop_
 _atom_site_type_symbol
 _atom_site_label
 _atom_site_symmetry_multiplicity
 _atom_site_fract_x
 _atom_site_fract_y
 _atom_site_fract_z
 _atom_site_occupancy
  Ba  Ba0  1  0.33333300  0.66666700  0.66572600  1
  Ba  Ba1  1  0.00000000  0.00000000  0.00000000  1
  Ba  Ba2  1  0.66666700  0.33333300  0.33427400  1
  Ca  Ca3  1  0.00000000  0.00000000  0.50000000  1
  Ir  Ir4  1  0.33333300  0.66666700  0.15864700  1
  Ir  Ir5  1  0.66666700  0.33333300  0.84135300  1
  O  O6  1  0.82160100  0.17839900  0.68577400  1
  O  O7  1  0.82160100  0.64320200  0.68577400  1
  O  O8  1  0.35679800  0.17839900  0.68577400  1
  O  O9  1  0.64320200  0.82160100  0.31422600  1
  O  O10  1  0.17839900  0.35679800  0.31422600  1
  O  O11  1  0.17839900  0.82160100  0.31422600  1
  O  O12  1  0.50000000  0.00000000  0.00000000  1
  O  O13  1  0.00000000  0.50000000  0.00000000  1
  O  O14  1  0.50000000  0.50000000  0.00000000  1
