# generated using pymatgen
data_Co3TeO8
_symmetry_space_group_name_H-M   'P 1'
_cell_length_a   5.90144483
_cell_length_b   6.06973568
_cell_length_c   10.66845073
_cell_angle_alpha   106.47630741
_cell_angle_beta   106.81744562
_cell_angle_gamma   59.18892050
_symmetry_Int_Tables_number   1
_chemical_formula_structural   Co3TeO8
_chemical_formula_sum   'Co6 Te2 O16'
_cell_volume   309.88155293
_cell_formula_units_Z   2
loop_
 _symmetry_equiv_pos_site_id
 _symmetry_equiv_pos_as_xyz
  1  'x, y, z'
loop_
 _atom_site_type_symbol
 _atom_site_label
 _atom_site_symmetry_multiplicity
 _atom_site_fract_x
 _atom_site_fract_y
 _atom_site_fract_z
 _atom_site_occupancy
  Co  Co0  1  0.50000100  0.99999900  0.49999900  1
  Co  Co1  1  0.50000000  0.50000000  0.00000000  1
  Co  Co2  1  0.00000000  0.99999900  0.49999900  1
  Co  Co3  1  0.50000100  0.00000000  0.00000000  1
  Co  Co4  1  0.99999800  0.50000100  0.49999900  1
  Co  Co5  1  0.00000100  0.50000200  0.00000100  1
  Te  Te6  1  0.99999700  0.99999800  0.00000100  1
  Te  Te7  1  0.50000100  0.50000000  0.49999900  1
  O  O8  1  0.13760100  0.13876800  0.41988000  1
  O  O9  1  0.62721200  0.64820000  0.91735800  1
  O  O10  1  0.37278900  0.35180000  0.08264200  1
  O  O11  1  0.86239800  0.86123000  0.58011800  1
  O  O12  1  0.64684200  0.61115900  0.40185800  1
  O  O13  1  0.14158800  0.11901700  0.89919100  1
  O  O14  1  0.13742700  0.65707000  0.39582800  1
  O  O15  1  0.63785700  0.10361100  0.89544000  1
  O  O16  1  0.63638500  0.13644500  0.40113800  1
  O  O17  1  0.14192600  0.64255400  0.90325400  1
  O  O18  1  0.85807500  0.35744800  0.09674700  1
  O  O19  1  0.36361500  0.86355500  0.59886200  1
  O  O20  1  0.36214300  0.89639000  0.10456000  1
  O  O21  1  0.86257600  0.34292800  0.60417300  1
  O  O22  1  0.85841200  0.88098500  0.10081200  1
  O  O23  1  0.35315700  0.38884100  0.59814000  1
