# generated using pymatgen
data_Ca2GeO4
_symmetry_space_group_name_H-M   'P 1'
_cell_length_a   6.47344688
_cell_length_b   6.47344688
_cell_length_c   6.47344688
_cell_angle_alpha   145.94725402
_cell_angle_beta   145.94725402
_cell_angle_gamma   48.92511495
_symmetry_Int_Tables_number   1
_chemical_formula_structural   Ca2GeO4
_chemical_formula_sum   'Ca2 Ge1 O4'
_cell_volume   84.68299515
_cell_formula_units_Z   1
loop_
 _symmetry_equiv_pos_site_id
 _symmetry_equiv_pos_as_xyz
  1  'x, y, z'
loop_
 _atom_site_type_symbol
 _atom_site_label
 _atom_site_symmetry_multiplicity
 _atom_site_fract_x
 _atom_site_fract_y
 _atom_site_fract_z
 _atom_site_occupancy
  Ca  Ca0  1  0.64563600  0.64563600  0.00000000  1
  Ca  Ca1  1  0.35436400  0.35436400  0.00000000  1
  Ge  Ge2  1  0.00000000  0.00000000  0.00000000  1
  O  O3  1  0.83800600  0.83800600  0.00000000  1
  O  O4  1  0.16199400  0.16199400  0.00000000  1
  O  O5  1  0.00000000  0.50000000  0.50000000  1
  O  O6  1  0.50000000  0.00000000  0.50000000  1
