# generated using pymatgen
data_Na2TiZn2SiO7
_symmetry_space_group_name_H-M   'P 1'
_cell_length_a   5.25690300
_cell_length_b   11.84621000
_cell_length_c   20.34714300
_cell_angle_alpha   90.00000000
_cell_angle_beta   90.00000000
_cell_angle_gamma   90.00000000
_symmetry_Int_Tables_number   1
_chemical_formula_structural   Na2TiZn2SiO7
_chemical_formula_sum   'Na16 Ti8 Zn16 Si8 O56'
_cell_volume   1267.10565177
_cell_formula_units_Z   8
loop_
 _symmetry_equiv_pos_site_id
 _symmetry_equiv_pos_as_xyz
  1  'x, y, z'
loop_
 _atom_site_type_symbol
 _atom_site_label
 _atom_site_symmetry_multiplicity
 _atom_site_fract_x
 _atom_site_fract_y
 _atom_site_fract_z
 _atom_site_occupancy
  Na  Na0  1  0.75538200  0.66396800  0.17109300  1
  Na  Na1  1  0.73546000  0.17611100  0.50245000  1
  Na  Na2  1  0.23546000  0.82388900  0.99755000  1
  Na  Na3  1  0.76454000  0.67611100  0.49755000  1
  Na  Na4  1  0.26454000  0.32388900  0.00245000  1
  Na  Na5  1  0.26454000  0.82388900  0.49755000  1
  Na  Na6  1  0.76454000  0.17611100  0.00245000  1
  Na  Na7  1  0.23546000  0.32388900  0.50245000  1
  Na  Na8  1  0.25538200  0.33603200  0.32890700  1
  Na  Na9  1  0.74461800  0.16396800  0.82890700  1
  Na  Na10  1  0.24461800  0.83603200  0.67109300  1
  Na  Na11  1  0.73546000  0.67611100  0.99755000  1
  Na  Na12  1  0.74461800  0.66396800  0.67109300  1
  Na  Na13  1  0.25538200  0.83603200  0.17109300  1
  Na  Na14  1  0.75538200  0.16396800  0.32890700  1
  Na  Na15  1  0.24461800  0.33603200  0.82890700  1
  Ti  Ti16  1  0.78999500  0.18503300  0.16490600  1
  Ti  Ti17  1  0.28999500  0.81496700  0.33509400  1
  Ti  Ti18  1  0.71000500  0.68503300  0.83509400  1
  Ti  Ti19  1  0.21000500  0.31496700  0.66490600  1
  Ti  Ti20  1  0.21000500  0.81496700  0.83509400  1
  Ti  Ti21  1  0.71000500  0.18503300  0.66490600  1
  Ti  Ti22  1  0.28999500  0.31496700  0.16490600  1
  Ti  Ti23  1  0.78999500  0.68503300  0.33509400  1
  Zn  Zn24  1  0.75318200  0.91968400  0.73923600  1
  Zn  Zn25  1  0.75318200  0.41968400  0.76076400  1
  Zn  Zn26  1  0.25318200  0.58031600  0.73923600  1
  Zn  Zn27  1  0.25318200  0.08031600  0.76076400  1
  Zn  Zn28  1  0.24681800  0.08031600  0.26076400  1
  Zn  Zn29  1  0.24681800  0.58031600  0.23923600  1
  Zn  Zn30  1  0.74681800  0.41968400  0.26076400  1
  Zn  Zn31  1  0.78599200  0.92369600  0.42997900  1
  Zn  Zn32  1  0.28599200  0.07630400  0.07002100  1
  Zn  Zn33  1  0.71400800  0.42369600  0.57002100  1
  Zn  Zn34  1  0.21400800  0.57630400  0.92997900  1
  Zn  Zn35  1  0.21400800  0.07630400  0.57002100  1
  Zn  Zn36  1  0.71400800  0.92369600  0.92997900  1
  Zn  Zn37  1  0.28599200  0.57630400  0.42997900  1
  Zn  Zn38  1  0.78599200  0.42369600  0.07002100  1
  Zn  Zn39  1  0.74681800  0.91968400  0.23923600  1
  Si  Si40  1  0.77855000  0.92911200  0.08802200  1
  Si  Si41  1  0.27855000  0.07088800  0.41197800  1
  Si  Si42  1  0.72145000  0.42911200  0.91197800  1
  Si  Si43  1  0.22145000  0.57088800  0.58802200  1
  Si  Si44  1  0.22145000  0.07088800  0.91197800  1
  Si  Si45  1  0.72145000  0.92911200  0.58802200  1
  Si  Si46  1  0.27855000  0.57088800  0.08802200  1
  Si  Si47  1  0.77855000  0.42911200  0.41197800  1
  O  O48  1  0.70022600  0.35119100  0.34845900  1
  O  O49  1  0.20022600  0.64880900  0.15154100  1
  O  O50  1  0.79977400  0.85119100  0.65154100  1
  O  O51  1  0.29977400  0.14880900  0.84845900  1
  O  O52  1  0.29977400  0.64880900  0.65154100  1
  O  O53  1  0.79977400  0.35119100  0.84845900  1
  O  O54  1  0.20022600  0.14880900  0.34845900  1
  O  O55  1  0.70022600  0.85119100  0.15154100  1
  O  O56  1  0.65366000  0.05902000  0.09765400  1
  O  O57  1  0.15366000  0.94098000  0.40234600  1
  O  O58  1  0.84634000  0.55902000  0.90234600  1
  O  O59  1  0.34634000  0.44098000  0.59765400  1
  O  O60  1  0.34634000  0.94098000  0.90234600  1
  O  O61  1  0.84634000  0.05902000  0.59765400  1
  O  O62  1  0.15366000  0.44098000  0.09765400  1
  O  O63  1  0.65366000  0.55902000  0.40234600  1
  O  O64  1  0.66682900  0.36855300  0.47869900  1
  O  O65  1  0.16682900  0.63144700  0.02130100  1
  O  O66  1  0.83317100  0.86855300  0.52130100  1
  O  O67  1  0.33317100  0.13144700  0.97869900  1
  O  O68  1  0.33317100  0.63144700  0.52130100  1
  O  O69  1  0.83317100  0.36855300  0.97869900  1
  O  O70  1  0.16682900  0.13144700  0.47869900  1
  O  O71  1  0.66682900  0.86855300  0.02130100  1
  O  O72  1  0.95163300  0.30526200  0.21326800  1
  O  O73  1  0.58576900  0.29698400  0.10921700  1
  O  O74  1  0.45163300  0.69473800  0.28673200  1
  O  O75  1  0.04836700  0.19473800  0.71326800  1
  O  O76  1  0.04836700  0.69473800  0.78673200  1
  O  O77  1  0.54836700  0.30526200  0.71326800  1
  O  O78  1  0.45163300  0.19473800  0.21326800  1
  O  O79  1  0.95163300  0.80526200  0.28673200  1
  O  O80  1  0.59058800  0.06108900  0.41694400  1
  O  O81  1  0.09058800  0.93891100  0.08305600  1
  O  O82  1  0.90941200  0.56108900  0.58305600  1
  O  O83  1  0.40941200  0.43891100  0.91694400  1
  O  O84  1  0.40941200  0.93891100  0.58305600  1
  O  O85  1  0.90941200  0.06108900  0.91694400  1
  O  O86  1  0.09058800  0.43891100  0.41694400  1
  O  O87  1  0.59058800  0.56108900  0.08305600  1
  O  O88  1  0.89689700  0.07003100  0.22495700  1
  O  O89  1  0.39689700  0.92996900  0.27504300  1
  O  O90  1  0.60310300  0.57003100  0.77504300  1
  O  O91  1  0.10310300  0.42996900  0.72495700  1
  O  O92  1  0.10310300  0.92996900  0.77504300  1
  O  O93  1  0.60310300  0.07003100  0.72495700  1
  O  O94  1  0.39689700  0.42996900  0.22495700  1
  O  O95  1  0.89689700  0.57003100  0.27504300  1
  O  O96  1  0.58576900  0.79698400  0.39078300  1
  O  O97  1  0.08576900  0.20301600  0.10921700  1
  O  O98  1  0.91423100  0.29698400  0.60921700  1
  O  O99  1  0.41423100  0.70301600  0.89078300  1
  O  O100  1  0.41423100  0.20301600  0.60921700  1
  O  O101  1  0.91423100  0.79698400  0.89078300  1
  O  O102  1  0.08576900  0.70301600  0.39078300  1
  O  O103  1  0.54836700  0.80526200  0.78673200  1
