# generated using pymatgen
data_Sm3Si2BO10
_symmetry_space_group_name_H-M   'P 1'
_cell_length_a   7.07935600
_cell_length_b   9.78857800
_cell_length_c   23.10967200
_cell_angle_alpha   90.00000000
_cell_angle_beta   90.00000000
_cell_angle_gamma   90.00000000
_symmetry_Int_Tables_number   1
_chemical_formula_structural   Sm3Si2BO10
_chemical_formula_sum   'Sm24 Si16 B8 O80'
_cell_volume   1601.42697487
_cell_formula_units_Z   8
loop_
 _symmetry_equiv_pos_site_id
 _symmetry_equiv_pos_as_xyz
  1  'x, y, z'
loop_
 _atom_site_type_symbol
 _atom_site_label
 _atom_site_symmetry_multiplicity
 _atom_site_fract_x
 _atom_site_fract_y
 _atom_site_fract_z
 _atom_site_occupancy
  Sm  Sm0  1  0.13602900  0.98973700  0.92823300  1
  Sm  Sm1  1  0.36397100  0.98973700  0.42823300  1
  Sm  Sm2  1  0.63602900  0.51026300  0.92823300  1
  Sm  Sm3  1  0.13602900  0.48973700  0.57176700  1
  Sm  Sm4  1  0.86397100  0.01026300  0.07176700  1
  Sm  Sm5  1  0.63602900  0.01026300  0.57176700  1
  Sm  Sm6  1  0.36397100  0.48973700  0.07176700  1
  Sm  Sm7  1  0.86397100  0.51026300  0.42823300  1
  Sm  Sm8  1  0.09251800  0.76781900  0.18247700  1
  Sm  Sm9  1  0.59251800  0.23218100  0.31752300  1
  Sm  Sm10  1  0.40748200  0.26781900  0.81752300  1
  Sm  Sm11  1  0.90748200  0.73218100  0.68247700  1
  Sm  Sm12  1  0.90748200  0.23218100  0.81752300  1
  Sm  Sm13  1  0.40748200  0.76781900  0.68247700  1
  Sm  Sm14  1  0.59251800  0.73218100  0.18247700  1
  Sm  Sm15  1  0.09251800  0.26781900  0.31752300  1
  Sm  Sm16  1  0.81830400  0.36618500  0.16417600  1
  Sm  Sm17  1  0.31830400  0.63381500  0.33582400  1
  Sm  Sm18  1  0.68169600  0.86618500  0.83582400  1
  Sm  Sm19  1  0.18169600  0.13381500  0.66417600  1
  Sm  Sm20  1  0.18169600  0.63381500  0.83582400  1
  Sm  Sm21  1  0.68169600  0.36618500  0.66417600  1
  Sm  Sm22  1  0.31830400  0.13381500  0.16417600  1
  Sm  Sm23  1  0.81830400  0.86618500  0.33582400  1
  Si  Si24  1  0.81226600  0.06160000  0.22067400  1
  Si  Si25  1  0.31226600  0.93840000  0.27932600  1
  Si  Si26  1  0.68773400  0.56160000  0.77932600  1
  Si  Si27  1  0.18773400  0.43840000  0.72067400  1
  Si  Si28  1  0.18773400  0.93840000  0.77932600  1
  Si  Si29  1  0.68773400  0.06160000  0.72067400  1
  Si  Si30  1  0.31226600  0.43840000  0.22067400  1
  Si  Si31  1  0.81226600  0.56160000  0.27932600  1
  Si  Si32  1  0.85645700  0.62299000  0.07875300  1
  Si  Si33  1  0.35645700  0.37701000  0.42124700  1
  Si  Si34  1  0.64354300  0.12299000  0.92124700  1
  Si  Si35  1  0.14354300  0.87701000  0.57875300  1
  Si  Si36  1  0.14354300  0.37701000  0.92124700  1
  Si  Si37  1  0.64354300  0.62299000  0.57875300  1
  Si  Si38  1  0.35645700  0.87701000  0.07875300  1
  Si  Si39  1  0.85645700  0.12299000  0.42124700  1
  B  B40  1  0.66479800  0.75823300  0.47184300  1
  B  B41  1  0.66479800  0.25823300  0.02815700  1
  B  B42  1  0.16479800  0.74176700  0.47184300  1
  B  B43  1  0.83520200  0.75823300  0.97184300  1
  B  B44  1  0.33520200  0.24176700  0.52815700  1
  B  B45  1  0.33520200  0.74176700  0.97184300  1
  B  B46  1  0.83520200  0.25823300  0.52815700  1
  B  B47  1  0.16479800  0.24176700  0.02815700  1
  O  O48  1  0.79389000  0.89387500  0.22174400  1
  O  O49  1  0.24856500  0.75930500  0.41892500  1
  O  O50  1  0.75143500  0.74069500  0.91892500  1
  O  O51  1  0.25143500  0.25930500  0.58107500  1
  O  O52  1  0.25143500  0.75930500  0.91892500  1
  O  O53  1  0.75143500  0.24069500  0.58107500  1
  O  O54  1  0.24856500  0.25930500  0.08107500  1
  O  O55  1  0.74856500  0.74069500  0.41892500  1
  O  O56  1  0.96354800  0.10917300  0.17145900  1
  O  O57  1  0.46354800  0.89082700  0.32854100  1
  O  O58  1  0.53645200  0.60917300  0.82854100  1
  O  O59  1  0.03645200  0.39082700  0.67145900  1
  O  O60  1  0.03645200  0.89082700  0.82854100  1
  O  O61  1  0.53645200  0.10917300  0.67145900  1
  O  O62  1  0.46354800  0.39082700  0.17145900  1
  O  O63  1  0.96354800  0.60917300  0.32854100  1
  O  O64  1  0.62298700  0.15640900  0.21084900  1
  O  O65  1  0.12298700  0.84359100  0.28915100  1
  O  O66  1  0.87701300  0.65640900  0.78915100  1
  O  O67  1  0.37701300  0.34359100  0.71084900  1
  O  O68  1  0.37701300  0.84359100  0.78915100  1
  O  O69  1  0.87701300  0.15640900  0.71084900  1
  O  O70  1  0.12298700  0.34359100  0.21084900  1
  O  O71  1  0.58432400  0.37496100  0.00897900  1
  O  O72  1  0.67120600  0.54808800  0.10738900  1
  O  O73  1  0.17120600  0.45191200  0.39261100  1
  O  O74  1  0.82879400  0.04808800  0.89261100  1
  O  O75  1  0.32879400  0.95191200  0.60738900  1
  O  O76  1  0.32879400  0.45191200  0.89261100  1
  O  O77  1  0.82879400  0.54808800  0.60738900  1
  O  O78  1  0.17120600  0.95191200  0.10738900  1
  O  O79  1  0.67120600  0.04808800  0.39261100  1
  O  O80  1  0.03911000  0.53501700  0.09984000  1
  O  O81  1  0.03911000  0.03501700  0.40016000  1
  O  O82  1  0.53911000  0.96498300  0.09984000  1
  O  O83  1  0.46089000  0.53501700  0.59984000  1
  O  O84  1  0.96089000  0.46498300  0.90016000  1
  O  O85  1  0.96089000  0.96498300  0.59984000  1
  O  O86  1  0.46089000  0.03501700  0.90016000  1
  O  O87  1  0.53911000  0.46498300  0.40016000  1
  O  O88  1  0.86713600  0.59832500  0.21142000  1
  O  O89  1  0.36713600  0.40167500  0.28858000  1
  O  O90  1  0.63286400  0.09832500  0.78858000  1
  O  O91  1  0.13286400  0.90167500  0.71142000  1
  O  O92  1  0.13286400  0.40167500  0.78858000  1
  O  O93  1  0.63286400  0.59832500  0.71142000  1
  O  O94  1  0.36713600  0.90167500  0.21142000  1
  O  O95  1  0.86713600  0.09832500  0.28858000  1
  O  O96  1  0.85338200  0.77493400  0.11037900  1
  O  O97  1  0.35338200  0.22506600  0.38962100  1
  O  O98  1  0.64661800  0.27493400  0.88962100  1
  O  O99  1  0.14661800  0.72506600  0.61037900  1
  O  O100  1  0.14661800  0.22506600  0.88962100  1
  O  O101  1  0.64661800  0.77493400  0.61037900  1
  O  O102  1  0.35338200  0.72506600  0.11037900  1
  O  O103  1  0.85338200  0.27493400  0.38962100  1
  O  O104  1  0.74856500  0.24069500  0.08107500  1
  O  O105  1  0.29389000  0.10612500  0.27825600  1
  O  O106  1  0.70611000  0.39387500  0.77825600  1
  O  O107  1  0.20611000  0.60612500  0.72174400  1
  O  O108  1  0.20611000  0.10612500  0.77825600  1
  O  O109  1  0.70611000  0.89387500  0.72174400  1
  O  O110  1  0.29389000  0.60612500  0.22174400  1
  O  O111  1  0.79389000  0.39387500  0.27825600  1
  O  O112  1  0.16716700  0.86146300  0.50744100  1
  O  O113  1  0.66716700  0.13853700  0.99255900  1
  O  O114  1  0.33283300  0.36146300  0.49255900  1
  O  O115  1  0.83283300  0.63853700  0.00744100  1
  O  O116  1  0.83283300  0.13853700  0.49255900  1
  O  O117  1  0.33283300  0.86146300  0.00744100  1
  O  O118  1  0.66716700  0.63853700  0.50744100  1
  O  O119  1  0.16716700  0.36146300  0.99255900  1
  O  O120  1  0.58432400  0.87496100  0.49102100  1
  O  O121  1  0.08432400  0.12503900  0.00897900  1
  O  O122  1  0.91567600  0.37496100  0.50897900  1
  O  O123  1  0.41567600  0.62503900  0.99102100  1
  O  O124  1  0.41567600  0.12503900  0.50897900  1
  O  O125  1  0.91567600  0.87496100  0.99102100  1
  O  O126  1  0.08432400  0.62503900  0.49102100  1
  O  O127  1  0.62298700  0.65640900  0.28915100  1
