# generated using pymatgen
data_Mg15Bi
_symmetry_space_group_name_H-M   'P 1'
_cell_length_a   6.41273799
_cell_length_b   6.41273799
_cell_length_c   10.52783000
_cell_angle_alpha   90.00000000
_cell_angle_beta   90.00000000
_cell_angle_gamma   119.99999986
_symmetry_Int_Tables_number   1
_chemical_formula_structural   Mg15Bi
_chemical_formula_sum   'Mg15 Bi1'
_cell_volume   374.93543492
_cell_formula_units_Z   1
loop_
 _symmetry_equiv_pos_site_id
 _symmetry_equiv_pos_as_xyz
  1  'x, y, z'
loop_
 _atom_site_type_symbol
 _atom_site_label
 _atom_site_symmetry_multiplicity
 _atom_site_fract_x
 _atom_site_fract_y
 _atom_site_fract_z
 _atom_site_occupancy
  Mg  Mg0  1  0.66666700  0.33333300  0.50000000  1
  Mg  Mg1  1  0.16579000  0.33158000  0.00000000  1
  Mg  Mg2  1  0.16674400  0.33348800  0.50000000  1
  Mg  Mg3  1  0.16579000  0.83421000  0.00000000  1
  Mg  Mg4  1  0.16674400  0.83325600  0.50000000  1
  Mg  Mg5  1  0.66842000  0.83421000  0.00000000  1
  Mg  Mg6  1  0.66651200  0.83325600  0.50000000  1
  Mg  Mg7  1  0.00370000  0.50185000  0.25270300  1
  Mg  Mg8  1  0.00370000  0.50185000  0.74729700  1
  Mg  Mg9  1  0.49815000  0.50185000  0.25270300  1
  Mg  Mg10  1  0.49815000  0.50185000  0.74729700  1
  Mg  Mg11  1  0.49815000  0.99630000  0.25270300  1
  Mg  Mg12  1  0.49815000  0.99630000  0.74729700  1
  Mg  Mg13  1  0.00000000  0.00000000  0.25023000  1
  Mg  Mg14  1  0.00000000  0.00000000  0.74977000  1
  Bi  Bi15  1  0.66666700  0.33333300  0.00000000  1
