# generated using pymatgen
data_Al(PO3)3
_symmetry_space_group_name_H-M   'P 1'
_cell_length_a   12.06083962
_cell_length_b   12.06083962
_cell_length_c   12.06083962
_cell_angle_alpha   109.47122063
_cell_angle_beta   109.47122063
_cell_angle_gamma   109.47122063
_symmetry_Int_Tables_number   1
_chemical_formula_structural   Al(PO3)3
_chemical_formula_sum   'Al8 P24 O72'
_cell_volume   1350.55021477
_cell_formula_units_Z   8
loop_
 _symmetry_equiv_pos_site_id
 _symmetry_equiv_pos_as_xyz
  1  'x, y, z'
loop_
 _atom_site_type_symbol
 _atom_site_label
 _atom_site_symmetry_multiplicity
 _atom_site_fract_x
 _atom_site_fract_y
 _atom_site_fract_z
 _atom_site_occupancy
  Al  Al0  1  0.50000000  0.00000000  0.21167400  1
  Al  Al1  1  0.71167400  0.50000000  0.00000000  1
  Al  Al2  1  0.00000000  0.71167400  0.50000000  1
  Al  Al3  1  0.78832600  0.78832600  0.78832600  1
  Al  Al4  1  0.00000000  0.21167400  0.50000000  1
  Al  Al5  1  0.28832600  0.28832600  0.28832600  1
  Al  Al6  1  0.21167400  0.50000000  0.00000000  1
  Al  Al7  1  0.50000000  0.00000000  0.71167400  1
  P  P8  1  0.04892600  0.33137000  0.11963600  1
  P  P9  1  0.21755600  0.78826600  0.16863000  1
  P  P10  1  0.57071000  0.28244400  0.45107400  1
  P  P11  1  0.92929000  0.38036400  0.71173400  1
  P  P12  1  0.38036400  0.71173400  0.92929000  1
  P  P13  1  0.16863000  0.21755600  0.78826600  1
  P  P14  1  0.11963600  0.04892600  0.33137000  1
  P  P15  1  0.33137000  0.11963600  0.04892600  1
  P  P16  1  0.28244400  0.45107400  0.57071000  1
  P  P17  1  0.61963600  0.83137000  0.54892600  1
  P  P18  1  0.71755600  0.66863000  0.28826600  1
  P  P19  1  0.95107400  0.78244400  0.07071000  1
  P  P20  1  0.54892600  0.61963600  0.83137000  1
  P  P21  1  0.07071000  0.95107400  0.78244400  1
  P  P22  1  0.66863000  0.28826600  0.71755600  1
  P  P23  1  0.71173400  0.92929000  0.38036400  1
  P  P24  1  0.78826600  0.16863000  0.21755600  1
  P  P25  1  0.45107400  0.57071000  0.28244400  1
  P  P26  1  0.42929000  0.21173400  0.88036400  1
  P  P27  1  0.28826600  0.71755600  0.66863000  1
  P  P28  1  0.78244400  0.07071000  0.95107400  1
  P  P29  1  0.83137000  0.54892600  0.61963600  1
  P  P30  1  0.21173400  0.88036400  0.42929000  1
  P  P31  1  0.88036400  0.42929000  0.21173400  1
  O  O32  1  0.69793200  0.58054200  0.15514700  1
  O  O33  1  0.15514700  0.69793200  0.58054200  1
  O  O34  1  0.95721500  0.88261000  0.80206800  1
  O  O35  1  0.57460500  0.91945800  0.61739000  1
  O  O36  1  0.34485300  0.92539500  0.54278500  1
  O  O37  1  0.58054200  0.15514700  0.69793200  1
  O  O38  1  0.11739000  0.41945800  0.07460500  1
  O  O39  1  0.84485300  0.04278500  0.42539500  1
  O  O40  1  0.38261000  0.45721500  0.30206800  1
  O  O41  1  0.42539500  0.84485300  0.04278500  1
  O  O42  1  0.41945800  0.07460500  0.11739000  1
  O  O43  1  0.08054200  0.19793200  0.65514700  1
  O  O44  1  0.19793200  0.65514700  0.08054200  1
  O  O45  1  0.04278500  0.42539500  0.84485300  1
  O  O46  1  0.30206800  0.38261000  0.45721500  1
  O  O47  1  0.45721500  0.30206800  0.38261000  1
  O  O48  1  0.07460500  0.11739000  0.41945800  1
  O  O49  1  0.80206800  0.95721500  0.88261000  1
  O  O50  1  0.92539500  0.54278500  0.34485300  1
  O  O51  1  0.61739000  0.57460500  0.91945800  1
  O  O52  1  0.88261000  0.80206800  0.95721500  1
  O  O53  1  0.91945800  0.61739000  0.57460500  1
  O  O54  1  0.54278500  0.34485300  0.92539500  1
  O  O55  1  0.65514700  0.08054200  0.19793200  1
  O  O56  1  0.72481200  0.41617500  0.84511400  1
  O  O57  1  0.19136300  0.12030100  0.27518800  1
  O  O58  1  0.84511400  0.72481200  0.41617500  1
  O  O59  1  0.42893800  0.08382500  0.80863700  1
  O  O60  1  0.65488600  0.07106200  0.87969900  1
  O  O61  1  0.41617500  0.84511400  0.72481200  1
  O  O62  1  0.30863700  0.58382500  0.92893800  1
  O  O63  1  0.15488600  0.37969900  0.57106200  1
  O  O64  1  0.77859700  0.28892800  0.19366400  1
  O  O65  1  0.41506700  0.22140300  0.01033200  1
  O  O66  1  0.71107200  0.40473500  0.48966800  1
  O  O67  1  0.09526500  0.80633600  0.08493300  1
  O  O68  1  0.40473500  0.48966800  0.71107200  1
  O  O69  1  0.01033200  0.41506700  0.22140300  1
  O  O70  1  0.80633600  0.08493300  0.09526500  1
  O  O71  1  0.98966800  0.90473500  0.21107200  1
  O  O72  1  0.58493300  0.30633600  0.59526500  1
  O  O73  1  0.30633600  0.59526500  0.58493300  1
  O  O74  1  0.91506700  0.51033200  0.72140300  1
  O  O75  1  0.19366400  0.77859700  0.28892800  1
  O  O76  1  0.28892800  0.19366400  0.77859700  1
  O  O77  1  0.21107200  0.98966800  0.90473500  1
  O  O78  1  0.51033200  0.72140300  0.91506700  1
  O  O79  1  0.59526500  0.58493300  0.30633600  1
  O  O80  1  0.72140300  0.91506700  0.51033200  1
  O  O81  1  0.90473500  0.21107200  0.98966800  1
  O  O82  1  0.78892800  0.27859700  0.69366400  1
  O  O83  1  0.22140300  0.01033200  0.41506700  1
  O  O84  1  0.48966800  0.71107200  0.40473500  1
  O  O85  1  0.08493300  0.09526500  0.80633600  1
  O  O86  1  0.27859700  0.69366400  0.78892800  1
  O  O87  1  0.69366400  0.78892800  0.27859700  1
  O  O88  1  0.34511400  0.91617500  0.22481200  1
  O  O89  1  0.87969900  0.65488600  0.07106200  1
  O  O90  1  0.08382500  0.80863700  0.42893800  1
  O  O91  1  0.69136300  0.77518800  0.62030100  1
  O  O92  1  0.80863700  0.42893800  0.08382500  1
  O  O93  1  0.07106200  0.87969900  0.65488600  1
  O  O94  1  0.77518800  0.62030100  0.69136300  1
  O  O95  1  0.92893800  0.30863700  0.58382500  1
  O  O96  1  0.12030100  0.27518800  0.19136300  1
  O  O97  1  0.27518800  0.19136300  0.12030100  1
  O  O98  1  0.37969900  0.57106200  0.15488600  1
  O  O99  1  0.22481200  0.34511400  0.91617500  1
  O  O100  1  0.91617500  0.22481200  0.34511400  1
  O  O101  1  0.58382500  0.92893800  0.30863700  1
  O  O102  1  0.57106200  0.15488600  0.37969900  1
  O  O103  1  0.62030100  0.69136300  0.77518800  1
