# generated using pymatgen
data_Cs4Ta2S11
_symmetry_space_group_name_H-M   'P 1'
_cell_length_a   8.16637200
_cell_length_b   14.31581300
_cell_length_c   18.93649100
_cell_angle_alpha   90.00000000
_cell_angle_beta   90.00000000
_cell_angle_gamma   90.00000000
_symmetry_Int_Tables_number   1
_chemical_formula_structural   Cs4Ta2S11
_chemical_formula_sum   'Cs16 Ta8 S44'
_cell_volume   2213.83210804
_cell_formula_units_Z   4
loop_
 _symmetry_equiv_pos_site_id
 _symmetry_equiv_pos_as_xyz
  1  'x, y, z'
loop_
 _atom_site_type_symbol
 _atom_site_label
 _atom_site_symmetry_multiplicity
 _atom_site_fract_x
 _atom_site_fract_y
 _atom_site_fract_z
 _atom_site_occupancy
  Cs  Cs0  1  0.66678800  0.76576000  0.37342600  1
  Cs  Cs1  1  0.33321200  0.23424000  0.87342600  1
  Cs  Cs2  1  0.33321200  0.26576000  0.37342600  1
  Cs  Cs3  1  0.66678800  0.73424000  0.87342600  1
  Cs  Cs4  1  0.18667500  0.58011000  0.47301600  1
  Cs  Cs5  1  0.81332500  0.41989000  0.97301600  1
  Cs  Cs6  1  0.81332500  0.08011000  0.47301600  1
  Cs  Cs7  1  0.18667500  0.91989000  0.97301600  1
  Cs  Cs8  1  0.79497000  0.45830900  0.27203800  1
  Cs  Cs9  1  0.20503000  0.54169100  0.77203800  1
  Cs  Cs10  1  0.20503000  0.95830900  0.27203800  1
  Cs  Cs11  1  0.79497000  0.04169100  0.77203800  1
  Cs  Cs12  1  0.20213600  0.28843500  0.12193200  1
  Cs  Cs13  1  0.79786400  0.71156500  0.62193200  1
  Cs  Cs14  1  0.79786400  0.78843500  0.12193200  1
  Cs  Cs15  1  0.20213600  0.21156500  0.62193200  1
  Ta  Ta16  1  0.25885900  0.56884500  0.03040500  1
  Ta  Ta17  1  0.74114100  0.43115500  0.53040500  1
  Ta  Ta18  1  0.74114100  0.06884500  0.03040500  1
  Ta  Ta19  1  0.25885900  0.93115500  0.53040500  1
  Ta  Ta20  1  0.21176500  0.62206300  0.21007100  1
  Ta  Ta21  1  0.78823500  0.37793700  0.71007100  1
  Ta  Ta22  1  0.78823500  0.12206300  0.21007100  1
  Ta  Ta23  1  0.21176500  0.87793700  0.71007100  1
  S  S24  1  0.25108100  0.43449700  0.96778400  1
  S  S25  1  0.74891900  0.56550300  0.46778400  1
  S  S26  1  0.74891900  0.93449700  0.96778400  1
  S  S27  1  0.25108100  0.06550300  0.46778400  1
  S  S28  1  0.45100700  0.52700500  0.12765300  1
  S  S29  1  0.54899300  0.47299500  0.62765300  1
  S  S30  1  0.54899300  0.02700500  0.12765300  1
  S  S31  1  0.45100700  0.97299500  0.62765300  1
  S  S32  1  0.26160100  0.68059800  0.92867700  1
  S  S33  1  0.73839900  0.31940200  0.42867700  1
  S  S34  1  0.73839900  0.18059800  0.92867700  1
  S  S35  1  0.26160100  0.81940200  0.42867700  1
  S  S36  1  0.03558100  0.66301700  0.97791800  1
  S  S37  1  0.96441900  0.33698300  0.47791800  1
  S  S38  1  0.96441900  0.16301700  0.97791800  1
  S  S39  1  0.03558100  0.83698300  0.47791800  1
  S  S40  1  0.39931200  0.57457900  0.30867400  1
  S  S41  1  0.55263700  0.60235600  0.04387000  1
  S  S42  1  0.44736300  0.10235600  0.04387000  1
  S  S43  1  0.55263700  0.89764400  0.54387000  1
  S  S44  1  0.25821300  0.46774000  0.26498500  1
  S  S45  1  0.74178700  0.53226000  0.76498500  1
  S  S46  1  0.74178700  0.96774000  0.26498500  1
  S  S47  1  0.25821300  0.03226000  0.76498500  1
  S  S48  1  0.00351600  0.81639000  0.77337700  1
  S  S49  1  0.99648400  0.18361000  0.27337700  1
  S  S50  1  0.99648400  0.31639000  0.77337700  1
  S  S51  1  0.00351600  0.68361000  0.27337700  1
  S  S52  1  0.39759200  0.74491000  0.69264700  1
  S  S53  1  0.60240800  0.25509000  0.19264700  1
  S  S54  1  0.60240800  0.24491000  0.69264700  1
  S  S55  1  0.39759200  0.75509000  0.19264700  1
  S  S56  1  0.23086200  0.76403600  0.61028100  1
  S  S57  1  0.76913800  0.23596400  0.11028100  1
  S  S58  1  0.76913800  0.26403600  0.61028100  1
  S  S59  1  0.23086200  0.73596400  0.11028100  1
  S  S60  1  0.04737500  0.96894400  0.62188600  1
  S  S61  1  0.95262500  0.03105600  0.12188600  1
  S  S62  1  0.95262500  0.46894400  0.62188600  1
  S  S63  1  0.04737500  0.53105600  0.12188600  1
  S  S64  1  0.39931200  0.92542100  0.80867400  1
  S  S65  1  0.60068800  0.07457900  0.30867400  1
  S  S66  1  0.60068800  0.42542100  0.80867400  1
  S  S67  1  0.44736300  0.39764400  0.54387000  1
