# generated using pymatgen
data_RbMo2(PO4)3
_symmetry_space_group_name_H-M   'P 1'
_cell_length_a   9.02129900
_cell_length_b   9.46107800
_cell_length_c   12.50370300
_cell_angle_alpha   90.00000000
_cell_angle_beta   90.00000000
_cell_angle_gamma   90.00000000
_symmetry_Int_Tables_number   1
_chemical_formula_structural   RbMo2(PO4)3
_chemical_formula_sum   'Rb4 Mo8 P12 O48'
_cell_volume   1067.20622430
_cell_formula_units_Z   4
loop_
 _symmetry_equiv_pos_site_id
 _symmetry_equiv_pos_as_xyz
  1  'x, y, z'
loop_
 _atom_site_type_symbol
 _atom_site_label
 _atom_site_symmetry_multiplicity
 _atom_site_fract_x
 _atom_site_fract_y
 _atom_site_fract_z
 _atom_site_occupancy
  Rb  Rb0  1  0.18410200  0.83755000  0.75000000  1
  Rb  Rb1  1  0.18410200  0.66245000  0.25000000  1
  Rb  Rb2  1  0.81589800  0.33755000  0.75000000  1
  Rb  Rb3  1  0.81589800  0.16245000  0.25000000  1
  Mo  Mo4  1  0.24712600  0.03016900  0.39986000  1
  Mo  Mo5  1  0.24712600  0.46983100  0.60014000  1
  Mo  Mo6  1  0.75287400  0.53016900  0.10014000  1
  Mo  Mo7  1  0.75287400  0.96983100  0.89986000  1
  Mo  Mo8  1  0.75287400  0.96983100  0.60014000  1
  Mo  Mo9  1  0.75287400  0.53016900  0.39986000  1
  Mo  Mo10  1  0.24712600  0.46983100  0.89986000  1
  Mo  Mo11  1  0.24712600  0.03016900  0.10014000  1
  P  P12  1  0.40889100  0.36029900  0.36979800  1
  P  P13  1  0.40889100  0.13970100  0.63020200  1
  P  P14  1  0.59110900  0.86029900  0.13020200  1
  P  P15  1  0.59110900  0.63970100  0.86979800  1
  P  P16  1  0.59110900  0.63970100  0.63020200  1
  P  P17  1  0.59110900  0.86029900  0.36979800  1
  P  P18  1  0.40889100  0.13970100  0.86979800  1
  P  P19  1  0.40889100  0.36029900  0.13020200  1
  P  P20  1  0.97338800  0.25000000  0.50000000  1
  P  P21  1  0.02661200  0.75000000  0.00000000  1
  P  P22  1  0.02661200  0.75000000  0.50000000  1
  P  P23  1  0.97338800  0.25000000  0.00000000  1
  O  O24  1  0.64010000  0.59097500  0.75000000  1
  O  O25  1  0.64010000  0.90902500  0.25000000  1
  O  O26  1  0.35990000  0.09097500  0.75000000  1
  O  O27  1  0.35990000  0.40902500  0.25000000  1
  O  O28  1  0.06660700  0.16370400  0.41961700  1
  O  O29  1  0.06660700  0.33629600  0.58038300  1
  O  O30  1  0.93339300  0.66370400  0.08038300  1
  O  O31  1  0.93339300  0.83629600  0.91961700  1
  O  O32  1  0.93339300  0.83629600  0.58038300  1
  O  O33  1  0.93339300  0.66370400  0.41961700  1
  O  O34  1  0.06660700  0.33629600  0.91961700  1
  O  O35  1  0.06660700  0.16370400  0.08038300  1
  O  O36  1  0.42804200  0.89372500  0.38423900  1
  O  O37  1  0.42804200  0.60627500  0.61576100  1
  O  O38  1  0.57195800  0.39372500  0.11576100  1
  O  O39  1  0.57195800  0.10627500  0.88423900  1
  O  O40  1  0.57195800  0.10627500  0.61576100  1
  O  O41  1  0.61163900  0.79886000  0.62230600  1
  O  O42  1  0.57195800  0.39372500  0.38423900  1
  O  O43  1  0.42804200  0.89372500  0.11576100  1
  O  O44  1  0.38836100  0.20114000  0.37769400  1
  O  O45  1  0.38836100  0.29886000  0.62230600  1
  O  O46  1  0.61163900  0.70114000  0.12230600  1
  O  O47  1  0.61163900  0.79886000  0.87769400  1
  O  O48  1  0.21239800  0.01814100  0.25000000  1
  O  O49  1  0.21239800  0.48185900  0.75000000  1
  O  O50  1  0.78760200  0.51814100  0.25000000  1
  O  O51  1  0.78760200  0.98185900  0.75000000  1
  O  O52  1  0.12463800  0.84867500  0.06840600  1
  O  O53  1  0.12463800  0.65132500  0.93159400  1
  O  O54  1  0.87536200  0.34867500  0.43159400  1
  O  O55  1  0.87536200  0.15132500  0.56840600  1
  O  O56  1  0.87536200  0.15132500  0.93159400  1
  O  O57  1  0.87536200  0.34867500  0.06840600  1
  O  O58  1  0.12463800  0.65132500  0.56840600  1
  O  O59  1  0.12463800  0.84867500  0.43159400  1
  O  O60  1  0.30139700  0.05065800  0.93725600  1
  O  O61  1  0.30139700  0.44934200  0.06274400  1
  O  O62  1  0.69860300  0.55065800  0.56274400  1
  O  O63  1  0.69860300  0.94934200  0.43725600  1
  O  O64  1  0.69860300  0.94934200  0.06274400  1
  O  O65  1  0.69860300  0.55065800  0.93725600  1
  O  O66  1  0.30139700  0.44934200  0.43725600  1
  O  O67  1  0.30139700  0.05065800  0.56274400  1
  O  O68  1  0.38836100  0.20114000  0.12230600  1
  O  O69  1  0.38836100  0.29886000  0.87769400  1
  O  O70  1  0.61163900  0.70114000  0.37769400  1
  O  O71  1  0.42804200  0.60627500  0.88423900  1
