# generated using pymatgen
data_CaMgV2O7
_symmetry_space_group_name_H-M   'P 1'
_cell_length_a   14.68509600
_cell_length_b   6.84190200
_cell_length_c   11.43823376
_cell_angle_alpha   80.57619941
_cell_angle_beta   90.00000000
_cell_angle_gamma   90.00000000
_symmetry_Int_Tables_number   1
_chemical_formula_structural   CaMgV2O7
_chemical_formula_sum   'Ca8 Mg8 V16 O56'
_cell_volume   1133.73501361
_cell_formula_units_Z   8
loop_
 _symmetry_equiv_pos_site_id
 _symmetry_equiv_pos_as_xyz
  1  'x, y, z'
loop_
 _atom_site_type_symbol
 _atom_site_label
 _atom_site_symmetry_multiplicity
 _atom_site_fract_x
 _atom_site_fract_y
 _atom_site_fract_z
 _atom_site_occupancy
  Ca  Ca0  1  0.87062500  0.67402500  0.97101900  1
  Ca  Ca1  1  0.37062500  0.32597500  0.52898100  1
  Ca  Ca2  1  0.12937500  0.32597500  0.02898100  1
  Ca  Ca3  1  0.62937500  0.67402500  0.47101900  1
  Ca  Ca4  1  0.99211300  0.92231400  0.22811200  1
  Ca  Ca5  1  0.49211300  0.07768600  0.27188800  1
  Ca  Ca6  1  0.00788700  0.07768600  0.77188800  1
  Ca  Ca7  1  0.50788700  0.92231400  0.72811200  1
  Mg  Mg8  1  0.74593000  0.99701000  0.74716000  1
  Mg  Mg9  1  0.24593000  0.00299000  0.75284000  1
  Mg  Mg10  1  0.25407000  0.00299000  0.25284000  1
  Mg  Mg11  1  0.75407000  0.99701000  0.24716000  1
  Mg  Mg12  1  0.82587600  0.36255100  0.57389200  1
  Mg  Mg13  1  0.32587600  0.63744900  0.92610800  1
  Mg  Mg14  1  0.17412400  0.63744900  0.42610800  1
  Mg  Mg15  1  0.67412400  0.36255100  0.07389200  1
  V  V16  1  0.79507600  0.49090600  0.29318100  1
  V  V17  1  0.29507600  0.50909400  0.20681900  1
  V  V18  1  0.20492400  0.50909400  0.70681900  1
  V  V19  1  0.70492400  0.49090600  0.79318100  1
  V  V20  1  0.98641500  0.41589400  0.31272100  1
  V  V21  1  0.48641500  0.58410600  0.18727900  1
  V  V22  1  0.01358500  0.58410600  0.68727900  1
  V  V23  1  0.51358500  0.41589400  0.81272100  1
  V  V24  1  0.13558100  0.13186000  0.48408900  1
  V  V25  1  0.63558100  0.86814000  0.01591100  1
  V  V26  1  0.86441900  0.86814000  0.51591100  1
  V  V27  1  0.36441900  0.13186000  0.98408900  1
  V  V28  1  0.62850800  0.15932000  0.48118500  1
  V  V29  1  0.12850800  0.84068000  0.01881500  1
  V  V30  1  0.37149200  0.84068000  0.51881500  1
  V  V31  1  0.87149200  0.15932000  0.98118500  1
  O  O32  1  0.98165100  0.24046000  0.96151700  1
  O  O33  1  0.48165100  0.75954000  0.53848300  1
  O  O34  1  0.01834900  0.75954000  0.03848300  1
  O  O35  1  0.51834900  0.24046000  0.46151700  1
  O  O36  1  0.85565000  0.01020200  0.87161200  1
  O  O37  1  0.35565000  0.98979800  0.62838800  1
  O  O38  1  0.14435000  0.98979800  0.12838800  1
  O  O39  1  0.64435000  0.01020200  0.37161200  1
  O  O40  1  0.85947500  0.00549800  0.11738400  1
  O  O41  1  0.35947500  0.99450200  0.38261600  1
  O  O42  1  0.14052500  0.99450200  0.88261600  1
  O  O43  1  0.64052500  0.00549800  0.61738400  1
  O  O44  1  0.28682300  0.32190900  0.95570700  1
  O  O45  1  0.78682300  0.67809100  0.54429300  1
  O  O46  1  0.71317700  0.67809100  0.04429300  1
  O  O47  1  0.21317700  0.32190900  0.45570700  1
  O  O48  1  0.36619600  0.04142000  0.13503700  1
  O  O49  1  0.86619600  0.95858000  0.36496300  1
  O  O50  1  0.63380400  0.95858000  0.86496300  1
  O  O51  1  0.13380400  0.04142000  0.63503700  1
  O  O52  1  0.34008500  0.95028900  0.89593400  1
  O  O53  1  0.44348000  0.61271200  0.82171600  1
  O  O54  1  0.84008500  0.04971100  0.60406600  1
  O  O55  1  0.15991500  0.95028900  0.39593400  1
  O  O56  1  0.47966200  0.28016300  0.70850200  1
  O  O57  1  0.97966200  0.71983700  0.79149800  1
  O  O58  1  0.52033800  0.71983700  0.29149800  1
  O  O59  1  0.02033800  0.28016300  0.20850200  1
  O  O60  1  0.47233300  0.23710800  0.94475700  1
  O  O61  1  0.97233300  0.76289200  0.55524300  1
  O  O62  1  0.52766700  0.76289200  0.05524300  1
  O  O63  1  0.02766700  0.23710800  0.44475700  1
  O  O64  1  0.89365400  0.57072000  0.20508900  1
  O  O65  1  0.39365400  0.42928000  0.29491100  1
  O  O66  1  0.10634600  0.42928000  0.79491100  1
  O  O67  1  0.60634600  0.57072000  0.70508900  1
  O  O68  1  0.74924000  0.30733800  0.22447100  1
  O  O69  1  0.24924000  0.69266200  0.27552900  1
  O  O70  1  0.25076000  0.69266200  0.77552900  1
  O  O71  1  0.75076000  0.30733800  0.72447100  1
  O  O72  1  0.70386900  0.36254300  0.46468100  1
  O  O73  1  0.20386900  0.63745700  0.03531900  1
  O  O74  1  0.29613100  0.63745700  0.53531900  1
  O  O75  1  0.79613100  0.36254300  0.96468100  1
  O  O76  1  0.72886200  0.69507600  0.29447600  1
  O  O77  1  0.22886200  0.30492400  0.20552400  1
  O  O78  1  0.27113800  0.30492400  0.70552400  1
  O  O79  1  0.77113800  0.69507600  0.79447600  1
  O  O80  1  0.87746500  0.40217400  0.40871500  1
  O  O81  1  0.37746500  0.59782600  0.09128500  1
  O  O82  1  0.12253500  0.59782600  0.59128500  1
  O  O83  1  0.62253500  0.40217400  0.90871500  1
  O  O84  1  0.05652000  0.61271200  0.32171600  1
  O  O85  1  0.55652000  0.38728800  0.17828400  1
  O  O86  1  0.94348000  0.38728800  0.67828400  1
  O  O87  1  0.65991500  0.04971100  0.10406600  1
