# generated using pymatgen
data_Rb4Ta2S11
_symmetry_space_group_name_H-M   'P 1'
_cell_length_a   7.84373600
_cell_length_b   13.86015100
_cell_length_c   18.66958500
_cell_angle_alpha   90.00000000
_cell_angle_beta   90.00000000
_cell_angle_gamma   90.00000000
_symmetry_Int_Tables_number   1
_chemical_formula_structural   Rb4Ta2S11
_chemical_formula_sum   'Rb16 Ta8 S44'
_cell_volume   2029.67075447
_cell_formula_units_Z   4
loop_
 _symmetry_equiv_pos_site_id
 _symmetry_equiv_pos_as_xyz
  1  'x, y, z'
loop_
 _atom_site_type_symbol
 _atom_site_label
 _atom_site_symmetry_multiplicity
 _atom_site_fract_x
 _atom_site_fract_y
 _atom_site_fract_z
 _atom_site_occupancy
  Rb  Rb0  1  0.81385200  0.08547900  0.02687300  1
  Rb  Rb1  1  0.18614800  0.91452100  0.52687300  1
  Rb  Rb2  1  0.18614800  0.58547900  0.02687300  1
  Rb  Rb3  1  0.81385200  0.41452100  0.52687300  1
  Rb  Rb4  1  0.33071600  0.26905900  0.12674800  1
  Rb  Rb5  1  0.66928400  0.73094100  0.62674800  1
  Rb  Rb6  1  0.66928400  0.76905900  0.12674800  1
  Rb  Rb7  1  0.21028300  0.53966300  0.72870300  1
  Rb  Rb8  1  0.79529000  0.78616600  0.37893200  1
  Rb  Rb9  1  0.20471000  0.21383400  0.87893200  1
  Rb  Rb10  1  0.20471000  0.28616600  0.37893200  1
  Rb  Rb11  1  0.79529000  0.71383400  0.87893200  1
  Rb  Rb12  1  0.33071600  0.23094100  0.62674800  1
  Rb  Rb13  1  0.78971700  0.03966300  0.72870300  1
  Rb  Rb14  1  0.78971700  0.46033700  0.22870300  1
  Rb  Rb15  1  0.21028300  0.96033700  0.22870300  1
  Ta  Ta16  1  0.74124500  0.43702400  0.97060000  1
  Ta  Ta17  1  0.25875500  0.56297600  0.47060000  1
  Ta  Ta18  1  0.25875500  0.93702400  0.97060000  1
  Ta  Ta19  1  0.74124500  0.06297600  0.47060000  1
  Ta  Ta20  1  0.79466700  0.38011300  0.78971600  1
  Ta  Ta21  1  0.20533300  0.61988700  0.28971600  1
  Ta  Ta22  1  0.20533300  0.88011300  0.78971600  1
  Ta  Ta23  1  0.79466700  0.11988700  0.28971600  1
  S  S24  1  0.74817000  0.57660700  0.03287900  1
  S  S25  1  0.25183000  0.42339300  0.53287900  1
  S  S26  1  0.25183000  0.07660700  0.03287900  1
  S  S27  1  0.74817000  0.92339300  0.53287900  1
  S  S28  1  0.54226400  0.47799500  0.87117300  1
  S  S29  1  0.45773600  0.52200500  0.37117300  1
  S  S30  1  0.45773600  0.97799500  0.87117300  1
  S  S31  1  0.54226400  0.02200500  0.37117300  1
  S  S32  1  0.01424900  0.18400200  0.22764700  1
  S  S33  1  0.98575100  0.81599800  0.72764700  1
  S  S34  1  0.98575100  0.68400200  0.22764700  1
  S  S35  1  0.01424900  0.31599800  0.72764700  1
  S  S36  1  0.60199000  0.25795500  0.30709200  1
  S  S37  1  0.39801000  0.74204500  0.80709200  1
  S  S38  1  0.39801000  0.75795500  0.30709200  1
  S  S39  1  0.60199000  0.24204500  0.80709200  1
  S  S40  1  0.77259000  0.23646100  0.39158500  1
  S  S41  1  0.25125700  0.03896800  0.73403300  1
  S  S42  1  0.22741000  0.73646100  0.39158500  1
  S  S43  1  0.77259000  0.26353900  0.89158500  1
  S  S44  1  0.96271500  0.02368200  0.37868500  1
  S  S45  1  0.03728500  0.97631800  0.87868500  1
  S  S46  1  0.03728500  0.52368200  0.37868500  1
  S  S47  1  0.96271500  0.47631800  0.87868500  1
  S  S48  1  0.60428100  0.07118700  0.18761300  1
  S  S49  1  0.39571900  0.92881300  0.68761300  1
  S  S50  1  0.39571900  0.57118700  0.18761300  1
  S  S51  1  0.60428100  0.42881300  0.68761300  1
  S  S52  1  0.74874300  0.96103200  0.23403300  1
  S  S53  1  0.73942000  0.32288000  0.07505500  1
  S  S54  1  0.25125700  0.46103200  0.23403300  1
  S  S55  1  0.74874300  0.53896800  0.73403300  1
  S  S56  1  0.43549800  0.09832600  0.45670500  1
  S  S57  1  0.56450200  0.90167400  0.95670500  1
  S  S58  1  0.56450200  0.59832600  0.45670500  1
  S  S59  1  0.43549800  0.40167400  0.95670500  1
  S  S60  1  0.97377500  0.15921000  0.52405900  1
  S  S61  1  0.02622500  0.84079000  0.02405900  1
  S  S62  1  0.02622500  0.65921000  0.52405900  1
  S  S63  1  0.97377500  0.34079000  0.02405900  1
  S  S64  1  0.73942000  0.17712000  0.57505500  1
  S  S65  1  0.26058000  0.82288000  0.07505500  1
  S  S66  1  0.26058000  0.67712000  0.57505500  1
  S  S67  1  0.22741000  0.76353900  0.89158500  1
