data_image0
_chemical_formula_structural       P4RuSi4
_chemical_formula_sum              "P4 Ru1 Si4"
_cell_length_a       4.96539
_cell_length_b       5.66695
_cell_length_c       6.20062
_cell_angle_alpha    85.4956
_cell_angle_beta     68.2363
_cell_angle_gamma    70.6867

_space_group_name_H-M_alt    "P 1"
_space_group_IT_number       1

loop_
  _space_group_symop_operation_xyz
  'x, y, z'

loop_
  _atom_site_type_symbol
  _atom_site_label
  _atom_site_symmetry_multiplicity
  _atom_site_fract_x
  _atom_site_fract_y
  _atom_site_fract_z
  _atom_site_occupancy
  P   P1        1.0  0.62200  0.41100  0.12200  1.0000
  P   P2        1.0  0.16000  0.01560  0.31900  1.0000
  P   P3        1.0  0.76600  0.64200  0.56400  1.0000
  P   P4        1.0  0.34200  0.22700  0.75900  1.0000
  Ru  Ru1       1.0  0.00000  0.00036  0.00000  1.0000
  Si  Si1       1.0  0.67100  0.77500  0.22600  1.0000
  Si  Si2       1.0  0.23800  0.34400  0.43200  1.0000
  Si  Si3       1.0  0.84400  0.97200  0.69000  1.0000
  Si  Si4       1.0  0.35800  0.59500  0.88000  1.0000
