# generated using pymatgen
data_SiO2
_symmetry_space_group_name_H-M   'P 1'
_cell_length_a   12.54300566
_cell_length_b   12.54300566
_cell_length_c   12.54300566
_cell_angle_alpha   144.86733710
_cell_angle_beta   110.23280106
_cell_angle_gamma   80.58076232
_symmetry_Int_Tables_number   1
_chemical_formula_structural   SiO2
_chemical_formula_sum   'Si18 O36'
_cell_volume   1039.25976712
_cell_formula_units_Z   18
loop_
 _symmetry_equiv_pos_site_id
 _symmetry_equiv_pos_as_xyz
  1  'x, y, z'
loop_
 _atom_site_type_symbol
 _atom_site_label
 _atom_site_symmetry_multiplicity
 _atom_site_fract_x
 _atom_site_fract_y
 _atom_site_fract_z
 _atom_site_occupancy
  Si  Si0  1  0.22655200  0.02018300  0.79363100  1
  Si  Si1  1  0.77344800  0.56707900  0.79363100  1
  Si  Si2  1  0.77344800  0.97981700  0.20636900  1
  Si  Si3  1  0.22655200  0.43292100  0.20636900  1
  Si  Si4  1  0.34611400  0.84611400  0.50000000  1
  Si  Si5  1  0.65388600  0.15388600  0.50000000  1
  Si  Si6  1  0.38285500  0.08371600  0.29913900  1
  Si  Si7  1  0.61714500  0.91628400  0.70086100  1
  Si  Si8  1  0.21542300  0.91628400  0.29913900  1
  Si  Si9  1  0.78457700  0.08371600  0.70086100  1
  Si  Si10  1  0.97328000  0.88154400  0.50448900  1
  Si  Si11  1  0.02672000  0.53120900  0.90826400  1
  Si  Si12  1  0.62294500  0.11845600  0.09173600  1
  Si  Si13  1  0.37705500  0.46879100  0.49551100  1
  Si  Si14  1  0.02672000  0.11845600  0.49551100  1
  Si  Si15  1  0.97328000  0.46879100  0.09173600  1
  Si  Si16  1  0.37705500  0.88154400  0.90826400  1
  Si  Si17  1  0.62294500  0.53120900  0.50448900  1
  O  O18  1  0.70241400  0.37878600  0.67637200  1
  O  O19  1  0.29758600  0.97395900  0.67637200  1
  O  O20  1  0.29758600  0.62121400  0.32362800  1
  O  O21  1  0.70241400  0.02604100  0.32362800  1
  O  O22  1  0.50000000  0.00000000  0.00000000  1
  O  O23  1  0.50000000  0.50000000  0.50000000  1
  O  O24  1  0.00000000  0.00000000  0.50000000  1
  O  O25  1  0.00000000  0.50000000  0.00000000  1
  O  O26  1  0.37325900  0.65577600  0.71748300  1
  O  O27  1  0.62674100  0.34422400  0.28251700  1
  O  O28  1  0.06170600  0.34422400  0.71748300  1
  O  O29  1  0.93829400  0.65577600  0.28251700  1
  O  O30  1  0.86495300  0.93766200  0.57437700  1
  O  O31  1  0.13504700  0.70942400  0.07270900  1
  O  O32  1  0.63671500  0.06233800  0.92729100  1
  O  O33  1  0.13504700  0.06233800  0.42562300  1
  O  O34  1  0.86495300  0.29057600  0.92729100  1
  O  O35  1  0.36328500  0.93766200  0.07270900  1
  O  O36  1  0.63671500  0.70942400  0.57437700  1
  O  O37  1  0.28883900  0.00000000  0.28883900  1
  O  O38  1  0.71116100  0.00000000  0.71116100  1
  O  O39  1  0.75002000  0.75002000  0.00000000  1
  O  O40  1  0.24998000  0.24998000  0.00000000  1
  O  O41  1  0.72984400  0.57076200  0.65887300  1
  O  O42  1  0.27015600  0.92902800  0.84091800  1
  O  O43  1  0.08811000  0.42923800  0.15908200  1
  O  O44  1  0.91189000  0.07097200  0.34112700  1
  O  O45  1  0.27015600  0.42923800  0.34112700  1
  O  O46  1  0.72984400  0.07097200  0.15908200  1
  O  O47  1  0.91189000  0.57076200  0.84091800  1
  O  O48  1  0.08811000  0.92902800  0.65887300  1
  O  O49  1  0.30449900  0.89569400  0.40880400  1
  O  O50  1  0.69550100  0.10430600  0.59119600  1
  O  O51  1  0.51311000  0.10430600  0.40880400  1
  O  O52  1  0.48689000  0.89569400  0.59119600  1
  O  O53  1  0.36328500  0.29057600  0.42562300  1
