# generated using pymatgen
data_HgTe
_symmetry_space_group_name_H-M   'P 1'
_cell_length_a   4.57982103
_cell_length_b   4.57982103
_cell_length_c   5.79815700
_cell_angle_alpha   90.00000000
_cell_angle_beta   90.00000000
_cell_angle_gamma   98.40103865
_symmetry_Int_Tables_number   1
_chemical_formula_structural   HgTe
_chemical_formula_sum   'Hg2 Te2'
_cell_volume   120.30998858
_cell_formula_units_Z   2
loop_
 _symmetry_equiv_pos_site_id
 _symmetry_equiv_pos_as_xyz
  1  'x, y, z'
loop_
 _atom_site_type_symbol
 _atom_site_label
 _atom_site_symmetry_multiplicity
 _atom_site_fract_x
 _atom_site_fract_y
 _atom_site_fract_z
 _atom_site_occupancy
  Hg  Hg0  1  0.34305000  0.65695000  0.25000000  1
  Hg  Hg1  1  0.65695000  0.34305000  0.75000000  1
  Te  Te2  1  0.78480900  0.21519100  0.25000000  1
  Te  Te3  1  0.21519100  0.78480900  0.75000000  1
