# generated using pymatgen
data_Li7Mn4CoO12
_symmetry_space_group_name_H-M   'P 1'
_cell_length_a   5.87417122
_cell_length_b   5.95410742
_cell_length_c   12.68271088
_cell_angle_alpha   103.19435998
_cell_angle_beta   88.79473906
_cell_angle_gamma   92.14963053
_symmetry_Int_Tables_number   1
_chemical_formula_structural   Li7Mn4CoO12
_chemical_formula_sum   'Li14 Mn8 Co2 O24'
_cell_volume   431.53409808
_cell_formula_units_Z   2
loop_
 _symmetry_equiv_pos_site_id
 _symmetry_equiv_pos_as_xyz
  1  'x, y, z'
loop_
 _atom_site_type_symbol
 _atom_site_label
 _atom_site_symmetry_multiplicity
 _atom_site_fract_x
 _atom_site_fract_y
 _atom_site_fract_z
 _atom_site_occupancy
  Li  Li0  1  0.25017700  0.66667200  0.83339400  1
  Li  Li1  1  0.74982700  0.66666600  0.83327300  1
  Li  Li2  1  0.99999900  0.16666800  0.33333200  1
  Li  Li3  1  0.50000200  0.16666700  0.33333200  1
  Li  Li4  1  0.25014300  0.16662700  0.83338800  1
  Li  Li5  1  0.74986100  0.16670600  0.83328000  1
  Li  Li6  1  0.00379700  0.47842900  0.98188400  1
  Li  Li7  1  0.50383700  0.47879200  0.98291200  1
  Li  Li8  1  0.99620600  0.85490700  0.68478100  1
  Li  Li9  1  0.49616600  0.85453800  0.68375600  1
  Li  Li10  1  0.25208800  0.33437400  0.16707300  1
  Li  Li11  1  0.74683500  0.33318800  0.16795200  1
  Li  Li12  1  0.25317000  0.00014600  0.49871300  1
  Li  Li13  1  0.74791500  0.99896500  0.49959200  1
  Mn  Mn14  1  0.99312000  0.00213500  0.99286500  1
  Mn  Mn15  1  0.00688300  0.33120900  0.67380500  1
  Mn  Mn16  1  0.25328900  0.83358700  0.16830700  1
  Mn  Mn17  1  0.74670100  0.49975000  0.49836000  1
  Mn  Mn18  1  0.49357900  0.00209500  0.99226000  1
  Mn  Mn19  1  0.50642900  0.33122400  0.67441000  1
  Mn  Mn20  1  0.74888200  0.83074600  0.16708700  1
  Mn  Mn21  1  0.25110800  0.50258400  0.49957900  1
  Co  Co22  1  0.49999800  0.66666600  0.33333200  1
  Co  Co23  1  0.00000000  0.66666600  0.33333300  1
  O  O24  1  0.25067900  0.22201000  0.00021700  1
  O  O25  1  0.75170000  0.22186500  0.99986800  1
  O  O26  1  0.24830100  0.11146600  0.66679800  1
  O  O27  1  0.74932300  0.11132100  0.66645000  1
  O  O28  1  0.48267300  0.06789300  0.15701900  1
  O  O29  1  0.97861900  0.06762400  0.15993100  1
  O  O30  1  0.02137600  0.26571000  0.50673600  1
  O  O31  1  0.51732500  0.26543700  0.50964900  1
  O  O32  1  0.50120100  0.41195500  0.82124200  1
  O  O33  1  0.00043600  0.41178400  0.82054700  1
  O  O34  1  0.99957000  0.92155100  0.84611700  1
  O  O35  1  0.49880200  0.92137600  0.84542700  1
  O  O36  1  0.26247700  0.55467800  0.66384700  1
  O  O37  1  0.76345100  0.55447500  0.66217300  1
  O  O38  1  0.23654900  0.77885900  0.00449400  1
  O  O39  1  0.73752400  0.77865400  0.00282100  1
  O  O40  1  0.47860400  0.73920900  0.49285300  1
  O  O41  1  0.98086400  0.73573400  0.48969500  1
  O  O42  1  0.01913100  0.59759900  0.17697200  1
  O  O43  1  0.52138800  0.59412100  0.17381200  1
  O  O44  1  0.27598000  0.90062200  0.32754800  1
  O  O45  1  0.75611000  0.88536500  0.33007100  1
  O  O46  1  0.24388700  0.44796800  0.33659700  1
  O  O47  1  0.72401800  0.43271500  0.33911600  1
