# generated using pymatgen
data_NaY(SeO3)4
_symmetry_space_group_name_H-M   'P 1'
_cell_length_a   5.39530425
_cell_length_b   5.39530425
_cell_length_c   7.62614404
_cell_angle_alpha   90.00000000
_cell_angle_beta   90.00000000
_cell_angle_gamma   90.00000000
_symmetry_Int_Tables_number   1
_chemical_formula_structural   NaY(SeO3)4
_chemical_formula_sum   'Na1 Y1 Se4 O12'
_cell_volume   221.99177533
_cell_formula_units_Z   1
loop_
 _symmetry_equiv_pos_site_id
 _symmetry_equiv_pos_as_xyz
  1  'x, y, z'
loop_
 _atom_site_type_symbol
 _atom_site_label
 _atom_site_symmetry_multiplicity
 _atom_site_fract_x
 _atom_site_fract_y
 _atom_site_fract_z
 _atom_site_occupancy
  Na  Na0  1  0.50000000  0.50000000  0.50000000  1
  Y  Y1  1  0.00000000  -0.00000000  -0.00000000  1
  Se  Se2  1  -0.00000000  0.50000000  0.74572401  1
  Se  Se3  1  0.00000000  0.50000000  0.25427599  1
  Se  Se4  1  0.50000000  -0.00000000  0.74572401  1
  Se  Se5  1  0.50000000  -0.00000000  0.25427599  1
  O  O6  1  0.24058110  0.24058110  0.77119561  1
  O  O7  1  0.24058110  0.24058110  0.22880439  1
  O  O8  1  0.75941890  0.75941890  0.22880439  1
  O  O9  1  0.75941890  0.75941890  0.77119561  1
  O  O10  1  0.75941890  0.24058110  0.22880439  1
  O  O11  1  0.75941890  0.24058110  0.77119561  1
  O  O12  1  0.24058110  0.75941890  0.22880439  1
  O  O13  1  0.24058110  0.75941890  0.77119561  1
  O  O14  1  -0.00000000  0.50000000  0.50000000  1
  O  O15  1  -0.00000000  0.50000000  0.00000000  1
  O  O16  1  0.50000000  0.00000000  0.50000000  1
  O  O17  1  0.50000000  -0.00000000  0.00000000  1
