# generated using pymatgen
data_CaZn(GeO3)4
_symmetry_space_group_name_H-M   'P 1'
_cell_length_a   5.21622646
_cell_length_b   5.21622646
_cell_length_c   7.53392876
_cell_angle_alpha   90.00000000
_cell_angle_beta   90.00000000
_cell_angle_gamma   87.43538195
_symmetry_Int_Tables_number   1
_chemical_formula_structural   CaZn(GeO3)4
_chemical_formula_sum   'Ca1 Zn1 Ge4 O12'
_cell_volume   204.78548688
_cell_formula_units_Z   1
loop_
 _symmetry_equiv_pos_site_id
 _symmetry_equiv_pos_as_xyz
  1  'x, y, z'
loop_
 _atom_site_type_symbol
 _atom_site_label
 _atom_site_symmetry_multiplicity
 _atom_site_fract_x
 _atom_site_fract_y
 _atom_site_fract_z
 _atom_site_occupancy
  Ca  Ca0  1  0.52977043  0.47022957  0.50000000  1
  Zn  Zn1  1  0.97576181  0.02423819  0.00000000  1
  Ge  Ge2  1  0.48554834  0.98675719  0.23932867  1
  Ge  Ge3  1  0.48554834  0.98675719  0.76067133  1
  Ge  Ge4  1  0.01324281  0.51445166  0.76067133  1
  Ge  Ge5  1  0.01324281  0.51445166  0.23932867  1
  O  O6  1  0.30454700  0.30030694  0.26110176  1
  O  O7  1  0.69969306  0.69545300  0.26110176  1
  O  O8  1  0.69969306  0.69545300  0.73889824  1
  O  O9  1  0.30454700  0.30030694  0.73889824  1
  O  O10  1  0.17989353  0.82010647  0.18925766  1
  O  O11  1  0.77984420  0.22015580  0.28904828  1
  O  O12  1  0.77984420  0.22015580  0.71095172  1
  O  O13  1  0.17989353  0.82010647  0.81074234  1
  O  O14  1  0.58959307  0.01694995  0.00000000  1
  O  O15  1  0.45382540  0.94863862  0.50000000  1
  O  O16  1  0.98305005  0.41040693  0.00000000  1
  O  O17  1  0.05136138  0.54617460  0.50000000  1
