# generated using pymatgen
data_SrEuNb4O12
_symmetry_space_group_name_H-M   'P 1'
_cell_length_a   5.64835829
_cell_length_b   5.64835829
_cell_length_c   8.01598403
_cell_angle_alpha   90.00000000
_cell_angle_beta   90.00000000
_cell_angle_gamma   89.45835545
_symmetry_Int_Tables_number   1
_chemical_formula_structural   SrEuNb4O12
_chemical_formula_sum   'Sr1 Eu1 Nb4 O12'
_cell_volume   255.73013751
_cell_formula_units_Z   1
loop_
 _symmetry_equiv_pos_site_id
 _symmetry_equiv_pos_as_xyz
  1  'x, y, z'
loop_
 _atom_site_type_symbol
 _atom_site_label
 _atom_site_symmetry_multiplicity
 _atom_site_fract_x
 _atom_site_fract_y
 _atom_site_fract_z
 _atom_site_occupancy
  Sr  Sr0  1  0.00879964  0.00879964  0.00000000  1
  Eu  Eu1  1  0.49056777  0.49056777  0.50000000  1
  Nb  Nb2  1  0.50088630  0.99812798  0.74973326  1
  Nb  Nb3  1  0.50088630  0.99812798  0.25026674  1
  Nb  Nb4  1  0.99812798  0.50088630  0.25026674  1
  Nb  Nb5  1  0.99812798  0.50088630  0.74973326  1
  O  O6  1  0.71915027  0.28068707  0.74562651  1
  O  O7  1  0.28068707  0.71915027  0.74562651  1
  O  O8  1  0.28068707  0.71915027  0.25437349  1
  O  O9  1  0.71915027  0.28068707  0.25437349  1
  O  O10  1  0.78075188  0.78075188  0.78057609  1
  O  O11  1  0.22574955  0.22574955  0.72037533  1
  O  O12  1  0.22574955  0.22574955  0.27962467  1
  O  O13  1  0.78075188  0.78075188  0.21942391  1
  O  O14  1  0.46609490  0.02391816  0.00000000  1
  O  O15  1  0.53006273  0.96745069  0.50000000  1
  O  O16  1  0.02391816  0.46609490  0.00000000  1
  O  O17  1  0.96745069  0.53006273  0.50000000  1
