# generated using pymatgen
data_CaNdTi4O12
_symmetry_space_group_name_H-M   'P 1'
_cell_length_a   5.46107396
_cell_length_b   5.46107396
_cell_length_c   7.76237209
_cell_angle_alpha   90.00000000
_cell_angle_beta   90.00000000
_cell_angle_gamma   90.40599828
_symmetry_Int_Tables_number   1
_chemical_formula_structural   CaNdTi4O12
_chemical_formula_sum   'Ca1 Nd1 Ti4 O12'
_cell_volume   231.49396279
_cell_formula_units_Z   1
loop_
 _symmetry_equiv_pos_site_id
 _symmetry_equiv_pos_as_xyz
  1  'x, y, z'
loop_
 _atom_site_type_symbol
 _atom_site_label
 _atom_site_symmetry_multiplicity
 _atom_site_fract_x
 _atom_site_fract_y
 _atom_site_fract_z
 _atom_site_occupancy
  Ca  Ca0  1  0.48322097  0.51677903  -0.00000000  1
  Nd  Nd1  1  0.02154046  0.97845954  0.50000000  1
  Ti  Ti2  1  0.50742120  0.00745657  0.24620282  1
  Ti  Ti3  1  0.50742120  0.00745657  0.75379718  1
  Ti  Ti4  1  0.99254343  0.49257880  0.75379718  1
  Ti  Ti5  1  0.99254343  0.49257880  0.24620282  1
  O  O6  1  0.27493354  0.27740766  0.24345809  1
  O  O7  1  0.72259234  0.72506646  0.24345809  1
  O  O8  1  0.72259234  0.72506646  0.75654191  1
  O  O9  1  0.27493354  0.27740766  0.75654191  1
  O  O10  1  0.22687400  0.77312600  0.23490142  1
  O  O11  1  0.78747153  0.21252847  0.28997667  1
  O  O12  1  0.78747153  0.21252847  0.71002333  1
  O  O13  1  0.22687400  0.77312600  0.76509858  1
  O  O14  1  0.52602025  0.03814579  -0.00000000  1
  O  O15  1  0.46287510  0.98648307  0.50000000  1
  O  O16  1  0.96185421  0.47397975  -0.00000000  1
  O  O17  1  0.01351693  0.53712490  0.50000000  1
