# generated using pymatgen
data_KCaTbBiO6
_symmetry_space_group_name_H-M   'P 1'
_cell_length_a   8.53590290
_cell_length_b   8.54157365
_cell_length_c   8.61920581
_cell_angle_alpha   90.00000000
_cell_angle_beta   90.00000000
_cell_angle_gamma   90.00000000
_symmetry_Int_Tables_number   1
_chemical_formula_structural   KCaTbBiO6
_chemical_formula_sum   'K4 Ca4 Tb4 Bi4 O24'
_cell_volume   628.42666873
_cell_formula_units_Z   4
loop_
 _symmetry_equiv_pos_site_id
 _symmetry_equiv_pos_as_xyz
  1  'x, y, z'
loop_
 _atom_site_type_symbol
 _atom_site_label
 _atom_site_symmetry_multiplicity
 _atom_site_fract_x
 _atom_site_fract_y
 _atom_site_fract_z
 _atom_site_occupancy
  K  K0  1  0.50000000  -0.00000000  0.50000000  1
  K  K1  1  0.50000000  0.50000000  -0.00000000  1
  K  K2  1  0.00000000  0.50000000  -0.00000000  1
  K  K3  1  -0.00000000  -0.00000000  0.50000000  1
  Ca  Ca4  1  0.00000000  0.50000000  0.50000000  1
  Ca  Ca5  1  0.50000000  0.00000000  -0.00000000  1
  Ca  Ca6  1  0.00000000  -0.00000000  -0.00000000  1
  Ca  Ca7  1  0.50000000  0.50000000  0.50000000  1
  Tb  Tb8  1  0.25000000  0.25000000  0.25000000  1
  Tb  Tb9  1  0.75000000  0.75000000  0.25000000  1
  Tb  Tb10  1  0.75000000  0.25000000  0.75000000  1
  Tb  Tb11  1  0.25000000  0.75000000  0.75000000  1
  Bi  Bi12  1  0.75000000  0.75000000  0.75000000  1
  Bi  Bi13  1  0.25000000  0.25000000  0.75000000  1
  Bi  Bi14  1  0.25000000  0.75000000  0.25000000  1
  Bi  Bi15  1  0.75000000  0.25000000  0.25000000  1
  O  O16  1  0.99257066  0.21685053  0.27246282  1
  O  O17  1  0.00742934  0.78314947  0.27246282  1
  O  O18  1  0.00742934  0.21685053  0.72753718  1
  O  O19  1  0.99257066  0.78314947  0.72753718  1
  O  O20  1  0.28315598  0.99214502  0.19510969  1
  O  O21  1  0.28315598  0.00785498  0.80489031  1
  O  O22  1  0.71684402  0.00785498  0.19510969  1
  O  O23  1  0.71684402  0.99214502  0.80489031  1
  O  O24  1  0.21515233  0.26538376  0.99263339  1
  O  O25  1  0.78484767  0.26538376  0.00736661  1
  O  O26  1  0.21515233  0.73461624  0.00736661  1
  O  O27  1  0.78484767  0.73461624  0.99263339  1
  O  O28  1  0.50742934  0.28314947  0.22753718  1
  O  O29  1  0.49257066  0.71685053  0.22753718  1
  O  O30  1  0.49257066  0.28314947  0.77246282  1
  O  O31  1  0.50742934  0.71685053  0.77246282  1
  O  O32  1  0.21684402  0.50785498  0.30489031  1
  O  O33  1  0.21684402  0.49214502  0.69510969  1
  O  O34  1  0.78315598  0.49214502  0.30489031  1
  O  O35  1  0.78315598  0.50785498  0.69510969  1
  O  O36  1  0.28484767  0.23461624  0.50736661  1
  O  O37  1  0.71515233  0.23461624  0.49263339  1
  O  O38  1  0.28484767  0.76538376  0.49263339  1
  O  O39  1  0.71515233  0.76538376  0.50736661  1
