# generated using pymatgen
data_KEuZrBiO6
_symmetry_space_group_name_H-M   'P 1'
_cell_length_a   8.41353879
_cell_length_b   8.50422548
_cell_length_c   8.46305809
_cell_angle_alpha   90.00000000
_cell_angle_beta   90.00000000
_cell_angle_gamma   90.00000000
_symmetry_Int_Tables_number   1
_chemical_formula_structural   KEuZrBiO6
_chemical_formula_sum   'K4 Eu4 Zr4 Bi4 O24'
_cell_volume   605.53714615
_cell_formula_units_Z   4
loop_
 _symmetry_equiv_pos_site_id
 _symmetry_equiv_pos_as_xyz
  1  'x, y, z'
loop_
 _atom_site_type_symbol
 _atom_site_label
 _atom_site_symmetry_multiplicity
 _atom_site_fract_x
 _atom_site_fract_y
 _atom_site_fract_z
 _atom_site_occupancy
  K  K0  1  0.50000000  0.00000000  0.50000000  1
  K  K1  1  0.50000000  0.50000000  -0.00000000  1
  K  K2  1  0.00000000  0.50000000  -0.00000000  1
  K  K3  1  0.00000000  0.00000000  0.50000000  1
  Eu  Eu4  1  -0.00000000  0.50000000  0.50000000  1
  Eu  Eu5  1  0.50000000  0.00000000  -0.00000000  1
  Eu  Eu6  1  0.00000000  0.00000000  -0.00000000  1
  Eu  Eu7  1  0.50000000  0.50000000  0.50000000  1
  Zr  Zr8  1  0.25000000  0.25000000  0.25000000  1
  Zr  Zr9  1  0.75000000  0.75000000  0.25000000  1
  Zr  Zr10  1  0.75000000  0.25000000  0.75000000  1
  Zr  Zr11  1  0.25000000  0.75000000  0.75000000  1
  Bi  Bi12  1  0.75000000  0.75000000  0.75000000  1
  Bi  Bi13  1  0.25000000  0.25000000  0.75000000  1
  Bi  Bi14  1  0.25000000  0.75000000  0.25000000  1
  Bi  Bi15  1  0.75000000  0.25000000  0.25000000  1
  O  O16  1  0.00348758  0.23225267  0.26580058  1
  O  O17  1  0.99651242  0.76774733  0.26580058  1
  O  O18  1  0.99651242  0.23225267  0.73419942  1
  O  O19  1  0.00348758  0.76774733  0.73419942  1
  O  O20  1  0.26889802  0.00244379  0.21168898  1
  O  O21  1  0.26889802  0.99755621  0.78831102  1
  O  O22  1  0.73110198  0.99755621  0.21168898  1
  O  O23  1  0.73110198  0.00244379  0.78831102  1
  O  O24  1  0.22973785  0.25254494  0.00347998  1
  O  O25  1  0.77026215  0.25254494  0.99652002  1
  O  O26  1  0.22973785  0.74745506  0.99652002  1
  O  O27  1  0.77026215  0.74745506  0.00347998  1
  O  O28  1  0.49651242  0.26774733  0.23419942  1
  O  O29  1  0.50348758  0.73225267  0.23419942  1
  O  O30  1  0.50348758  0.26774733  0.76580058  1
  O  O31  1  0.49651242  0.73225267  0.76580058  1
  O  O32  1  0.23110198  0.49755621  0.28831102  1
  O  O33  1  0.23110198  0.50244379  0.71168898  1
  O  O34  1  0.76889802  0.50244379  0.28831102  1
  O  O35  1  0.76889802  0.49755621  0.71168898  1
  O  O36  1  0.27026215  0.24745506  0.49652002  1
  O  O37  1  0.72973785  0.24745506  0.50347998  1
  O  O38  1  0.27026215  0.75254494  0.50347998  1
  O  O39  1  0.72973785  0.75254494  0.49652002  1
