# generated using pymatgen
data_KNdMn4O12
_symmetry_space_group_name_H-M   'P 1'
_cell_length_a   5.38912416
_cell_length_b   5.38912416
_cell_length_c   7.65614303
_cell_angle_alpha   90.00000000
_cell_angle_beta   90.00000000
_cell_angle_gamma   89.42292713
_symmetry_Int_Tables_number   1
_chemical_formula_structural   KNdMn4O12
_chemical_formula_sum   'K1 Nd1 Mn4 O12'
_cell_volume   222.34347463
_cell_formula_units_Z   1
loop_
 _symmetry_equiv_pos_site_id
 _symmetry_equiv_pos_as_xyz
  1  'x, y, z'
loop_
 _atom_site_type_symbol
 _atom_site_label
 _atom_site_symmetry_multiplicity
 _atom_site_fract_x
 _atom_site_fract_y
 _atom_site_fract_z
 _atom_site_occupancy
  K  K0  1  0.00557916  0.00557916  -0.00000000  1
  Nd  Nd1  1  0.49140097  0.49140097  0.50000000  1
  Mn  Mn2  1  0.49974049  0.99870921  0.75687131  1
  Mn  Mn3  1  0.49974049  0.99870921  0.24312869  1
  Mn  Mn4  1  0.99870921  0.49974049  0.24312869  1
  Mn  Mn5  1  0.99870921  0.49974049  0.75687131  1
  O  O6  1  0.75759128  0.24228153  0.73142296  1
  O  O7  1  0.24228153  0.75759128  0.73142296  1
  O  O8  1  0.24228153  0.75759128  0.26857704  1
  O  O9  1  0.75759128  0.24228153  0.26857704  1
  O  O10  1  0.72405950  0.72405950  0.72152321  1
  O  O11  1  0.28141223  0.28141223  0.75746466  1
  O  O12  1  0.28141223  0.28141223  0.24253534  1
  O  O13  1  0.72405950  0.72405950  0.27847679  1
  O  O14  1  0.51702134  0.97475438  0.00000000  1
  O  O15  1  0.48090179  0.02345385  0.50000000  1
  O  O16  1  0.97475438  0.51702134  0.00000000  1
  O  O17  1  0.02345385  0.48090179  0.50000000  1
