# generated using pymatgen
data_BaNaNbBiO6
_symmetry_space_group_name_H-M   'P 1'
_cell_length_a   8.44553526
_cell_length_b   8.41957742
_cell_length_c   8.46021457
_cell_angle_alpha   90.00000000
_cell_angle_beta   90.00000000
_cell_angle_gamma   90.00000000
_symmetry_Int_Tables_number   1
_chemical_formula_structural   BaNaNbBiO6
_chemical_formula_sum   'Ba4 Na4 Nb4 Bi4 O24'
_cell_volume   601.58756688
_cell_formula_units_Z   4
loop_
 _symmetry_equiv_pos_site_id
 _symmetry_equiv_pos_as_xyz
  1  'x, y, z'
loop_
 _atom_site_type_symbol
 _atom_site_label
 _atom_site_symmetry_multiplicity
 _atom_site_fract_x
 _atom_site_fract_y
 _atom_site_fract_z
 _atom_site_occupancy
  Ba  Ba0  1  -0.00000000  0.00000000  0.00000000  1
  Ba  Ba1  1  0.50000000  0.50000000  0.50000000  1
  Ba  Ba2  1  -0.00000000  0.50000000  0.50000000  1
  Ba  Ba3  1  0.50000000  0.00000000  0.00000000  1
  Na  Na4  1  0.50000000  0.00000000  0.50000000  1
  Na  Na5  1  0.50000000  0.50000000  0.00000000  1
  Na  Na6  1  -0.00000000  0.50000000  0.00000000  1
  Na  Na7  1  -0.00000000  0.00000000  0.50000000  1
  Nb  Nb8  1  0.25000000  0.25000000  0.25000000  1
  Nb  Nb9  1  0.75000000  0.75000000  0.25000000  1
  Nb  Nb10  1  0.75000000  0.25000000  0.75000000  1
  Nb  Nb11  1  0.25000000  0.75000000  0.75000000  1
  Bi  Bi12  1  0.75000000  0.75000000  0.75000000  1
  Bi  Bi13  1  0.25000000  0.25000000  0.75000000  1
  Bi  Bi14  1  0.25000000  0.75000000  0.25000000  1
  Bi  Bi15  1  0.75000000  0.25000000  0.25000000  1
  O  O16  1  0.01394796  0.23136520  0.26935780  1
  O  O17  1  0.98605204  0.76863480  0.26935780  1
  O  O18  1  0.98605204  0.23136520  0.73064220  1
  O  O19  1  0.01394796  0.76863480  0.73064220  1
  O  O20  1  0.26512451  0.01342199  0.22790250  1
  O  O21  1  0.26512451  0.98657801  0.77209750  1
  O  O22  1  0.73487549  0.98657801  0.22790250  1
  O  O23  1  0.73487549  0.01342199  0.77209750  1
  O  O24  1  0.23009098  0.26066173  0.01378535  1
  O  O25  1  0.76990902  0.26066173  0.98621465  1
  O  O26  1  0.23009098  0.73933827  0.98621465  1
  O  O27  1  0.76990902  0.73933827  0.01378535  1
  O  O28  1  0.48605204  0.26863480  0.23064220  1
  O  O29  1  0.51394796  0.73136520  0.23064220  1
  O  O30  1  0.51394796  0.26863480  0.76935780  1
  O  O31  1  0.48605204  0.73136520  0.76935780  1
  O  O32  1  0.23487549  0.48657801  0.27209750  1
  O  O33  1  0.23487549  0.51342199  0.72790250  1
  O  O34  1  0.76512451  0.51342199  0.27209750  1
  O  O35  1  0.76512451  0.48657801  0.72790250  1
  O  O36  1  0.26990902  0.23933827  0.48621465  1
  O  O37  1  0.73009098  0.23933827  0.51378535  1
  O  O38  1  0.26990902  0.76066173  0.51378535  1
  O  O39  1  0.73009098  0.76066173  0.48621465  1
