# generated using pymatgen
data_BaSrNdVO6
_symmetry_space_group_name_H-M   'P 1'
_cell_length_a   8.42318644
_cell_length_b   8.39545950
_cell_length_c   8.40360929
_cell_angle_alpha   90.00000000
_cell_angle_beta   90.00000000
_cell_angle_gamma   90.00000000
_symmetry_Int_Tables_number   1
_chemical_formula_structural   BaSrNdVO6
_chemical_formula_sum   'Ba4 Sr4 Nd4 V4 O24'
_cell_volume   594.27400962
_cell_formula_units_Z   4
loop_
 _symmetry_equiv_pos_site_id
 _symmetry_equiv_pos_as_xyz
  1  'x, y, z'
loop_
 _atom_site_type_symbol
 _atom_site_label
 _atom_site_symmetry_multiplicity
 _atom_site_fract_x
 _atom_site_fract_y
 _atom_site_fract_z
 _atom_site_occupancy
  Ba  Ba0  1  0.00000000  0.00000000  0.00000000  1
  Ba  Ba1  1  0.50000000  0.50000000  0.50000000  1
  Ba  Ba2  1  0.50000000  0.00000000  0.50000000  1
  Ba  Ba3  1  0.50000000  0.00000000  0.00000000  1
  Sr  Sr4  1  -0.00000000  0.50000000  0.50000000  1
  Sr  Sr5  1  0.50000000  0.50000000  0.00000000  1
  Sr  Sr6  1  -0.00000000  0.50000000  0.00000000  1
  Sr  Sr7  1  -0.00000000  0.00000000  0.50000000  1
  Nd  Nd8  1  0.75214736  0.74686045  0.75116085  1
  Nd  Nd9  1  0.24785264  0.25313955  0.75116085  1
  Nd  Nd10  1  0.24785264  0.74686045  0.24883915  1
  Nd  Nd11  1  0.75214736  0.25313955  0.24883915  1
  V  V12  1  0.24643992  0.25154568  0.25197163  1
  V  V13  1  0.75356008  0.74845432  0.25197163  1
  V  V14  1  0.75356008  0.25154568  0.74802837  1
  V  V15  1  0.24643992  0.74845432  0.74802837  1
  O  O16  1  0.02297637  0.21924389  0.27998520  1
  O  O17  1  0.97702363  0.78075611  0.27998520  1
  O  O18  1  0.97702363  0.21924389  0.72001480  1
  O  O19  1  0.02297637  0.78075611  0.72001480  1
  O  O20  1  0.27052292  0.02697981  0.22608448  1
  O  O21  1  0.27052292  0.97302019  0.77391552  1
  O  O22  1  0.72947708  0.97302019  0.22608448  1
  O  O23  1  0.72947708  0.02697981  0.77391552  1
  O  O24  1  0.21710643  0.28131371  0.02543156  1
  O  O25  1  0.78289357  0.28131371  0.97456844  1
  O  O26  1  0.21710643  0.71868629  0.97456844  1
  O  O27  1  0.78289357  0.71868629  0.02543156  1
  O  O28  1  0.47371327  0.28244600  0.22201538  1
  O  O29  1  0.52628673  0.71755400  0.22201538  1
  O  O30  1  0.52628673  0.28244600  0.77798462  1
  O  O31  1  0.47371327  0.71755400  0.77798462  1
  O  O32  1  0.21627576  0.47594489  0.28118994  1
  O  O33  1  0.21627576  0.52405511  0.71881006  1
  O  O34  1  0.78372424  0.52405511  0.28118994  1
  O  O35  1  0.78372424  0.47594489  0.71881006  1
  O  O36  1  0.27403536  0.22974622  0.47488350  1
  O  O37  1  0.72596464  0.22974622  0.52511650  1
  O  O38  1  0.27403536  0.77025378  0.52511650  1
  O  O39  1  0.72596464  0.77025378  0.47488350  1
