# generated using pymatgen
data_BaEuSnWO6
_symmetry_space_group_name_H-M   'P 1'
_cell_length_a   8.63234665
_cell_length_b   8.67337432
_cell_length_c   8.58207652
_cell_angle_alpha   90.00000000
_cell_angle_beta   90.00000000
_cell_angle_gamma   90.00000000
_symmetry_Int_Tables_number   1
_chemical_formula_structural   BaEuSnWO6
_chemical_formula_sum   'Ba4 Eu4 Sn4 W4 O24'
_cell_volume   642.55357514
_cell_formula_units_Z   4
loop_
 _symmetry_equiv_pos_site_id
 _symmetry_equiv_pos_as_xyz
  1  'x, y, z'
loop_
 _atom_site_type_symbol
 _atom_site_label
 _atom_site_symmetry_multiplicity
 _atom_site_fract_x
 _atom_site_fract_y
 _atom_site_fract_z
 _atom_site_occupancy
  Ba  Ba0  1  0.00000000  -0.00000000  -0.00000000  1
  Ba  Ba1  1  0.50000000  0.50000000  0.50000000  1
  Ba  Ba2  1  0.50000000  -0.00000000  -0.00000000  1
  Ba  Ba3  1  0.00000000  -0.00000000  0.50000000  1
  Eu  Eu4  1  0.00000000  0.50000000  0.50000000  1
  Eu  Eu5  1  0.50000000  -0.00000000  0.50000000  1
  Eu  Eu6  1  0.50000000  0.50000000  -0.00000000  1
  Eu  Eu7  1  0.00000000  0.50000000  -0.00000000  1
  Sn  Sn8  1  0.76165810  0.73272792  0.75176894  1
  Sn  Sn9  1  0.23834190  0.26727208  0.75176894  1
  Sn  Sn10  1  0.23834190  0.73272792  0.24823106  1
  Sn  Sn11  1  0.76165810  0.26727208  0.24823106  1
  W  W12  1  0.24653111  0.26098214  0.24663221  1
  W  W13  1  0.75346889  0.73901786  0.24663221  1
  W  W14  1  0.75346889  0.26098214  0.75336779  1
  W  W15  1  0.24653111  0.73901786  0.75336779  1
  O  O16  1  0.01659317  0.23482897  0.28977516  1
  O  O17  1  0.98340683  0.76517103  0.28977516  1
  O  O18  1  0.98340683  0.23482897  0.71022484  1
  O  O19  1  0.01659317  0.76517103  0.71022484  1
  O  O20  1  0.26482661  0.04764467  0.19804185  1
  O  O21  1  0.26482661  0.95235533  0.80195815  1
  O  O22  1  0.73517339  0.95235533  0.19804185  1
  O  O23  1  0.73517339  0.04764467  0.80195815  1
  O  O24  1  0.19462371  0.30551742  0.02539728  1
  O  O25  1  0.80537629  0.30551742  0.97460272  1
  O  O26  1  0.19462371  0.69448258  0.97460272  1
  O  O27  1  0.80537629  0.69448258  0.02539728  1
  O  O28  1  0.45663362  0.31307761  0.20234788  1
  O  O29  1  0.54336638  0.68692239  0.20234788  1
  O  O30  1  0.54336638  0.31307761  0.79765212  1
  O  O31  1  0.45663362  0.68692239  0.79765212  1
  O  O32  1  0.20884931  0.48777193  0.30339833  1
  O  O33  1  0.20884931  0.51222807  0.69660167  1
  O  O34  1  0.79115069  0.51222807  0.30339833  1
  O  O35  1  0.79115069  0.48777193  0.69660167  1
  O  O36  1  0.29900703  0.21720020  0.46381378  1
  O  O37  1  0.70099297  0.21720020  0.53618622  1
  O  O38  1  0.29900703  0.78279980  0.53618622  1
  O  O39  1  0.70099297  0.78279980  0.46381378  1
