# generated using pymatgen
data_BaEuSnWO6
_symmetry_space_group_name_H-M   'P 1'
_cell_length_a   6.02867214
_cell_length_b   6.09190038
_cell_length_c   8.57682203
_cell_angle_alpha   89.12631737
_cell_angle_beta   90.66104387
_cell_angle_gamma   89.30162226
_symmetry_Int_Tables_number   1
_chemical_formula_structural   BaEuSnWO6
_chemical_formula_sum   'Ba2 Eu2 Sn2 W2 O12'
_cell_volume   314.91130030
_cell_formula_units_Z   2
loop_
 _symmetry_equiv_pos_site_id
 _symmetry_equiv_pos_as_xyz
  1  'x, y, z'
loop_
 _atom_site_type_symbol
 _atom_site_label
 _atom_site_symmetry_multiplicity
 _atom_site_fract_x
 _atom_site_fract_y
 _atom_site_fract_z
 _atom_site_occupancy
  Ba  Ba0  1  0.99485276  0.03861743  0.24906824  1
  Ba  Ba1  1  0.00514724  0.96138257  0.75093176  1
  Eu  Eu2  1  0.51176240  0.54512519  0.24499800  1
  Eu  Eu3  1  0.48823760  0.45487481  0.75500200  1
  Sn  Sn4  1  0.00000000  0.50000000  0.00000000  1
  Sn  Sn5  1  0.50000000  0.00000000  0.50000000  1
  W  W6  1  0.50000000  0.00000000  0.00000000  1
  W  W7  1  0.00000000  0.50000000  0.50000000  1
  O  O8  1  0.23471971  0.18232796  0.96376995  1
  O  O9  1  0.25856255  0.67705845  0.56074904  1
  O  O10  1  0.76528029  0.81767204  0.03623005  1
  O  O11  1  0.74143745  0.32294155  0.43925096  1
  O  O12  1  0.33608164  0.72957919  0.94635957  1
  O  O13  1  0.17736216  0.23634672  0.54860832  1
  O  O14  1  0.66391836  0.27042081  0.05364043  1
  O  O15  1  0.82263784  0.76365328  0.45139168  1
  O  O16  1  0.42438481  0.95193505  0.21997877  1
  O  O17  1  0.11043465  0.49091044  0.28351312  1
  O  O18  1  0.57561519  0.04806495  0.78002123  1
  O  O19  1  0.88956535  0.50908956  0.71648688  1
