# generated using pymatgen
data_NdTi4SnO12
_symmetry_space_group_name_H-M   'P 1'
_cell_length_a   5.35653674
_cell_length_b   5.35653674
_cell_length_c   7.81272995
_cell_angle_alpha   90.00000000
_cell_angle_beta   90.00000000
_cell_angle_gamma   89.84114999
_symmetry_Int_Tables_number   1
_chemical_formula_structural   NdTi4SnO12
_chemical_formula_sum   'Nd1 Ti4 Sn1 O12'
_cell_volume   224.16578219
_cell_formula_units_Z   1
loop_
 _symmetry_equiv_pos_site_id
 _symmetry_equiv_pos_as_xyz
  1  'x, y, z'
loop_
 _atom_site_type_symbol
 _atom_site_label
 _atom_site_symmetry_multiplicity
 _atom_site_fract_x
 _atom_site_fract_y
 _atom_site_fract_z
 _atom_site_occupancy
  Nd  Nd0  1  0.52635027  0.47364973  0.50000000  1
  Ti  Ti1  1  0.50295804  0.99460612  0.25277098  1
  Ti  Ti2  1  0.50295804  0.99460612  0.74722902  1
  Ti  Ti3  1  0.00539388  0.49704196  0.74722902  1
  Ti  Ti4  1  0.00539388  0.49704196  0.25277098  1
  Sn  Sn5  1  0.97889092  0.02110908  0.00000000  1
  O  O6  1  0.29970991  0.30447110  0.25866427  1
  O  O7  1  0.69552890  0.70029009  0.25866427  1
  O  O8  1  0.69552890  0.70029009  0.74133573  1
  O  O9  1  0.29970991  0.30447110  0.74133573  1
  O  O10  1  0.17216391  0.82783609  0.18104388  1
  O  O11  1  0.78217215  0.21782785  0.29226169  1
  O  O12  1  0.78217215  0.21782785  0.70773831  1
  O  O13  1  0.17216391  0.82783609  0.81895612  1
  O  O14  1  0.60153696  0.00985353  0.00000000  1
  O  O15  1  0.45286927  0.95344746  0.50000000  1
  O  O16  1  0.99014647  0.39846304  0.00000000  1
  O  O17  1  0.04655254  0.54713073  0.50000000  1
