# generated using pymatgen
data_BaGdInWO6
_symmetry_space_group_name_H-M   'P 1'
_cell_length_a   8.52907384
_cell_length_b   8.54858930
_cell_length_c   8.51723309
_cell_angle_alpha   90.00000000
_cell_angle_beta   90.00000000
_cell_angle_gamma   90.00000000
_symmetry_Int_Tables_number   1
_chemical_formula_structural   BaGdInWO6
_chemical_formula_sum   'Ba4 Gd4 In4 W4 O24'
_cell_volume   621.00466092
_cell_formula_units_Z   4
loop_
 _symmetry_equiv_pos_site_id
 _symmetry_equiv_pos_as_xyz
  1  'x, y, z'
loop_
 _atom_site_type_symbol
 _atom_site_label
 _atom_site_symmetry_multiplicity
 _atom_site_fract_x
 _atom_site_fract_y
 _atom_site_fract_z
 _atom_site_occupancy
  Ba  Ba0  1  -0.00000000  0.00000000  0.00000000  1
  Ba  Ba1  1  0.50000000  0.50000000  0.50000000  1
  Ba  Ba2  1  0.50000000  0.00000000  0.50000000  1
  Ba  Ba3  1  -0.00000000  0.50000000  0.00000000  1
  Gd  Gd4  1  0.75000000  0.75000000  0.75000000  1
  Gd  Gd5  1  0.25000000  0.25000000  0.75000000  1
  Gd  Gd6  1  0.25000000  0.75000000  0.25000000  1
  Gd  Gd7  1  0.75000000  0.25000000  0.25000000  1
  In  In8  1  -0.00000000  0.50000000  0.50000000  1
  In  In9  1  0.50000000  0.50000000  0.00000000  1
  In  In10  1  0.50000000  0.00000000  0.00000000  1
  In  In11  1  -0.00000000  0.00000000  0.50000000  1
  W  W12  1  0.25000000  0.25000000  0.25000000  1
  W  W13  1  0.75000000  0.75000000  0.25000000  1
  W  W14  1  0.75000000  0.25000000  0.75000000  1
  W  W15  1  0.25000000  0.75000000  0.75000000  1
  O  O16  1  0.02064188  0.23321780  0.25487916  1
  O  O17  1  0.97935812  0.76678220  0.25487916  1
  O  O18  1  0.97935812  0.23321780  0.74512084  1
  O  O19  1  0.02064188  0.76678220  0.74512084  1
  O  O20  1  0.26590866  0.02097759  0.24305173  1
  O  O21  1  0.26590866  0.97902241  0.75694827  1
  O  O22  1  0.73409134  0.97902241  0.24305173  1
  O  O23  1  0.73409134  0.02097759  0.75694827  1
  O  O24  1  0.23018247  0.25561453  0.01972741  1
  O  O25  1  0.76981753  0.25561453  0.98027259  1
  O  O26  1  0.23018247  0.74438547  0.98027259  1
  O  O27  1  0.76981753  0.74438547  0.01972741  1
  O  O28  1  0.47935812  0.26678220  0.24512084  1
  O  O29  1  0.52064188  0.73321780  0.24512084  1
  O  O30  1  0.52064188  0.26678220  0.75487916  1
  O  O31  1  0.47935812  0.73321780  0.75487916  1
  O  O32  1  0.23409134  0.47902241  0.25694827  1
  O  O33  1  0.23409134  0.52097759  0.74305173  1
  O  O34  1  0.76590866  0.52097759  0.25694827  1
  O  O35  1  0.76590866  0.47902241  0.74305173  1
  O  O36  1  0.26981753  0.24438547  0.48027259  1
  O  O37  1  0.73018247  0.24438547  0.51972741  1
  O  O38  1  0.26981753  0.75561453  0.51972741  1
  O  O39  1  0.73018247  0.75561453  0.48027259  1
