# generated using pymatgen
data_KPrTi4O12
_symmetry_space_group_name_H-M   'P 1'
_cell_length_a   5.49593563
_cell_length_b   5.49593563
_cell_length_c   7.87680073
_cell_angle_alpha   90.00000000
_cell_angle_beta   90.00000000
_cell_angle_gamma   90.00024489
_symmetry_Int_Tables_number   1
_chemical_formula_structural   KPrTi4O12
_chemical_formula_sum   'K1 Pr1 Ti4 O12'
_cell_volume   237.92119589
_cell_formula_units_Z   1
loop_
 _symmetry_equiv_pos_site_id
 _symmetry_equiv_pos_as_xyz
  1  'x, y, z'
loop_
 _atom_site_type_symbol
 _atom_site_label
 _atom_site_symmetry_multiplicity
 _atom_site_fract_x
 _atom_site_fract_y
 _atom_site_fract_z
 _atom_site_occupancy
  K  K0  1  0.00085987  0.99914013  0.00000000  1
  Pr  Pr1  1  0.49670255  0.50329745  0.50000000  1
  Ti  Ti2  1  0.50125530  0.00024940  0.23959568  1
  Ti  Ti3  1  0.50125530  0.00024940  0.76040432  1
  Ti  Ti4  1  0.99975060  0.49874470  0.76040432  1
  Ti  Ti5  1  0.99975060  0.49874470  0.23959568  1
  O  O6  1  0.26193761  0.26153478  0.26668122  1
  O  O7  1  0.73846522  0.73806239  0.26668122  1
  O  O8  1  0.73846522  0.73806239  0.73331878  1
  O  O9  1  0.26193761  0.26153478  0.73331878  1
  O  O10  1  0.25244766  0.74755234  0.25655505  1
  O  O11  1  0.74409380  0.25590620  0.27471965  1
  O  O12  1  0.74409380  0.25590620  0.72528035  1
  O  O13  1  0.25244766  0.74755234  0.74344495  1
  O  O14  1  0.50754042  0.00568327  0.00000000  1
  O  O15  1  0.49169401  0.98331398  0.50000000  1
  O  O16  1  0.99431673  0.49245958  0.00000000  1
  O  O17  1  0.01668602  0.50830599  0.50000000  1
