# generated using pymatgen
data_NdMn4CoO12
_symmetry_space_group_name_H-M   'P 1'
_cell_length_a   5.15337824
_cell_length_b   5.15337824
_cell_length_c   7.74377803
_cell_angle_alpha   90.00000000
_cell_angle_beta   90.00000000
_cell_angle_gamma   89.61610536
_symmetry_Int_Tables_number   1
_chemical_formula_structural   NdMn4CoO12
_chemical_formula_sum   'Nd1 Mn4 Co1 O12'
_cell_volume   205.64927640
_cell_formula_units_Z   1
loop_
 _symmetry_equiv_pos_site_id
 _symmetry_equiv_pos_as_xyz
  1  'x, y, z'
loop_
 _atom_site_type_symbol
 _atom_site_label
 _atom_site_symmetry_multiplicity
 _atom_site_fract_x
 _atom_site_fract_y
 _atom_site_fract_z
 _atom_site_occupancy
  Nd  Nd0  1  0.96887811  0.03112189  -0.00000000  1
  Mn  Mn1  1  0.49976256  0.99876082  0.26032198  1
  Mn  Mn2  1  0.49976256  0.99876082  0.73967802  1
  Mn  Mn3  1  0.00123918  0.50023744  0.73967802  1
  Mn  Mn4  1  0.00123918  0.50023744  0.26032198  1
  Co  Co5  1  0.52458041  0.47541959  0.50000000  1
  O  O6  1  0.18175324  0.17795212  0.25391646  1
  O  O7  1  0.82204788  0.81824676  0.25391646  1
  O  O8  1  0.82204788  0.81824676  0.74608354  1
  O  O9  1  0.18175324  0.17795212  0.74608354  1
  O  O10  1  0.33372233  0.66627767  0.32709370  1
  O  O11  1  0.69366010  0.30633990  0.19790594  1
  O  O12  1  0.69366010  0.30633990  0.80209406  1
  O  O13  1  0.33372233  0.66627767  0.67290630  1
  O  O14  1  0.45718162  0.93778395  -0.00000000  1
  O  O15  1  0.52317209  0.11139886  0.50000000  1
  O  O16  1  0.06221605  0.54281838  -0.00000000  1
  O  O17  1  0.88860114  0.47682791  0.50000000  1
