# generated using pymatgen
data_CaCo(GeO3)4
_symmetry_space_group_name_H-M   'P 1'
_cell_length_a   5.23510577
_cell_length_b   5.23510577
_cell_length_c   7.41947662
_cell_angle_alpha   90.00000000
_cell_angle_beta   90.00000000
_cell_angle_gamma   82.39143375
_symmetry_Int_Tables_number   1
_chemical_formula_structural   CaCo(GeO3)4
_chemical_formula_sum   'Ca1 Co1 Ge4 O12'
_cell_volume   201.55038225
_cell_formula_units_Z   1
loop_
 _symmetry_equiv_pos_site_id
 _symmetry_equiv_pos_as_xyz
  1  'x, y, z'
loop_
 _atom_site_type_symbol
 _atom_site_label
 _atom_site_symmetry_multiplicity
 _atom_site_fract_x
 _atom_site_fract_y
 _atom_site_fract_z
 _atom_site_occupancy
  Ca  Ca0  1  0.43923114  0.56076886  0.00000000  1
  Co  Co1  1  0.07415277  0.92584723  0.50000000  1
  Ge  Ge2  1  0.53185519  0.02391304  0.25501973  1
  Ge  Ge3  1  0.53185519  0.02391304  0.74498027  1
  Ge  Ge4  1  0.97608696  0.46814481  0.74498027  1
  Ge  Ge5  1  0.97608696  0.46814481  0.25501973  1
  O  O6  1  0.31522911  0.32798793  0.24363636  1
  O  O7  1  0.67201207  0.68477089  0.24363636  1
  O  O8  1  0.67201207  0.68477089  0.75636364  1
  O  O9  1  0.31522911  0.32798793  0.75636364  1
  O  O10  1  0.18339484  0.81660516  0.24353503  1
  O  O11  1  0.84153743  0.15846257  0.31513669  1
  O  O12  1  0.84153743  0.15846257  0.68486331  1
  O  O13  1  0.18339484  0.81660516  0.75646497  1
  O  O14  1  0.54651944  0.04108405  0.00000000  1
  O  O15  1  0.42480509  0.99295556  0.50000000  1
  O  O16  1  0.95891595  0.45348056  0.00000000  1
  O  O17  1  0.00704444  0.57519491  0.50000000  1
