# generated using pymatgen
data_CaPr(SbO3)2
_symmetry_space_group_name_H-M   'P 1'
_cell_length_a   5.77477700
_cell_length_b   6.09325700
_cell_length_c   8.36125400
_cell_angle_alpha   90.00000000
_cell_angle_beta   90.00000000
_cell_angle_gamma   90.00000000
_symmetry_Int_Tables_number   1
_chemical_formula_structural   CaPr(SbO3)2
_chemical_formula_sum   'Ca2 Pr2 Sb4 O12'
_cell_volume   294.20911992
_cell_formula_units_Z   2
loop_
 _symmetry_equiv_pos_site_id
 _symmetry_equiv_pos_as_xyz
  1  'x, y, z'
loop_
 _atom_site_type_symbol
 _atom_site_label
 _atom_site_symmetry_multiplicity
 _atom_site_fract_x
 _atom_site_fract_y
 _atom_site_fract_z
 _atom_site_occupancy
  Ca  Ca0  1  0.48767200  0.19454800  0.00000000  1
  Ca  Ca1  1  0.98767200  0.80545200  0.50000000  1
  Pr  Pr2  1  0.02389200  0.68688200  0.00000000  1
  Pr  Pr3  1  0.52389200  0.31311800  0.50000000  1
  Sb  Sb4  1  0.00778500  0.24269600  0.75363100  1
  Sb  Sb5  1  0.00778500  0.24269600  0.24636900  1
  Sb  Sb6  1  0.50778500  0.75730400  0.25363100  1
  Sb  Sb7  1  0.50778500  0.75730400  0.74636900  1
  O  O8  1  0.13392300  0.18884800  0.50000000  1
  O  O9  1  0.18318500  0.94959300  0.81609200  1
  O  O10  1  0.18318500  0.94959300  0.18390800  1
  O  O11  1  0.29771500  0.44102400  0.18381000  1
  O  O12  1  0.29771500  0.44102400  0.81619000  1
  O  O13  1  0.37714400  0.69517600  0.50000000  1
  O  O14  1  0.63392300  0.81115200  0.00000000  1
  O  O15  1  0.68318500  0.05040700  0.68390800  1
  O  O16  1  0.68318500  0.05040700  0.31609200  1
  O  O17  1  0.79771500  0.55897600  0.68381000  1
  O  O18  1  0.79771500  0.55897600  0.31619000  1
  O  O19  1  0.87714400  0.30482400  0.00000000  1
