# generated using pymatgen
data_SrCaPrSbO6
_symmetry_space_group_name_H-M   'P 1'
_cell_length_a   8.45624757
_cell_length_b   8.46955116
_cell_length_c   8.46769437
_cell_angle_alpha   90.00000000
_cell_angle_beta   90.00000000
_cell_angle_gamma   90.00000000
_symmetry_Int_Tables_number   1
_chemical_formula_structural   SrCaPrSbO6
_chemical_formula_sum   'Sr4 Ca4 Pr4 Sb4 O24'
_cell_volume   606.46153274
_cell_formula_units_Z   4
loop_
 _symmetry_equiv_pos_site_id
 _symmetry_equiv_pos_as_xyz
  1  'x, y, z'
loop_
 _atom_site_type_symbol
 _atom_site_label
 _atom_site_symmetry_multiplicity
 _atom_site_fract_x
 _atom_site_fract_y
 _atom_site_fract_z
 _atom_site_occupancy
  Sr  Sr0  1  0.00000000  0.50000000  0.50000000  1
  Sr  Sr1  1  0.50000000  0.00000000  0.50000000  1
  Sr  Sr2  1  0.50000000  0.50000000  -0.00000000  1
  Sr  Sr3  1  0.00000000  -0.00000000  0.50000000  1
  Ca  Ca4  1  0.50000000  -0.00000000  0.00000000  1
  Ca  Ca5  1  0.00000000  0.50000000  -0.00000000  1
  Ca  Ca6  1  0.00000000  -0.00000000  -0.00000000  1
  Ca  Ca7  1  0.50000000  0.50000000  0.50000000  1
  Pr  Pr8  1  0.75031449  0.75026283  0.75218580  1
  Pr  Pr9  1  0.24968551  0.24973717  0.75218580  1
  Pr  Pr10  1  0.24968551  0.75026283  0.24781420  1
  Pr  Pr11  1  0.75031449  0.24973717  0.24781420  1
  Sb  Sb12  1  0.24971054  0.25068651  0.24742449  1
  Sb  Sb13  1  0.75028946  0.74931349  0.24742449  1
  Sb  Sb14  1  0.75028946  0.25068651  0.75257551  1
  Sb  Sb15  1  0.24971054  0.74931349  0.75257551  1
  O  O16  1  0.02062575  0.20042956  0.28438822  1
  O  O17  1  0.97937425  0.79957044  0.28438822  1
  O  O18  1  0.97937425  0.20042956  0.71561178  1
  O  O19  1  0.02062575  0.79957044  0.71561178  1
  O  O20  1  0.29266341  0.02177757  0.19286544  1
  O  O21  1  0.29266341  0.97822243  0.80713456  1
  O  O22  1  0.70733659  0.97822243  0.19286544  1
  O  O23  1  0.70733659  0.02177757  0.80713456  1
  O  O24  1  0.19508764  0.29527551  0.02009482  1
  O  O25  1  0.80491236  0.29527551  0.97990518  1
  O  O26  1  0.19508764  0.70472449  0.97990518  1
  O  O27  1  0.80491236  0.70472449  0.02009482  1
  O  O28  1  0.48014892  0.29626896  0.21338230  1
  O  O29  1  0.51985108  0.70373104  0.21338230  1
  O  O30  1  0.51985108  0.29626896  0.78661770  1
  O  O31  1  0.48014892  0.70373104  0.78661770  1
  O  O32  1  0.21609095  0.48055965  0.29669042  1
  O  O33  1  0.21609095  0.51944035  0.70330958  1
  O  O34  1  0.78390905  0.51944035  0.29669042  1
  O  O35  1  0.78390905  0.48055965  0.70330958  1
  O  O36  1  0.29397608  0.21363414  0.47903246  1
  O  O37  1  0.70602392  0.21363414  0.52096754  1
  O  O38  1  0.29397608  0.78636586  0.52096754  1
  O  O39  1  0.70602392  0.78636586  0.47903246  1
