# generated using pymatgen
data_BaNaGdWO6
_symmetry_space_group_name_H-M   'P 1'
_cell_length_a   8.43305697
_cell_length_b   8.45092405
_cell_length_c   8.37852002
_cell_angle_alpha   90.00000000
_cell_angle_beta   90.00000000
_cell_angle_gamma   90.00000000
_symmetry_Int_Tables_number   1
_chemical_formula_structural   BaNaGdWO6
_chemical_formula_sum   'Ba4 Na4 Gd4 W4 O24'
_cell_volume   597.11302489
_cell_formula_units_Z   4
loop_
 _symmetry_equiv_pos_site_id
 _symmetry_equiv_pos_as_xyz
  1  'x, y, z'
loop_
 _atom_site_type_symbol
 _atom_site_label
 _atom_site_symmetry_multiplicity
 _atom_site_fract_x
 _atom_site_fract_y
 _atom_site_fract_z
 _atom_site_occupancy
  Ba  Ba0  1  -0.00000000  -0.00000000  0.00000000  1
  Ba  Ba1  1  0.50000000  0.50000000  0.50000000  1
  Ba  Ba2  1  0.50000000  -0.00000000  0.50000000  1
  Ba  Ba3  1  -0.00000000  0.50000000  0.00000000  1
  Na  Na4  1  -0.00000000  0.50000000  0.50000000  1
  Na  Na5  1  0.50000000  0.50000000  0.00000000  1
  Na  Na6  1  0.50000000  -0.00000000  0.00000000  1
  Na  Na7  1  -0.00000000  -0.00000000  0.50000000  1
  Gd  Gd8  1  0.75000000  0.75000000  0.75000000  1
  Gd  Gd9  1  0.25000000  0.25000000  0.75000000  1
  Gd  Gd10  1  0.25000000  0.75000000  0.25000000  1
  Gd  Gd11  1  0.75000000  0.25000000  0.25000000  1
  W  W12  1  0.25000000  0.25000000  0.25000000  1
  W  W13  1  0.75000000  0.75000000  0.25000000  1
  W  W14  1  0.75000000  0.25000000  0.75000000  1
  W  W15  1  0.25000000  0.75000000  0.75000000  1
  O  O16  1  0.02069825  0.21989263  0.27065805  1
  O  O17  1  0.97930175  0.78010737  0.27065805  1
  O  O18  1  0.97930175  0.21989263  0.72934195  1
  O  O19  1  0.02069825  0.78010737  0.72934195  1
  O  O20  1  0.27716749  0.02071694  0.22219384  1
  O  O21  1  0.27716749  0.97928306  0.77780616  1
  O  O22  1  0.72283251  0.97928306  0.22219384  1
  O  O23  1  0.72283251  0.02071694  0.77780616  1
  O  O24  1  0.22069676  0.27148771  0.01936560  1
  O  O25  1  0.77930324  0.27148771  0.98063440  1
  O  O26  1  0.22069676  0.72851229  0.98063440  1
  O  O27  1  0.77930324  0.72851229  0.01936560  1
  O  O28  1  0.47930175  0.28010737  0.22934195  1
  O  O29  1  0.52069825  0.71989263  0.22934195  1
  O  O30  1  0.52069825  0.28010737  0.77065805  1
  O  O31  1  0.47930175  0.71989263  0.77065805  1
  O  O32  1  0.22283251  0.47928306  0.27780616  1
  O  O33  1  0.22283251  0.52071694  0.72219384  1
  O  O34  1  0.77716749  0.52071694  0.27780616  1
  O  O35  1  0.77716749  0.47928306  0.72219384  1
  O  O36  1  0.27930324  0.22851229  0.48063440  1
  O  O37  1  0.72069676  0.22851229  0.51936560  1
  O  O38  1  0.27930324  0.77148771  0.51936560  1
  O  O39  1  0.72069676  0.77148771  0.48063440  1
