# generated using pymatgen
data_KYBiSbO6
_symmetry_space_group_name_H-M   'P 1'
_cell_length_a   5.73849655
_cell_length_b   6.09735823
_cell_length_c   8.43364890
_cell_angle_alpha   90.00000000
_cell_angle_beta   89.85803630
_cell_angle_gamma   90.00000000
_symmetry_Int_Tables_number   1
_chemical_formula_structural   KYBiSbO6
_chemical_formula_sum   'K2 Y2 Bi2 Sb2 O12'
_cell_volume   295.08967872
_cell_formula_units_Z   2
loop_
 _symmetry_equiv_pos_site_id
 _symmetry_equiv_pos_as_xyz
  1  'x, y, z'
loop_
 _atom_site_type_symbol
 _atom_site_label
 _atom_site_symmetry_multiplicity
 _atom_site_fract_x
 _atom_site_fract_y
 _atom_site_fract_z
 _atom_site_occupancy
  K  K0  1  0.00897447  0.76987636  0.75410458  1
  K  K1  1  0.50897447  0.23012364  0.25410458  1
  Y  Y2  1  0.50355702  0.77380771  0.00743332  1
  Y  Y3  1  0.00355702  0.22619229  0.50743332  1
  Bi  Bi4  1  0.50478648  0.32458789  0.79225314  1
  Bi  Bi5  1  0.00478648  0.67541211  0.29225314  1
  Sb  Sb6  1  0.00082412  0.24460843  0.99762690  1
  Sb  Sb7  1  0.50082412  0.75539157  0.49762690  1
  O  O8  1  0.81293067  0.97746253  0.03749826  1
  O  O9  1  0.72141213  0.50088505  0.45566645  1
  O  O10  1  0.22141213  0.49911495  0.95566645  1
  O  O11  1  0.31293067  0.02253747  0.53749826  1
  O  O12  1  0.71065595  0.44398683  0.00112835  1
  O  O13  1  0.78874745  0.93518487  0.45821289  1
  O  O14  1  0.28874745  0.06481513  0.95821289  1
  O  O15  1  0.21065595  0.55601317  0.50112835  1
  O  O16  1  0.53698023  0.69884640  0.73327334  1
  O  O17  1  0.91113148  0.23176471  0.76280276  1
  O  O18  1  0.41113148  0.76823529  0.26280276  1
  O  O19  1  0.03698023  0.30115360  0.23327334  1
