# generated using pymatgen
data_SrEu(CoO3)4
_symmetry_space_group_name_H-M   'P 1'
_cell_length_a   5.42523272
_cell_length_b   5.42523272
_cell_length_c   7.65721128
_cell_angle_alpha   90.00000000
_cell_angle_beta   90.00000000
_cell_angle_gamma   90.00000000
_symmetry_Int_Tables_number   1
_chemical_formula_structural   SrEu(CoO3)4
_chemical_formula_sum   'Sr1 Eu1 Co4 O12'
_cell_volume   225.37584869
_cell_formula_units_Z   1
loop_
 _symmetry_equiv_pos_site_id
 _symmetry_equiv_pos_as_xyz
  1  'x, y, z'
loop_
 _atom_site_type_symbol
 _atom_site_label
 _atom_site_symmetry_multiplicity
 _atom_site_fract_x
 _atom_site_fract_y
 _atom_site_fract_z
 _atom_site_occupancy
  Sr  Sr0  1  0.00000000  -0.00000000  0.50000000  1
  Eu  Eu1  1  0.50000000  0.50000000  -0.00000000  1
  Co  Co2  1  0.00000000  0.50000000  0.74437245  1
  Co  Co3  1  0.00000000  0.50000000  0.25562755  1
  Co  Co4  1  0.50000000  -0.00000000  0.25562755  1
  Co  Co5  1  0.50000000  -0.00000000  0.74437245  1
  O  O6  1  0.25687832  0.25687832  0.24243819  1
  O  O7  1  0.25687832  0.25687832  0.75756181  1
  O  O8  1  0.74312168  0.74312168  0.24243819  1
  O  O9  1  0.74312168  0.74312168  0.75756181  1
  O  O10  1  0.74312168  0.25687832  0.75756181  1
  O  O11  1  0.74312168  0.25687832  0.24243819  1
  O  O12  1  0.25687832  0.74312168  0.75756181  1
  O  O13  1  0.25687832  0.74312168  0.24243819  1
  O  O14  1  0.00000000  0.50000000  0.50000000  1
  O  O15  1  0.00000000  0.50000000  -0.00000000  1
  O  O16  1  0.50000000  -0.00000000  0.50000000  1
  O  O17  1  0.50000000  -0.00000000  -0.00000000  1
