# generated using pymatgen
data_Mg15Al
_symmetry_space_group_name_H-M   'P 1'
_cell_length_a   6.36536406
_cell_length_b   6.36536406
_cell_length_c   10.24840300
_cell_angle_alpha   90.00000000
_cell_angle_beta   90.00000000
_cell_angle_gamma   120.00000065
_symmetry_Int_Tables_number   1
_chemical_formula_structural   Mg15Al
_chemical_formula_sum   'Mg15 Al1'
_cell_volume   359.61129125
_cell_formula_units_Z   1
loop_
 _symmetry_equiv_pos_site_id
 _symmetry_equiv_pos_as_xyz
  1  'x, y, z'
loop_
 _atom_site_type_symbol
 _atom_site_label
 _atom_site_symmetry_multiplicity
 _atom_site_fract_x
 _atom_site_fract_y
 _atom_site_fract_z
 _atom_site_occupancy
  Mg  Mg0  1  0.00000000  0.00000000  0.00000000  1
  Mg  Mg1  1  0.99879200  0.49939600  0.50000000  1
  Mg  Mg2  1  0.00040600  0.50020300  0.00000000  1
  Mg  Mg3  1  0.50060400  0.49939600  0.50000000  1
  Mg  Mg4  1  0.49979700  0.50020300  0.00000000  1
  Mg  Mg5  1  0.50060400  0.00120800  0.50000000  1
  Mg  Mg6  1  0.49979700  0.99959400  0.00000000  1
  Mg  Mg7  1  0.16565700  0.33131500  0.25239600  1
  Mg  Mg8  1  0.16565700  0.33131500  0.74760400  1
  Mg  Mg9  1  0.16565700  0.83434300  0.25239600  1
  Mg  Mg10  1  0.16565700  0.83434300  0.74760400  1
  Mg  Mg11  1  0.66868500  0.83434300  0.25239600  1
  Mg  Mg12  1  0.66868500  0.83434300  0.74760400  1
  Mg  Mg13  1  0.66666700  0.33333300  0.25001300  1
  Mg  Mg14  1  0.66666700  0.33333300  0.74998700  1
  Al  Al15  1  0.00000000  0.00000000  0.50000000  1
