# generated using pymatgen
data_BaTbNbSnO6
_symmetry_space_group_name_H-M   'P 1'
_cell_length_a   8.45250895
_cell_length_b   8.50078867
_cell_length_c   8.45616100
_cell_angle_alpha   90.00000000
_cell_angle_beta   90.00000000
_cell_angle_gamma   90.00000000
_symmetry_Int_Tables_number   1
_chemical_formula_structural   BaTbNbSnO6
_chemical_formula_sum   'Ba4 Tb4 Nb4 Sn4 O24'
_cell_volume   607.60047135
_cell_formula_units_Z   4
loop_
 _symmetry_equiv_pos_site_id
 _symmetry_equiv_pos_as_xyz
  1  'x, y, z'
loop_
 _atom_site_type_symbol
 _atom_site_label
 _atom_site_symmetry_multiplicity
 _atom_site_fract_x
 _atom_site_fract_y
 _atom_site_fract_z
 _atom_site_occupancy
  Ba  Ba0  1  -0.00000000  0.00000000  -0.00000000  1
  Ba  Ba1  1  0.50000000  0.50000000  0.50000000  1
  Ba  Ba2  1  0.50000000  0.00000000  0.50000000  1
  Ba  Ba3  1  -0.00000000  0.00000000  0.50000000  1
  Tb  Tb4  1  0.25026088  0.25494015  0.24509788  1
  Tb  Tb5  1  0.74973912  0.74505985  0.24509788  1
  Tb  Tb6  1  0.74973912  0.25494015  0.75490212  1
  Tb  Tb7  1  0.25026088  0.74505985  0.75490212  1
  Nb  Nb8  1  0.75357941  0.74587721  0.75030442  1
  Nb  Nb9  1  0.24642059  0.25412279  0.75030442  1
  Nb  Nb10  1  0.24642059  0.74587721  0.24969558  1
  Nb  Nb11  1  0.75357941  0.25412279  0.24969558  1
  Sn  Sn12  1  -0.00000000  0.50000000  0.50000000  1
  Sn  Sn13  1  0.50000000  0.50000000  -0.00000000  1
  Sn  Sn14  1  0.50000000  0.00000000  -0.00000000  1
  Sn  Sn15  1  -0.00000000  0.50000000  -0.00000000  1
  O  O16  1  0.98603133  0.21524337  0.26992868  1
  O  O17  1  0.01396867  0.78475663  0.26992868  1
  O  O18  1  0.01396867  0.21524337  0.73007132  1
  O  O19  1  0.98603133  0.78475663  0.73007132  1
  O  O20  1  0.28370942  0.98393743  0.21327834  1
  O  O21  1  0.28370942  0.01606257  0.78672166  1
  O  O22  1  0.71629058  0.01606257  0.21327834  1
  O  O23  1  0.71629058  0.98393743  0.78672166  1
  O  O24  1  0.20897771  0.29055503  0.98474344  1
  O  O25  1  0.79102229  0.29055503  0.01525656  1
  O  O26  1  0.20897771  0.70944497  0.01525656  1
  O  O27  1  0.79102229  0.70944497  0.98474344  1
  O  O28  1  0.51626951  0.29323669  0.21619861  1
  O  O29  1  0.48373049  0.70676331  0.21619861  1
  O  O30  1  0.48373049  0.29323669  0.78380139  1
  O  O31  1  0.51626951  0.70676331  0.78380139  1
  O  O32  1  0.21415682  0.51398799  0.29267547  1
  O  O33  1  0.21415682  0.48601201  0.70732453  1
  O  O34  1  0.78584318  0.48601201  0.29267547  1
  O  O35  1  0.78584318  0.51398799  0.70732453  1
  O  O36  1  0.27719282  0.22430858  0.51497617  1
  O  O37  1  0.72280718  0.22430858  0.48502383  1
  O  O38  1  0.27719282  0.77569142  0.48502383  1
  O  O39  1  0.72280718  0.77569142  0.51497617  1
