# generated using pymatgen
data_BaTbNbSnO6
_symmetry_space_group_name_H-M   'P 1'
_cell_length_a   5.94985829
_cell_length_b   5.98686932
_cell_length_c   8.49878681
_cell_angle_alpha   89.66201769
_cell_angle_beta   90.09394499
_cell_angle_gamma   89.35014787
_symmetry_Int_Tables_number   1
_chemical_formula_structural   BaTbNbSnO6
_chemical_formula_sum   'Ba2 Tb2 Nb2 Sn2 O12'
_cell_volume   302.71030979
_cell_formula_units_Z   2
loop_
 _symmetry_equiv_pos_site_id
 _symmetry_equiv_pos_as_xyz
  1  'x, y, z'
loop_
 _atom_site_type_symbol
 _atom_site_label
 _atom_site_symmetry_multiplicity
 _atom_site_fract_x
 _atom_site_fract_y
 _atom_site_fract_z
 _atom_site_occupancy
  Ba  Ba0  1  0.99503699  0.02032191  0.25083741  1
  Ba  Ba1  1  0.00496301  0.97967809  0.74916259  1
  Tb  Tb2  1  0.50000000  0.00000000  -0.00000000  1
  Tb  Tb3  1  -0.00000000  0.50000000  0.50000000  1
  Nb  Nb4  1  -0.00000000  0.50000000  -0.00000000  1
  Nb  Nb5  1  0.50000000  0.00000000  0.50000000  1
  Sn  Sn6  1  0.49700744  0.51589075  0.25248257  1
  Sn  Sn7  1  0.50299256  0.48410925  0.74751743  1
  O  O8  1  0.19645645  0.22930702  0.97209198  1
  O  O9  1  0.30482083  0.72456213  0.54329776  1
  O  O10  1  0.80354355  0.77069298  0.02790802  1
  O  O11  1  0.69517917  0.27543787  0.45670224  1
  O  O12  1  0.26778845  0.69937190  0.95070681  1
  O  O13  1  0.22718197  0.19809379  0.52191796  1
  O  O14  1  0.73221155  0.30062810  0.04929319  1
  O  O15  1  0.77281803  0.80190621  0.47808204  1
  O  O16  1  0.44455078  0.97195419  0.26542423  1
  O  O17  1  0.09048629  0.50146076  0.23497044  1
  O  O18  1  0.55544922  0.02804581  0.73457577  1
  O  O19  1  0.90951371  0.49853924  0.76502956  1
