# generated using pymatgen
data_BaSrLaWO6
_symmetry_space_group_name_H-M   'P 1'
_cell_length_a   8.63872858
_cell_length_b   8.65958458
_cell_length_c   8.65104321
_cell_angle_alpha   90.00000000
_cell_angle_beta   90.00000000
_cell_angle_gamma   90.00000000
_symmetry_Int_Tables_number   1
_chemical_formula_structural   BaSrLaWO6
_chemical_formula_sum   'Ba4 Sr4 La4 W4 O24'
_cell_volume   647.16551718
_cell_formula_units_Z   4
loop_
 _symmetry_equiv_pos_site_id
 _symmetry_equiv_pos_as_xyz
  1  'x, y, z'
loop_
 _atom_site_type_symbol
 _atom_site_label
 _atom_site_symmetry_multiplicity
 _atom_site_fract_x
 _atom_site_fract_y
 _atom_site_fract_z
 _atom_site_occupancy
  Ba  Ba0  1  0.00000000  -0.00000000  0.00000000  1
  Ba  Ba1  1  0.50000000  0.50000000  0.50000000  1
  Ba  Ba2  1  0.50000000  -0.00000000  0.00000000  1
  Ba  Ba3  1  0.00000000  -0.00000000  0.50000000  1
  Sr  Sr4  1  0.00000000  0.50000000  0.50000000  1
  Sr  Sr5  1  0.50000000  -0.00000000  0.50000000  1
  Sr  Sr6  1  0.50000000  0.50000000  0.00000000  1
  Sr  Sr7  1  0.00000000  0.50000000  0.00000000  1
  La  La8  1  0.74961986  0.74756603  0.74956398  1
  La  La9  1  0.25038014  0.25243397  0.74956398  1
  La  La10  1  0.25038014  0.74756603  0.25043602  1
  La  La11  1  0.74961986  0.25243397  0.25043602  1
  W  W12  1  0.24984123  0.25322791  0.25044689  1
  W  W13  1  0.75015877  0.74677209  0.25044689  1
  W  W14  1  0.75015877  0.25322791  0.74955311  1
  W  W15  1  0.24984123  0.74677209  0.74955311  1
  O  O16  1  0.02000213  0.22177650  0.28211115  1
  O  O17  1  0.97999787  0.77822350  0.28211115  1
  O  O18  1  0.97999787  0.22177650  0.71788885  1
  O  O19  1  0.02000213  0.77822350  0.71788885  1
  O  O20  1  0.27897656  0.02179450  0.21980312  1
  O  O21  1  0.27897656  0.97820550  0.78019688  1
  O  O22  1  0.72102344  0.97820550  0.21980312  1
  O  O23  1  0.72102344  0.02179450  0.78019688  1
  O  O24  1  0.21284387  0.29024374  0.02161323  1
  O  O25  1  0.78715613  0.29024374  0.97838677  1
  O  O26  1  0.21284387  0.70975626  0.97838677  1
  O  O27  1  0.78715613  0.70975626  0.02161323  1
  O  O28  1  0.47804055  0.29233050  0.20903412  1
  O  O29  1  0.52195945  0.70766950  0.20903412  1
  O  O30  1  0.52195945  0.29233050  0.79096588  1
  O  O31  1  0.47804055  0.70766950  0.79096588  1
  O  O32  1  0.21100737  0.48054073  0.29308187  1
  O  O33  1  0.21100737  0.51945927  0.70691813  1
  O  O34  1  0.78899263  0.51945927  0.29308187  1
  O  O35  1  0.78899263  0.48054073  0.70691813  1
  O  O36  1  0.29173707  0.21301540  0.47758006  1
  O  O37  1  0.70826293  0.21301540  0.52241994  1
  O  O38  1  0.29173707  0.78698460  0.52241994  1
  O  O39  1  0.70826293  0.78698460  0.47758006  1
