# generated using pymatgen
data_BaSrTbZrO6
_symmetry_space_group_name_H-M   'P 1'
_cell_length_a   6.06131108
_cell_length_b   6.10939419
_cell_length_c   8.58579945
_cell_angle_alpha   90.17760698
_cell_angle_beta   90.15422372
_cell_angle_gamma   90.02597735
_symmetry_Int_Tables_number   1
_chemical_formula_structural   BaSrTbZrO6
_chemical_formula_sum   'Ba2 Sr2 Tb2 Zr2 O12'
_cell_volume   317.93749977
_cell_formula_units_Z   2
loop_
 _symmetry_equiv_pos_site_id
 _symmetry_equiv_pos_as_xyz
  1  'x, y, z'
loop_
 _atom_site_type_symbol
 _atom_site_label
 _atom_site_symmetry_multiplicity
 _atom_site_fract_x
 _atom_site_fract_y
 _atom_site_fract_z
 _atom_site_occupancy
  Ba  Ba0  1  0.50615193  0.52805586  0.24999678  1
  Ba  Ba1  1  0.49384807  0.47194414  0.75000322  1
  Sr  Sr2  1  0.99292090  0.03335816  0.25050450  1
  Sr  Sr3  1  0.00707910  0.96664184  0.74949550  1
  Tb  Tb4  1  0.00000000  0.50000000  0.00000000  1
  Tb  Tb5  1  0.50000000  0.00000000  0.50000000  1
  Zr  Zr6  1  0.50000000  0.00000000  0.00000000  1
  Zr  Zr7  1  0.00000000  0.50000000  0.50000000  1
  O  O8  1  0.22156570  0.20354949  0.95379197  1
  O  O9  1  0.27495097  0.70884092  0.53354157  1
  O  O10  1  0.77843430  0.79645051  0.04620803  1
  O  O11  1  0.72504903  0.29115908  0.46645843  1
  O  O12  1  0.29244668  0.72581824  0.96304412  1
  O  O13  1  0.20147419  0.22074238  0.54579132  1
  O  O14  1  0.70755332  0.27418176  0.03695588  1
  O  O15  1  0.79852581  0.77925762  0.45420868  1
  O  O16  1  0.41284119  0.99062778  0.24043472  1
  O  O17  1  0.06782083  0.46309642  0.25896905  1
  O  O18  1  0.58715881  0.00937222  0.75956528  1
  O  O19  1  0.93217917  0.53690358  0.74103095  1
