# generated using pymatgen
data_KEu(WO3)4
_symmetry_space_group_name_H-M   'P 1'
_cell_length_a   5.57471937
_cell_length_b   5.57471937
_cell_length_c   7.86550363
_cell_angle_alpha   90.00000000
_cell_angle_beta   90.00000000
_cell_angle_gamma   90.70604083
_symmetry_Int_Tables_number   1
_chemical_formula_structural   KEu(WO3)4
_chemical_formula_sum   'K1 Eu1 W4 O12'
_cell_volume   244.42159948
_cell_formula_units_Z   1
loop_
 _symmetry_equiv_pos_site_id
 _symmetry_equiv_pos_as_xyz
  1  'x, y, z'
loop_
 _atom_site_type_symbol
 _atom_site_label
 _atom_site_symmetry_multiplicity
 _atom_site_fract_x
 _atom_site_fract_y
 _atom_site_fract_z
 _atom_site_occupancy
  K  K0  1  0.01848153  0.98151847  0.50000000  1
  Eu  Eu1  1  0.48562883  0.51437117  0.00000000  1
  W  W2  1  0.50073168  0.00098422  0.25264999  1
  W  W3  1  0.50073168  0.00098422  0.74735001  1
  W  W4  1  -0.00098422  0.49926832  0.74735001  1
  W  W5  1  -0.00098422  0.49926832  0.25264999  1
  O  O6  1  0.21934733  0.21828854  0.24342603  1
  O  O7  1  0.78171146  0.78065267  0.24342603  1
  O  O8  1  0.78171146  0.78065267  0.75657397  1
  O  O9  1  0.21934733  0.21828854  0.75657397  1
  O  O10  1  0.29245307  0.70754693  0.27971083  1
  O  O11  1  0.71002588  0.28997412  0.21171525  1
  O  O12  1  0.71002588  0.28997412  0.78828475  1
  O  O13  1  0.29245307  0.70754693  0.72028917  1
  O  O14  1  0.46397402  0.95757369  0.00000000  1
  O  O15  1  0.53561419  0.04379528  0.50000000  1
  O  O16  1  0.04242631  0.53602598  -0.00000000  1
  O  O17  1  0.95620472  0.46438581  0.50000000  1
