# generated using pymatgen
data_BaSrCeWO6
_symmetry_space_group_name_H-M   'P 1'
_cell_length_a   8.50601551
_cell_length_b   8.55854099
_cell_length_c   8.58136860
_cell_angle_alpha   90.00000000
_cell_angle_beta   90.00000000
_cell_angle_gamma   90.00000000
_symmetry_Int_Tables_number   1
_chemical_formula_structural   BaSrCeWO6
_chemical_formula_sum   'Ba4 Sr4 Ce4 W4 O24'
_cell_volume   624.71575985
_cell_formula_units_Z   4
loop_
 _symmetry_equiv_pos_site_id
 _symmetry_equiv_pos_as_xyz
  1  'x, y, z'
loop_
 _atom_site_type_symbol
 _atom_site_label
 _atom_site_symmetry_multiplicity
 _atom_site_fract_x
 _atom_site_fract_y
 _atom_site_fract_z
 _atom_site_occupancy
  Ba  Ba0  1  -0.00000000  0.00000000  -0.00000000  1
  Ba  Ba1  1  0.50000000  0.50000000  0.50000000  1
  Ba  Ba2  1  0.50000000  0.00000000  -0.00000000  1
  Ba  Ba3  1  -0.00000000  0.00000000  0.50000000  1
  Sr  Sr4  1  -0.00000000  0.50000000  0.50000000  1
  Sr  Sr5  1  0.50000000  0.00000000  0.50000000  1
  Sr  Sr6  1  0.50000000  0.50000000  -0.00000000  1
  Sr  Sr7  1  -0.00000000  0.50000000  -0.00000000  1
  Ce  Ce8  1  0.74999937  0.74692358  0.74939751  1
  Ce  Ce9  1  0.25000063  0.25307642  0.74939751  1
  Ce  Ce10  1  0.25000063  0.74692358  0.25060249  1
  Ce  Ce11  1  0.74999937  0.25307642  0.25060249  1
  W  W12  1  0.25038419  0.25261350  0.25053973  1
  W  W13  1  0.74961581  0.74738650  0.25053973  1
  W  W14  1  0.74961581  0.25261350  0.74946027  1
  W  W15  1  0.25038419  0.74738650  0.74946027  1
  O  O16  1  0.01146445  0.22730425  0.27639284  1
  O  O17  1  0.98853555  0.77269575  0.27639284  1
  O  O18  1  0.98853555  0.22730425  0.72360716  1
  O  O19  1  0.01146445  0.77269575  0.72360716  1
  O  O20  1  0.27243720  0.01169340  0.22733747  1
  O  O21  1  0.27243720  0.98830660  0.77266253  1
  O  O22  1  0.72756280  0.98830660  0.22733747  1
  O  O23  1  0.72756280  0.01169340  0.77266253  1
  O  O24  1  0.21939763  0.28519588  0.00680854  1
  O  O25  1  0.78060237  0.28519588  0.99319146  1
  O  O26  1  0.21939763  0.71480412  0.99319146  1
  O  O27  1  0.78060237  0.71480412  0.00680854  1
  O  O28  1  0.48730816  0.28878122  0.21587520  1
  O  O29  1  0.51269184  0.71121878  0.21587520  1
  O  O30  1  0.51269184  0.28878122  0.78412480  1
  O  O31  1  0.48730816  0.71121878  0.78412480  1
  O  O32  1  0.21734931  0.49055447  0.28544631  1
  O  O33  1  0.21734931  0.50944553  0.71455369  1
  O  O34  1  0.78265069  0.50944553  0.28544631  1
  O  O35  1  0.78265069  0.49055447  0.71455369  1
  O  O36  1  0.28614915  0.21940845  0.49262408  1
  O  O37  1  0.71385085  0.21940845  0.50737592  1
  O  O38  1  0.28614915  0.78059155  0.50737592  1
  O  O39  1  0.71385085  0.78059155  0.49262408  1
