# generated using pymatgen
data_NdEu2SbO6
_symmetry_space_group_name_H-M   'P 1'
_cell_length_a   8.45781876
_cell_length_b   8.45781876
_cell_length_c   8.45781876
_cell_angle_alpha   90.00000000
_cell_angle_beta   90.00000000
_cell_angle_gamma   90.00000000
_symmetry_Int_Tables_number   1
_chemical_formula_structural   NdEu2SbO6
_chemical_formula_sum   'Nd4 Eu8 Sb4 O24'
_cell_volume   605.02751223
_cell_formula_units_Z   4
loop_
 _symmetry_equiv_pos_site_id
 _symmetry_equiv_pos_as_xyz
  1  'x, y, z'
loop_
 _atom_site_type_symbol
 _atom_site_label
 _atom_site_symmetry_multiplicity
 _atom_site_fract_x
 _atom_site_fract_y
 _atom_site_fract_z
 _atom_site_occupancy
  Nd  Nd0  1  0.75000000  0.75000000  0.75000000  1
  Nd  Nd1  1  0.75000000  0.25000000  0.25000000  1
  Nd  Nd2  1  0.25000000  0.75000000  0.25000000  1
  Nd  Nd3  1  0.25000000  0.25000000  0.75000000  1
  Eu  Eu4  1  0.50000000  0.50000000  0.50000000  1
  Eu  Eu5  1  -0.00000000  -0.00000000  -0.00000000  1
  Eu  Eu6  1  -0.00000000  -0.00000000  0.50000000  1
  Eu  Eu7  1  -0.00000000  0.50000000  -0.00000000  1
  Eu  Eu8  1  0.50000000  -0.00000000  -0.00000000  1
  Eu  Eu9  1  0.50000000  0.50000000  -0.00000000  1
  Eu  Eu10  1  0.50000000  -0.00000000  0.50000000  1
  Eu  Eu11  1  -0.00000000  0.50000000  0.50000000  1
  Sb  Sb12  1  0.25000000  0.25000000  0.25000000  1
  Sb  Sb13  1  0.25000000  0.75000000  0.75000000  1
  Sb  Sb14  1  0.75000000  0.25000000  0.75000000  1
  Sb  Sb15  1  0.75000000  0.75000000  0.25000000  1
  O  O16  1  0.21192728  0.29648204  0.48081442  1
  O  O17  1  0.21192728  0.70351796  0.51918558  1
  O  O18  1  0.78807272  0.29648204  0.51918558  1
  O  O19  1  0.78807272  0.70351796  0.48081442  1
  O  O20  1  0.29648204  0.48081442  0.21192728  1
  O  O21  1  0.70351796  0.51918558  0.21192728  1
  O  O22  1  0.29648204  0.51918558  0.78807272  1
  O  O23  1  0.70351796  0.48081442  0.78807272  1
  O  O24  1  0.48081442  0.21192728  0.29648204  1
  O  O25  1  0.51918558  0.21192728  0.70351796  1
  O  O26  1  0.51918558  0.78807272  0.29648204  1
  O  O27  1  0.48081442  0.78807272  0.70351796  1
  O  O28  1  0.28807272  0.20351796  0.01918558  1
  O  O29  1  0.28807272  0.79648204  0.98081442  1
  O  O30  1  0.71192728  0.20351796  0.98081442  1
  O  O31  1  0.71192728  0.79648204  0.01918558  1
  O  O32  1  0.20351796  0.01918558  0.28807272  1
  O  O33  1  0.79648204  0.98081442  0.28807272  1
  O  O34  1  0.20351796  0.98081442  0.71192728  1
  O  O35  1  0.79648204  0.01918558  0.71192728  1
  O  O36  1  0.01918558  0.28807272  0.20351796  1
  O  O37  1  0.98081442  0.28807272  0.79648204  1
  O  O38  1  0.98081442  0.71192728  0.20351796  1
  O  O39  1  0.01918558  0.71192728  0.79648204  1
