# generated using pymatgen
data_BaSrSmBiO6
_symmetry_space_group_name_H-M   'P 1'
_cell_length_a   8.70720839
_cell_length_b   8.71221387
_cell_length_c   8.70434664
_cell_angle_alpha   90.00000000
_cell_angle_beta   90.00000000
_cell_angle_gamma   90.00000000
_symmetry_Int_Tables_number   1
_chemical_formula_structural   BaSrSmBiO6
_chemical_formula_sum   'Ba4 Sr4 Sm4 Bi4 O24'
_cell_volume   660.30356886
_cell_formula_units_Z   4
loop_
 _symmetry_equiv_pos_site_id
 _symmetry_equiv_pos_as_xyz
  1  'x, y, z'
loop_
 _atom_site_type_symbol
 _atom_site_label
 _atom_site_symmetry_multiplicity
 _atom_site_fract_x
 _atom_site_fract_y
 _atom_site_fract_z
 _atom_site_occupancy
  Ba  Ba0  1  -0.00000000  0.00000000  0.00000000  1
  Ba  Ba1  1  0.50000000  0.50000000  0.50000000  1
  Ba  Ba2  1  0.50000000  -0.00000000  0.50000000  1
  Ba  Ba3  1  0.50000000  0.50000000  0.00000000  1
  Sr  Sr4  1  -0.00000000  0.50000000  0.50000000  1
  Sr  Sr5  1  0.50000000  0.00000000  -0.00000000  1
  Sr  Sr6  1  -0.00000000  0.50000000  0.00000000  1
  Sr  Sr7  1  -0.00000000  0.00000000  0.50000000  1
  Sm  Sm8  1  0.24749402  0.24932294  0.24911534  1
  Sm  Sm9  1  0.75250598  0.75067706  0.24911534  1
  Sm  Sm10  1  0.75250598  0.24932294  0.75088466  1
  Sm  Sm11  1  0.24749402  0.75067706  0.75088466  1
  Bi  Bi12  1  0.75342008  0.75086665  0.75014519  1
  Bi  Bi13  1  0.24657992  0.24913335  0.75014519  1
  Bi  Bi14  1  0.24657992  0.75086665  0.24985481  1
  Bi  Bi15  1  0.75342008  0.24913335  0.24985481  1
  O  O16  1  0.99153660  0.20439670  0.28505944  1
  O  O17  1  0.00846340  0.79560330  0.28505944  1
  O  O18  1  0.00846340  0.20439670  0.71494056  1
  O  O19  1  0.99153660  0.79560330  0.71494056  1
  O  O20  1  0.28441793  0.99037533  0.20568473  1
  O  O21  1  0.28441793  0.00962467  0.79431527  1
  O  O22  1  0.71558207  0.00962467  0.20568473  1
  O  O23  1  0.71558207  0.99037533  0.79431527  1
  O  O24  1  0.20805109  0.28855185  0.99006911  1
  O  O25  1  0.79194891  0.28855185  0.00993089  1
  O  O26  1  0.20805109  0.71144815  0.00993089  1
  O  O27  1  0.79194891  0.71144815  0.99006911  1
  O  O28  1  0.51009657  0.28152034  0.22392505  1
  O  O29  1  0.48990343  0.71847966  0.22392505  1
  O  O30  1  0.48990343  0.28152034  0.77607495  1
  O  O31  1  0.51009657  0.71847966  0.77607495  1
  O  O32  1  0.21092481  0.50953076  0.28714607  1
  O  O33  1  0.21092481  0.49046924  0.71285393  1
  O  O34  1  0.78907519  0.49046924  0.28714607  1
  O  O35  1  0.78907519  0.50953076  0.71285393  1
  O  O36  1  0.27752448  0.21933647  0.50855395  1
  O  O37  1  0.72247552  0.21933647  0.49144605  1
  O  O38  1  0.27752448  0.78066353  0.49144605  1
  O  O39  1  0.72247552  0.78066353  0.50855395  1
