# generated using pymatgen
data_CaSmEuSbO6
_symmetry_space_group_name_H-M   'P 1'
_cell_length_a   8.44469001
_cell_length_b   8.42309066
_cell_length_c   8.43642336
_cell_angle_alpha   90.00000000
_cell_angle_beta   90.00000000
_cell_angle_gamma   90.00000000
_symmetry_Int_Tables_number   1
_chemical_formula_structural   CaSmEuSbO6
_chemical_formula_sum   'Ca4 Sm4 Eu4 Sb4 O24'
_cell_volume   600.08608000
_cell_formula_units_Z   4
loop_
 _symmetry_equiv_pos_site_id
 _symmetry_equiv_pos_as_xyz
  1  'x, y, z'
loop_
 _atom_site_type_symbol
 _atom_site_label
 _atom_site_symmetry_multiplicity
 _atom_site_fract_x
 _atom_site_fract_y
 _atom_site_fract_z
 _atom_site_occupancy
  Ca  Ca0  1  -0.00000000  0.00000000  0.00000000  1
  Ca  Ca1  1  0.50000000  0.50000000  0.50000000  1
  Ca  Ca2  1  0.50000000  0.00000000  0.50000000  1
  Ca  Ca3  1  0.50000000  0.50000000  0.00000000  1
  Sm  Sm4  1  0.25127747  0.24996978  0.24995089  1
  Sm  Sm5  1  0.74872253  0.75003022  0.24995089  1
  Sm  Sm6  1  0.74872253  0.24996978  0.75004911  1
  Sm  Sm7  1  0.25127747  0.75003022  0.75004911  1
  Eu  Eu8  1  -0.00000000  0.50000000  0.50000000  1
  Eu  Eu9  1  0.50000000  0.00000000  0.00000000  1
  Eu  Eu10  1  -0.00000000  0.50000000  0.00000000  1
  Eu  Eu11  1  -0.00000000  0.00000000  0.50000000  1
  Sb  Sb12  1  0.74809558  0.74998437  0.75009314  1
  Sb  Sb13  1  0.25190442  0.25001563  0.75009314  1
  Sb  Sb14  1  0.25190442  0.74998437  0.24990686  1
  Sb  Sb15  1  0.74809558  0.25001563  0.24990686  1
  O  O16  1  0.98199198  0.20368812  0.28763822  1
  O  O17  1  0.01800802  0.79631188  0.28763822  1
  O  O18  1  0.01800802  0.20368812  0.71236178  1
  O  O19  1  0.98199198  0.79631188  0.71236178  1
  O  O20  1  0.28769811  0.98303537  0.20217608  1
  O  O21  1  0.28769811  0.01696463  0.79782392  1
  O  O22  1  0.71230189  0.01696463  0.20217608  1
  O  O23  1  0.71230189  0.98303537  0.79782392  1
  O  O24  1  0.20225691  0.28638549  0.98294404  1
  O  O25  1  0.79774309  0.28638549  0.01705596  1
  O  O26  1  0.20225691  0.71361451  0.01705596  1
  O  O27  1  0.79774309  0.71361451  0.98294404  1
  O  O28  1  0.51690739  0.30263602  0.20664012  1
  O  O29  1  0.48309261  0.69736398  0.20664012  1
  O  O30  1  0.48309261  0.30263602  0.79335988  1
  O  O31  1  0.51690739  0.69736398  0.79335988  1
  O  O32  1  0.21267097  0.51750025  0.29863911  1
  O  O33  1  0.21267097  0.48249975  0.70136089  1
  O  O34  1  0.78732903  0.48249975  0.29863911  1
  O  O35  1  0.78732903  0.51750025  0.70136089  1
  O  O36  1  0.30333403  0.20756319  0.51770633  1
  O  O37  1  0.69666597  0.20756319  0.48229367  1
  O  O38  1  0.30333403  0.79243681  0.48229367  1
  O  O39  1  0.69666597  0.79243681  0.51770633  1
