# generated using pymatgen
data_CaNdCr4O12
_symmetry_space_group_name_H-M   'P 1'
_cell_length_a   5.28066422
_cell_length_b   5.28066422
_cell_length_c   7.52060890
_cell_angle_alpha   90.00000000
_cell_angle_beta   90.00000000
_cell_angle_gamma   90.03517007
_symmetry_Int_Tables_number   1
_chemical_formula_structural   CaNdCr4O12
_chemical_formula_sum   'Ca1 Nd1 Cr4 O12'
_cell_volume   209.71525794
_cell_formula_units_Z   1
loop_
 _symmetry_equiv_pos_site_id
 _symmetry_equiv_pos_as_xyz
  1  'x, y, z'
loop_
 _atom_site_type_symbol
 _atom_site_label
 _atom_site_symmetry_multiplicity
 _atom_site_fract_x
 _atom_site_fract_y
 _atom_site_fract_z
 _atom_site_occupancy
  Ca  Ca0  1  0.48200568  0.51799432  -0.00000000  1
  Nd  Nd1  1  0.02138422  0.97861578  0.50000000  1
  Cr  Cr2  1  0.50522834  0.00343417  0.24528581  1
  Cr  Cr3  1  0.50522834  0.00343417  0.75471419  1
  Cr  Cr4  1  0.99656583  0.49477166  0.75471419  1
  Cr  Cr5  1  0.99656583  0.49477166  0.24528581  1
  O  O6  1  0.28457928  0.28648910  0.24806214  1
  O  O7  1  0.71351090  0.71542072  0.24806214  1
  O  O8  1  0.71351090  0.71542072  0.75193786  1
  O  O9  1  0.28457928  0.28648910  0.75193786  1
  O  O10  1  0.20953986  0.79046014  0.21364626  1
  O  O11  1  0.78822274  0.21177726  0.28728322  1
  O  O12  1  0.78822274  0.21177726  0.71271678  1
  O  O13  1  0.20953986  0.79046014  0.78635374  1
  O  O14  1  0.54349457  0.04049808  0.00000000  1
  O  O15  1  0.46602856  0.97460887  0.50000000  1
  O  O16  1  0.95950192  0.45650543  0.00000000  1
  O  O17  1  0.02539113  0.53397144  0.50000000  1
