# generated using pymatgen
data_SrCaTi4O12
_symmetry_space_group_name_H-M   'P 1'
_cell_length_a   5.50375221
_cell_length_b   5.50375221
_cell_length_c   7.76923533
_cell_angle_alpha   90.00000000
_cell_angle_beta   90.00000000
_cell_angle_gamma   90.01357008
_symmetry_Int_Tables_number   1
_chemical_formula_structural   SrCaTi4O12
_chemical_formula_sum   'Sr1 Ca1 Ti4 O12'
_cell_volume   235.34014166
_cell_formula_units_Z   1
loop_
 _symmetry_equiv_pos_site_id
 _symmetry_equiv_pos_as_xyz
  1  'x, y, z'
loop_
 _atom_site_type_symbol
 _atom_site_label
 _atom_site_symmetry_multiplicity
 _atom_site_fract_x
 _atom_site_fract_y
 _atom_site_fract_z
 _atom_site_occupancy
  Sr  Sr0  1  0.98816626  0.98816626  0.50000000  1
  Ca  Ca1  1  0.51509457  0.51509457  -0.00000000  1
  Ti  Ti2  1  0.49568674  0.00538028  0.75176744  1
  Ti  Ti3  1  0.49568674  0.00538028  0.24823256  1
  Ti  Ti4  1  0.00538028  0.49568674  0.24823256  1
  Ti  Ti5  1  0.00538028  0.49568674  0.75176744  1
  O  O6  1  0.76521237  0.23390662  0.74952750  1
  O  O7  1  0.23390662  0.76521237  0.74952750  1
  O  O8  1  0.23390662  0.76521237  0.25047250  1
  O  O9  1  0.76521237  0.23390662  0.25047250  1
  O  O10  1  0.73623926  0.73623926  0.74068469  1
  O  O11  1  0.27283867  0.27283867  0.78007453  1
  O  O12  1  0.27283867  0.27283867  0.21992547  1
  O  O13  1  0.73623926  0.73623926  0.25931531  1
  O  O14  1  0.51434016  0.96596686  -0.00000000  1
  O  O15  1  0.48296662  0.01283767  0.50000000  1
  O  O16  1  0.96596686  0.51434016  -0.00000000  1
  O  O17  1  0.01283767  0.48296662  0.50000000  1
