# generated using pymatgen
data_BaSrCeNbO6
_symmetry_space_group_name_H-M   'P 1'
_cell_length_a   6.02504977
_cell_length_b   6.09504877
_cell_length_c   8.55587333
_cell_angle_alpha   90.31402267
_cell_angle_beta   90.27489102
_cell_angle_gamma   90.14060921
_symmetry_Int_Tables_number   1
_chemical_formula_structural   BaSrCeNbO6
_chemical_formula_sum   'Ba2 Sr2 Ce2 Nb2 O12'
_cell_volume   314.18779655
_cell_formula_units_Z   2
loop_
 _symmetry_equiv_pos_site_id
 _symmetry_equiv_pos_as_xyz
  1  'x, y, z'
loop_
 _atom_site_type_symbol
 _atom_site_label
 _atom_site_symmetry_multiplicity
 _atom_site_fract_x
 _atom_site_fract_y
 _atom_site_fract_z
 _atom_site_occupancy
  Ba  Ba0  1  0.50638043  0.53119717  0.25017171  1
  Ba  Ba1  1  0.49361957  0.46880283  0.74982829  1
  Sr  Sr2  1  0.99166822  0.03930337  0.25067371  1
  Sr  Sr3  1  0.00833178  0.96069663  0.74932629  1
  Ce  Ce4  1  0.00000000  0.50000000  -0.00000000  1
  Ce  Ce5  1  0.50000000  0.00000000  0.50000000  1
  Nb  Nb6  1  0.50000000  0.00000000  -0.00000000  1
  Nb  Nb7  1  0.00000000  0.50000000  0.50000000  1
  O  O8  1  0.22805008  0.19653105  0.95781886  1
  O  O9  1  0.26775984  0.70306144  0.53427074  1
  O  O10  1  0.77194992  0.80346895  0.04218114  1
  O  O11  1  0.73224016  0.29693856  0.46572926  1
  O  O12  1  0.29852298  0.73322879  0.96127507  1
  O  O13  1  0.19196511  0.22534413  0.54280958  1
  O  O14  1  0.70147702  0.26677121  0.03872493  1
  O  O15  1  0.80803489  0.77465587  0.45719042  1
  O  O16  1  0.41720471  0.99237206  0.23387573  1
  O  O17  1  0.06524723  0.46905223  0.26581423  1
  O  O18  1  0.58279529  0.00762794  0.76612427  1
  O  O19  1  0.93475277  0.53094777  0.73418577  1
