# generated using pymatgen
data_SmTi4ZnO12
_symmetry_space_group_name_H-M   'P 1'
_cell_length_a   5.31635126
_cell_length_b   5.31635126
_cell_length_c   7.86547255
_cell_angle_alpha   90.00000000
_cell_angle_beta   90.00000000
_cell_angle_gamma   90.25696954
_symmetry_Int_Tables_number   1
_chemical_formula_structural   SmTi4ZnO12
_chemical_formula_sum   'Sm1 Ti4 Zn1 O12'
_cell_volume   222.30426113
_cell_formula_units_Z   1
loop_
 _symmetry_equiv_pos_site_id
 _symmetry_equiv_pos_as_xyz
  1  'x, y, z'
loop_
 _atom_site_type_symbol
 _atom_site_label
 _atom_site_symmetry_multiplicity
 _atom_site_fract_x
 _atom_site_fract_y
 _atom_site_fract_z
 _atom_site_occupancy
  Sm  Sm0  1  0.53261475  0.46738525  0.50000000  1
  Ti  Ti1  1  0.49528317  0.98708177  0.23333048  1
  Ti  Ti2  1  0.49528317  0.98708177  0.76666952  1
  Ti  Ti3  1  0.01291823  0.50471683  0.76666952  1
  Ti  Ti4  1  0.01291823  0.50471683  0.23333048  1
  Zn  Zn5  1  0.98340642  0.01659358  -0.00000000  1
  O  O6  1  0.29350162  0.29981012  0.26943975  1
  O  O7  1  0.70018988  0.70649838  0.26943975  1
  O  O8  1  0.70018988  0.70649838  0.73056025  1
  O  O9  1  0.29350162  0.29981012  0.73056025  1
  O  O10  1  0.17952779  0.82047221  0.17931678  1
  O  O11  1  0.76786678  0.23213322  0.29252881  1
  O  O12  1  0.76786678  0.23213322  0.70747119  1
  O  O13  1  0.17952779  0.82047221  0.82068322  1
  O  O14  1  0.59947517  0.01239217  -0.00000000  1
  O  O15  1  0.45266538  0.94944450  0.50000000  1
  O  O16  1  0.98760783  0.40052483  0.00000000  1
  O  O17  1  0.05055550  0.54733462  0.50000000  1
