# generated using pymatgen
data_BaCaHf4O12
_symmetry_space_group_name_H-M   'P 1'
_cell_length_a   5.83960168
_cell_length_b   5.83960168
_cell_length_c   8.20673078
_cell_angle_alpha   90.00000000
_cell_angle_beta   90.00000000
_cell_angle_gamma   89.95896141
_symmetry_Int_Tables_number   1
_chemical_formula_structural   BaCaHf4O12
_chemical_formula_sum   'Ba1 Ca1 Hf4 O12'
_cell_volume   279.85722633
_cell_formula_units_Z   1
loop_
 _symmetry_equiv_pos_site_id
 _symmetry_equiv_pos_as_xyz
  1  'x, y, z'
loop_
 _atom_site_type_symbol
 _atom_site_label
 _atom_site_symmetry_multiplicity
 _atom_site_fract_x
 _atom_site_fract_y
 _atom_site_fract_z
 _atom_site_occupancy
  Ba  Ba0  1  0.51627922  0.48372078  0.50000000  1
  Ca  Ca1  1  0.97671679  0.02328321  0.00000000  1
  Hf  Hf2  1  0.49097825  0.99286540  0.24460496  1
  Hf  Hf3  1  0.49097825  0.99286540  0.75539504  1
  Hf  Hf4  1  0.00713460  0.50902175  0.75539504  1
  Hf  Hf5  1  0.00713460  0.50902175  0.24460496  1
  O  O6  1  0.27225772  0.27223426  0.24890947  1
  O  O7  1  0.72776574  0.72774228  0.24890947  1
  O  O8  1  0.72776574  0.72774228  0.75109053  1
  O  O9  1  0.27225772  0.27223426  0.75109053  1
  O  O10  1  0.21231091  0.78768909  0.20049842  1
  O  O11  1  0.76587341  0.23412659  0.25923253  1
  O  O12  1  0.76587341  0.23412659  0.74076747  1
  O  O13  1  0.21231091  0.78768909  0.79950158  1
  O  O14  1  0.56861468  0.01722872  0.00000000  1
  O  O15  1  0.48738117  0.98160439  0.50000000  1
  O  O16  1  0.98277128  0.43138532  0.00000000  1
  O  O17  1  0.01839561  0.51261883  0.50000000  1
