# generated using pymatgen
data_SrLaEuSbO6
_symmetry_space_group_name_H-M   'P 1'
_cell_length_a   5.90749204
_cell_length_b   6.08614590
_cell_length_c   8.50019046
_cell_angle_alpha   90.12170857
_cell_angle_beta   90.62727504
_cell_angle_gamma   89.97446534
_symmetry_Int_Tables_number   1
_chemical_formula_structural   SrLaEuSbO6
_chemical_formula_sum   'Sr2 La2 Eu2 Sb2 O12'
_cell_volume   305.59561268
_cell_formula_units_Z   2
loop_
 _symmetry_equiv_pos_site_id
 _symmetry_equiv_pos_as_xyz
  1  'x, y, z'
loop_
 _atom_site_type_symbol
 _atom_site_label
 _atom_site_symmetry_multiplicity
 _atom_site_fract_x
 _atom_site_fract_y
 _atom_site_fract_z
 _atom_site_occupancy
  Sr  Sr0  1  0.98568155  0.05231283  0.25138685  1
  Sr  Sr1  1  0.01431845  0.94768717  0.74861315  1
  La  La2  1  0.00000000  0.50000000  0.00000000  1
  La  La3  1  0.50000000  -0.00000000  0.50000000  1
  Eu  Eu4  1  0.51509151  0.55295105  0.24826768  1
  Eu  Eu5  1  0.48490849  0.44704895  0.75173232  1
  Sb  Sb6  1  0.50000000  -0.00000000  0.00000000  1
  Sb  Sb7  1  0.00000000  0.50000000  0.50000000  1
  O  O8  1  0.22366025  0.18341029  0.94682629  1
  O  O9  1  0.27744118  0.68082260  0.55641771  1
  O  O10  1  0.77633975  0.81658971  0.05317371  1
  O  O11  1  0.72255882  0.31917740  0.44358229  1
  O  O12  1  0.32652543  0.71961852  0.94413624  1
  O  O13  1  0.17659899  0.22239675  0.55488788  1
  O  O14  1  0.67347457  0.28038148  0.05586376  1
  O  O15  1  0.82340101  0.77760325  0.44511212  1
  O  O16  1  0.40191444  0.96228150  0.22686882  1
  O  O17  1  0.10655902  0.46746597  0.27339332  1
  O  O18  1  0.59808556  0.03771850  0.77313118  1
  O  O19  1  0.89344098  0.53253403  0.72660668  1
