# generated using pymatgen
data_BaSrPrWO6
_symmetry_space_group_name_H-M   'P 1'
_cell_length_a   6.08731619
_cell_length_b   6.10283759
_cell_length_c   8.57081349
_cell_angle_alpha   90.17786360
_cell_angle_beta   90.79803280
_cell_angle_gamma   90.15925964
_symmetry_Int_Tables_number   1
_chemical_formula_structural   BaSrPrWO6
_chemical_formula_sum   'Ba2 Sr2 Pr2 W2 O12'
_cell_volume   318.37119462
_cell_formula_units_Z   2
loop_
 _symmetry_equiv_pos_site_id
 _symmetry_equiv_pos_as_xyz
  1  'x, y, z'
loop_
 _atom_site_type_symbol
 _atom_site_label
 _atom_site_symmetry_multiplicity
 _atom_site_fract_x
 _atom_site_fract_y
 _atom_site_fract_z
 _atom_site_occupancy
  Ba  Ba0  1  0.50745111  0.52809908  0.24877874  1
  Ba  Ba1  1  0.49254889  0.47190092  0.75122126  1
  Sr  Sr2  1  0.99232229  0.03558077  0.25347088  1
  Sr  Sr3  1  0.00767771  0.96441923  0.74652912  1
  Pr  Pr4  1  0.00000000  0.50000000  -0.00000000  1
  Pr  Pr5  1  0.50000000  -0.00000000  0.50000000  1
  W  W6  1  0.50000000  -0.00000000  -0.00000000  1
  W  W7  1  0.00000000  0.50000000  0.50000000  1
  O  O8  1  0.23518371  0.19323367  0.95545439  1
  O  O9  1  0.26384295  0.69463690  0.52826849  1
  O  O10  1  0.76481629  0.80676633  0.04454561  1
  O  O11  1  0.73615705  0.30536310  0.47173151  1
  O  O12  1  0.29991511  0.73769530  0.95560319  1
  O  O13  1  0.18951703  0.22636177  0.54603539  1
  O  O14  1  0.70008489  0.26230470  0.04439681  1
  O  O15  1  0.81048297  0.77363823  0.45396461  1
  O  O16  1  0.41255389  0.99853670  0.22663562  1
  O  O17  1  0.06958562  0.46997068  0.27215608  1
  O  O18  1  0.58744611  0.00146330  0.77336438  1
  O  O19  1  0.93041438  0.53002932  0.72784392  1
