# generated using pymatgen
data_Sr2GdNbO6
_symmetry_space_group_name_H-M   'P 1'
_cell_length_a   8.42656208
_cell_length_b   8.42656208
_cell_length_c   8.42656208
_cell_angle_alpha   90.00000000
_cell_angle_beta   90.00000000
_cell_angle_gamma   90.00000000
_symmetry_Int_Tables_number   1
_chemical_formula_structural   Sr2GdNbO6
_chemical_formula_sum   'Sr8 Gd4 Nb4 O24'
_cell_volume   598.34445955
_cell_formula_units_Z   4
loop_
 _symmetry_equiv_pos_site_id
 _symmetry_equiv_pos_as_xyz
  1  'x, y, z'
loop_
 _atom_site_type_symbol
 _atom_site_label
 _atom_site_symmetry_multiplicity
 _atom_site_fract_x
 _atom_site_fract_y
 _atom_site_fract_z
 _atom_site_occupancy
  Sr  Sr0  1  0.50000000  0.50000000  0.50000000  1
  Sr  Sr1  1  0.00000000  -0.00000000  -0.00000000  1
  Sr  Sr2  1  0.00000000  -0.00000000  0.50000000  1
  Sr  Sr3  1  0.00000000  0.50000000  -0.00000000  1
  Sr  Sr4  1  0.50000000  -0.00000000  -0.00000000  1
  Sr  Sr5  1  0.50000000  0.50000000  -0.00000000  1
  Sr  Sr6  1  0.50000000  -0.00000000  0.50000000  1
  Sr  Sr7  1  0.00000000  0.50000000  0.50000000  1
  Gd  Gd8  1  0.75000000  0.75000000  0.75000000  1
  Gd  Gd9  1  0.75000000  0.25000000  0.25000000  1
  Gd  Gd10  1  0.25000000  0.75000000  0.25000000  1
  Gd  Gd11  1  0.25000000  0.25000000  0.75000000  1
  Nb  Nb12  1  0.25000000  0.25000000  0.25000000  1
  Nb  Nb13  1  0.25000000  0.75000000  0.75000000  1
  Nb  Nb14  1  0.75000000  0.25000000  0.75000000  1
  Nb  Nb15  1  0.75000000  0.75000000  0.25000000  1
  O  O16  1  0.21644498  0.29118431  0.48444711  1
  O  O17  1  0.21644498  0.70881569  0.51555289  1
  O  O18  1  0.78355502  0.29118431  0.51555289  1
  O  O19  1  0.78355502  0.70881569  0.48444711  1
  O  O20  1  0.29118431  0.48444711  0.21644498  1
  O  O21  1  0.70881569  0.51555289  0.21644498  1
  O  O22  1  0.29118431  0.51555289  0.78355502  1
  O  O23  1  0.70881569  0.48444711  0.78355502  1
  O  O24  1  0.48444711  0.21644498  0.29118431  1
  O  O25  1  0.51555289  0.21644498  0.70881569  1
  O  O26  1  0.51555289  0.78355502  0.29118431  1
  O  O27  1  0.48444711  0.78355502  0.70881569  1
  O  O28  1  0.28355502  0.20881569  0.01555289  1
  O  O29  1  0.28355502  0.79118431  0.98444711  1
  O  O30  1  0.71644498  0.20881569  0.98444711  1
  O  O31  1  0.71644498  0.79118431  0.01555289  1
  O  O32  1  0.20881569  0.01555289  0.28355502  1
  O  O33  1  0.79118431  0.98444711  0.28355502  1
  O  O34  1  0.20881569  0.98444711  0.71644498  1
  O  O35  1  0.79118431  0.01555289  0.71644498  1
  O  O36  1  0.01555289  0.28355502  0.20881569  1
  O  O37  1  0.98444711  0.28355502  0.79118431  1
  O  O38  1  0.98444711  0.71644498  0.20881569  1
  O  O39  1  0.01555289  0.71644498  0.79118431  1
