# generated using pymatgen
data_BaNaPrNbO6
_symmetry_space_group_name_H-M   'P 1'
_cell_length_a   8.63740882
_cell_length_b   8.61397828
_cell_length_c   8.61377572
_cell_angle_alpha   90.00000000
_cell_angle_beta   90.00000000
_cell_angle_gamma   90.00000000
_symmetry_Int_Tables_number   1
_chemical_formula_structural   BaNaPrNbO6
_chemical_formula_sum   'Ba4 Na4 Pr4 Nb4 O24'
_cell_volume   640.88603430
_cell_formula_units_Z   4
loop_
 _symmetry_equiv_pos_site_id
 _symmetry_equiv_pos_as_xyz
  1  'x, y, z'
loop_
 _atom_site_type_symbol
 _atom_site_label
 _atom_site_symmetry_multiplicity
 _atom_site_fract_x
 _atom_site_fract_y
 _atom_site_fract_z
 _atom_site_occupancy
  Ba  Ba0  1  0.00000000  -0.00000000  -0.00000000  1
  Ba  Ba1  1  0.50000000  0.50000000  0.50000000  1
  Ba  Ba2  1  0.00000000  0.50000000  0.50000000  1
  Ba  Ba3  1  0.50000000  -0.00000000  -0.00000000  1
  Na  Na4  1  0.50000000  -0.00000000  0.50000000  1
  Na  Na5  1  0.50000000  0.50000000  -0.00000000  1
  Na  Na6  1  0.00000000  0.50000000  -0.00000000  1
  Na  Na7  1  0.00000000  -0.00000000  0.50000000  1
  Pr  Pr8  1  0.25000000  0.25000000  0.25000000  1
  Pr  Pr9  1  0.75000000  0.75000000  0.25000000  1
  Pr  Pr10  1  0.75000000  0.25000000  0.75000000  1
  Pr  Pr11  1  0.25000000  0.75000000  0.75000000  1
  Nb  Nb12  1  0.75000000  0.75000000  0.75000000  1
  Nb  Nb13  1  0.25000000  0.25000000  0.75000000  1
  Nb  Nb14  1  0.25000000  0.75000000  0.25000000  1
  Nb  Nb15  1  0.75000000  0.25000000  0.25000000  1
  O  O16  1  0.97805635  0.21828854  0.29437780  1
  O  O17  1  0.02194365  0.78171146  0.29437780  1
  O  O18  1  0.02194365  0.21828854  0.70562220  1
  O  O19  1  0.97805635  0.78171146  0.70562220  1
  O  O20  1  0.27192544  0.98003488  0.20970862  1
  O  O21  1  0.27192544  0.01996512  0.79029138  1
  O  O22  1  0.72807456  0.01996512  0.20970862  1
  O  O23  1  0.72807456  0.98003488  0.79029138  1
  O  O24  1  0.20006951  0.27547235  0.97765016  1
  O  O25  1  0.79993049  0.27547235  0.02234984  1
  O  O26  1  0.20006951  0.72452765  0.02234984  1
  O  O27  1  0.79993049  0.72452765  0.97765016  1
  O  O28  1  0.52194365  0.28171146  0.20562220  1
  O  O29  1  0.47805635  0.71828854  0.20562220  1
  O  O30  1  0.47805635  0.28171146  0.79437780  1
  O  O31  1  0.52194365  0.71828854  0.79437780  1
  O  O32  1  0.22807456  0.51996512  0.29029138  1
  O  O33  1  0.22807456  0.48003488  0.70970862  1
  O  O34  1  0.77192544  0.48003488  0.29029138  1
  O  O35  1  0.77192544  0.51996512  0.70970862  1
  O  O36  1  0.29993049  0.22452765  0.52234984  1
  O  O37  1  0.70006951  0.22452765  0.47765016  1
  O  O38  1  0.29993049  0.77547235  0.47765016  1
  O  O39  1  0.70006951  0.77547235  0.52234984  1
