# generated using pymatgen
data_BaSrYNbO6
_symmetry_space_group_name_H-M   'P 1'
_cell_length_a   8.45782102
_cell_length_b   8.46407170
_cell_length_c   8.46703243
_cell_angle_alpha   90.00000000
_cell_angle_beta   90.00000000
_cell_angle_gamma   90.00000000
_symmetry_Int_Tables_number   1
_chemical_formula_structural   BaSrYNbO6
_chemical_formula_sum   'Ba4 Sr4 Y4 Nb4 O24'
_cell_volume   606.13456075
_cell_formula_units_Z   4
loop_
 _symmetry_equiv_pos_site_id
 _symmetry_equiv_pos_as_xyz
  1  'x, y, z'
loop_
 _atom_site_type_symbol
 _atom_site_label
 _atom_site_symmetry_multiplicity
 _atom_site_fract_x
 _atom_site_fract_y
 _atom_site_fract_z
 _atom_site_occupancy
  Ba  Ba0  1  -0.00000000  -0.00000000  0.00000000  1
  Ba  Ba1  1  0.50000000  0.50000000  0.50000000  1
  Ba  Ba2  1  0.50000000  0.00000000  0.00000000  1
  Ba  Ba3  1  0.00000000  -0.00000000  0.50000000  1
  Sr  Sr4  1  -0.00000000  0.50000000  0.50000000  1
  Sr  Sr5  1  0.50000000  -0.00000000  0.50000000  1
  Sr  Sr6  1  0.50000000  0.50000000  0.00000000  1
  Sr  Sr7  1  0.00000000  0.50000000  -0.00000000  1
  Y  Y8  1  0.25060855  0.25271772  0.25020219  1
  Y  Y9  1  0.74939145  0.74728228  0.25020219  1
  Y  Y10  1  0.74939145  0.25271772  0.74979781  1
  Y  Y11  1  0.25060855  0.74728228  0.74979781  1
  Nb  Nb12  1  0.75066862  0.74631479  0.74913893  1
  Nb  Nb13  1  0.24933138  0.25368521  0.74913893  1
  Nb  Nb14  1  0.24933138  0.74631479  0.25086107  1
  Nb  Nb15  1  0.75066862  0.25368521  0.25086107  1
  O  O16  1  0.98659951  0.22964715  0.27265210  1
  O  O17  1  0.01340049  0.77035285  0.27265210  1
  O  O18  1  0.01340049  0.22964715  0.72734790  1
  O  O19  1  0.98659951  0.77035285  0.72734790  1
  O  O20  1  0.27026673  0.98518125  0.22787757  1
  O  O21  1  0.27026673  0.01481875  0.77212243  1
  O  O22  1  0.72973327  0.01481875  0.22787757  1
  O  O23  1  0.72973327  0.98518125  0.77212243  1
  O  O24  1  0.21978517  0.28196410  0.98621053  1
  O  O25  1  0.78021483  0.28196410  0.01378947  1
  O  O26  1  0.21978517  0.71803590  0.01378947  1
  O  O27  1  0.78021483  0.71803590  0.98621053  1
  O  O28  1  0.51462016  0.28648975  0.21692422  1
  O  O29  1  0.48537984  0.71351025  0.21692422  1
  O  O30  1  0.48537984  0.28648975  0.78307578  1
  O  O31  1  0.51462016  0.71351025  0.78307578  1
  O  O32  1  0.21765259  0.51319976  0.28720951  1
  O  O33  1  0.21765259  0.48680024  0.71279049  1
  O  O34  1  0.78234741  0.48680024  0.28720951  1
  O  O35  1  0.78234741  0.51319976  0.71279049  1
  O  O36  1  0.28599256  0.22130907  0.51441887  1
  O  O37  1  0.71400744  0.22130907  0.48558113  1
  O  O38  1  0.28599256  0.77869093  0.48558113  1
  O  O39  1  0.71400744  0.77869093  0.51441887  1
