# generated using pymatgen
data_BaCeNbInO6
_symmetry_space_group_name_H-M   'P 1'
_cell_length_a   8.57096661
_cell_length_b   8.59825879
_cell_length_c   8.59224970
_cell_angle_alpha   90.00000000
_cell_angle_beta   90.00000000
_cell_angle_gamma   90.00000000
_symmetry_Int_Tables_number   1
_chemical_formula_structural   BaCeNbInO6
_chemical_formula_sum   'Ba4 Ce4 Nb4 In4 O24'
_cell_volume   633.20918397
_cell_formula_units_Z   4
loop_
 _symmetry_equiv_pos_site_id
 _symmetry_equiv_pos_as_xyz
  1  'x, y, z'
loop_
 _atom_site_type_symbol
 _atom_site_label
 _atom_site_symmetry_multiplicity
 _atom_site_fract_x
 _atom_site_fract_y
 _atom_site_fract_z
 _atom_site_occupancy
  Ba  Ba0  1  -0.00000000  0.00000000  -0.00000000  1
  Ba  Ba1  1  0.50000000  0.50000000  0.50000000  1
  Ba  Ba2  1  0.50000000  0.00000000  0.50000000  1
  Ba  Ba3  1  0.00000000  0.50000000  -0.00000000  1
  Ce  Ce4  1  0.75000000  0.75000000  0.75000000  1
  Ce  Ce5  1  0.25000000  0.25000000  0.75000000  1
  Ce  Ce6  1  0.25000000  0.75000000  0.25000000  1
  Ce  Ce7  1  0.75000000  0.25000000  0.25000000  1
  Nb  Nb8  1  0.25000000  0.25000000  0.25000000  1
  Nb  Nb9  1  0.75000000  0.75000000  0.25000000  1
  Nb  Nb10  1  0.75000000  0.25000000  0.75000000  1
  Nb  Nb11  1  0.25000000  0.75000000  0.75000000  1
  In  In12  1  0.00000000  0.50000000  0.50000000  1
  In  In13  1  0.50000000  0.50000000  -0.00000000  1
  In  In14  1  0.50000000  0.00000000  -0.00000000  1
  In  In15  1  -0.00000000  0.00000000  0.50000000  1
  O  O16  1  0.01400408  0.23259800  0.25037174  1
  O  O17  1  0.98599592  0.76740200  0.25037174  1
  O  O18  1  0.98599592  0.23259800  0.74962826  1
  O  O19  1  0.01400408  0.76740200  0.74962826  1
  O  O20  1  0.26704551  0.01445739  0.24789673  1
  O  O21  1  0.26704551  0.98554261  0.75210327  1
  O  O22  1  0.73295449  0.98554261  0.24789673  1
  O  O23  1  0.73295449  0.01445739  0.75210327  1
  O  O24  1  0.23077049  0.25088330  0.01332262  1
  O  O25  1  0.76922951  0.25088330  0.98667738  1
  O  O26  1  0.23077049  0.74911670  0.98667738  1
  O  O27  1  0.76922951  0.74911670  0.01332262  1
  O  O28  1  0.48599592  0.26740200  0.24962826  1
  O  O29  1  0.51400408  0.73259800  0.24962826  1
  O  O30  1  0.51400408  0.26740200  0.75037174  1
  O  O31  1  0.48599592  0.73259800  0.75037174  1
  O  O32  1  0.23295449  0.48554261  0.25210327  1
  O  O33  1  0.23295449  0.51445739  0.74789673  1
  O  O34  1  0.76704551  0.51445739  0.25210327  1
  O  O35  1  0.76704551  0.48554261  0.74789673  1
  O  O36  1  0.26922951  0.24911670  0.48667738  1
  O  O37  1  0.73077049  0.24911670  0.51332262  1
  O  O38  1  0.26922951  0.75088330  0.51332262  1
  O  O39  1  0.73077049  0.75088330  0.48667738  1
