# generated using pymatgen
data_BaSrNdCrO6
_symmetry_space_group_name_H-M   'P 1'
_cell_length_a   5.92671948
_cell_length_b   5.89921598
_cell_length_c   8.40695631
_cell_angle_alpha   90.20786040
_cell_angle_beta   89.69521893
_cell_angle_gamma   88.98537490
_symmetry_Int_Tables_number   1
_chemical_formula_structural   BaSrNdCrO6
_chemical_formula_sum   'Ba2 Sr2 Nd2 Cr2 O12'
_cell_volume   293.88011797
_cell_formula_units_Z   2
loop_
 _symmetry_equiv_pos_site_id
 _symmetry_equiv_pos_as_xyz
  1  'x, y, z'
loop_
 _atom_site_type_symbol
 _atom_site_label
 _atom_site_symmetry_multiplicity
 _atom_site_fract_x
 _atom_site_fract_y
 _atom_site_fract_z
 _atom_site_occupancy
  Ba  Ba0  1  0.99771636  0.01201349  0.24739406  1
  Ba  Ba1  1  0.00228364  0.98798651  0.75260594  1
  Sr  Sr2  1  0.49969014  0.51582494  0.25142002  1
  Sr  Sr3  1  0.50030986  0.48417506  0.74857998  1
  Nd  Nd4  1  0.50000000  -0.00000000  0.00000000  1
  Nd  Nd5  1  0.00000000  0.50000000  0.50000000  1
  Cr  Cr6  1  0.00000000  0.50000000  0.00000000  1
  Cr  Cr7  1  0.50000000  -0.00000000  0.50000000  1
  O  O8  1  0.20093576  0.25313155  0.97428885  1
  O  O9  1  0.30011044  0.74312980  0.52644970  1
  O  O10  1  0.79906424  0.74686845  0.02571115  1
  O  O11  1  0.69988956  0.25687020  0.47355030  1
  O  O12  1  0.24720111  0.70013822  0.97211621  1
  O  O13  1  0.25993935  0.19877094  0.52203935  1
  O  O14  1  0.75279889  0.29986178  0.02788379  1
  O  O15  1  0.74006065  0.80122906  0.47796065  1
  O  O16  1  0.45653207  0.98802298  0.27390993  1
  O  O17  1  0.05871814  0.49754044  0.22444285  1
  O  O18  1  0.54346793  0.01197702  0.72609007  1
  O  O19  1  0.94128186  0.50245956  0.77555715  1
