# generated using pymatgen
data_CaSmV4O12
_symmetry_space_group_name_H-M   'P 1'
_cell_length_a   5.31935128
_cell_length_b   5.31935128
_cell_length_c   7.51923313
_cell_angle_alpha   90.00000000
_cell_angle_beta   90.00000000
_cell_angle_gamma   90.05625509
_symmetry_Int_Tables_number   1
_chemical_formula_structural   CaSmV4O12
_chemical_formula_sum   'Ca1 Sm1 V4 O12'
_cell_volume   212.76034336
_cell_formula_units_Z   1
loop_
 _symmetry_equiv_pos_site_id
 _symmetry_equiv_pos_as_xyz
  1  'x, y, z'
loop_
 _atom_site_type_symbol
 _atom_site_label
 _atom_site_symmetry_multiplicity
 _atom_site_fract_x
 _atom_site_fract_y
 _atom_site_fract_z
 _atom_site_occupancy
  Ca  Ca0  1  0.50000000  0.50000000  0.50000000  1
  Sm  Sm1  1  0.00000000  0.00000000  0.00000000  1
  V  V2  1  0.00000000  0.50000000  0.25232416  1
  V  V3  1  0.00000000  0.50000000  0.74767584  1
  V  V4  1  0.50000000  0.00000000  0.25232416  1
  V  V5  1  0.50000000  0.00000000  0.74767584  1
  O  O6  1  0.22969276  0.22969276  0.24492181  1
  O  O7  1  0.22969276  0.22969276  0.75507819  1
  O  O8  1  0.77030724  0.77030724  0.24492181  1
  O  O9  1  0.77030724  0.77030724  0.75507819  1
  O  O10  1  0.73373953  0.26626047  0.75153867  1
  O  O11  1  0.73373953  0.26626047  0.24846133  1
  O  O12  1  0.26626047  0.73373953  0.75153867  1
  O  O13  1  0.26626047  0.73373953  0.24846133  1
  O  O14  1  0.00000000  0.50000000  -0.00000000  1
  O  O15  1  0.00000000  0.50000000  0.50000000  1
  O  O16  1  0.50000000  0.00000000  0.00000000  1
  O  O17  1  0.50000000  0.00000000  0.50000000  1
