# generated using pymatgen
data_Li7Mn5O12
_symmetry_space_group_name_H-M   'P 1'
_cell_length_a   6.91327186
_cell_length_b   7.76852516
_cell_length_c   8.59955015
_cell_angle_alpha   78.97343210
_cell_angle_beta   102.01478464
_cell_angle_gamma   87.73000063
_symmetry_Int_Tables_number   1
_chemical_formula_structural   Li7Mn5O12
_chemical_formula_sum   'Li14 Mn10 O24'
_cell_volume   441.87008777
_cell_formula_units_Z   2
loop_
 _symmetry_equiv_pos_site_id
 _symmetry_equiv_pos_as_xyz
  1  'x, y, z'
loop_
 _atom_site_type_symbol
 _atom_site_label
 _atom_site_symmetry_multiplicity
 _atom_site_fract_x
 _atom_site_fract_y
 _atom_site_fract_z
 _atom_site_occupancy
  Li  Li0  1  0.25000600  0.25001500  0.16669500  1
  Li  Li1  1  0.74998100  0.75000900  0.16665500  1
  Li  Li2  1  0.36344100  0.87236600  0.91860900  1
  Li  Li3  1  0.86335200  0.37242600  0.91849900  1
  Li  Li4  1  0.63660300  0.12761400  0.41471400  1
  Li  Li5  1  0.13653700  0.62762900  0.41463000  1
  Li  Li6  1  0.63874500  0.11381900  0.08833200  1
  Li  Li7  1  0.13875600  0.61380300  0.08830600  1
  Li  Li8  1  0.36126600  0.88613900  0.24494900  1
  Li  Li9  1  0.86126600  0.38618000  0.24494000  1
  Li  Li10  1  0.62768400  0.12011400  0.75077200  1
  Li  Li11  1  0.12759500  0.62004800  0.75079700  1
  Li  Li12  1  0.37242000  0.87991100  0.58249800  1
  Li  Li13  1  0.87232100  0.37990900  0.58252700  1
  Mn  Mn14  1  0.49998100  0.50004900  0.66668800  1
  Mn  Mn15  1  0.00041600  0.99973600  0.00104400  1
  Mn  Mn16  1  0.99966600  0.00020100  0.33233300  1
  Mn  Mn17  1  0.24969400  0.24985500  0.49700900  1
  Mn  Mn18  1  0.75020100  0.75006000  0.83650800  1
  Mn  Mn19  1  0.99993600  0.00000400  0.66664800  1
  Mn  Mn20  1  0.50039100  0.49979000  0.00102500  1
  Mn  Mn21  1  0.49947900  0.50028000  0.33230000  1
  Mn  Mn22  1  0.74980500  0.74992400  0.49672600  1
  Mn  Mn23  1  0.25027600  0.25002300  0.83649800  1
  O  O24  1  0.56303800  0.33005100  0.87437500  1
  O  O25  1  0.06308500  0.82989700  0.87456000  1
  O  O26  1  0.43689800  0.67010800  0.45878700  1
  O  O27  1  0.93701700  0.17001900  0.45898100  1
  O  O28  1  0.27964100  0.06313000  0.02935800  1
  O  O29  1  0.77961400  0.56312300  0.02932200  1
  O  O30  1  0.72040300  0.93692600  0.30393400  1
  O  O31  1  0.22035800  0.43680200  0.30405300  1
  O  O32  1  0.31199800  0.07957700  0.70611800  1
  O  O33  1  0.81186800  0.57970700  0.70593200  1
  O  O34  1  0.68817700  0.92032300  0.62731900  1
  O  O35  1  0.18808900  0.42032200  0.62738800  1
  O  O36  1  0.56174300  0.32865400  0.53703600  1
  O  O37  1  0.06185700  0.82854100  0.53704300  1
  O  O38  1  0.43815200  0.67150300  0.79632400  1
  O  O39  1  0.93828400  0.17137900  0.79635100  1
  O  O40  1  0.27435400  0.06444500  0.37531800  1
  O  O41  1  0.77433900  0.56440600  0.37519600  1
  O  O42  1  0.72563100  0.93560200  0.95810600  1
  O  O43  1  0.22568500  0.43557300  0.95808300  1
  O  O44  1  0.56340000  0.33413100  0.20587700  1
  O  O45  1  0.06337600  0.83414200  0.20596600  1
  O  O46  1  0.43658400  0.66584900  0.12740900  1
  O  O47  1  0.93659400  0.16589000  0.12746100  1
