# generated using pymatgen
data_BaCaTbBiO6
_symmetry_space_group_name_H-M   'P 1'
_cell_length_a   8.57051858
_cell_length_b   8.55248786
_cell_length_c   8.54771605
_cell_angle_alpha   90.00000000
_cell_angle_beta   90.00000000
_cell_angle_gamma   90.00000000
_symmetry_Int_Tables_number   1
_chemical_formula_structural   BaCaTbBiO6
_chemical_formula_sum   'Ba4 Ca4 Tb4 Bi4 O24'
_cell_volume   626.54122790
_cell_formula_units_Z   4
loop_
 _symmetry_equiv_pos_site_id
 _symmetry_equiv_pos_as_xyz
  1  'x, y, z'
loop_
 _atom_site_type_symbol
 _atom_site_label
 _atom_site_symmetry_multiplicity
 _atom_site_fract_x
 _atom_site_fract_y
 _atom_site_fract_z
 _atom_site_occupancy
  Ba  Ba0  1  0.00000000  -0.00000000  0.00000000  1
  Ba  Ba1  1  0.50000000  0.50000000  0.50000000  1
  Ba  Ba2  1  0.50000000  -0.00000000  0.00000000  1
  Ba  Ba3  1  -0.00000000  0.50000000  0.00000000  1
  Ca  Ca4  1  0.00000000  0.50000000  0.50000000  1
  Ca  Ca5  1  0.50000000  -0.00000000  0.50000000  1
  Ca  Ca6  1  0.50000000  0.50000000  0.00000000  1
  Ca  Ca7  1  -0.00000000  -0.00000000  0.50000000  1
  Tb  Tb8  1  0.25091956  0.25087329  0.25519312  1
  Tb  Tb9  1  0.74908044  0.74912671  0.25519312  1
  Tb  Tb10  1  0.74908044  0.25087329  0.74480688  1
  Tb  Tb11  1  0.25091956  0.74912671  0.74480688  1
  Bi  Bi12  1  0.74892245  0.74949419  0.74369232  1
  Bi  Bi13  1  0.25107755  0.25050581  0.74369232  1
  Bi  Bi14  1  0.25107755  0.74949419  0.25630768  1
  Bi  Bi15  1  0.74892245  0.25050581  0.25630768  1
  O  O16  1  0.99237360  0.20399713  0.30044273  1
  O  O17  1  0.00762640  0.79600287  0.30044273  1
  O  O18  1  0.00762640  0.20399713  0.69955727  1
  O  O19  1  0.99237360  0.79600287  0.69955727  1
  O  O20  1  0.28248283  0.99456279  0.22214398  1
  O  O21  1  0.28248283  0.00543721  0.77785602  1
  O  O22  1  0.71751717  0.00543721  0.22214398  1
  O  O23  1  0.71751717  0.99456279  0.77785602  1
  O  O24  1  0.21574575  0.27509587  0.99201887  1
  O  O25  1  0.78425425  0.27509587  0.00798113  1
  O  O26  1  0.21574575  0.72490413  0.00798113  1
  O  O27  1  0.78425425  0.72490413  0.99201887  1
  O  O28  1  0.50785319  0.30674512  0.20710179  1
  O  O29  1  0.49214681  0.69325488  0.20710179  1
  O  O30  1  0.49214681  0.30674512  0.79289821  1
  O  O31  1  0.50785319  0.69325488  0.79289821  1
  O  O32  1  0.20064985  0.50808152  0.30370907  1
  O  O33  1  0.20064985  0.49191848  0.69629093  1
  O  O34  1  0.79935015  0.49191848  0.30370907  1
  O  O35  1  0.79935015  0.50808152  0.69629093  1
  O  O36  1  0.31122976  0.20698596  0.50576078  1
  O  O37  1  0.68877024  0.20698596  0.49423922  1
  O  O38  1  0.31122976  0.79301404  0.49423922  1
  O  O39  1  0.68877024  0.79301404  0.50576078  1
