# generated using pymatgen
data_KSrGdWO6
_symmetry_space_group_name_H-M   'P 1'
_cell_length_a   8.42146663
_cell_length_b   8.39916565
_cell_length_c   8.40049908
_cell_angle_alpha   90.00000000
_cell_angle_beta   90.00000000
_cell_angle_gamma   90.00000000
_symmetry_Int_Tables_number   1
_chemical_formula_structural   KSrGdWO6
_chemical_formula_sum   'K4 Sr4 Gd4 W4 O24'
_cell_volume   594.19496480
_cell_formula_units_Z   4
loop_
 _symmetry_equiv_pos_site_id
 _symmetry_equiv_pos_as_xyz
  1  'x, y, z'
loop_
 _atom_site_type_symbol
 _atom_site_label
 _atom_site_symmetry_multiplicity
 _atom_site_fract_x
 _atom_site_fract_y
 _atom_site_fract_z
 _atom_site_occupancy
  K  K0  1  -0.00000000  0.50000000  0.50000000  1
  K  K1  1  0.50000000  0.00000000  0.50000000  1
  K  K2  1  0.50000000  0.00000000  -0.00000000  1
  K  K3  1  -0.00000000  0.50000000  0.00000000  1
  Sr  Sr4  1  0.50000000  0.50000000  0.00000000  1
  Sr  Sr5  1  -0.00000000  0.00000000  0.50000000  1
  Sr  Sr6  1  -0.00000000  0.00000000  -0.00000000  1
  Sr  Sr7  1  0.50000000  0.50000000  0.50000000  1
  Gd  Gd8  1  0.75000000  0.75000000  0.75000000  1
  Gd  Gd9  1  0.25000000  0.25000000  0.75000000  1
  Gd  Gd10  1  0.25000000  0.75000000  0.25000000  1
  Gd  Gd11  1  0.75000000  0.25000000  0.25000000  1
  W  W12  1  0.25000000  0.25000000  0.25000000  1
  W  W13  1  0.75000000  0.75000000  0.25000000  1
  W  W14  1  0.75000000  0.25000000  0.75000000  1
  W  W15  1  0.25000000  0.75000000  0.75000000  1
  O  O16  1  0.01900718  0.21617994  0.27177030  1
  O  O17  1  0.98099282  0.78382006  0.27177030  1
  O  O18  1  0.98099282  0.21617994  0.72822970  1
  O  O19  1  0.01900718  0.78382006  0.72822970  1
  O  O20  1  0.26444150  0.01996356  0.22541109  1
  O  O21  1  0.26444150  0.98003644  0.77458891  1
  O  O22  1  0.73555850  0.98003644  0.22541109  1
  O  O23  1  0.73555850  0.01996356  0.77458891  1
  O  O24  1  0.22686426  0.27008911  0.01982040  1
  O  O25  1  0.77313574  0.27008911  0.98017960  1
  O  O26  1  0.22686426  0.72991089  0.98017960  1
  O  O27  1  0.77313574  0.72991089  0.01982040  1
  O  O28  1  0.48099282  0.28382006  0.22822970  1
  O  O29  1  0.51900718  0.71617994  0.22822970  1
  O  O30  1  0.51900718  0.28382006  0.77177030  1
  O  O31  1  0.48099282  0.71617994  0.77177030  1
  O  O32  1  0.23555850  0.48003644  0.27458891  1
  O  O33  1  0.23555850  0.51996356  0.72541109  1
  O  O34  1  0.76444150  0.51996356  0.27458891  1
  O  O35  1  0.76444150  0.48003644  0.72541109  1
  O  O36  1  0.27313574  0.22991089  0.48017960  1
  O  O37  1  0.72686426  0.22991089  0.51982040  1
  O  O38  1  0.27313574  0.77008911  0.51982040  1
  O  O39  1  0.72686426  0.77008911  0.48017960  1
