# generated using pymatgen
data_SrCaEuSbO6
_symmetry_space_group_name_H-M   'P 1'
_cell_length_a   8.38461392
_cell_length_b   8.39570521
_cell_length_c   8.42673213
_cell_angle_alpha   90.00000000
_cell_angle_beta   90.00000000
_cell_angle_gamma   90.00000000
_symmetry_Int_Tables_number   1
_chemical_formula_structural   SrCaEuSbO6
_chemical_formula_sum   'Sr4 Ca4 Eu4 Sb4 O24'
_cell_volume   593.19767441
_cell_formula_units_Z   4
loop_
 _symmetry_equiv_pos_site_id
 _symmetry_equiv_pos_as_xyz
  1  'x, y, z'
loop_
 _atom_site_type_symbol
 _atom_site_label
 _atom_site_symmetry_multiplicity
 _atom_site_fract_x
 _atom_site_fract_y
 _atom_site_fract_z
 _atom_site_occupancy
  Sr  Sr0  1  0.00000000  0.50000000  0.50000000  1
  Sr  Sr1  1  0.50000000  0.50000000  0.00000000  1
  Sr  Sr2  1  0.50000000  0.00000000  0.00000000  1
  Sr  Sr3  1  0.00000000  0.00000000  0.50000000  1
  Ca  Ca4  1  0.50000000  0.00000000  0.50000000  1
  Ca  Ca5  1  0.00000000  0.50000000  0.00000000  1
  Ca  Ca6  1  0.00000000  0.00000000  0.00000000  1
  Ca  Ca7  1  0.50000000  0.50000000  0.50000000  1
  Eu  Eu8  1  0.75000000  0.75000000  0.75000000  1
  Eu  Eu9  1  0.25000000  0.25000000  0.75000000  1
  Eu  Eu10  1  0.25000000  0.75000000  0.25000000  1
  Eu  Eu11  1  0.75000000  0.25000000  0.25000000  1
  Sb  Sb12  1  0.25000000  0.25000000  0.25000000  1
  Sb  Sb13  1  0.75000000  0.75000000  0.25000000  1
  Sb  Sb14  1  0.75000000  0.25000000  0.75000000  1
  Sb  Sb15  1  0.25000000  0.75000000  0.75000000  1
  O  O16  1  0.01671085  0.20819836  0.28634781  1
  O  O17  1  0.98328915  0.79180164  0.28634781  1
  O  O18  1  0.98328915  0.20819836  0.71365219  1
  O  O19  1  0.01671085  0.79180164  0.71365219  1
  O  O20  1  0.28018155  0.01706299  0.20227026  1
  O  O21  1  0.28018155  0.98293701  0.79772974  1
  O  O22  1  0.71981845  0.98293701  0.20227026  1
  O  O23  1  0.71981845  0.01706299  0.79772974  1
  O  O24  1  0.19939183  0.29189055  0.01798410  1
  O  O25  1  0.80060817  0.29189055  0.98201590  1
  O  O26  1  0.19939183  0.70810945  0.98201590  1
  O  O27  1  0.80060817  0.70810945  0.01798410  1
  O  O28  1  0.48328915  0.29180164  0.21365219  1
  O  O29  1  0.51671085  0.70819836  0.21365219  1
  O  O30  1  0.51671085  0.29180164  0.78634781  1
  O  O31  1  0.48328915  0.70819836  0.78634781  1
  O  O32  1  0.21981845  0.48293701  0.29772974  1
  O  O33  1  0.21981845  0.51706299  0.70227026  1
  O  O34  1  0.78018155  0.51706299  0.29772974  1
  O  O35  1  0.78018155  0.48293701  0.70227026  1
  O  O36  1  0.30060817  0.20810945  0.48201590  1
  O  O37  1  0.69939183  0.20810945  0.51798410  1
  O  O38  1  0.30060817  0.79189055  0.51798410  1
  O  O39  1  0.69939183  0.79189055  0.48201590  1
