# generated using pymatgen
data_BaSrPrSbO6
_symmetry_space_group_name_H-M   'P 1'
_cell_length_a   8.60553985
_cell_length_b   8.61011959
_cell_length_c   8.61919620
_cell_angle_alpha   90.00000000
_cell_angle_beta   90.00000000
_cell_angle_gamma   90.00000000
_symmetry_Int_Tables_number   1
_chemical_formula_structural   BaSrPrSbO6
_chemical_formula_sum   'Ba4 Sr4 Pr4 Sb4 O24'
_cell_volume   638.63699151
_cell_formula_units_Z   4
loop_
 _symmetry_equiv_pos_site_id
 _symmetry_equiv_pos_as_xyz
  1  'x, y, z'
loop_
 _atom_site_type_symbol
 _atom_site_label
 _atom_site_symmetry_multiplicity
 _atom_site_fract_x
 _atom_site_fract_y
 _atom_site_fract_z
 _atom_site_occupancy
  Ba  Ba0  1  -0.00000000  0.00000000  0.00000000  1
  Ba  Ba1  1  0.50000000  0.50000000  0.50000000  1
  Ba  Ba2  1  0.50000000  0.00000000  0.00000000  1
  Ba  Ba3  1  -0.00000000  0.00000000  0.50000000  1
  Sr  Sr4  1  -0.00000000  0.50000000  0.50000000  1
  Sr  Sr5  1  0.50000000  0.00000000  0.50000000  1
  Sr  Sr6  1  0.50000000  0.50000000  0.00000000  1
  Sr  Sr7  1  -0.00000000  0.50000000  0.00000000  1
  Pr  Pr8  1  0.74897022  0.74784732  0.74949212  1
  Pr  Pr9  1  0.25102978  0.25215268  0.74949212  1
  Pr  Pr10  1  0.25102978  0.74784732  0.25050788  1
  Pr  Pr11  1  0.74897022  0.25215268  0.25050788  1
  Sb  Sb12  1  0.24956570  0.25383316  0.25080440  1
  Sb  Sb13  1  0.75043430  0.74616684  0.25080440  1
  Sb  Sb14  1  0.75043430  0.25383316  0.74919560  1
  Sb  Sb15  1  0.24956570  0.74616684  0.74919560  1
  O  O16  1  0.01860109  0.22550230  0.27795695  1
  O  O17  1  0.98139891  0.77449770  0.27795695  1
  O  O18  1  0.98139891  0.22550230  0.72204305  1
  O  O19  1  0.01860109  0.77449770  0.72204305  1
  O  O20  1  0.27378176  0.02103365  0.22145910  1
  O  O21  1  0.27378176  0.97896635  0.77854090  1
  O  O22  1  0.72621824  0.97896635  0.22145910  1
  O  O23  1  0.72621824  0.02103365  0.77854090  1
  O  O24  1  0.21654938  0.28534439  0.01975794  1
  O  O25  1  0.78345062  0.28534439  0.98024206  1
  O  O26  1  0.21654938  0.71465561  0.98024206  1
  O  O27  1  0.78345062  0.71465561  0.01975794  1
  O  O28  1  0.47928169  0.28820453  0.21515636  1
  O  O29  1  0.52071831  0.71179547  0.21515636  1
  O  O30  1  0.52071831  0.28820453  0.78484364  1
  O  O31  1  0.47928169  0.71179547  0.78484364  1
  O  O32  1  0.21784672  0.48163242  0.29058957  1
  O  O33  1  0.21784672  0.51836758  0.70941043  1
  O  O34  1  0.78215328  0.51836758  0.29058957  1
  O  O35  1  0.78215328  0.48163242  0.70941043  1
  O  O36  1  0.28951919  0.21920968  0.48009514  1
  O  O37  1  0.71048081  0.21920968  0.51990486  1
  O  O38  1  0.28951919  0.78079032  0.51990486  1
  O  O39  1  0.71048081  0.78079032  0.48009514  1
