data_image0
_chemical_formula_structural       Hg7Rb2
_chemical_formula_sum              "Hg7 Rb2"
_cell_length_a       6.90688
_cell_length_b       6.90691
_cell_length_c       6.63773
_cell_angle_alpha    90
_cell_angle_beta     90.0002
_cell_angle_gamma    120

_space_group_name_H-M_alt    "P 1"
_space_group_IT_number       1

loop_
  _space_group_symop_operation_xyz
  'x, y, z'

loop_
  _atom_site_type_symbol
  _atom_site_label
  _atom_site_symmetry_multiplicity
  _atom_site_fract_x
  _atom_site_fract_y
  _atom_site_fract_z
  _atom_site_occupancy
  Hg  Hg1       1.0  0.00000  0.00000  0.00000  1.0000
  Hg  Hg2       1.0  0.17900  0.82100  0.33500  1.0000
  Hg  Hg3       1.0  0.17900  0.35800  0.33500  1.0000
  Hg  Hg4       1.0  0.64200  0.82100  0.33500  1.0000
  Hg  Hg5       1.0  0.35800  0.17900  0.66500  1.0000
  Hg  Hg6       1.0  0.82100  0.17900  0.66500  1.0000
  Hg  Hg7       1.0  0.82100  0.64200  0.66500  1.0000
  Rb  Rb1       1.0  0.66700  0.33300  0.14700  1.0000
  Rb  Rb2       1.0  0.33300  0.66700  0.85300  1.0000
