# generated using pymatgen
data_BaSrEuSbO6
_symmetry_space_group_name_H-M   'P 1'
_cell_length_a   8.52761042
_cell_length_b   8.53205114
_cell_length_c   8.52873603
_cell_angle_alpha   90.00000000
_cell_angle_beta   90.00000000
_cell_angle_gamma   90.00000000
_symmetry_Int_Tables_number   1
_chemical_formula_structural   BaSrEuSbO6
_chemical_formula_sum   'Ba4 Sr4 Eu4 Sb4 O24'
_cell_volume   620.53384605
_cell_formula_units_Z   4
loop_
 _symmetry_equiv_pos_site_id
 _symmetry_equiv_pos_as_xyz
  1  'x, y, z'
loop_
 _atom_site_type_symbol
 _atom_site_label
 _atom_site_symmetry_multiplicity
 _atom_site_fract_x
 _atom_site_fract_y
 _atom_site_fract_z
 _atom_site_occupancy
  Ba  Ba0  1  -0.00000000  -0.00000000  -0.00000000  1
  Ba  Ba1  1  0.50000000  0.50000000  0.50000000  1
  Ba  Ba2  1  0.50000000  -0.00000000  0.50000000  1
  Ba  Ba3  1  -0.00000000  -0.00000000  0.50000000  1
  Sr  Sr4  1  -0.00000000  0.50000000  0.50000000  1
  Sr  Sr5  1  0.50000000  0.50000000  -0.00000000  1
  Sr  Sr6  1  0.50000000  -0.00000000  -0.00000000  1
  Sr  Sr7  1  0.00000000  0.50000000  -0.00000000  1
  Eu  Eu8  1  0.74976707  0.74834914  0.75163213  1
  Eu  Eu9  1  0.25023293  0.25165086  0.75163213  1
  Eu  Eu10  1  0.25023293  0.74834914  0.24836787  1
  Eu  Eu11  1  0.74976707  0.25165086  0.24836787  1
  Sb  Sb12  1  0.24892967  0.25418643  0.24689626  1
  Sb  Sb13  1  0.75107033  0.74581357  0.24689626  1
  Sb  Sb14  1  0.75107033  0.25418643  0.75310374  1
  Sb  Sb15  1  0.24892967  0.74581357  0.75310374  1
  O  O16  1  0.01590226  0.22446767  0.26981659  1
  O  O17  1  0.98409774  0.77553233  0.26981659  1
  O  O18  1  0.98409774  0.22446767  0.73018341  1
  O  O19  1  0.01590226  0.77553233  0.73018341  1
  O  O20  1  0.27975502  0.01999237  0.21576275  1
  O  O21  1  0.27975502  0.98000763  0.78423725  1
  O  O22  1  0.72024498  0.98000763  0.21576275  1
  O  O23  1  0.72024498  0.01999237  0.78423725  1
  O  O24  1  0.21831743  0.28667994  0.01535148  1
  O  O25  1  0.78168257  0.28667994  0.98464852  1
  O  O26  1  0.21831743  0.71332006  0.98464852  1
  O  O27  1  0.78168257  0.71332006  0.01535148  1
  O  O28  1  0.48194012  0.28513632  0.21737771  1
  O  O29  1  0.51805988  0.71486368  0.21737771  1
  O  O30  1  0.51805988  0.28513632  0.78262229  1
  O  O31  1  0.48194012  0.71486368  0.78262229  1
  O  O32  1  0.21832404  0.48552335  0.28231435  1
  O  O33  1  0.21832404  0.51447665  0.71768565  1
  O  O34  1  0.78167596  0.51447665  0.28231435  1
  O  O35  1  0.78167596  0.48552335  0.71768565  1
  O  O36  1  0.27411599  0.22841065  0.48136452  1
  O  O37  1  0.72588401  0.22841065  0.51863548  1
  O  O38  1  0.27411599  0.77158935  0.51863548  1
  O  O39  1  0.72588401  0.77158935  0.48136452  1
