# generated using pymatgen
data_NaEuSnSbO6
_symmetry_space_group_name_H-M   'P 1'
_cell_length_a   8.82514494
_cell_length_b   8.95990578
_cell_length_c   8.73565002
_cell_angle_alpha   90.00000000
_cell_angle_beta   90.00000000
_cell_angle_gamma   90.00000000
_symmetry_Int_Tables_number   1
_chemical_formula_structural   NaEuSnSbO6
_chemical_formula_sum   'Na4 Eu4 Sn4 Sb4 O24'
_cell_volume   690.74939930
_cell_formula_units_Z   4
loop_
 _symmetry_equiv_pos_site_id
 _symmetry_equiv_pos_as_xyz
  1  'x, y, z'
loop_
 _atom_site_type_symbol
 _atom_site_label
 _atom_site_symmetry_multiplicity
 _atom_site_fract_x
 _atom_site_fract_y
 _atom_site_fract_z
 _atom_site_occupancy
  Na  Na0  1  0.00000000  0.50000000  0.50000000  1
  Na  Na1  1  0.50000000  0.50000000  -0.00000000  1
  Na  Na2  1  0.50000000  -0.00000000  -0.00000000  1
  Na  Na3  1  0.00000000  0.00000000  0.50000000  1
  Eu  Eu4  1  0.50000000  0.00000000  0.50000000  1
  Eu  Eu5  1  -0.00000000  0.50000000  -0.00000000  1
  Eu  Eu6  1  -0.00000000  -0.00000000  -0.00000000  1
  Eu  Eu7  1  0.50000000  0.50000000  0.50000000  1
  Sn  Sn8  1  0.25000000  0.25000000  0.25000000  1
  Sn  Sn9  1  0.75000000  0.75000000  0.25000000  1
  Sn  Sn10  1  0.75000000  0.25000000  0.75000000  1
  Sn  Sn11  1  0.25000000  0.75000000  0.75000000  1
  Sb  Sb12  1  0.75000000  0.75000000  0.75000000  1
  Sb  Sb13  1  0.25000000  0.25000000  0.75000000  1
  Sb  Sb14  1  0.25000000  0.75000000  0.25000000  1
  Sb  Sb15  1  0.75000000  0.25000000  0.25000000  1
  O  O16  1  0.00187321  0.21269108  0.25358331  1
  O  O17  1  -0.00187321  0.78730892  0.25358331  1
  O  O18  1  -0.00187321  0.21269108  0.74641669  1
  O  O19  1  0.00187321  0.78730892  0.74641669  1
  O  O20  1  0.28161719  0.00214619  0.21579046  1
  O  O21  1  0.28161719  -0.00214619  0.78420954  1
  O  O22  1  0.71838281  -0.00214619  0.21579046  1
  O  O23  1  0.71838281  0.00214619  0.78420954  1
  O  O24  1  0.19024672  0.27707294  0.00322785  1
  O  O25  1  0.80975328  0.27707294  -0.00322785  1
  O  O26  1  0.19024672  0.72292706  -0.00322785  1
  O  O27  1  0.80975328  0.72292706  0.00322785  1
  O  O28  1  0.49812679  0.28730892  0.24641669  1
  O  O29  1  0.50187321  0.71269108  0.24641669  1
  O  O30  1  0.50187321  0.28730892  0.75358331  1
  O  O31  1  0.49812679  0.71269108  0.75358331  1
  O  O32  1  0.21838281  0.49785381  0.28420954  1
  O  O33  1  0.21838281  0.50214619  0.71579046  1
  O  O34  1  0.78161719  0.50214619  0.28420954  1
  O  O35  1  0.78161719  0.49785381  0.71579046  1
  O  O36  1  0.30975328  0.22292706  0.49677215  1
  O  O37  1  0.69024672  0.22292706  0.50322785  1
  O  O38  1  0.30975328  0.77707294  0.50322785  1
  O  O39  1  0.69024672  0.77707294  0.49677215  1
