# generated using pymatgen
data_KSrNdMnO6
_symmetry_space_group_name_H-M   'P 1'
_cell_length_a   8.42655878
_cell_length_b   8.41489636
_cell_length_c   8.43322485
_cell_angle_alpha   90.00000000
_cell_angle_beta   90.00000000
_cell_angle_gamma   90.00000000
_symmetry_Int_Tables_number   1
_chemical_formula_structural   KSrNdMnO6
_chemical_formula_sum   'K4 Sr4 Nd4 Mn4 O24'
_cell_volume   597.98832619
_cell_formula_units_Z   4
loop_
 _symmetry_equiv_pos_site_id
 _symmetry_equiv_pos_as_xyz
  1  'x, y, z'
loop_
 _atom_site_type_symbol
 _atom_site_label
 _atom_site_symmetry_multiplicity
 _atom_site_fract_x
 _atom_site_fract_y
 _atom_site_fract_z
 _atom_site_occupancy
  K  K0  1  0.50000000  0.00000000  0.50000000  1
  K  K1  1  0.50000000  0.50000000  0.00000000  1
  K  K2  1  0.00000000  0.50000000  0.00000000  1
  K  K3  1  0.00000000  0.00000000  0.50000000  1
  Sr  Sr4  1  0.00000000  0.50000000  0.50000000  1
  Sr  Sr5  1  0.50000000  0.00000000  0.00000000  1
  Sr  Sr6  1  0.00000000  0.00000000  0.00000000  1
  Sr  Sr7  1  0.50000000  0.50000000  0.50000000  1
  Nd  Nd8  1  0.25000000  0.25000000  0.25000000  1
  Nd  Nd9  1  0.75000000  0.75000000  0.25000000  1
  Nd  Nd10  1  0.75000000  0.25000000  0.75000000  1
  Nd  Nd11  1  0.25000000  0.75000000  0.75000000  1
  Mn  Mn12  1  0.75000000  0.75000000  0.75000000  1
  Mn  Mn13  1  0.25000000  0.25000000  0.75000000  1
  Mn  Mn14  1  0.25000000  0.75000000  0.25000000  1
  Mn  Mn15  1  0.75000000  0.25000000  0.25000000  1
  O  O16  1  0.97513871  0.24038915  0.25907205  1
  O  O17  1  0.02486129  0.75961085  0.25907205  1
  O  O18  1  0.02486129  0.24038915  0.74092795  1
  O  O19  1  0.97513871  0.75961085  0.74092795  1
  O  O20  1  0.26071267  0.97711252  0.22435262  1
  O  O21  1  0.26071267  0.02288748  0.77564738  1
  O  O22  1  0.73928733  0.02288748  0.22435262  1
  O  O23  1  0.73928733  0.97711252  0.77564738  1
  O  O24  1  0.23858992  0.24690954  0.97633602  1
  O  O25  1  0.76141008  0.24690954  0.02366398  1
  O  O26  1  0.23858992  0.75309046  0.02366398  1
  O  O27  1  0.76141008  0.75309046  0.97633602  1
  O  O28  1  0.52486129  0.25961085  0.24092795  1
  O  O29  1  0.47513871  0.74038915  0.24092795  1
  O  O30  1  0.47513871  0.25961085  0.75907205  1
  O  O31  1  0.52486129  0.74038915  0.75907205  1
  O  O32  1  0.23928733  0.52288748  0.27564738  1
  O  O33  1  0.23928733  0.47711252  0.72435262  1
  O  O34  1  0.76071267  0.47711252  0.27564738  1
  O  O35  1  0.76071267  0.52288748  0.72435262  1
  O  O36  1  0.26141008  0.25309046  0.52366398  1
  O  O37  1  0.73858992  0.25309046  0.47633602  1
  O  O38  1  0.26141008  0.74690954  0.47633602  1
  O  O39  1  0.73858992  0.74690954  0.52366398  1
