# generated using pymatgen
data_BaSrYWO6
_symmetry_space_group_name_H-M   'P 1'
_cell_length_a   5.99072996
_cell_length_b   5.96507338
_cell_length_c   8.41460586
_cell_angle_alpha   89.89173285
_cell_angle_beta   89.42192160
_cell_angle_gamma   89.66026140
_symmetry_Int_Tables_number   1
_chemical_formula_structural   BaSrYWO6
_chemical_formula_sum   'Ba2 Sr2 Y2 W2 O12'
_cell_volume   300.67605618
_cell_formula_units_Z   2
loop_
 _symmetry_equiv_pos_site_id
 _symmetry_equiv_pos_as_xyz
  1  'x, y, z'
loop_
 _atom_site_type_symbol
 _atom_site_label
 _atom_site_symmetry_multiplicity
 _atom_site_fract_x
 _atom_site_fract_y
 _atom_site_fract_z
 _atom_site_occupancy
  Ba  Ba0  1  0.99467945  0.01965341  0.24862131  1
  Ba  Ba1  1  0.00532055  0.98034659  0.75137869  1
  Sr  Sr2  1  0.50322119  0.52161037  0.25162154  1
  Sr  Sr3  1  0.49677881  0.47838963  0.74837846  1
  Y  Y4  1  0.50000000  0.00000000  -0.00000000  1
  Y  Y5  1  -0.00000000  0.50000000  0.50000000  1
  W  W6  1  -0.00000000  0.50000000  -0.00000000  1
  W  W7  1  0.50000000  0.00000000  0.50000000  1
  O  O8  1  0.21386068  0.23828434  0.96686243  1
  O  O9  1  0.29481671  0.72830272  0.53185277  1
  O  O10  1  0.78613932  0.76171566  0.03313757  1
  O  O11  1  0.70518329  0.27169728  0.46814723  1
  O  O12  1  0.26696621  0.70250406  0.97110529  1
  O  O13  1  0.24122226  0.21037545  0.52469411  1
  O  O14  1  0.73303379  0.29749594  0.02889471  1
  O  O15  1  0.75877774  0.78962455  0.47530589  1
  O  O16  1  0.44541575  0.99162805  0.26545322  1
  O  O17  1  0.06437739  0.49991407  0.23389888  1
  O  O18  1  0.55458425  0.00837195  0.73454678  1
  O  O19  1  0.93562261  0.50008593  0.76610112  1
