# generated using pymatgen
data_SrMnBiSbO6
_symmetry_space_group_name_H-M   'P 1'
_cell_length_a   8.14382169
_cell_length_b   8.17581171
_cell_length_c   8.13483698
_cell_angle_alpha   90.00000000
_cell_angle_beta   90.00000000
_cell_angle_gamma   90.00000000
_symmetry_Int_Tables_number   1
_chemical_formula_structural   SrMnBiSbO6
_chemical_formula_sum   'Sr4 Mn4 Bi4 Sb4 O24'
_cell_volume   541.63658526
_cell_formula_units_Z   4
loop_
 _symmetry_equiv_pos_site_id
 _symmetry_equiv_pos_as_xyz
  1  'x, y, z'
loop_
 _atom_site_type_symbol
 _atom_site_label
 _atom_site_symmetry_multiplicity
 _atom_site_fract_x
 _atom_site_fract_y
 _atom_site_fract_z
 _atom_site_occupancy
  Sr  Sr0  1  0.50000000  0.00000000  0.50000000  1
  Sr  Sr1  1  0.50000000  0.50000000  0.00000000  1
  Sr  Sr2  1  -0.00000000  0.50000000  0.00000000  1
  Sr  Sr3  1  -0.00000000  0.00000000  0.50000000  1
  Mn  Mn4  1  0.75000000  0.75000000  0.75000000  1
  Mn  Mn5  1  0.25000000  0.25000000  0.75000000  1
  Mn  Mn6  1  0.25000000  0.75000000  0.25000000  1
  Mn  Mn7  1  0.75000000  0.25000000  0.25000000  1
  Bi  Bi8  1  -0.00000000  0.50000000  0.50000000  1
  Bi  Bi9  1  0.50000000  0.00000000  0.00000000  1
  Bi  Bi10  1  -0.00000000  0.00000000  0.00000000  1
  Bi  Bi11  1  0.50000000  0.50000000  0.50000000  1
  Sb  Sb12  1  0.25000000  0.25000000  0.25000000  1
  Sb  Sb13  1  0.75000000  0.75000000  0.25000000  1
  Sb  Sb14  1  0.75000000  0.25000000  0.75000000  1
  Sb  Sb15  1  0.25000000  0.75000000  0.75000000  1
  O  O16  1  0.00944551  0.20899801  0.27611888  1
  O  O17  1  0.99055449  0.79100199  0.27611888  1
  O  O18  1  0.99055449  0.20899801  0.72388112  1
  O  O19  1  0.00944551  0.79100199  0.72388112  1
  O  O20  1  0.28475885  0.00894138  0.20343811  1
  O  O21  1  0.28475885  0.99105862  0.79656189  1
  O  O22  1  0.71524115  0.99105862  0.20343811  1
  O  O23  1  0.71524115  0.00894138  0.79656189  1
  O  O24  1  0.21227250  0.27758130  0.00965511  1
  O  O25  1  0.78772750  0.27758130  0.99034489  1
  O  O26  1  0.21227250  0.72241870  0.99034489  1
  O  O27  1  0.78772750  0.72241870  0.00965511  1
  O  O28  1  0.49055449  0.29100199  0.22388112  1
  O  O29  1  0.50944551  0.70899801  0.22388112  1
  O  O30  1  0.50944551  0.29100199  0.77611888  1
  O  O31  1  0.49055449  0.70899801  0.77611888  1
  O  O32  1  0.21524115  0.49105862  0.29656189  1
  O  O33  1  0.21524115  0.50894138  0.70343811  1
  O  O34  1  0.78475885  0.50894138  0.29656189  1
  O  O35  1  0.78475885  0.49105862  0.70343811  1
  O  O36  1  0.28772750  0.22241870  0.49034489  1
  O  O37  1  0.71227250  0.22241870  0.50965511  1
  O  O38  1  0.28772750  0.77758130  0.50965511  1
  O  O39  1  0.71227250  0.77758130  0.49034489  1
