# generated using pymatgen
data_BaSrCe4O12
_symmetry_space_group_name_H-M   'P 1'
_cell_length_a   6.23931211
_cell_length_b   6.23931211
_cell_length_c   8.75988375
_cell_angle_alpha   90.00000000
_cell_angle_beta   90.00000000
_cell_angle_gamma   87.85245314
_symmetry_Int_Tables_number   1
_chemical_formula_structural   BaSrCe4O12
_chemical_formula_sum   'Ba1 Sr1 Ce4 O12'
_cell_volume   340.77413680
_cell_formula_units_Z   1
loop_
 _symmetry_equiv_pos_site_id
 _symmetry_equiv_pos_as_xyz
  1  'x, y, z'
loop_
 _atom_site_type_symbol
 _atom_site_label
 _atom_site_symmetry_multiplicity
 _atom_site_fract_x
 _atom_site_fract_y
 _atom_site_fract_z
 _atom_site_occupancy
  Ba  Ba0  1  0.45886743  0.54113257  -0.00000000  1
  Sr  Sr1  1  0.03586990  0.96413010  0.50000000  1
  Ce  Ce2  1  0.51791443  0.01624734  0.25734786  1
  Ce  Ce3  1  0.51791443  0.01624734  0.74265214  1
  Ce  Ce4  1  0.98375266  0.48208557  0.74265214  1
  Ce  Ce5  1  0.98375266  0.48208557  0.25734786  1
  O  O6  1  0.28658826  0.29210967  0.23129869  1
  O  O7  1  0.70789033  0.71341174  0.23129869  1
  O  O8  1  0.70789033  0.71341174  0.76870131  1
  O  O9  1  0.28658826  0.29210967  0.76870131  1
  O  O10  1  0.22531176  0.77468824  0.23719686  1
  O  O11  1  0.81049453  0.18950547  0.31347246  1
  O  O12  1  0.81049453  0.18950547  0.68652754  1
  O  O13  1  0.22531176  0.77468824  0.76280314  1
  O  O14  1  0.52372613  0.03502713  -0.00000000  1
  O  O15  1  0.42914139  0.98628168  0.50000000  1
  O  O16  1  0.96497287  0.47627387  0.00000000  1
  O  O17  1  0.01371832  0.57085861  0.50000000  1
