# generated using pymatgen
data_BaSrPrNbO6
_symmetry_space_group_name_H-M   'P 1'
_cell_length_a   6.07522855
_cell_length_b   6.13553904
_cell_length_c   8.61688589
_cell_angle_alpha   90.44648730
_cell_angle_beta   89.55683830
_cell_angle_gamma   89.76438090
_symmetry_Int_Tables_number   1
_chemical_formula_structural   BaSrPrNbO6
_chemical_formula_sum   'Ba2 Sr2 Pr2 Nb2 O12'
_cell_volume   321.17055856
_cell_formula_units_Z   2
loop_
 _symmetry_equiv_pos_site_id
 _symmetry_equiv_pos_as_xyz
  1  'x, y, z'
loop_
 _atom_site_type_symbol
 _atom_site_label
 _atom_site_symmetry_multiplicity
 _atom_site_fract_x
 _atom_site_fract_y
 _atom_site_fract_z
 _atom_site_occupancy
  Ba  Ba0  1  0.99354976  0.03060407  0.25039743  1
  Ba  Ba1  1  0.00645024  0.96939593  0.74960257  1
  Sr  Sr2  1  0.50934009  0.53851542  0.25202656  1
  Sr  Sr3  1  0.49065991  0.46148458  0.74797344  1
  Pr  Pr4  1  0.50000000  0.00000000  -0.00000000  1
  Pr  Pr5  1  0.00000000  0.50000000  0.50000000  1
  Nb  Nb6  1  0.00000000  0.50000000  -0.00000000  1
  Nb  Nb7  1  0.50000000  0.00000000  0.50000000  1
  O  O8  1  0.19359228  0.23469954  0.95839904  1
  O  O9  1  0.31418748  0.72745077  0.54742683  1
  O  O10  1  0.80640772  0.76530046  0.04160096  1
  O  O11  1  0.68581252  0.27254923  0.45257317  1
  O  O12  1  0.26735388  0.69128665  0.95185307  1
  O  O13  1  0.23378704  0.19435134  0.53438486  1
  O  O14  1  0.73264612  0.30871335  0.04814693  1
  O  O15  1  0.76621296  0.80564866  0.46561514  1
  O  O16  1  0.42924521  0.96230259  0.27080848  1
  O  O17  1  0.09031570  0.48971735  0.22859719  1
  O  O18  1  0.57075479  0.03769741  0.72919152  1
  O  O19  1  0.90968430  0.51028265  0.77140281  1
