# generated using pymatgen
data_KSmEuSbO6
_symmetry_space_group_name_H-M   'P 1'
_cell_length_a   8.43760171
_cell_length_b   8.39037251
_cell_length_c   8.50170225
_cell_angle_alpha   90.00000000
_cell_angle_beta   90.00000000
_cell_angle_gamma   90.00000000
_symmetry_Int_Tables_number   1
_chemical_formula_structural   KSmEuSbO6
_chemical_formula_sum   'K4 Sm4 Eu4 Sb4 O24'
_cell_volume   601.87479237
_cell_formula_units_Z   4
loop_
 _symmetry_equiv_pos_site_id
 _symmetry_equiv_pos_as_xyz
  1  'x, y, z'
loop_
 _atom_site_type_symbol
 _atom_site_label
 _atom_site_symmetry_multiplicity
 _atom_site_fract_x
 _atom_site_fract_y
 _atom_site_fract_z
 _atom_site_occupancy
  K  K0  1  0.00000000  0.50000000  0.50000000  1
  K  K1  1  0.50000000  0.50000000  0.00000000  1
  K  K2  1  0.50000000  -0.00000000  0.00000000  1
  K  K3  1  0.00000000  -0.00000000  0.50000000  1
  Sm  Sm4  1  0.25000000  0.25000000  0.25000000  1
  Sm  Sm5  1  0.75000000  0.75000000  0.25000000  1
  Sm  Sm6  1  0.75000000  0.25000000  0.75000000  1
  Sm  Sm7  1  0.25000000  0.75000000  0.75000000  1
  Eu  Eu8  1  0.50000000  -0.00000000  0.50000000  1
  Eu  Eu9  1  0.00000000  0.50000000  0.00000000  1
  Eu  Eu10  1  0.00000000  -0.00000000  0.00000000  1
  Eu  Eu11  1  0.50000000  0.50000000  0.50000000  1
  Sb  Sb12  1  0.75000000  0.75000000  0.75000000  1
  Sb  Sb13  1  0.25000000  0.25000000  0.75000000  1
  Sb  Sb14  1  0.25000000  0.75000000  0.25000000  1
  Sb  Sb15  1  0.75000000  0.25000000  0.25000000  1
  O  O16  1  0.98281563  0.21207168  0.26888832  1
  O  O17  1  0.01718437  0.78792832  0.26888832  1
  O  O18  1  0.01718437  0.21207168  0.73111168  1
  O  O19  1  0.98281563  0.78792832  0.73111168  1
  O  O20  1  0.27618861  0.98289837  0.21310497  1
  O  O21  1  0.27618861  0.01710163  0.78689503  1
  O  O22  1  0.72381139  0.01710163  0.21310497  1
  O  O23  1  0.72381139  0.98289837  0.78689503  1
  O  O24  1  0.19478902  0.28407065  0.98351912  1
  O  O25  1  0.80521098  0.28407065  0.01648088  1
  O  O26  1  0.19478902  0.71592935  0.01648088  1
  O  O27  1  0.80521098  0.71592935  0.98351912  1
  O  O28  1  0.51718437  0.28792832  0.23111168  1
  O  O29  1  0.48281563  0.71207168  0.23111168  1
  O  O30  1  0.48281563  0.28792832  0.76888832  1
  O  O31  1  0.51718437  0.71207168  0.76888832  1
  O  O32  1  0.22381139  0.51710163  0.28689503  1
  O  O33  1  0.22381139  0.48289837  0.71310497  1
  O  O34  1  0.77618861  0.48289837  0.28689503  1
  O  O35  1  0.77618861  0.51710163  0.71310497  1
  O  O36  1  0.30521098  0.21592935  0.51648088  1
  O  O37  1  0.69478902  0.21592935  0.48351912  1
  O  O38  1  0.30521098  0.78407065  0.48351912  1
  O  O39  1  0.69478902  0.78407065  0.51648088  1
