# generated using pymatgen
data_KEu(FeO3)4
_symmetry_space_group_name_H-M   'P 1'
_cell_length_a   5.41239797
_cell_length_b   5.41239797
_cell_length_c   7.62557301
_cell_angle_alpha   90.00000000
_cell_angle_beta   90.00000000
_cell_angle_gamma   89.43637942
_symmetry_Int_Tables_number   1
_chemical_formula_structural   KEu(FeO3)4
_chemical_formula_sum   'K1 Eu1 Fe4 O12'
_cell_volume   223.37312268
_cell_formula_units_Z   1
loop_
 _symmetry_equiv_pos_site_id
 _symmetry_equiv_pos_as_xyz
  1  'x, y, z'
loop_
 _atom_site_type_symbol
 _atom_site_label
 _atom_site_symmetry_multiplicity
 _atom_site_fract_x
 _atom_site_fract_y
 _atom_site_fract_z
 _atom_site_occupancy
  K  K0  1  0.98863871  0.98863871  0.50000000  1
  Eu  Eu1  1  0.51024465  0.51024465  -0.00000000  1
  Fe  Fe2  1  0.49935521  0.00128645  0.74123187  1
  Fe  Fe3  1  0.49935521  0.00128645  0.25876813  1
  Fe  Fe4  1  0.00128645  0.49935521  0.25876813  1
  Fe  Fe5  1  0.00128645  0.49935521  0.74123187  1
  O  O6  1  0.77127200  0.22908606  0.77298114  1
  O  O7  1  0.22908606  0.77127200  0.77298114  1
  O  O8  1  0.22908606  0.77127200  0.22701886  1
  O  O9  1  0.77127200  0.22908606  0.22701886  1
  O  O10  1  0.69906500  0.69906500  0.72577843  1
  O  O11  1  0.28238572  0.28238572  0.78687333  1
  O  O12  1  0.28238572  0.28238572  0.21312667  1
  O  O13  1  0.69906500  0.69906500  0.27422157  1
  O  O14  1  0.53806285  0.97000110  -0.00000000  1
  O  O15  1  0.47822836  0.04722346  0.50000000  1
  O  O16  1  0.97000110  0.53806285  -0.00000000  1
  O  O17  1  0.04722346  0.47822836  0.50000000  1
