# generated using pymatgen
data_KLaYBiO6
_symmetry_space_group_name_H-M   'P 1'
_cell_length_a   8.46782389
_cell_length_b   8.59203896
_cell_length_c   8.59218570
_cell_angle_alpha   90.00000000
_cell_angle_beta   90.00000000
_cell_angle_gamma   90.00000000
_symmetry_Int_Tables_number   1
_chemical_formula_structural   KLaYBiO6
_chemical_formula_sum   'K4 La4 Y4 Bi4 O24'
_cell_volume   625.13196960
_cell_formula_units_Z   4
loop_
 _symmetry_equiv_pos_site_id
 _symmetry_equiv_pos_as_xyz
  1  'x, y, z'
loop_
 _atom_site_type_symbol
 _atom_site_label
 _atom_site_symmetry_multiplicity
 _atom_site_fract_x
 _atom_site_fract_y
 _atom_site_fract_z
 _atom_site_occupancy
  K  K0  1  0.50000000  0.00000000  0.50000000  1
  K  K1  1  0.50000000  0.50000000  -0.00000000  1
  K  K2  1  -0.00000000  0.50000000  -0.00000000  1
  K  K3  1  -0.00000000  -0.00000000  0.50000000  1
  La  La4  1  -0.00000000  0.50000000  0.50000000  1
  La  La5  1  0.50000000  -0.00000000  -0.00000000  1
  La  La6  1  -0.00000000  0.00000000  -0.00000000  1
  La  La7  1  0.50000000  0.50000000  0.50000000  1
  Y  Y8  1  0.25000000  0.25000000  0.25000000  1
  Y  Y9  1  0.75000000  0.75000000  0.25000000  1
  Y  Y10  1  0.75000000  0.25000000  0.75000000  1
  Y  Y11  1  0.25000000  0.75000000  0.75000000  1
  Bi  Bi12  1  0.75000000  0.75000000  0.75000000  1
  Bi  Bi13  1  0.25000000  0.25000000  0.75000000  1
  Bi  Bi14  1  0.25000000  0.75000000  0.25000000  1
  Bi  Bi15  1  0.75000000  0.25000000  0.25000000  1
  O  O16  1  0.99381506  0.21098705  0.27524128  1
  O  O17  1  0.00618494  0.78901295  0.27524128  1
  O  O18  1  0.00618494  0.21098705  0.72475872  1
  O  O19  1  0.99381506  0.78901295  0.72475872  1
  O  O20  1  0.28229016  0.99424825  0.19108665  1
  O  O21  1  0.28229016  0.00575175  0.80891335  1
  O  O22  1  0.71770984  0.00575175  0.19108665  1
  O  O23  1  0.71770984  0.99424825  0.80891335  1
  O  O24  1  0.20838059  0.25949954  0.99346954  1
  O  O25  1  0.79161941  0.25949954  0.00653046  1
  O  O26  1  0.20838059  0.74050046  0.00653046  1
  O  O27  1  0.79161941  0.74050046  0.99346954  1
  O  O28  1  0.50618494  0.28901295  0.22475872  1
  O  O29  1  0.49381506  0.71098705  0.22475872  1
  O  O30  1  0.49381506  0.28901295  0.77524128  1
  O  O31  1  0.50618494  0.71098705  0.77524128  1
  O  O32  1  0.21770984  0.50575175  0.30891335  1
  O  O33  1  0.21770984  0.49424825  0.69108665  1
  O  O34  1  0.78229016  0.49424825  0.30891335  1
  O  O35  1  0.78229016  0.50575175  0.69108665  1
  O  O36  1  0.29161941  0.24050046  0.50653046  1
  O  O37  1  0.70838059  0.24050046  0.49346954  1
  O  O38  1  0.29161941  0.75949954  0.49346954  1
  O  O39  1  0.70838059  0.75949954  0.50653046  1
