# generated using pymatgen
data_SrCaSmNbO6
_symmetry_space_group_name_H-M   'P 1'
_cell_length_a   8.38971010
_cell_length_b   8.38044541
_cell_length_c   8.39151701
_cell_angle_alpha   90.00000000
_cell_angle_beta   90.00000000
_cell_angle_gamma   90.00000000
_symmetry_Int_Tables_number   1
_chemical_formula_structural   SrCaSmNbO6
_chemical_formula_sum   'Sr4 Ca4 Sm4 Nb4 O24'
_cell_volume   590.00342814
_cell_formula_units_Z   4
loop_
 _symmetry_equiv_pos_site_id
 _symmetry_equiv_pos_as_xyz
  1  'x, y, z'
loop_
 _atom_site_type_symbol
 _atom_site_label
 _atom_site_symmetry_multiplicity
 _atom_site_fract_x
 _atom_site_fract_y
 _atom_site_fract_z
 _atom_site_occupancy
  Sr  Sr0  1  -0.00000000  0.50000000  0.50000000  1
  Sr  Sr1  1  0.50000000  -0.00000000  -0.00000000  1
  Sr  Sr2  1  -0.00000000  0.50000000  -0.00000000  1
  Sr  Sr3  1  -0.00000000  -0.00000000  0.50000000  1
  Ca  Ca4  1  0.50000000  -0.00000000  0.50000000  1
  Ca  Ca5  1  0.50000000  0.50000000  -0.00000000  1
  Ca  Ca6  1  -0.00000000  -0.00000000  -0.00000000  1
  Ca  Ca7  1  0.50000000  0.50000000  0.50000000  1
  Sm  Sm8  1  0.25301163  0.25023786  0.25083597  1
  Sm  Sm9  1  0.74698837  0.74976214  0.25083597  1
  Sm  Sm10  1  0.74698837  0.25023786  0.74916403  1
  Sm  Sm11  1  0.25301163  0.74976214  0.74916403  1
  Nb  Nb12  1  0.74720129  0.74951767  0.75097708  1
  Nb  Nb13  1  0.25279871  0.25048233  0.75097708  1
  Nb  Nb14  1  0.25279871  0.74951767  0.24902292  1
  Nb  Nb15  1  0.74720129  0.25048233  0.24902292  1
  O  O16  1  0.98300586  0.20756108  0.28577219  1
  O  O17  1  0.01699414  0.79243892  0.28577219  1
  O  O18  1  0.01699414  0.20756108  0.71422781  1
  O  O19  1  0.98300586  0.79243892  0.71422781  1
  O  O20  1  0.28605830  0.98350529  0.20422316  1
  O  O21  1  0.28605830  0.01649471  0.79577684  1
  O  O22  1  0.71394170  0.01649471  0.20422316  1
  O  O23  1  0.71394170  0.98350529  0.79577684  1
  O  O24  1  0.20387694  0.28276405  0.98401256  1
  O  O25  1  0.79612306  0.28276405  0.01598744  1
  O  O26  1  0.20387694  0.71723595  0.01598744  1
  O  O27  1  0.79612306  0.71723595  0.98401256  1
  O  O28  1  0.51692540  0.30544630  0.20387916  1
  O  O29  1  0.48307460  0.69455370  0.20387916  1
  O  O30  1  0.48307460  0.30544630  0.79612084  1
  O  O31  1  0.51692540  0.69455370  0.79612084  1
  O  O32  1  0.21546749  0.51731085  0.29967836  1
  O  O33  1  0.21546749  0.48268915  0.70032164  1
  O  O34  1  0.78453251  0.48268915  0.29967836  1
  O  O35  1  0.78453251  0.51731085  0.70032164  1
  O  O36  1  0.30748632  0.20672649  0.51811560  1
  O  O37  1  0.69251368  0.20672649  0.48188440  1
  O  O38  1  0.30748632  0.79327351  0.48188440  1
  O  O39  1  0.69251368  0.79327351  0.51811560  1
