# generated using pymatgen
data_Sr2EuWO6
_symmetry_space_group_name_H-M   'P 1'
_cell_length_a   8.59678105
_cell_length_b   8.59678105
_cell_length_c   8.59678105
_cell_angle_alpha   90.00000000
_cell_angle_beta   90.00000000
_cell_angle_gamma   90.00000000
_symmetry_Int_Tables_number   1
_chemical_formula_structural   Sr2EuWO6
_chemical_formula_sum   'Sr8 Eu4 W4 O24'
_cell_volume   635.34204667
_cell_formula_units_Z   4
loop_
 _symmetry_equiv_pos_site_id
 _symmetry_equiv_pos_as_xyz
  1  'x, y, z'
loop_
 _atom_site_type_symbol
 _atom_site_label
 _atom_site_symmetry_multiplicity
 _atom_site_fract_x
 _atom_site_fract_y
 _atom_site_fract_z
 _atom_site_occupancy
  Sr  Sr0  1  0.50000000  0.50000000  0.50000000  1
  Sr  Sr1  1  0.00000000  -0.00000000  0.00000000  1
  Sr  Sr2  1  0.00000000  -0.00000000  0.50000000  1
  Sr  Sr3  1  0.00000000  0.50000000  0.00000000  1
  Sr  Sr4  1  0.50000000  -0.00000000  0.00000000  1
  Sr  Sr5  1  0.50000000  0.50000000  0.00000000  1
  Sr  Sr6  1  0.50000000  -0.00000000  0.50000000  1
  Sr  Sr7  1  0.00000000  0.50000000  0.50000000  1
  Eu  Eu8  1  0.75000000  0.75000000  0.75000000  1
  Eu  Eu9  1  0.75000000  0.25000000  0.25000000  1
  Eu  Eu10  1  0.25000000  0.75000000  0.25000000  1
  Eu  Eu11  1  0.25000000  0.25000000  0.75000000  1
  W  W12  1  0.25000000  0.25000000  0.25000000  1
  W  W13  1  0.25000000  0.75000000  0.75000000  1
  W  W14  1  0.75000000  0.25000000  0.75000000  1
  W  W15  1  0.75000000  0.75000000  0.25000000  1
  O  O16  1  0.21524188  0.29254589  0.47373581  1
  O  O17  1  0.21524188  0.70745411  0.52626419  1
  O  O18  1  0.78475812  0.29254589  0.52626419  1
  O  O19  1  0.78475812  0.70745411  0.47373581  1
  O  O20  1  0.29254589  0.47373581  0.21524188  1
  O  O21  1  0.70745411  0.52626419  0.21524188  1
  O  O22  1  0.29254589  0.52626419  0.78475812  1
  O  O23  1  0.70745411  0.47373581  0.78475812  1
  O  O24  1  0.47373581  0.21524188  0.29254589  1
  O  O25  1  0.52626419  0.21524188  0.70745411  1
  O  O26  1  0.52626419  0.78475812  0.29254589  1
  O  O27  1  0.47373581  0.78475812  0.70745411  1
  O  O28  1  0.28475812  0.20745411  0.02626419  1
  O  O29  1  0.28475812  0.79254589  0.97373581  1
  O  O30  1  0.71524188  0.20745411  0.97373581  1
  O  O31  1  0.71524188  0.79254589  0.02626419  1
  O  O32  1  0.20745411  0.02626419  0.28475812  1
  O  O33  1  0.79254589  0.97373581  0.28475812  1
  O  O34  1  0.20745411  0.97373581  0.71524188  1
  O  O35  1  0.79254589  0.02626419  0.71524188  1
  O  O36  1  0.02626419  0.28475812  0.20745411  1
  O  O37  1  0.97373581  0.28475812  0.79254589  1
  O  O38  1  0.97373581  0.71524188  0.20745411  1
  O  O39  1  0.02626419  0.71524188  0.79254589  1
