# generated using pymatgen
data_BaSrCaWO6
_symmetry_space_group_name_H-M   'P 1'
_cell_length_a   5.96038003
_cell_length_b   6.07150685
_cell_length_c   8.56834107
_cell_angle_alpha   89.45638064
_cell_angle_beta   90.96693527
_cell_angle_gamma   89.89893066
_symmetry_Int_Tables_number   1
_chemical_formula_structural   BaSrCaWO6
_chemical_formula_sum   'Ba2 Sr2 Ca2 W2 O12'
_cell_volume   310.01662635
_cell_formula_units_Z   2
loop_
 _symmetry_equiv_pos_site_id
 _symmetry_equiv_pos_as_xyz
  1  'x, y, z'
loop_
 _atom_site_type_symbol
 _atom_site_label
 _atom_site_symmetry_multiplicity
 _atom_site_fract_x
 _atom_site_fract_y
 _atom_site_fract_z
 _atom_site_occupancy
  Ba  Ba0  1  0.99675412  0.04177660  0.24833253  1
  Ba  Ba1  1  0.00324588  0.95822340  0.75166747  1
  Sr  Sr2  1  -0.00000000  0.50000000  -0.00000000  1
  Sr  Sr3  1  0.50000000  0.00000000  0.50000000  1
  Ca  Ca4  1  0.51387181  0.54187515  0.24363009  1
  Ca  Ca5  1  0.48612819  0.45812485  0.75636991  1
  W  W6  1  0.50000000  0.00000000  -0.00000000  1
  W  W7  1  -0.00000000  0.50000000  0.50000000  1
  O  O8  1  0.22622694  0.17208161  0.97432889  1
  O  O9  1  0.26032218  0.67179498  0.57374202  1
  O  O10  1  0.77377306  0.82791839  0.02567111  1
  O  O11  1  0.73967782  0.32820502  0.42625798  1
  O  O12  1  0.34212282  0.72668086  0.93516212  1
  O  O13  1  0.17176030  0.23410875  0.54806089  1
  O  O14  1  0.65787718  0.27331914  0.06483788  1
  O  O15  1  0.82823970  0.76589125  0.45193911  1
  O  O16  1  0.43095451  0.92886419  0.21818063  1
  O  O17  1  0.12552162  0.49521423  0.28570807  1
  O  O18  1  0.56904549  0.07113581  0.78181937  1
  O  O19  1  0.87447838  0.50478577  0.71429193  1
