# generated using pymatgen
data_BaEuBiSbO6
_symmetry_space_group_name_H-M   'P 1'
_cell_length_a   6.05778463
_cell_length_b   6.13508661
_cell_length_c   8.59751031
_cell_angle_alpha   89.77611493
_cell_angle_beta   90.49237909
_cell_angle_gamma   89.98993573
_symmetry_Int_Tables_number   1
_chemical_formula_structural   BaEuBiSbO6
_chemical_formula_sum   'Ba2 Eu2 Bi2 Sb2 O12'
_cell_volume   319.51251275
_cell_formula_units_Z   2
loop_
 _symmetry_equiv_pos_site_id
 _symmetry_equiv_pos_as_xyz
  1  'x, y, z'
loop_
 _atom_site_type_symbol
 _atom_site_label
 _atom_site_symmetry_multiplicity
 _atom_site_fract_x
 _atom_site_fract_y
 _atom_site_fract_z
 _atom_site_occupancy
  Ba  Ba0  1  0.99471184  0.03167782  0.24943503  1
  Ba  Ba1  1  0.00528816  0.96832218  0.75056497  1
  Eu  Eu2  1  0.51324842  0.54051999  0.24720081  1
  Eu  Eu3  1  0.48675158  0.45948001  0.75279919  1
  Bi  Bi4  1  0.00000000  0.50000000  -0.00000000  1
  Bi  Bi5  1  0.50000000  -0.00000000  0.50000000  1
  Sb  Sb6  1  0.50000000  -0.00000000  -0.00000000  1
  Sb  Sb7  1  0.00000000  0.50000000  0.50000000  1
  O  O8  1  0.23245020  0.19734835  0.96755336  1
  O  O9  1  0.26944428  0.69154043  0.55597230  1
  O  O10  1  0.76754980  0.80265165  0.03244664  1
  O  O11  1  0.73055572  0.30845957  0.44402770  1
  O  O12  1  0.31761406  0.72196679  0.94893559  1
  O  O13  1  0.19739235  0.23701812  0.54509958  1
  O  O14  1  0.68238594  0.27803321  0.05106441  1
  O  O15  1  0.80260765  0.76298188  0.45490042  1
  O  O16  1  0.43354168  0.95113733  0.23073325  1
  O  O17  1  0.10343557  0.49339725  0.27158897  1
  O  O18  1  0.56645832  0.04886267  0.76926675  1
  O  O19  1  0.89656443  0.50660275  0.72841103  1
