# generated using pymatgen
data_KLaPrSbO6
_symmetry_space_group_name_H-M   'P 1'
_cell_length_a   8.57869496
_cell_length_b   8.55830532
_cell_length_c   8.47632554
_cell_angle_alpha   90.00000000
_cell_angle_beta   90.00000000
_cell_angle_gamma   90.00000000
_symmetry_Int_Tables_number   1
_chemical_formula_structural   KLaPrSbO6
_chemical_formula_sum   'K4 La4 Pr4 Sb4 O24'
_cell_volume   622.32411375
_cell_formula_units_Z   4
loop_
 _symmetry_equiv_pos_site_id
 _symmetry_equiv_pos_as_xyz
  1  'x, y, z'
loop_
 _atom_site_type_symbol
 _atom_site_label
 _atom_site_symmetry_multiplicity
 _atom_site_fract_x
 _atom_site_fract_y
 _atom_site_fract_z
 _atom_site_occupancy
  K  K0  1  0.00000000  0.50000000  0.50000000  1
  K  K1  1  0.50000000  -0.00000000  0.50000000  1
  K  K2  1  0.50000000  -0.00000000  -0.00000000  1
  K  K3  1  0.00000000  0.50000000  -0.00000000  1
  La  La4  1  0.50000000  0.50000000  -0.00000000  1
  La  La5  1  0.00000000  -0.00000000  0.50000000  1
  La  La6  1  0.00000000  -0.00000000  -0.00000000  1
  La  La7  1  0.50000000  0.50000000  0.50000000  1
  Pr  Pr8  1  0.75000000  0.75000000  0.75000000  1
  Pr  Pr9  1  0.25000000  0.25000000  0.75000000  1
  Pr  Pr10  1  0.25000000  0.75000000  0.25000000  1
  Pr  Pr11  1  0.75000000  0.25000000  0.25000000  1
  Sb  Sb12  1  0.25000000  0.25000000  0.25000000  1
  Sb  Sb13  1  0.75000000  0.75000000  0.25000000  1
  Sb  Sb14  1  0.75000000  0.25000000  0.75000000  1
  Sb  Sb15  1  0.25000000  0.75000000  0.75000000  1
  O  O16  1  0.01851868  0.19562811  0.28294506  1
  O  O17  1  0.98148132  0.80437189  0.28294506  1
  O  O18  1  0.98148132  0.19562811  0.71705494  1
  O  O19  1  0.01851868  0.80437189  0.71705494  1
  O  O20  1  0.26295377  0.01898855  0.21191177  1
  O  O21  1  0.26295377  0.98101145  0.78808823  1
  O  O22  1  0.73704623  0.98101145  0.21191177  1
  O  O23  1  0.73704623  0.01898855  0.78808823  1
  O  O24  1  0.21164234  0.27481609  0.01971374  1
  O  O25  1  0.78835766  0.27481609  0.98028626  1
  O  O26  1  0.21164234  0.72518391  0.98028626  1
  O  O27  1  0.78835766  0.72518391  0.01971374  1
  O  O28  1  0.48148132  0.30437189  0.21705494  1
  O  O29  1  0.51851868  0.69562811  0.21705494  1
  O  O30  1  0.51851868  0.30437189  0.78294506  1
  O  O31  1  0.48148132  0.69562811  0.78294506  1
  O  O32  1  0.23704623  0.48101145  0.28808823  1
  O  O33  1  0.23704623  0.51898855  0.71191177  1
  O  O34  1  0.76295377  0.51898855  0.28808823  1
  O  O35  1  0.76295377  0.48101145  0.71191177  1
  O  O36  1  0.28835766  0.22518391  0.48028626  1
  O  O37  1  0.71164234  0.22518391  0.51971374  1
  O  O38  1  0.28835766  0.77481609  0.51971374  1
  O  O39  1  0.71164234  0.77481609  0.48028626  1
