# generated using pymatgen
data_BaSrCaWO6
_symmetry_space_group_name_H-M   'P 1'
_cell_length_a   8.50903514
_cell_length_b   8.57758506
_cell_length_c   8.54044697
_cell_angle_alpha   90.00000000
_cell_angle_beta   90.00000000
_cell_angle_gamma   90.00000000
_symmetry_Int_Tables_number   1
_chemical_formula_structural   BaSrCaWO6
_chemical_formula_sum   'Ba4 Sr4 Ca4 W4 O24'
_cell_volume   623.34136978
_cell_formula_units_Z   4
loop_
 _symmetry_equiv_pos_site_id
 _symmetry_equiv_pos_as_xyz
  1  'x, y, z'
loop_
 _atom_site_type_symbol
 _atom_site_label
 _atom_site_symmetry_multiplicity
 _atom_site_fract_x
 _atom_site_fract_y
 _atom_site_fract_z
 _atom_site_occupancy
  Ba  Ba0  1  -0.00000000  0.00000000  0.00000000  1
  Ba  Ba1  1  0.50000000  0.50000000  0.50000000  1
  Ba  Ba2  1  -0.00000000  0.50000000  -0.00000000  1
  Ba  Ba3  1  -0.00000000  0.00000000  0.50000000  1
  Sr  Sr4  1  0.74485486  0.74979107  0.74534960  1
  Sr  Sr5  1  0.25514514  0.25020893  0.74534960  1
  Sr  Sr6  1  0.25514514  0.74979107  0.25465040  1
  Sr  Sr7  1  0.74485486  0.25020893  0.25465040  1
  Ca  Ca8  1  -0.00000000  0.50000000  0.50000000  1
  Ca  Ca9  1  0.50000000  0.00000000  0.50000000  1
  Ca  Ca10  1  0.50000000  0.50000000  0.00000000  1
  Ca  Ca11  1  0.50000000  0.00000000  0.00000000  1
  W  W12  1  0.25778126  0.25132178  0.24721242  1
  W  W13  1  0.74221874  0.74867822  0.24721242  1
  W  W14  1  0.74221874  0.25132178  0.75278758  1
  W  W15  1  0.25778126  0.74867822  0.75278758  1
  O  O16  1  0.03294877  0.20594876  0.27282004  1
  O  O17  1  0.96705123  0.79405124  0.27282004  1
  O  O18  1  0.96705123  0.20594876  0.72717996  1
  O  O19  1  0.03294877  0.79405124  0.72717996  1
  O  O20  1  0.30583434  0.03080199  0.19750555  1
  O  O21  1  0.30583434  0.96919801  0.80249445  1
  O  O22  1  0.69416566  0.96919801  0.19750555  1
  O  O23  1  0.69416566  0.03080199  0.80249445  1
  O  O24  1  0.22035006  0.28572883  0.02575786  1
  O  O25  1  0.77964994  0.28572883  0.97424214  1
  O  O26  1  0.22035006  0.71427117  0.97424214  1
  O  O27  1  0.77964994  0.71427117  0.02575786  1
  O  O28  1  0.47226169  0.31976062  0.20857608  1
  O  O29  1  0.52773831  0.68023938  0.20857608  1
  O  O30  1  0.52773831  0.31976062  0.79142392  1
  O  O31  1  0.47226169  0.68023938  0.79142392  1
  O  O32  1  0.20350260  0.46669602  0.31163820  1
  O  O33  1  0.20350260  0.53330398  0.68836180  1
  O  O34  1  0.79649740  0.53330398  0.31163820  1
  O  O35  1  0.79649740  0.46669602  0.68836180  1
  O  O36  1  0.30823497  0.19771493  0.46616285  1
  O  O37  1  0.69176503  0.19771493  0.53383715  1
  O  O38  1  0.30823497  0.80228507  0.53383715  1
  O  O39  1  0.69176503  0.80228507  0.46616285  1
