# generated using pymatgen
data_PrMg(BiO3)2
_symmetry_space_group_name_H-M   'P 1'
_cell_length_a   8.43650062
_cell_length_b   8.43650062
_cell_length_c   8.43650062
_cell_angle_alpha   90.00000000
_cell_angle_beta   90.00000000
_cell_angle_gamma   90.00000000
_symmetry_Int_Tables_number   1
_chemical_formula_structural   PrMg(BiO3)2
_chemical_formula_sum   'Pr4 Mg4 Bi8 O24'
_cell_volume   600.46407371
_cell_formula_units_Z   4
loop_
 _symmetry_equiv_pos_site_id
 _symmetry_equiv_pos_as_xyz
  1  'x, y, z'
loop_
 _atom_site_type_symbol
 _atom_site_label
 _atom_site_symmetry_multiplicity
 _atom_site_fract_x
 _atom_site_fract_y
 _atom_site_fract_z
 _atom_site_occupancy
  Pr  Pr0  1  0.25000000  0.25000000  0.25000000  1
  Pr  Pr1  1  0.25000000  0.75000000  0.75000000  1
  Pr  Pr2  1  0.75000000  0.25000000  0.75000000  1
  Pr  Pr3  1  0.75000000  0.75000000  0.25000000  1
  Mg  Mg4  1  0.75000000  0.75000000  0.75000000  1
  Mg  Mg5  1  0.75000000  0.25000000  0.25000000  1
  Mg  Mg6  1  0.25000000  0.75000000  0.25000000  1
  Mg  Mg7  1  0.25000000  0.25000000  0.75000000  1
  Bi  Bi8  1  0.50000000  0.50000000  0.50000000  1
  Bi  Bi9  1  0.00000000  -0.00000000  0.00000000  1
  Bi  Bi10  1  0.00000000  -0.00000000  0.50000000  1
  Bi  Bi11  1  0.00000000  0.50000000  0.00000000  1
  Bi  Bi12  1  0.50000000  -0.00000000  0.00000000  1
  Bi  Bi13  1  0.50000000  0.50000000  0.00000000  1
  Bi  Bi14  1  0.50000000  -0.00000000  0.50000000  1
  Bi  Bi15  1  0.00000000  0.50000000  0.50000000  1
  O  O16  1  0.19959455  0.32189511  0.51557534  1
  O  O17  1  0.19959455  0.67810489  0.48442466  1
  O  O18  1  0.80040545  0.32189511  0.48442466  1
  O  O19  1  0.80040545  0.67810489  0.51557534  1
  O  O20  1  0.32189511  0.51557534  0.19959455  1
  O  O21  1  0.67810489  0.48442466  0.19959455  1
  O  O22  1  0.32189511  0.48442466  0.80040545  1
  O  O23  1  0.67810489  0.51557534  0.80040545  1
  O  O24  1  0.51557534  0.19959455  0.32189511  1
  O  O25  1  0.48442466  0.19959455  0.67810489  1
  O  O26  1  0.48442466  0.80040545  0.32189511  1
  O  O27  1  0.51557534  0.80040545  0.67810489  1
  O  O28  1  0.30040545  0.17810489  0.98442466  1
  O  O29  1  0.30040545  0.82189511  0.01557534  1
  O  O30  1  0.69959455  0.17810489  0.01557534  1
  O  O31  1  0.69959455  0.82189511  0.98442466  1
  O  O32  1  0.17810489  0.98442466  0.30040545  1
  O  O33  1  0.82189511  0.01557534  0.30040545  1
  O  O34  1  0.17810489  0.01557534  0.69959455  1
  O  O35  1  0.82189511  0.98442466  0.69959455  1
  O  O36  1  0.98442466  0.30040545  0.17810489  1
  O  O37  1  0.01557534  0.30040545  0.82189511  1
  O  O38  1  0.01557534  0.69959455  0.17810489  1
  O  O39  1  0.98442466  0.69959455  0.82189511  1
