# generated using pymatgen
data_BaSrNbSbO6
_symmetry_space_group_name_H-M   'P 1'
_cell_length_a   6.00765620
_cell_length_b   5.99054509
_cell_length_c   8.48561242
_cell_angle_alpha   90.31490431
_cell_angle_beta   89.74584368
_cell_angle_gamma   89.69836943
_symmetry_Int_Tables_number   1
_chemical_formula_structural   BaSrNbSbO6
_chemical_formula_sum   'Ba2 Sr2 Nb2 Sb2 O12'
_cell_volume   305.37796567
_cell_formula_units_Z   2
loop_
 _symmetry_equiv_pos_site_id
 _symmetry_equiv_pos_as_xyz
  1  'x, y, z'
loop_
 _atom_site_type_symbol
 _atom_site_label
 _atom_site_symmetry_multiplicity
 _atom_site_fract_x
 _atom_site_fract_y
 _atom_site_fract_z
 _atom_site_occupancy
  Ba  Ba0  1  0.99627702  0.01984296  0.25039115  1
  Ba  Ba1  1  0.00372298  0.98015704  0.74960885  1
  Sr  Sr2  1  0.50283361  0.52586472  0.25139861  1
  Sr  Sr3  1  0.49716639  0.47413528  0.74860139  1
  Nb  Nb4  1  -0.00000000  0.50000000  -0.00000000  1
  Nb  Nb5  1  0.50000000  0.00000000  0.50000000  1
  Sb  Sb6  1  0.50000000  0.00000000  -0.00000000  1
  Sb  Sb7  1  -0.00000000  0.50000000  0.50000000  1
  O  O8  1  0.20388505  0.23536229  0.96506410  1
  O  O9  1  0.30468063  0.72750420  0.53698013  1
  O  O10  1  0.79611495  0.76463771  0.03493590  1
  O  O11  1  0.69531937  0.27249580  0.46301987  1
  O  O12  1  0.26709678  0.69958928  0.95959786  1
  O  O13  1  0.23780472  0.20734870  0.53117848  1
  O  O14  1  0.73290322  0.30041072  0.04040214  1
  O  O15  1  0.76219528  0.79265130  0.46882152  1
  O  O16  1  0.44166471  0.97635795  0.26591169  1
  O  O17  1  0.07844324  0.49520853  0.23319633  1
  O  O18  1  0.55833529  0.02364205  0.73408831  1
  O  O19  1  0.92155676  0.50479147  0.76680367  1
