# generated using pymatgen
data_BaCeInSbO6
_symmetry_space_group_name_H-M   'P 1'
_cell_length_a   8.64047834
_cell_length_b   8.92779349
_cell_length_c   9.08643374
_cell_angle_alpha   90.00000000
_cell_angle_beta   90.00000000
_cell_angle_gamma   90.00000000
_symmetry_Int_Tables_number   1
_chemical_formula_structural   BaCeInSbO6
_chemical_formula_sum   'Ba4 Ce4 In4 Sb4 O24'
_cell_volume   700.93119029
_cell_formula_units_Z   4
loop_
 _symmetry_equiv_pos_site_id
 _symmetry_equiv_pos_as_xyz
  1  'x, y, z'
loop_
 _atom_site_type_symbol
 _atom_site_label
 _atom_site_symmetry_multiplicity
 _atom_site_fract_x
 _atom_site_fract_y
 _atom_site_fract_z
 _atom_site_occupancy
  Ba  Ba0  1  -0.00000000  0.00000000  0.00000000  1
  Ba  Ba1  1  0.50000000  0.50000000  0.50000000  1
  Ba  Ba2  1  0.50000000  0.50000000  0.00000000  1
  Ba  Ba3  1  -0.00000000  0.00000000  0.50000000  1
  Ce  Ce4  1  0.75000000  0.75000000  0.75000000  1
  Ce  Ce5  1  0.25000000  0.25000000  0.75000000  1
  Ce  Ce6  1  0.25000000  0.75000000  0.25000000  1
  Ce  Ce7  1  0.75000000  0.25000000  0.25000000  1
  In  In8  1  -0.00000000  0.50000000  0.50000000  1
  In  In9  1  0.50000000  0.00000000  0.50000000  1
  In  In10  1  0.50000000  0.00000000  0.00000000  1
  In  In11  1  -0.00000000  0.50000000  0.00000000  1
  Sb  Sb12  1  0.25000000  0.25000000  0.25000000  1
  Sb  Sb13  1  0.75000000  0.75000000  0.25000000  1
  Sb  Sb14  1  0.75000000  0.25000000  0.75000000  1
  Sb  Sb15  1  0.25000000  0.75000000  0.75000000  1
  O  O16  1  0.00064949  0.19054947  0.27168177  1
  O  O17  1  -0.00064949  0.80945053  0.27168177  1
  O  O18  1  -0.00064949  0.19054947  0.72831823  1
  O  O19  1  0.00064949  0.80945053  0.72831823  1
  O  O20  1  0.30804286  0.00371942  0.16646875  1
  O  O21  1  0.30804286  0.99628058  0.83353125  1
  O  O22  1  0.69195714  0.99628058  0.16646875  1
  O  O23  1  0.69195714  0.00371942  0.83353125  1
  O  O24  1  0.19165530  0.32638748  0.00276347  1
  O  O25  1  0.80834470  0.32638748  0.99723653  1
  O  O26  1  0.19165530  0.67361252  0.99723653  1
  O  O27  1  0.80834470  0.67361252  0.00276347  1
  O  O28  1  0.49935051  0.30945053  0.22831823  1
  O  O29  1  0.50064949  0.69054947  0.22831823  1
  O  O30  1  0.50064949  0.30945053  0.77168177  1
  O  O31  1  0.49935051  0.69054947  0.77168177  1
  O  O32  1  0.19195714  0.49628058  0.33353125  1
  O  O33  1  0.19195714  0.50371942  0.66646875  1
  O  O34  1  0.80804286  0.50371942  0.33353125  1
  O  O35  1  0.80804286  0.49628058  0.66646875  1
  O  O36  1  0.30834470  0.17361252  0.49723653  1
  O  O37  1  0.69165530  0.17361252  0.50276347  1
  O  O38  1  0.30834470  0.82638748  0.50276347  1
  O  O39  1  0.69165530  0.82638748  0.49723653  1
