# generated using pymatgen
data_BaSrEuWO6
_symmetry_space_group_name_H-M   'P 1'
_cell_length_a   6.03230633
_cell_length_b   6.12716345
_cell_length_c   8.58755158
_cell_angle_alpha   88.65300804
_cell_angle_beta   90.73326893
_cell_angle_gamma   89.56513196
_symmetry_Int_Tables_number   1
_chemical_formula_structural   BaSrEuWO6
_chemical_formula_sum   'Ba2 Sr2 Eu2 W2 O12'
_cell_volume   317.28028586
_cell_formula_units_Z   2
loop_
 _symmetry_equiv_pos_site_id
 _symmetry_equiv_pos_as_xyz
  1  'x, y, z'
loop_
 _atom_site_type_symbol
 _atom_site_label
 _atom_site_symmetry_multiplicity
 _atom_site_fract_x
 _atom_site_fract_y
 _atom_site_fract_z
 _atom_site_occupancy
  Ba  Ba0  1  0.99267189  0.04028800  0.24845248  1
  Ba  Ba1  1  0.00732811  0.95971200  0.75154752  1
  Sr  Sr2  1  0.00000000  0.50000000  0.00000000  1
  Sr  Sr3  1  0.50000000  -0.00000000  0.50000000  1
  Eu  Eu4  1  0.51101830  0.55058881  0.24653520  1
  Eu  Eu5  1  0.48898170  0.44941119  0.75346480  1
  W  W6  1  0.50000000  -0.00000000  0.00000000  1
  W  W7  1  0.00000000  0.50000000  0.50000000  1
  O  O8  1  0.23743242  0.18402137  0.95915381  1
  O  O9  1  0.26205699  0.67403772  0.55632274  1
  O  O10  1  0.76256758  0.81597863  0.04084619  1
  O  O11  1  0.73794301  0.32596228  0.44367726  1
  O  O12  1  0.33500402  0.73076587  0.94812340  1
  O  O13  1  0.17772528  0.23725953  0.55012952  1
  O  O14  1  0.66499598  0.26923413  0.05187660  1
  O  O15  1  0.82227472  0.76274047  0.44987048  1
  O  O16  1  0.42375049  0.95288404  0.22049951  1
  O  O17  1  0.10693501  0.48717753  0.28287717  1
  O  O18  1  0.57624951  0.04711596  0.77950049  1
  O  O19  1  0.89306499  0.51282247  0.71712283  1
