# generated using pymatgen
data_BaSrTbSbO6
_symmetry_space_group_name_H-M   'P 1'
_cell_length_a   8.46820551
_cell_length_b   8.46569216
_cell_length_c   8.46082471
_cell_angle_alpha   90.00000000
_cell_angle_beta   90.00000000
_cell_angle_gamma   90.00000000
_symmetry_Int_Tables_number   1
_chemical_formula_structural   BaSrTbSbO6
_chemical_formula_sum   'Ba4 Sr4 Tb4 Sb4 O24'
_cell_volume   606.54993244
_cell_formula_units_Z   4
loop_
 _symmetry_equiv_pos_site_id
 _symmetry_equiv_pos_as_xyz
  1  'x, y, z'
loop_
 _atom_site_type_symbol
 _atom_site_label
 _atom_site_symmetry_multiplicity
 _atom_site_fract_x
 _atom_site_fract_y
 _atom_site_fract_z
 _atom_site_occupancy
  Ba  Ba0  1  -0.00000000  -0.00000000  -0.00000000  1
  Ba  Ba1  1  0.50000000  0.50000000  0.50000000  1
  Ba  Ba2  1  -0.00000000  0.50000000  -0.00000000  1
  Ba  Ba3  1  -0.00000000  -0.00000000  0.50000000  1
  Sr  Sr4  1  -0.00000000  0.50000000  0.50000000  1
  Sr  Sr5  1  0.50000000  -0.00000000  0.50000000  1
  Sr  Sr6  1  0.50000000  0.50000000  0.00000000  1
  Sr  Sr7  1  0.50000000  -0.00000000  0.00000000  1
  Tb  Tb8  1  0.25204266  0.25048815  0.25076447  1
  Tb  Tb9  1  0.74795734  0.74951185  0.25076447  1
  Tb  Tb10  1  0.74795734  0.25048815  0.74923553  1
  Tb  Tb11  1  0.25204266  0.74951185  0.74923553  1
  Sb  Sb12  1  0.74668682  0.74921881  0.74993359  1
  Sb  Sb13  1  0.25331318  0.25078119  0.74993359  1
  Sb  Sb14  1  0.25331318  0.74921881  0.25006641  1
  Sb  Sb15  1  0.74668682  0.25078119  0.25006641  1
  O  O16  1  0.98433025  0.22939466  0.26878036  1
  O  O17  1  0.01566975  0.77060534  0.26878036  1
  O  O18  1  0.01566975  0.22939466  0.73121964  1
  O  O19  1  0.98433025  0.77060534  0.73121964  1
  O  O20  1  0.27916776  0.98587010  0.22455623  1
  O  O21  1  0.27916776  0.01412990  0.77544377  1
  O  O22  1  0.72083224  0.01412990  0.22455623  1
  O  O23  1  0.72083224  0.98587010  0.77544377  1
  O  O24  1  0.23320397  0.27284899  0.98662968  1
  O  O25  1  0.76679603  0.27284899  0.01337032  1
  O  O26  1  0.23320397  0.72715101  0.01337032  1
  O  O27  1  0.76679603  0.72715101  0.98662968  1
  O  O28  1  0.51260555  0.28221988  0.22324367  1
  O  O29  1  0.48739445  0.71778012  0.22324367  1
  O  O30  1  0.48739445  0.28221988  0.77675633  1
  O  O31  1  0.51260555  0.71778012  0.77675633  1
  O  O32  1  0.22572241  0.51392193  0.28187254  1
  O  O33  1  0.22572241  0.48607807  0.71812746  1
  O  O34  1  0.77427759  0.48607807  0.28187254  1
  O  O35  1  0.77427759  0.51392193  0.71812746  1
  O  O36  1  0.28066753  0.22092862  0.51489035  1
  O  O37  1  0.71933247  0.22092862  0.48510965  1
  O  O38  1  0.28066753  0.77907138  0.48510965  1
  O  O39  1  0.71933247  0.77907138  0.51489035  1
