# generated using pymatgen
data_BaEuDySbO6
_symmetry_space_group_name_H-M   'P 1'
_cell_length_a   8.41249485
_cell_length_b   8.44872841
_cell_length_c   8.43903365
_cell_angle_alpha   90.00000000
_cell_angle_beta   90.00000000
_cell_angle_gamma   90.00000000
_symmetry_Int_Tables_number   1
_chemical_formula_structural   BaEuDySbO6
_chemical_formula_sum   'Ba4 Eu4 Dy4 Sb4 O24'
_cell_volume   599.80333976
_cell_formula_units_Z   4
loop_
 _symmetry_equiv_pos_site_id
 _symmetry_equiv_pos_as_xyz
  1  'x, y, z'
loop_
 _atom_site_type_symbol
 _atom_site_label
 _atom_site_symmetry_multiplicity
 _atom_site_fract_x
 _atom_site_fract_y
 _atom_site_fract_z
 _atom_site_occupancy
  Ba  Ba0  1  0.00000000  -0.00000000  0.00000000  1
  Ba  Ba1  1  0.50000000  0.50000000  0.50000000  1
  Ba  Ba2  1  0.00000000  0.50000000  0.50000000  1
  Ba  Ba3  1  0.50000000  0.00000000  0.00000000  1
  Eu  Eu4  1  0.50000000  0.00000000  0.50000000  1
  Eu  Eu5  1  0.50000000  0.50000000  0.00000000  1
  Eu  Eu6  1  0.00000000  0.50000000  0.00000000  1
  Eu  Eu7  1  0.00000000  0.00000000  0.50000000  1
  Dy  Dy8  1  0.75000000  0.75000000  0.75000000  1
  Dy  Dy9  1  0.25000000  0.25000000  0.75000000  1
  Dy  Dy10  1  0.25000000  0.75000000  0.25000000  1
  Dy  Dy11  1  0.75000000  0.25000000  0.25000000  1
  Sb  Sb12  1  0.25000000  0.25000000  0.25000000  1
  Sb  Sb13  1  0.75000000  0.75000000  0.25000000  1
  Sb  Sb14  1  0.75000000  0.25000000  0.75000000  1
  Sb  Sb15  1  0.25000000  0.75000000  0.75000000  1
  O  O16  1  0.01427876  0.22229974  0.28252464  1
  O  O17  1  0.98572124  0.77770026  0.28252464  1
  O  O18  1  0.98572124  0.22229974  0.71747536  1
  O  O19  1  0.01427876  0.77770026  0.71747536  1
  O  O20  1  0.27185014  0.01312845  0.23062528  1
  O  O21  1  0.27185014  0.98687155  0.76937472  1
  O  O22  1  0.72814986  0.98687155  0.23062528  1
  O  O23  1  0.72814986  0.01312845  0.76937472  1
  O  O24  1  0.21653243  0.27433310  0.01429105  1
  O  O25  1  0.78346757  0.27433310  0.98570895  1
  O  O26  1  0.21653243  0.72566690  0.98570895  1
  O  O27  1  0.78346757  0.72566690  0.01429105  1
  O  O28  1  0.48572124  0.27770026  0.21747536  1
  O  O29  1  0.51427876  0.72229974  0.21747536  1
  O  O30  1  0.51427876  0.27770026  0.78252464  1
  O  O31  1  0.48572124  0.72229974  0.78252464  1
  O  O32  1  0.22814986  0.48687155  0.26937472  1
  O  O33  1  0.22814986  0.51312845  0.73062528  1
  O  O34  1  0.77185014  0.51312845  0.26937472  1
  O  O35  1  0.77185014  0.48687155  0.73062528  1
  O  O36  1  0.28346757  0.22566690  0.48570895  1
  O  O37  1  0.71653243  0.22566690  0.51429105  1
  O  O38  1  0.28346757  0.77433310  0.51429105  1
  O  O39  1  0.71653243  0.77433310  0.48570895  1
