# generated using pymatgen
data_SrCaGdBiO6
_symmetry_space_group_name_H-M   'P 1'
_cell_length_a   8.53944167
_cell_length_b   8.54037437
_cell_length_c   8.52631700
_cell_angle_alpha   90.00000000
_cell_angle_beta   90.00000000
_cell_angle_gamma   90.00000000
_symmetry_Int_Tables_number   1
_chemical_formula_structural   SrCaGdBiO6
_chemical_formula_sum   'Sr4 Ca4 Gd4 Bi4 O24'
_cell_volume   621.82454413
_cell_formula_units_Z   4
loop_
 _symmetry_equiv_pos_site_id
 _symmetry_equiv_pos_as_xyz
  1  'x, y, z'
loop_
 _atom_site_type_symbol
 _atom_site_label
 _atom_site_symmetry_multiplicity
 _atom_site_fract_x
 _atom_site_fract_y
 _atom_site_fract_z
 _atom_site_occupancy
  Sr  Sr0  1  0.50000000  -0.00000000  0.50000000  1
  Sr  Sr1  1  0.50000000  -0.00000000  -0.00000000  1
  Sr  Sr2  1  -0.00000000  0.50000000  -0.00000000  1
  Sr  Sr3  1  -0.00000000  -0.00000000  0.50000000  1
  Ca  Ca4  1  -0.00000000  0.50000000  0.50000000  1
  Ca  Ca5  1  0.50000000  0.50000000  -0.00000000  1
  Ca  Ca6  1  -0.00000000  -0.00000000  0.00000000  1
  Ca  Ca7  1  0.50000000  0.50000000  0.50000000  1
  Gd  Gd8  1  0.24972578  0.25210689  0.25027312  1
  Gd  Gd9  1  0.75027422  0.74789311  0.25027312  1
  Gd  Gd10  1  0.75027422  0.25210689  0.74972688  1
  Gd  Gd11  1  0.24972578  0.74789311  0.74972688  1
  Bi  Bi12  1  0.75051537  0.74762542  0.74977027  1
  Bi  Bi13  1  0.24948463  0.25237458  0.74977027  1
  Bi  Bi14  1  0.24948463  0.74762542  0.25022973  1
  Bi  Bi15  1  0.75051537  0.25237458  0.25022973  1
  O  O16  1  0.99260509  0.20125214  0.28467027  1
  O  O17  1  0.00739491  0.79874786  0.28467027  1
  O  O18  1  0.00739491  0.20125214  0.71532973  1
  O  O19  1  0.99260509  0.79874786  0.71532973  1
  O  O20  1  0.28722494  0.99155637  0.20420701  1
  O  O21  1  0.28722494  0.00844363  0.79579299  1
  O  O22  1  0.71277506  0.00844363  0.20420701  1
  O  O23  1  0.71277506  0.99155637  0.79579299  1
  O  O24  1  0.20170859  0.28728810  0.99261280  1
  O  O25  1  0.79829141  0.28728810  0.00738720  1
  O  O26  1  0.20170859  0.71271190  0.00738720  1
  O  O27  1  0.79829141  0.71271190  0.99261280  1
  O  O28  1  0.50887831  0.30923623  0.20558632  1
  O  O29  1  0.49112169  0.69076377  0.20558632  1
  O  O30  1  0.49112169  0.30923623  0.79441368  1
  O  O31  1  0.50887831  0.69076377  0.79441368  1
  O  O32  1  0.20321999  0.50772050  0.30737117  1
  O  O33  1  0.20321999  0.49227950  0.69262883  1
  O  O34  1  0.79678001  0.49227950  0.30737117  1
  O  O35  1  0.79678001  0.50772050  0.69262883  1
  O  O36  1  0.30141649  0.21445800  0.50791266  1
  O  O37  1  0.69858351  0.21445800  0.49208734  1
  O  O38  1  0.30141649  0.78554200  0.49208734  1
  O  O39  1  0.69858351  0.78554200  0.50791266  1
