# generated using pymatgen
data_KPr(FeO3)4
_symmetry_space_group_name_H-M   'P 1'
_cell_length_a   5.44318253
_cell_length_b   5.44318253
_cell_length_c   7.72595186
_cell_angle_alpha   90.00000000
_cell_angle_beta   90.00000000
_cell_angle_gamma   90.18640293
_symmetry_Int_Tables_number   1
_chemical_formula_structural   KPr(FeO3)4
_chemical_formula_sum   'K1 Pr1 Fe4 O12'
_cell_volume   228.90511394
_cell_formula_units_Z   1
loop_
 _symmetry_equiv_pos_site_id
 _symmetry_equiv_pos_as_xyz
  1  'x, y, z'
loop_
 _atom_site_type_symbol
 _atom_site_label
 _atom_site_symmetry_multiplicity
 _atom_site_fract_x
 _atom_site_fract_y
 _atom_site_fract_z
 _atom_site_occupancy
  K  K0  1  0.00150297  0.00150297  0.00000000  1
  Pr  Pr1  1  0.49940978  0.49940978  0.50000000  1
  Fe  Fe2  1  0.49938256  0.00022339  0.75450512  1
  Fe  Fe3  1  0.49938256  0.00022339  0.24549488  1
  Fe  Fe4  1  0.00022339  0.49938256  0.24549488  1
  Fe  Fe5  1  0.00022339  0.49938256  0.75450512  1
  O  O6  1  0.72916222  0.27004604  0.73929099  1
  O  O7  1  0.27004604  0.72916222  0.73929099  1
  O  O8  1  0.27004604  0.72916222  0.26070901  1
  O  O9  1  0.72916222  0.27004604  0.26070901  1
  O  O10  1  0.75143186  0.75143186  0.75101773  1
  O  O11  1  0.24831188  0.24831188  0.72141658  1
  O  O12  1  0.24831188  0.24831188  0.27858342  1
  O  O13  1  0.75143186  0.75143186  0.24898227  1
  O  O14  1  0.49290974  0.01364516  0.00000000  1
  O  O15  1  0.51433917  0.97987727  0.50000000  1
  O  O16  1  0.01364516  0.49290974  -0.00000000  1
  O  O17  1  0.97987727  0.51433917  0.50000000  1
