# generated using pymatgen
data_BaSrSmWO6
_symmetry_space_group_name_H-M   'P 1'
_cell_length_a   6.02580755
_cell_length_b   6.05372455
_cell_length_c   8.48466136
_cell_angle_alpha   89.82612547
_cell_angle_beta   90.73250987
_cell_angle_gamma   89.88828722
_symmetry_Int_Tables_number   1
_chemical_formula_structural   BaSrSmWO6
_chemical_formula_sum   'Ba2 Sr2 Sm2 W2 O12'
_cell_volume   309.48105957
_cell_formula_units_Z   2
loop_
 _symmetry_equiv_pos_site_id
 _symmetry_equiv_pos_as_xyz
  1  'x, y, z'
loop_
 _atom_site_type_symbol
 _atom_site_label
 _atom_site_symmetry_multiplicity
 _atom_site_fract_x
 _atom_site_fract_y
 _atom_site_fract_z
 _atom_site_occupancy
  Ba  Ba0  1  0.99311550  0.02533674  0.25059928  1
  Ba  Ba1  1  0.00688450  0.97466326  0.74940072  1
  Sr  Sr2  1  0.50658265  0.53539721  0.24761495  1
  Sr  Sr3  1  0.49341735  0.46460279  0.75238505  1
  Sm  Sm4  1  0.00000000  0.50000000  -0.00000000  1
  Sm  Sm5  1  0.50000000  0.00000000  0.50000000  1
  W  W6  1  0.50000000  0.00000000  -0.00000000  1
  W  W7  1  0.00000000  0.50000000  0.50000000  1
  O  O8  1  0.23667404  0.20179570  0.97638965  1
  O  O9  1  0.26625930  0.69842521  0.53781782  1
  O  O10  1  0.76332596  0.79820430  0.02361035  1
  O  O11  1  0.73374070  0.30157479  0.46218218  1
  O  O12  1  0.30313234  0.72759704  0.96010351  1
  O  O13  1  0.20702428  0.23844714  0.53917545  1
  O  O14  1  0.69686766  0.27240296  0.03989649  1
  O  O15  1  0.79297572  0.76155286  0.46082455  1
  O  O16  1  0.44056829  0.97471152  0.23044059  1
  O  O17  1  0.07579736  0.50168554  0.27029002  1
  O  O18  1  0.55943171  0.02528848  0.76955941  1
  O  O19  1  0.92420264  0.49831446  0.72970998  1
