# generated using pymatgen
data_KGdNb4O12
_symmetry_space_group_name_H-M   'P 1'
_cell_length_a   5.60185288
_cell_length_b   5.60185288
_cell_length_c   7.97247476
_cell_angle_alpha   90.00000000
_cell_angle_beta   90.00000000
_cell_angle_gamma   90.41459261
_symmetry_Int_Tables_number   1
_chemical_formula_structural   KGdNb4O12
_chemical_formula_sum   'K1 Gd1 Nb4 O12'
_cell_volume   250.17573254
_cell_formula_units_Z   1
loop_
 _symmetry_equiv_pos_site_id
 _symmetry_equiv_pos_as_xyz
  1  'x, y, z'
loop_
 _atom_site_type_symbol
 _atom_site_label
 _atom_site_symmetry_multiplicity
 _atom_site_fract_x
 _atom_site_fract_y
 _atom_site_fract_z
 _atom_site_occupancy
  K  K0  1  0.01628170  0.98371830  0.50000000  1
  Gd  Gd1  1  0.47290148  0.52709852  -0.00000000  1
  Nb  Nb2  1  0.50975001  0.99787429  0.25211098  1
  Nb  Nb3  1  0.50975001  0.99787429  0.74788902  1
  Nb  Nb4  1  0.00212571  0.49024999  0.74788902  1
  Nb  Nb5  1  0.00212571  0.49024999  0.25211098  1
  O  O6  1  0.22171406  0.22267052  0.23794390  1
  O  O7  1  0.77732948  0.77828594  0.23794390  1
  O  O8  1  0.77732948  0.77828594  0.76205610  1
  O  O9  1  0.22171406  0.22267052  0.76205610  1
  O  O10  1  0.28588460  0.71411540  0.26583462  1
  O  O11  1  0.70315159  0.29684841  0.19716373  1
  O  O12  1  0.70315159  0.29684841  0.80283627  1
  O  O13  1  0.28588460  0.71411540  0.73416538  1
  O  O14  1  0.47431494  0.94480113  -0.00000000  1
  O  O15  1  0.52830361  0.03501150  0.50000000  1
  O  O16  1  0.05519887  0.52568506  0.00000000  1
  O  O17  1  0.96498850  0.47169639  0.50000000  1
