# generated using pymatgen
data_Mg15B
_symmetry_space_group_name_H-M   'P 1'
_cell_length_a   6.28941821
_cell_length_b   6.28941821
_cell_length_c   10.05220800
_cell_angle_alpha   90.00000000
_cell_angle_beta   90.00000000
_cell_angle_gamma   120.00000216
_symmetry_Int_Tables_number   1
_chemical_formula_structural   Mg15B
_chemical_formula_sum   'Mg15 B1'
_cell_volume   344.36026673
_cell_formula_units_Z   1
loop_
 _symmetry_equiv_pos_site_id
 _symmetry_equiv_pos_as_xyz
  1  'x, y, z'
loop_
 _atom_site_type_symbol
 _atom_site_label
 _atom_site_symmetry_multiplicity
 _atom_site_fract_x
 _atom_site_fract_y
 _atom_site_fract_z
 _atom_site_occupancy
  Mg  Mg0  1  0.00000000  0.00000000  0.50000000  1
  Mg  Mg1  1  0.99459400  0.49729700  0.00000000  1
  Mg  Mg2  1  0.00274100  0.50137100  0.50000000  1
  Mg  Mg3  1  0.50270300  0.49729700  0.00000000  1
  Mg  Mg4  1  0.49862900  0.50137100  0.50000000  1
  Mg  Mg5  1  0.50270300  0.00540600  0.00000000  1
  Mg  Mg6  1  0.49862900  0.99725900  0.50000000  1
  Mg  Mg7  1  0.16182100  0.32364200  0.76229700  1
  Mg  Mg8  1  0.16182100  0.32364200  0.23770300  1
  Mg  Mg9  1  0.16182100  0.83817900  0.76229700  1
  Mg  Mg10  1  0.16182100  0.83817900  0.23770300  1
  Mg  Mg11  1  0.67635800  0.83817900  0.76229700  1
  Mg  Mg12  1  0.67635800  0.83817900  0.23770300  1
  Mg  Mg13  1  0.66666700  0.33333300  0.74897600  1
  Mg  Mg14  1  0.66666700  0.33333300  0.25102400  1
  B  B15  1  0.00000000  0.00000000  0.00000000  1
