# generated using pymatgen
data_BaSrTbCeO6
_symmetry_space_group_name_H-M   'P 1'
_cell_length_a   6.15360180
_cell_length_b   6.24285242
_cell_length_c   8.74514823
_cell_angle_alpha   89.93550187
_cell_angle_beta   90.01742196
_cell_angle_gamma   89.91739719
_symmetry_Int_Tables_number   1
_chemical_formula_structural   BaSrTbCeO6
_chemical_formula_sum   'Ba2 Sr2 Tb2 Ce2 O12'
_cell_volume   335.95328095
_cell_formula_units_Z   2
loop_
 _symmetry_equiv_pos_site_id
 _symmetry_equiv_pos_as_xyz
  1  'x, y, z'
loop_
 _atom_site_type_symbol
 _atom_site_label
 _atom_site_symmetry_multiplicity
 _atom_site_fract_x
 _atom_site_fract_y
 _atom_site_fract_z
 _atom_site_occupancy
  Ba  Ba0  1  0.50886320  0.53499276  0.24993550  1
  Ba  Ba1  1  0.49113680  0.46500724  0.75006450  1
  Sr  Sr2  1  0.98900687  0.04032459  0.25041142  1
  Sr  Sr3  1  0.01099313  0.95967541  0.74958858  1
  Tb  Tb4  1  0.50000000  0.00000000  0.00000000  1
  Tb  Tb5  1  0.00000000  0.50000000  0.50000000  1
  Ce  Ce6  1  0.00000000  0.50000000  0.00000000  1
  Ce  Ce7  1  0.50000000  0.00000000  0.50000000  1
  O  O8  1  0.20411477  0.20886062  0.94718700  1
  O  O9  1  0.29095940  0.71507756  0.54357206  1
  O  O10  1  0.79588523  0.79113938  0.05281300  1
  O  O11  1  0.70904060  0.28492244  0.45642794  1
  O  O12  1  0.28681788  0.70964783  0.95811221  1
  O  O13  1  0.20806876  0.20445752  0.55191624  1
  O  O14  1  0.71318212  0.29035217  0.04188779  1
  O  O15  1  0.79193124  0.79554248  0.44808376  1
  O  O16  1  0.40075640  0.98289963  0.25198664  1
  O  O17  1  0.07725659  0.45485462  0.24818737  1
  O  O18  1  0.59924360  0.01710037  0.74801336  1
  O  O19  1  0.92274341  0.54514538  0.75181263  1
