# generated using pymatgen
data_BaTbEuBiO6
_symmetry_space_group_name_H-M   'P 1'
_cell_length_a   8.70182424
_cell_length_b   8.77807300
_cell_length_c   8.68708218
_cell_angle_alpha   90.00000000
_cell_angle_beta   90.00000000
_cell_angle_gamma   90.00000000
_symmetry_Int_Tables_number   1
_chemical_formula_structural   BaTbEuBiO6
_chemical_formula_sum   'Ba4 Tb4 Eu4 Bi4 O24'
_cell_volume   663.56493029
_cell_formula_units_Z   4
loop_
 _symmetry_equiv_pos_site_id
 _symmetry_equiv_pos_as_xyz
  1  'x, y, z'
loop_
 _atom_site_type_symbol
 _atom_site_label
 _atom_site_symmetry_multiplicity
 _atom_site_fract_x
 _atom_site_fract_y
 _atom_site_fract_z
 _atom_site_occupancy
  Ba  Ba0  1  -0.00000000  0.00000000  -0.00000000  1
  Ba  Ba1  1  0.50000000  0.50000000  0.50000000  1
  Ba  Ba2  1  -0.00000000  0.50000000  -0.00000000  1
  Ba  Ba3  1  -0.00000000  0.00000000  0.50000000  1
  Tb  Tb4  1  0.25058706  0.25025903  0.24951401  1
  Tb  Tb5  1  0.74941294  0.74974097  0.24951401  1
  Tb  Tb6  1  0.74941294  0.25025903  0.75048599  1
  Tb  Tb7  1  0.25058706  0.74974097  0.75048599  1
  Eu  Eu8  1  -0.00000000  0.50000000  0.50000000  1
  Eu  Eu9  1  0.50000000  0.00000000  0.50000000  1
  Eu  Eu10  1  0.50000000  0.50000000  -0.00000000  1
  Eu  Eu11  1  0.50000000  0.00000000  -0.00000000  1
  Bi  Bi12  1  0.74913947  0.74968976  0.75035069  1
  Bi  Bi13  1  0.25086053  0.25031024  0.75035069  1
  Bi  Bi14  1  0.25086053  0.74968976  0.24964931  1
  Bi  Bi15  1  0.74913947  0.25031024  0.24964931  1
  O  O16  1  0.99584050  0.21309142  0.28290077  1
  O  O17  1  0.00415950  0.78690858  0.28290077  1
  O  O18  1  0.00415950  0.21309142  0.71709923  1
  O  O19  1  0.99584050  0.78690858  0.71709923  1
  O  O20  1  0.29174604  0.99564846  0.20484054  1
  O  O21  1  0.29174604  0.00435154  0.79515946  1
  O  O22  1  0.70825396  0.00435154  0.20484054  1
  O  O23  1  0.70825396  0.99564846  0.79515946  1
  O  O24  1  0.21358681  0.28281175  0.99582409  1
  O  O25  1  0.78641319  0.28281175  0.00417591  1
  O  O26  1  0.21358681  0.71718825  0.00417591  1
  O  O27  1  0.78641319  0.71718825  0.99582409  1
  O  O28  1  0.50431207  0.29622898  0.20842508  1
  O  O29  1  0.49568793  0.70377102  0.20842508  1
  O  O30  1  0.49568793  0.29622898  0.79157492  1
  O  O31  1  0.50431207  0.70377102  0.79157492  1
  O  O32  1  0.21009346  0.50440231  0.29745482  1
  O  O33  1  0.21009346  0.49559769  0.70254518  1
  O  O34  1  0.78990654  0.49559769  0.29745482  1
  O  O35  1  0.78990654  0.50440231  0.70254518  1
  O  O36  1  0.29745047  0.20928462  0.50430623  1
  O  O37  1  0.70254953  0.20928462  0.49569377  1
  O  O38  1  0.29745047  0.79071538  0.49569377  1
  O  O39  1  0.70254953  0.79071538  0.50430623  1
