# generated using pymatgen
data_CaEuHf4O12
_symmetry_space_group_name_H-M   'P 1'
_cell_length_a   5.61420057
_cell_length_b   5.61420057
_cell_length_c   8.02334347
_cell_angle_alpha   90.00000000
_cell_angle_beta   90.00000000
_cell_angle_gamma   91.41762548
_symmetry_Int_Tables_number   1
_chemical_formula_structural   CaEuHf4O12
_chemical_formula_sum   'Ca1 Eu1 Hf4 O12'
_cell_volume   252.81235052
_cell_formula_units_Z   1
loop_
 _symmetry_equiv_pos_site_id
 _symmetry_equiv_pos_as_xyz
  1  'x, y, z'
loop_
 _atom_site_type_symbol
 _atom_site_label
 _atom_site_symmetry_multiplicity
 _atom_site_fract_x
 _atom_site_fract_y
 _atom_site_fract_z
 _atom_site_occupancy
  Ca  Ca0  1  0.48223899  0.51776101  0.00000000  1
  Eu  Eu1  1  0.02852614  0.97147386  0.50000000  1
  Hf  Hf2  1  0.49929800  -0.00072031  0.25068188  1
  Hf  Hf3  1  0.49929800  -0.00072031  0.74931812  1
  Hf  Hf4  1  0.00072031  0.50070200  0.74931812  1
  Hf  Hf5  1  0.00072031  0.50070200  0.25068188  1
  O  O6  1  0.19747134  0.19767875  0.24929051  1
  O  O7  1  0.80232125  0.80252866  0.24929051  1
  O  O8  1  0.80232125  0.80252866  0.75070949  1
  O  O9  1  0.19747134  0.19767875  0.75070949  1
  O  O10  1  0.30439515  0.69560485  0.30383159  1
  O  O11  1  0.69617029  0.30382971  0.19613563  1
  O  O12  1  0.69617029  0.30382971  0.80386437  1
  O  O13  1  0.30439515  0.69560485  0.69616841  1
  O  O14  1  0.45032149  0.93927984  0.00000000  1
  O  O15  1  0.54932148  0.06138092  0.50000000  1
  O  O16  1  0.06072016  0.54967851  0.00000000  1
  O  O17  1  0.93861908  0.45067852  0.50000000  1
