# generated using pymatgen
data_BaEuZr2O6
_symmetry_space_group_name_H-M   'P 1'
_cell_length_a   8.44182873
_cell_length_b   8.44182873
_cell_length_c   8.44429465
_cell_angle_alpha   90.00000000
_cell_angle_beta   90.00000000
_cell_angle_gamma   90.00000000
_symmetry_Int_Tables_number   1
_chemical_formula_structural   BaEuZr2O6
_chemical_formula_sum   'Ba4 Eu4 Zr8 O24'
_cell_volume   601.77820223
_cell_formula_units_Z   4
loop_
 _symmetry_equiv_pos_site_id
 _symmetry_equiv_pos_as_xyz
  1  'x, y, z'
loop_
 _atom_site_type_symbol
 _atom_site_label
 _atom_site_symmetry_multiplicity
 _atom_site_fract_x
 _atom_site_fract_y
 _atom_site_fract_z
 _atom_site_occupancy
  Ba  Ba0  1  0.50000000  0.00000000  0.50000000  1
  Ba  Ba1  1  0.00000000  0.50000000  -0.00000000  1
  Ba  Ba2  1  0.50000000  0.50000000  -0.00000000  1
  Ba  Ba3  1  0.50000000  0.50000000  0.50000000  1
  Eu  Eu4  1  0.00000000  0.00000000  -0.00000000  1
  Eu  Eu5  1  0.50000000  0.00000000  -0.00000000  1
  Eu  Eu6  1  0.00000000  0.00000000  0.50000000  1
  Eu  Eu7  1  0.00000000  0.50000000  0.50000000  1
  Zr  Zr8  1  0.75176231  0.75176231  0.75000000  1
  Zr  Zr9  1  0.24823769  0.75176231  0.75000000  1
  Zr  Zr10  1  0.75176231  0.75176231  0.25000000  1
  Zr  Zr11  1  0.24823769  0.75176231  0.25000000  1
  Zr  Zr12  1  0.75176231  0.24823769  0.75000000  1
  Zr  Zr13  1  0.24823769  0.24823769  0.75000000  1
  Zr  Zr14  1  0.75176231  0.24823769  0.25000000  1
  Zr  Zr15  1  0.24823769  0.24823769  0.25000000  1
  O  O16  1  0.00000000  0.75387411  0.74742465  1
  O  O17  1  0.50000000  0.75395259  0.75279834  1
  O  O18  1  0.00000000  0.75387411  0.25257535  1
  O  O19  1  0.50000000  0.75395259  0.24720166  1
  O  O20  1  0.00000000  0.24612589  0.74742465  1
  O  O21  1  0.50000000  0.24604741  0.75279834  1
  O  O22  1  0.00000000  0.24612589  0.25257535  1
  O  O23  1  0.50000000  0.24604741  0.24720166  1
  O  O24  1  0.75387411  0.00000000  0.75257535  1
  O  O25  1  0.24612589  0.00000000  0.75257535  1
  O  O26  1  0.75387411  0.00000000  0.24742465  1
  O  O27  1  0.24612589  0.00000000  0.24742465  1
  O  O28  1  0.75395259  0.50000000  0.74720166  1
  O  O29  1  0.24604741  0.50000000  0.74720166  1
  O  O30  1  0.75395259  0.50000000  0.25279834  1
  O  O31  1  0.24604741  0.50000000  0.25279834  1
  O  O32  1  0.75122652  0.75658696  -0.00000000  1
  O  O33  1  0.24877348  0.75658696  -0.00000000  1
  O  O34  1  0.75658696  0.75122652  0.50000000  1
  O  O35  1  0.24341304  0.75122652  0.50000000  1
  O  O36  1  0.75122652  0.24341304  -0.00000000  1
  O  O37  1  0.24877348  0.24341304  -0.00000000  1
  O  O38  1  0.75658696  0.24877348  0.50000000  1
  O  O39  1  0.24341304  0.24877348  0.50000000  1
