# generated using pymatgen
data_NaGdMn4O12
_symmetry_space_group_name_H-M   'P 1'
_cell_length_a   5.25738770
_cell_length_b   5.25738770
_cell_length_c   7.56196983
_cell_angle_alpha   90.00000000
_cell_angle_beta   90.00000000
_cell_angle_gamma   92.79099391
_symmetry_Int_Tables_number   1
_chemical_formula_structural   NaGdMn4O12
_chemical_formula_sum   'Na1 Gd1 Mn4 O12'
_cell_volume   208.76586328
_cell_formula_units_Z   1
loop_
 _symmetry_equiv_pos_site_id
 _symmetry_equiv_pos_as_xyz
  1  'x, y, z'
loop_
 _atom_site_type_symbol
 _atom_site_label
 _atom_site_symmetry_multiplicity
 _atom_site_fract_x
 _atom_site_fract_y
 _atom_site_fract_z
 _atom_site_occupancy
  Na  Na0  1  0.98283456  0.01716544  0.00000000  1
  Gd  Gd1  1  0.50883369  0.49116631  0.50000000  1
  Mn  Mn2  1  0.50155167  -0.01097515  0.23878785  1
  Mn  Mn3  1  0.50155167  -0.01097515  0.76121215  1
  Mn  Mn4  1  0.01097515  0.49844833  0.76121215  1
  Mn  Mn5  1  0.01097515  0.49844833  0.23878785  1
  O  O6  1  0.32256885  0.31858618  0.25920002  1
  O  O7  1  0.68141382  0.67743115  0.25920002  1
  O  O8  1  0.68141382  0.67743115  0.74079998  1
  O  O9  1  0.32256885  0.31858618  0.74079998  1
  O  O10  1  0.19803952  0.80196048  0.19184509  1
  O  O11  1  0.79361081  0.20638919  0.31857703  1
  O  O12  1  0.79361081  0.20638919  0.68142297  1
  O  O13  1  0.19803952  0.80196048  0.80815491  1
  O  O14  1  0.56840841  0.05775535  0.00000000  1
  O  O15  1  0.42949083  0.93673181  0.50000000  1
  O  O16  1  0.94224465  0.43159159  0.00000000  1
  O  O17  1  0.06326819  0.57050917  0.50000000  1
