# generated using pymatgen
data_BaLaEuSbO6
_symmetry_space_group_name_H-M   'P 1'
_cell_length_a   6.06685028
_cell_length_b   6.11715856
_cell_length_c   8.62315564
_cell_angle_alpha   90.39237943
_cell_angle_beta   90.46520678
_cell_angle_gamma   90.05723170
_symmetry_Int_Tables_number   1
_chemical_formula_structural   BaLaEuSbO6
_chemical_formula_sum   'Ba2 La2 Eu2 Sb2 O12'
_cell_volume   320.00333106
_cell_formula_units_Z   2
loop_
 _symmetry_equiv_pos_site_id
 _symmetry_equiv_pos_as_xyz
  1  'x, y, z'
loop_
 _atom_site_type_symbol
 _atom_site_label
 _atom_site_symmetry_multiplicity
 _atom_site_fract_x
 _atom_site_fract_y
 _atom_site_fract_z
 _atom_site_occupancy
  Ba  Ba0  1  0.50573327  0.52654223  0.25030591  1
  Ba  Ba1  1  0.49426673  0.47345777  0.74969409  1
  La  La2  1  0.00000000  0.50000000  0.00000000  1
  La  La3  1  0.50000000  0.00000000  0.50000000  1
  Eu  Eu4  1  0.99107541  0.03670532  0.25274792  1
  Eu  Eu5  1  0.00892459  0.96329468  0.74725208  1
  Sb  Sb6  1  0.50000000  0.00000000  0.00000000  1
  Sb  Sb7  1  0.00000000  0.50000000  0.50000000  1
  O  O8  1  0.23681568  0.19378251  0.94717083  1
  O  O9  1  0.26586535  0.69667812  0.52806170  1
  O  O10  1  0.76318432  0.80621749  0.05282917  1
  O  O11  1  0.73413465  0.30332188  0.47193830  1
  O  O12  1  0.30304255  0.73787601  0.95873848  1
  O  O13  1  0.18479150  0.22848877  0.54864518  1
  O  O14  1  0.69695745  0.26212399  0.04126152  1
  O  O15  1  0.81520850  0.77151123  0.45135482  1
  O  O16  1  0.40340747  0.99516630  0.22758895  1
  O  O17  1  0.06283268  0.45387425  0.27128083  1
  O  O18  1  0.59659253  0.00483370  0.77241105  1
  O  O19  1  0.93716732  0.54612575  0.72871917  1
