# generated using pymatgen
data_BaEuYWO6
_symmetry_space_group_name_H-M   'P 1'
_cell_length_a   5.93640213
_cell_length_b   5.95565683
_cell_length_c   8.47521588
_cell_angle_alpha   90.11891188
_cell_angle_beta   89.85515620
_cell_angle_gamma   89.21657621
_symmetry_Int_Tables_number   1
_chemical_formula_structural   BaEuYWO6
_chemical_formula_sum   'Ba2 Eu2 Y2 W2 O12'
_cell_volume   299.61309652
_cell_formula_units_Z   2
loop_
 _symmetry_equiv_pos_site_id
 _symmetry_equiv_pos_as_xyz
  1  'x, y, z'
loop_
 _atom_site_type_symbol
 _atom_site_label
 _atom_site_symmetry_multiplicity
 _atom_site_fract_x
 _atom_site_fract_y
 _atom_site_fract_z
 _atom_site_occupancy
  Ba  Ba0  1  0.99577256  0.02071115  0.25056633  1
  Ba  Ba1  1  0.00422744  0.97928885  0.74943367  1
  Eu  Eu2  1  0.50104431  0.53245808  0.25153835  1
  Eu  Eu3  1  0.49895569  0.46754192  0.74846165  1
  Y  Y4  1  0.50000000  -0.00000000  -0.00000000  1
  Y  Y5  1  -0.00000000  0.50000000  0.50000000  1
  W  W6  1  -0.00000000  0.50000000  -0.00000000  1
  W  W7  1  0.50000000  -0.00000000  0.50000000  1
  O  O8  1  0.20664928  0.24110051  0.96664697  1
  O  O9  1  0.30145302  0.72541407  0.53882068  1
  O  O10  1  0.79335072  0.75889949  0.03335303  1
  O  O11  1  0.69854698  0.27458593  0.46117932  1
  O  O12  1  0.27163731  0.70136215  0.96120858  1
  O  O13  1  0.24054590  0.20892934  0.52804401  1
  O  O14  1  0.72836269  0.29863785  0.03879142  1
  O  O15  1  0.75945410  0.79107066  0.47195599  1
  O  O16  1  0.44801672  0.97113433  0.26213497  1
  O  O17  1  0.08080008  0.50014265  0.23699699  1
  O  O18  1  0.55198328  0.02886567  0.73786503  1
  O  O19  1  0.91919992  0.49985735  0.76300301  1
