# generated using pymatgen
data_BaSrCaWO6
_symmetry_space_group_name_H-M   'P 1'
_cell_length_a   8.45449419
_cell_length_b   8.42584908
_cell_length_c   8.43294732
_cell_angle_alpha   90.00000000
_cell_angle_beta   90.00000000
_cell_angle_gamma   90.00000000
_symmetry_Int_Tables_number   1
_chemical_formula_structural   BaSrCaWO6
_chemical_formula_sum   'Ba4 Sr4 Ca4 W4 O24'
_cell_volume   600.73189849
_cell_formula_units_Z   4
loop_
 _symmetry_equiv_pos_site_id
 _symmetry_equiv_pos_as_xyz
  1  'x, y, z'
loop_
 _atom_site_type_symbol
 _atom_site_label
 _atom_site_symmetry_multiplicity
 _atom_site_fract_x
 _atom_site_fract_y
 _atom_site_fract_z
 _atom_site_occupancy
  Ba  Ba0  1  0.00000000  0.00000000  0.00000000  1
  Ba  Ba1  1  0.50000000  0.50000000  0.50000000  1
  Ba  Ba2  1  0.50000000  0.00000000  -0.00000000  1
  Ba  Ba3  1  0.00000000  0.50000000  -0.00000000  1
  Sr  Sr4  1  0.00000000  0.50000000  0.50000000  1
  Sr  Sr5  1  0.50000000  0.00000000  0.50000000  1
  Sr  Sr6  1  0.50000000  0.50000000  0.00000000  1
  Sr  Sr7  1  0.00000000  0.00000000  0.50000000  1
  Ca  Ca8  1  0.74971274  0.74901464  0.74795593  1
  Ca  Ca9  1  0.25028726  0.25098536  0.74795593  1
  Ca  Ca10  1  0.25028726  0.74901464  0.25204407  1
  Ca  Ca11  1  0.74971274  0.25098536  0.25204407  1
  W  W12  1  0.25066769  0.24917052  0.25391342  1
  W  W13  1  0.74933231  0.75082948  0.25391342  1
  W  W14  1  0.74933231  0.24917052  0.74608658  1
  W  W15  1  0.25066769  0.75082948  0.74608658  1
  O  O16  1  0.02135400  0.21864485  0.28298544  1
  O  O17  1  0.97864600  0.78135515  0.28298544  1
  O  O18  1  0.97864600  0.21864485  0.71701456  1
  O  O19  1  0.02135400  0.78135515  0.71701456  1
  O  O20  1  0.27484255  0.01986085  0.22778658  1
  O  O21  1  0.27484255  0.98013915  0.77221342  1
  O  O22  1  0.72515745  0.98013915  0.22778658  1
  O  O23  1  0.72515745  0.01986085  0.77221342  1
  O  O24  1  0.22468652  0.27162640  0.02320260  1
  O  O25  1  0.77531348  0.27162640  0.97679740  1
  O  O26  1  0.22468652  0.72837360  0.97679740  1
  O  O27  1  0.77531348  0.72837360  0.02320260  1
  O  O28  1  0.47788020  0.28701765  0.22124152  1
  O  O29  1  0.52211980  0.71298235  0.22124152  1
  O  O30  1  0.52211980  0.28701765  0.77875848  1
  O  O31  1  0.47788020  0.71298235  0.77875848  1
  O  O32  1  0.21656315  0.47715594  0.28719473  1
  O  O33  1  0.21656315  0.52284406  0.71280527  1
  O  O34  1  0.78343685  0.52284406  0.28719473  1
  O  O35  1  0.78343685  0.47715594  0.71280527  1
  O  O36  1  0.28860606  0.21832276  0.48038429  1
  O  O37  1  0.71139394  0.21832276  0.51961571  1
  O  O38  1  0.28860606  0.78167724  0.51961571  1
  O  O39  1  0.71139394  0.78167724  0.48038429  1
