# generated using pymatgen
data_BaSmV4O12
_symmetry_space_group_name_H-M   'P 1'
_cell_length_a   5.40273992
_cell_length_b   5.40273992
_cell_length_c   7.57146525
_cell_angle_alpha   90.00000000
_cell_angle_beta   90.00000000
_cell_angle_gamma   90.00000000
_symmetry_Int_Tables_number   1
_chemical_formula_structural   BaSmV4O12
_chemical_formula_sum   'Ba1 Sm1 V4 O12'
_cell_volume   221.00803179
_cell_formula_units_Z   1
loop_
 _symmetry_equiv_pos_site_id
 _symmetry_equiv_pos_as_xyz
  1  'x, y, z'
loop_
 _atom_site_type_symbol
 _atom_site_label
 _atom_site_symmetry_multiplicity
 _atom_site_fract_x
 _atom_site_fract_y
 _atom_site_fract_z
 _atom_site_occupancy
  Ba  Ba0  1  0.50000000  0.50000000  -0.00000000  1
  Sm  Sm1  1  0.00000000  0.00000000  0.50000000  1
  V  V2  1  0.00000000  0.50000000  0.74737184  1
  V  V3  1  0.00000000  0.50000000  0.25262816  1
  V  V4  1  0.50000000  -0.00000000  0.74737184  1
  V  V5  1  0.50000000  0.00000000  0.25262816  1
  O  O6  1  0.24388037  0.24388037  0.26198489  1
  O  O7  1  0.24388037  0.24388037  0.73801511  1
  O  O8  1  0.75611963  0.75611963  0.73801511  1
  O  O9  1  0.75611963  0.75611963  0.26198489  1
  O  O10  1  0.75611963  0.24388037  0.73801511  1
  O  O11  1  0.75611963  0.24388037  0.26198489  1
  O  O12  1  0.24388037  0.75611963  0.73801511  1
  O  O13  1  0.24388037  0.75611963  0.26198489  1
  O  O14  1  0.00000000  0.50000000  0.50000000  1
  O  O15  1  0.00000000  0.50000000  -0.00000000  1
  O  O16  1  0.50000000  0.00000000  0.50000000  1
  O  O17  1  0.50000000  -0.00000000  -0.00000000  1
