# generated using pymatgen
data_SrSmEuSbO6
_symmetry_space_group_name_H-M   'P 1'
_cell_length_a   8.50732736
_cell_length_b   8.50589575
_cell_length_c   8.52238552
_cell_angle_alpha   90.00000000
_cell_angle_beta   90.00000000
_cell_angle_gamma   90.00000000
_symmetry_Int_Tables_number   1
_chemical_formula_structural   SrSmEuSbO6
_chemical_formula_sum   'Sr4 Sm4 Eu4 Sb4 O24'
_cell_volume   616.70060774
_cell_formula_units_Z   4
loop_
 _symmetry_equiv_pos_site_id
 _symmetry_equiv_pos_as_xyz
  1  'x, y, z'
loop_
 _atom_site_type_symbol
 _atom_site_label
 _atom_site_symmetry_multiplicity
 _atom_site_fract_x
 _atom_site_fract_y
 _atom_site_fract_z
 _atom_site_occupancy
  Sr  Sr0  1  0.00000000  0.50000000  0.50000000  1
  Sr  Sr1  1  0.50000000  0.50000000  -0.00000000  1
  Sr  Sr2  1  0.50000000  -0.00000000  -0.00000000  1
  Sr  Sr3  1  0.00000000  0.50000000  -0.00000000  1
  Sm  Sm4  1  0.25060219  0.24968511  0.25011312  1
  Sm  Sm5  1  0.74939781  0.75031489  0.25011312  1
  Sm  Sm6  1  0.74939781  0.24968511  0.74988688  1
  Sm  Sm7  1  0.25060219  0.75031489  0.74988688  1
  Eu  Eu8  1  0.50000000  -0.00000000  0.50000000  1
  Eu  Eu9  1  0.00000000  -0.00000000  0.50000000  1
  Eu  Eu10  1  0.00000000  0.00000000  -0.00000000  1
  Eu  Eu11  1  0.50000000  0.50000000  0.50000000  1
  Sb  Sb12  1  0.74922790  0.74987963  0.75031611  1
  Sb  Sb13  1  0.25077210  0.25012037  0.75031611  1
  Sb  Sb14  1  0.25077210  0.74987963  0.24968389  1
  Sb  Sb15  1  0.74922790  0.25012037  0.24968389  1
  O  O16  1  0.98412914  0.20569041  0.28555897  1
  O  O17  1  0.01587086  0.79430959  0.28555897  1
  O  O18  1  0.01587086  0.20569041  0.71444103  1
  O  O19  1  0.98412914  0.79430959  0.71444103  1
  O  O20  1  0.28256728  0.98414630  0.20977265  1
  O  O21  1  0.28256728  0.01585370  0.79022735  1
  O  O22  1  0.71743272  0.01585370  0.20977265  1
  O  O23  1  0.71743272  0.98414630  0.79022735  1
  O  O24  1  0.20861044  0.28166217  0.98469553  1
  O  O25  1  0.79138956  0.28166217  0.01530447  1
  O  O26  1  0.20861044  0.71833783  0.01530447  1
  O  O27  1  0.79138956  0.71833783  0.98469553  1
  O  O28  1  0.51543269  0.29115411  0.21815346  1
  O  O29  1  0.48456731  0.70884589  0.21815346  1
  O  O30  1  0.48456731  0.29115411  0.78184654  1
  O  O31  1  0.51543269  0.70884589  0.78184654  1
  O  O32  1  0.21776668  0.51560377  0.29134782  1
  O  O33  1  0.21776668  0.48439623  0.70865218  1
  O  O34  1  0.78223332  0.48439623  0.29134782  1
  O  O35  1  0.78223332  0.51560377  0.70865218  1
  O  O36  1  0.29247327  0.21468921  0.51618372  1
  O  O37  1  0.70752673  0.21468921  0.48381628  1
  O  O38  1  0.29247327  0.78531079  0.48381628  1
  O  O39  1  0.70752673  0.78531079  0.51618372  1
