# generated using pymatgen
data_BaCaEuSbO6
_symmetry_space_group_name_H-M   'P 1'
_cell_length_a   8.47263790
_cell_length_b   8.40782466
_cell_length_c   8.45153860
_cell_angle_alpha   90.00000000
_cell_angle_beta   90.00000000
_cell_angle_gamma   90.00000000
_symmetry_Int_Tables_number   1
_chemical_formula_structural   BaCaEuSbO6
_chemical_formula_sum   'Ba4 Ca4 Eu4 Sb4 O24'
_cell_volume   602.05763962
_cell_formula_units_Z   4
loop_
 _symmetry_equiv_pos_site_id
 _symmetry_equiv_pos_as_xyz
  1  'x, y, z'
loop_
 _atom_site_type_symbol
 _atom_site_label
 _atom_site_symmetry_multiplicity
 _atom_site_fract_x
 _atom_site_fract_y
 _atom_site_fract_z
 _atom_site_occupancy
  Ba  Ba0  1  0.00000000  0.00000000  -0.00000000  1
  Ba  Ba1  1  0.50000000  0.50000000  0.50000000  1
  Ba  Ba2  1  0.50000000  0.00000000  0.50000000  1
  Ba  Ba3  1  0.00000000  0.50000000  -0.00000000  1
  Ca  Ca4  1  0.75000000  0.75000000  0.75000000  1
  Ca  Ca5  1  0.25000000  0.25000000  0.75000000  1
  Ca  Ca6  1  0.25000000  0.75000000  0.25000000  1
  Ca  Ca7  1  0.75000000  0.25000000  0.25000000  1
  Eu  Eu8  1  0.00000000  0.50000000  0.50000000  1
  Eu  Eu9  1  0.50000000  0.50000000  0.00000000  1
  Eu  Eu10  1  0.50000000  0.00000000  -0.00000000  1
  Eu  Eu11  1  0.00000000  0.00000000  0.50000000  1
  Sb  Sb12  1  0.25000000  0.25000000  0.25000000  1
  Sb  Sb13  1  0.75000000  0.75000000  0.25000000  1
  Sb  Sb14  1  0.75000000  0.25000000  0.75000000  1
  Sb  Sb15  1  0.25000000  0.75000000  0.75000000  1
  O  O16  1  0.01782102  0.19573911  0.28390729  1
  O  O17  1  0.98217898  0.80426089  0.28390729  1
  O  O18  1  0.98217898  0.19573911  0.71609271  1
  O  O19  1  0.01782102  0.80426089  0.71609271  1
  O  O20  1  0.30287028  0.01788501  0.20848037  1
  O  O21  1  0.30287028  0.98211499  0.79151963  1
  O  O22  1  0.69712972  0.98211499  0.20848037  1
  O  O23  1  0.69712972  0.01788501  0.79151963  1
  O  O24  1  0.22831142  0.28079343  0.01629100  1
  O  O25  1  0.77168858  0.28079343  0.98370900  1
  O  O26  1  0.22831142  0.71920657  0.98370900  1
  O  O27  1  0.77168858  0.71920657  0.01629100  1
  O  O28  1  0.48217898  0.30426089  0.21609271  1
  O  O29  1  0.51782102  0.69573911  0.21609271  1
  O  O30  1  0.51782102  0.30426089  0.78390729  1
  O  O31  1  0.48217898  0.69573911  0.78390729  1
  O  O32  1  0.19712972  0.48211499  0.29151963  1
  O  O33  1  0.19712972  0.51788501  0.70848037  1
  O  O34  1  0.80287028  0.51788501  0.29151963  1
  O  O35  1  0.80287028  0.48211499  0.70848037  1
  O  O36  1  0.27168858  0.21920657  0.48370900  1
  O  O37  1  0.72831142  0.21920657  0.51629100  1
  O  O38  1  0.27168858  0.78079343  0.51629100  1
  O  O39  1  0.72831142  0.78079343  0.48370900  1
