# generated using pymatgen
data_Ba2TbHfO6
_symmetry_space_group_name_H-M   'P 1'
_cell_length_a   8.67337767
_cell_length_b   8.67337767
_cell_length_c   8.67337767
_cell_angle_alpha   90.00000000
_cell_angle_beta   90.00000000
_cell_angle_gamma   90.00000000
_symmetry_Int_Tables_number   1
_chemical_formula_structural   Ba2TbHfO6
_chemical_formula_sum   'Ba8 Tb4 Hf4 O24'
_cell_volume   652.47634699
_cell_formula_units_Z   4
loop_
 _symmetry_equiv_pos_site_id
 _symmetry_equiv_pos_as_xyz
  1  'x, y, z'
loop_
 _atom_site_type_symbol
 _atom_site_label
 _atom_site_symmetry_multiplicity
 _atom_site_fract_x
 _atom_site_fract_y
 _atom_site_fract_z
 _atom_site_occupancy
  Ba  Ba0  1  0.50000000  0.50000000  0.50000000  1
  Ba  Ba1  1  0.00000000  0.00000000  0.00000000  1
  Ba  Ba2  1  0.00000000  0.00000000  0.50000000  1
  Ba  Ba3  1  0.00000000  0.50000000  0.00000000  1
  Ba  Ba4  1  0.50000000  0.00000000  0.00000000  1
  Ba  Ba5  1  0.50000000  0.50000000  0.00000000  1
  Ba  Ba6  1  0.50000000  0.00000000  0.50000000  1
  Ba  Ba7  1  0.00000000  0.50000000  0.50000000  1
  Tb  Tb8  1  0.25000000  0.25000000  0.25000000  1
  Tb  Tb9  1  0.25000000  0.75000000  0.75000000  1
  Tb  Tb10  1  0.75000000  0.25000000  0.75000000  1
  Tb  Tb11  1  0.75000000  0.75000000  0.25000000  1
  Hf  Hf12  1  0.75000000  0.75000000  0.75000000  1
  Hf  Hf13  1  0.75000000  0.25000000  0.25000000  1
  Hf  Hf14  1  0.25000000  0.75000000  0.25000000  1
  Hf  Hf15  1  0.25000000  0.25000000  0.75000000  1
  O  O16  1  0.23472632  0.26636625  0.51014097  1
  O  O17  1  0.23472632  0.73363375  0.48985903  1
  O  O18  1  0.76527368  0.26636625  0.48985903  1
  O  O19  1  0.76527368  0.73363375  0.51014097  1
  O  O20  1  0.26636625  0.51014097  0.23472632  1
  O  O21  1  0.73363375  0.48985903  0.23472632  1
  O  O22  1  0.26636625  0.48985903  0.76527368  1
  O  O23  1  0.73363375  0.51014097  0.76527368  1
  O  O24  1  0.51014097  0.23472632  0.26636625  1
  O  O25  1  0.48985903  0.23472632  0.73363375  1
  O  O26  1  0.48985903  0.76527368  0.26636625  1
  O  O27  1  0.51014097  0.76527368  0.73363375  1
  O  O28  1  0.26527368  0.23363375  0.98985903  1
  O  O29  1  0.26527368  0.76636625  0.01014097  1
  O  O30  1  0.73472632  0.23363375  0.01014097  1
  O  O31  1  0.73472632  0.76636625  0.98985903  1
  O  O32  1  0.23363375  0.98985903  0.26527368  1
  O  O33  1  0.76636625  0.01014097  0.26527368  1
  O  O34  1  0.23363375  0.01014097  0.73472632  1
  O  O35  1  0.76636625  0.98985903  0.73472632  1
  O  O36  1  0.98985903  0.26527368  0.23363375  1
  O  O37  1  0.01014097  0.26527368  0.76636625  1
  O  O38  1  0.01014097  0.73472632  0.23363375  1
  O  O39  1  0.98985903  0.73472632  0.76636625  1
