# generated using pymatgen
data_BaYNbSnO6
_symmetry_space_group_name_H-M   'P 1'
_cell_length_a   8.43628726
_cell_length_b   8.49037840
_cell_length_c   8.44210148
_cell_angle_alpha   90.00000000
_cell_angle_beta   90.00000000
_cell_angle_gamma   90.00000000
_symmetry_Int_Tables_number   1
_chemical_formula_structural   BaYNbSnO6
_chemical_formula_sum   'Ba4 Y4 Nb4 Sn4 O24'
_cell_volume   604.68469160
_cell_formula_units_Z   4
loop_
 _symmetry_equiv_pos_site_id
 _symmetry_equiv_pos_as_xyz
  1  'x, y, z'
loop_
 _atom_site_type_symbol
 _atom_site_label
 _atom_site_symmetry_multiplicity
 _atom_site_fract_x
 _atom_site_fract_y
 _atom_site_fract_z
 _atom_site_occupancy
  Ba  Ba0  1  -0.00000000  -0.00000000  0.00000000  1
  Ba  Ba1  1  0.50000000  0.50000000  0.50000000  1
  Ba  Ba2  1  0.50000000  0.00000000  0.50000000  1
  Ba  Ba3  1  0.50000000  0.50000000  0.00000000  1
  Y  Y4  1  0.24470410  0.24960957  0.24929344  1
  Y  Y5  1  0.75529590  0.75039043  0.24929344  1
  Y  Y6  1  0.75529590  0.24960957  0.75070656  1
  Y  Y7  1  0.24470410  0.75039043  0.75070656  1
  Nb  Nb8  1  0.75157552  0.75100637  0.74776238  1
  Nb  Nb9  1  0.24842448  0.24899363  0.74776238  1
  Nb  Nb10  1  0.24842448  0.75100637  0.25223762  1
  Nb  Nb11  1  0.75157552  0.24899363  0.25223762  1
  Sn  Sn12  1  -0.00000000  0.50000000  0.50000000  1
  Sn  Sn13  1  0.50000000  0.00000000  0.00000000  1
  Sn  Sn14  1  -0.00000000  0.50000000  0.00000000  1
  Sn  Sn15  1  -0.00000000  -0.00000000  0.50000000  1
  O  O16  1  0.98494980  0.20223284  0.28431950  1
  O  O17  1  0.01505020  0.79776716  0.28431950  1
  O  O18  1  0.01505020  0.20223284  0.71568050  1
  O  O19  1  0.98494980  0.79776716  0.71568050  1
  O  O20  1  0.28399401  0.98523336  0.20860655  1
  O  O21  1  0.28399401  0.01476664  0.79139345  1
  O  O22  1  0.71600599  0.01476664  0.20860655  1
  O  O23  1  0.71600599  0.98523336  0.79139345  1
  O  O24  1  0.20945585  0.28807529  0.98422498  1
  O  O25  1  0.79054415  0.28807529  0.01577502  1
  O  O26  1  0.20945585  0.71192471  0.01577502  1
  O  O27  1  0.79054415  0.71192471  0.98422498  1
  O  O28  1  0.51413021  0.27894388  0.23043629  1
  O  O29  1  0.48586979  0.72105612  0.23043629  1
  O  O30  1  0.48586979  0.27894388  0.76956371  1
  O  O31  1  0.51413021  0.72105612  0.76956371  1
  O  O32  1  0.21603463  0.51414094  0.28643755  1
  O  O33  1  0.21603463  0.48585906  0.71356245  1
  O  O34  1  0.78396537  0.48585906  0.28643755  1
  O  O35  1  0.78396537  0.51414094  0.71356245  1
  O  O36  1  0.27720855  0.22567848  0.51331147  1
  O  O37  1  0.72279145  0.22567848  0.48668853  1
  O  O38  1  0.27720855  0.77432152  0.48668853  1
  O  O39  1  0.72279145  0.77432152  0.51331147  1
