# generated using pymatgen
data_BaCaCeSnO6
_symmetry_space_group_name_H-M   'P 1'
_cell_length_a   5.95823629
_cell_length_b   6.01089968
_cell_length_c   8.48060422
_cell_angle_alpha   90.18308200
_cell_angle_beta   90.27667883
_cell_angle_gamma   90.20656771
_symmetry_Int_Tables_number   1
_chemical_formula_structural   BaCaCeSnO6
_chemical_formula_sum   'Ba2 Ca2 Ce2 Sn2 O12'
_cell_volume   303.72033482
_cell_formula_units_Z   2
loop_
 _symmetry_equiv_pos_site_id
 _symmetry_equiv_pos_as_xyz
  1  'x, y, z'
loop_
 _atom_site_type_symbol
 _atom_site_label
 _atom_site_symmetry_multiplicity
 _atom_site_fract_x
 _atom_site_fract_y
 _atom_site_fract_z
 _atom_site_occupancy
  Ba  Ba0  1  0.50586479  0.53010566  0.24999226  1
  Ba  Ba1  1  0.49413521  0.46989434  0.75000774  1
  Ca  Ca2  1  0.99296139  0.03726150  0.25324589  1
  Ca  Ca3  1  0.00703861  0.96273850  0.74675411  1
  Ce  Ce4  1  -0.00000000  0.50000000  -0.00000000  1
  Ce  Ce5  1  0.50000000  0.00000000  0.50000000  1
  Sn  Sn6  1  0.50000000  0.00000000  -0.00000000  1
  Sn  Sn7  1  -0.00000000  0.50000000  0.50000000  1
  O  O8  1  0.21522671  0.19757571  0.94084564  1
  O  O9  1  0.27864126  0.70768381  0.53030295  1
  O  O10  1  0.78477329  0.80242429  0.05915436  1
  O  O11  1  0.72135874  0.29231619  0.46969705  1
  O  O12  1  0.29502652  0.72182812  0.96644474  1
  O  O13  1  0.19371720  0.21131598  0.55434051  1
  O  O14  1  0.70497348  0.27817188  0.03355526  1
  O  O15  1  0.80628280  0.78868402  0.44565949  1
  O  O16  1  0.39487216  0.00051872  0.24081519  1
  O  O17  1  0.06238588  0.44222410  0.25881346  1
  O  O18  1  0.60512784  0.99948128  0.75918481  1
  O  O19  1  0.93761412  0.55777590  0.74118654  1
