# generated using pymatgen
data_BaCe4EuO12
_symmetry_space_group_name_H-M   'P 1'
_cell_length_a   6.14713403
_cell_length_b   6.14713403
_cell_length_c   8.66410724
_cell_angle_alpha   90.00000000
_cell_angle_beta   90.00000000
_cell_angle_gamma   88.64383391
_symmetry_Int_Tables_number   1
_chemical_formula_structural   BaCe4EuO12
_chemical_formula_sum   'Ba1 Ce4 Eu1 O12'
_cell_volume   327.30113894
_cell_formula_units_Z   1
loop_
 _symmetry_equiv_pos_site_id
 _symmetry_equiv_pos_as_xyz
  1  'x, y, z'
loop_
 _atom_site_type_symbol
 _atom_site_label
 _atom_site_symmetry_multiplicity
 _atom_site_fract_x
 _atom_site_fract_y
 _atom_site_fract_z
 _atom_site_occupancy
  Ba  Ba0  1  0.47725695  0.52274305  0.00000000  1
  Ce  Ce1  1  0.51090169  0.00926130  0.25372926  1
  Ce  Ce2  1  0.51090169  0.00926130  0.74627074  1
  Ce  Ce3  1  0.99073870  0.48909831  0.74627074  1
  Ce  Ce4  1  0.99073870  0.48909831  0.25372926  1
  Eu  Eu5  1  0.03201685  0.96798315  0.50000000  1
  O  O6  1  0.29783132  0.29929282  0.24733986  1
  O  O7  1  0.70070718  0.70216868  0.24733986  1
  O  O8  1  0.70070718  0.70216868  0.75266014  1
  O  O9  1  0.29783132  0.29929282  0.75266014  1
  O  O10  1  0.20721269  0.79278731  0.22292421  1
  O  O11  1  0.82611124  0.17388876  0.32586143  1
  O  O12  1  0.82611124  0.17388876  0.67413857  1
  O  O13  1  0.20721269  0.79278731  0.77707579  1
  O  O14  1  0.54189401  0.04910003  0.00000000  1
  O  O15  1  0.39911360  0.97698701  0.50000000  1
  O  O16  1  0.95089997  0.45810599  0.00000000  1
  O  O17  1  0.02301299  0.60088640  0.50000000  1
