# generated using pymatgen
data_BaSrLaNbO6
_symmetry_space_group_name_H-M   'P 1'
_cell_length_a   8.65697484
_cell_length_b   8.67209161
_cell_length_c   8.65663127
_cell_angle_alpha   90.00000000
_cell_angle_beta   90.00000000
_cell_angle_gamma   90.00000000
_symmetry_Int_Tables_number   1
_chemical_formula_structural   BaSrLaNbO6
_chemical_formula_sum   'Ba4 Sr4 La4 Nb4 O24'
_cell_volume   649.88861878
_cell_formula_units_Z   4
loop_
 _symmetry_equiv_pos_site_id
 _symmetry_equiv_pos_as_xyz
  1  'x, y, z'
loop_
 _atom_site_type_symbol
 _atom_site_label
 _atom_site_symmetry_multiplicity
 _atom_site_fract_x
 _atom_site_fract_y
 _atom_site_fract_z
 _atom_site_occupancy
  Ba  Ba0  1  0.00000000  0.00000000  0.00000000  1
  Ba  Ba1  1  0.50000000  0.50000000  0.50000000  1
  Ba  Ba2  1  0.50000000  0.00000000  0.50000000  1
  Ba  Ba3  1  0.00000000  0.00000000  0.50000000  1
  Sr  Sr4  1  0.00000000  0.50000000  0.50000000  1
  Sr  Sr5  1  0.50000000  0.50000000  0.00000000  1
  Sr  Sr6  1  0.50000000  0.00000000  0.00000000  1
  Sr  Sr7  1  0.00000000  0.50000000  0.00000000  1
  La  La8  1  0.74940799  0.74807752  0.75241893  1
  La  La9  1  0.25059201  0.25192248  0.75241893  1
  La  La10  1  0.25059201  0.74807752  0.24758107  1
  La  La11  1  0.74940799  0.25192248  0.24758107  1
  Nb  Nb12  1  0.24874429  0.25391624  0.24731381  1
  Nb  Nb13  1  0.75125571  0.74608376  0.24731381  1
  Nb  Nb14  1  0.75125571  0.25391624  0.75268619  1
  Nb  Nb15  1  0.24874429  0.74608376  0.75268619  1
  O  O16  1  0.02001431  0.21352205  0.27560905  1
  O  O17  1  0.97998569  0.78647795  0.27560905  1
  O  O18  1  0.97998569  0.21352205  0.72439095  1
  O  O19  1  0.02001431  0.78647795  0.72439095  1
  O  O20  1  0.28659582  0.02336559  0.20699342  1
  O  O21  1  0.28659582  0.97663441  0.79300658  1
  O  O22  1  0.71340418  0.97663441  0.20699342  1
  O  O23  1  0.71340418  0.02336559  0.79300658  1
  O  O24  1  0.20770990  0.29252497  0.01949672  1
  O  O25  1  0.79229010  0.29252497  0.98050328  1
  O  O26  1  0.20770990  0.70747503  0.98050328  1
  O  O27  1  0.79229010  0.70747503  0.01949672  1
  O  O28  1  0.47823899  0.29531722  0.21111520  1
  O  O29  1  0.52176101  0.70468278  0.21111520  1
  O  O30  1  0.52176101  0.29531722  0.78888480  1
  O  O31  1  0.47823899  0.70468278  0.78888480  1
  O  O32  1  0.21225454  0.48130072  0.29255856  1
  O  O33  1  0.21225454  0.51869928  0.70744144  1
  O  O34  1  0.78774546  0.51869928  0.29255856  1
  O  O35  1  0.78774546  0.48130072  0.70744144  1
  O  O36  1  0.28381001  0.22189632  0.47767502  1
  O  O37  1  0.71618999  0.22189632  0.52232498  1
  O  O38  1  0.28381001  0.77810368  0.52232498  1
  O  O39  1  0.71618999  0.77810368  0.47767502  1
