# generated using pymatgen
data_BaCaCeHfO6
_symmetry_space_group_name_H-M   'P 1'
_cell_length_a   8.50263152
_cell_length_b   8.48415804
_cell_length_c   8.46918901
_cell_angle_alpha   90.00000000
_cell_angle_beta   90.00000000
_cell_angle_gamma   90.00000000
_symmetry_Int_Tables_number   1
_chemical_formula_structural   BaCaCeHfO6
_chemical_formula_sum   'Ba4 Ca4 Ce4 Hf4 O24'
_cell_volume   610.94755834
_cell_formula_units_Z   4
loop_
 _symmetry_equiv_pos_site_id
 _symmetry_equiv_pos_as_xyz
  1  'x, y, z'
loop_
 _atom_site_type_symbol
 _atom_site_label
 _atom_site_symmetry_multiplicity
 _atom_site_fract_x
 _atom_site_fract_y
 _atom_site_fract_z
 _atom_site_occupancy
  Ba  Ba0  1  0.00000000  -0.00000000  -0.00000000  1
  Ba  Ba1  1  0.50000000  0.50000000  0.50000000  1
  Ba  Ba2  1  0.50000000  -0.00000000  0.00000000  1
  Ba  Ba3  1  0.00000000  0.50000000  -0.00000000  1
  Ca  Ca4  1  0.00000000  0.50000000  0.50000000  1
  Ca  Ca5  1  0.50000000  -0.00000000  0.50000000  1
  Ca  Ca6  1  0.50000000  0.50000000  0.00000000  1
  Ca  Ca7  1  0.00000000  -0.00000000  0.50000000  1
  Ce  Ce8  1  0.74853964  0.74875002  0.74396532  1
  Ce  Ce9  1  0.25146036  0.25124998  0.74396532  1
  Ce  Ce10  1  0.25146036  0.74875002  0.25603468  1
  Ce  Ce11  1  0.74853964  0.25124998  0.25603468  1
  Hf  Hf12  1  0.25132888  0.24996343  0.25665977  1
  Hf  Hf13  1  0.74867112  0.75003657  0.25665977  1
  Hf  Hf14  1  0.74867112  0.24996343  0.74334023  1
  Hf  Hf15  1  0.25132888  0.75003657  0.74334023  1
  O  O16  1  0.00957384  0.20545999  0.30040663  1
  O  O17  1  0.99042616  0.79454001  0.30040663  1
  O  O18  1  0.99042616  0.20545999  0.69959337  1
  O  O19  1  0.00957384  0.79454001  0.69959337  1
  O  O20  1  0.28279222  0.00735945  0.22627140  1
  O  O21  1  0.28279222  0.99264055  0.77372860  1
  O  O22  1  0.71720778  0.99264055  0.22627140  1
  O  O23  1  0.71720778  0.00735945  0.77372860  1
  O  O24  1  0.21632171  0.27197431  0.01073233  1
  O  O25  1  0.78367829  0.27197431  0.98926767  1
  O  O26  1  0.21632171  0.72802569  0.98926767  1
  O  O27  1  0.78367829  0.72802569  0.01073233  1
  O  O28  1  0.48989026  0.30634133  0.20948285  1
  O  O29  1  0.51010974  0.69365867  0.20948285  1
  O  O30  1  0.51010974  0.30634133  0.79051715  1
  O  O31  1  0.48989026  0.69365867  0.79051715  1
  O  O32  1  0.20179378  0.48919804  0.30227778  1
  O  O33  1  0.20179378  0.51080196  0.69772222  1
  O  O34  1  0.79820622  0.51080196  0.30227778  1
  O  O35  1  0.79820622  0.48919804  0.69772222  1
  O  O36  1  0.31211108  0.21066786  0.49191587  1
  O  O37  1  0.68788892  0.21066786  0.50808413  1
  O  O38  1  0.31211108  0.78933214  0.50808413  1
  O  O39  1  0.68788892  0.78933214  0.49191587  1
