# generated using pymatgen
data_KSrPrSbO6
_symmetry_space_group_name_H-M   'P 1'
_cell_length_a   8.65820012
_cell_length_b   8.61521660
_cell_length_c   8.63246895
_cell_angle_alpha   90.00000000
_cell_angle_beta   90.00000000
_cell_angle_gamma   90.00000000
_symmetry_Int_Tables_number   1
_chemical_formula_structural   KSrPrSbO6
_chemical_formula_sum   'K4 Sr4 Pr4 Sb4 O24'
_cell_volume   643.91544951
_cell_formula_units_Z   4
loop_
 _symmetry_equiv_pos_site_id
 _symmetry_equiv_pos_as_xyz
  1  'x, y, z'
loop_
 _atom_site_type_symbol
 _atom_site_label
 _atom_site_symmetry_multiplicity
 _atom_site_fract_x
 _atom_site_fract_y
 _atom_site_fract_z
 _atom_site_occupancy
  K  K0  1  -0.00000000  0.50000000  0.50000000  1
  K  K1  1  0.50000000  0.50000000  0.00000000  1
  K  K2  1  0.50000000  -0.00000000  0.00000000  1
  K  K3  1  0.00000000  -0.00000000  0.50000000  1
  Sr  Sr4  1  0.50000000  -0.00000000  0.50000000  1
  Sr  Sr5  1  0.00000000  0.50000000  0.00000000  1
  Sr  Sr6  1  0.00000000  -0.00000000  0.00000000  1
  Sr  Sr7  1  0.50000000  0.50000000  0.50000000  1
  Pr  Pr8  1  0.75000000  0.75000000  0.75000000  1
  Pr  Pr9  1  0.25000000  0.25000000  0.75000000  1
  Pr  Pr10  1  0.25000000  0.75000000  0.25000000  1
  Pr  Pr11  1  0.75000000  0.25000000  0.25000000  1
  Sb  Sb12  1  0.25000000  0.25000000  0.25000000  1
  Sb  Sb13  1  0.75000000  0.75000000  0.25000000  1
  Sb  Sb14  1  0.75000000  0.25000000  0.75000000  1
  Sb  Sb15  1  0.25000000  0.75000000  0.75000000  1
  O  O16  1  0.01984903  0.22678196  0.25969143  1
  O  O17  1  0.98015097  0.77321804  0.25969143  1
  O  O18  1  0.98015097  0.22678196  0.74030857  1
  O  O19  1  0.01984903  0.77321804  0.74030857  1
  O  O20  1  0.26833951  0.01980353  0.22934520  1
  O  O21  1  0.26833951  0.98019647  0.77065480  1
  O  O22  1  0.73166049  0.98019647  0.22934520  1
  O  O23  1  0.73166049  0.01980353  0.77065480  1
  O  O24  1  0.21447444  0.27046394  0.01957988  1
  O  O25  1  0.78552556  0.27046394  0.98042012  1
  O  O26  1  0.21447444  0.72953606  0.98042012  1
  O  O27  1  0.78552556  0.72953606  0.01957988  1
  O  O28  1  0.48015097  0.27321804  0.24030857  1
  O  O29  1  0.51984903  0.72678196  0.24030857  1
  O  O30  1  0.51984903  0.27321804  0.75969143  1
  O  O31  1  0.48015097  0.72678196  0.75969143  1
  O  O32  1  0.23166049  0.48019647  0.27065480  1
  O  O33  1  0.23166049  0.51980353  0.72934520  1
  O  O34  1  0.76833951  0.51980353  0.27065480  1
  O  O35  1  0.76833951  0.48019647  0.72934520  1
  O  O36  1  0.28552556  0.22953606  0.48042012  1
  O  O37  1  0.71447444  0.22953606  0.51957988  1
  O  O38  1  0.28552556  0.77046394  0.51957988  1
  O  O39  1  0.71447444  0.77046394  0.48042012  1
