# generated using pymatgen
data_Ca2BiSbO6
_symmetry_space_group_name_H-M   'P 1'
_cell_length_a   5.83865533
_cell_length_b   5.83865533
_cell_length_c   8.51829846
_cell_angle_alpha   90.00000000
_cell_angle_beta   90.00000000
_cell_angle_gamma   90.00000000
_symmetry_Int_Tables_number   1
_chemical_formula_structural   Ca2BiSbO6
_chemical_formula_sum   'Ca4 Bi2 Sb2 O12'
_cell_volume   290.38790913
_cell_formula_units_Z   2
loop_
 _symmetry_equiv_pos_site_id
 _symmetry_equiv_pos_as_xyz
  1  'x, y, z'
loop_
 _atom_site_type_symbol
 _atom_site_label
 _atom_site_symmetry_multiplicity
 _atom_site_fract_x
 _atom_site_fract_y
 _atom_site_fract_z
 _atom_site_occupancy
  Ca  Ca0  1  0.50000000  -0.00000000  0.75000000  1
  Ca  Ca1  1  -0.00000000  0.50000000  0.75000000  1
  Ca  Ca2  1  0.50000000  -0.00000000  0.25000000  1
  Ca  Ca3  1  -0.00000000  0.50000000  0.25000000  1
  Bi  Bi4  1  0.50000000  0.50000000  0.50000000  1
  Bi  Bi5  1  -0.00000000  -0.00000000  0.00000000  1
  Sb  Sb6  1  0.50000000  0.50000000  0.00000000  1
  Sb  Sb7  1  -0.00000000  0.00000000  0.50000000  1
  O  O8  1  0.50000000  0.50000000  0.76537007  1
  O  O9  1  -0.00000000  -0.00000000  0.73462993  1
  O  O10  1  0.50000000  0.50000000  0.23462993  1
  O  O11  1  -0.00000000  0.00000000  0.26537007  1
  O  O12  1  0.68477434  0.14139273  0.50000000  1
  O  O13  1  0.31522566  0.85860727  0.50000000  1
  O  O14  1  0.85860727  0.68477434  0.50000000  1
  O  O15  1  0.14139273  0.31522566  0.50000000  1
  O  O16  1  0.81522566  0.64139273  -0.00000000  1
  O  O17  1  0.18477434  0.35860727  0.00000000  1
  O  O18  1  0.64139273  0.18477434  -0.00000000  1
  O  O19  1  0.35860727  0.81522566  -0.00000000  1
