# generated using pymatgen
data_KEuNbBiO6
_symmetry_space_group_name_H-M   'P 1'
_cell_length_a   8.58757885
_cell_length_b   8.63790862
_cell_length_c   8.61022813
_cell_angle_alpha   90.00000000
_cell_angle_beta   90.00000000
_cell_angle_gamma   90.00000000
_symmetry_Int_Tables_number   1
_chemical_formula_structural   KEuNbBiO6
_chemical_formula_sum   'K4 Eu4 Nb4 Bi4 O24'
_cell_volume   638.69571342
_cell_formula_units_Z   4
loop_
 _symmetry_equiv_pos_site_id
 _symmetry_equiv_pos_as_xyz
  1  'x, y, z'
loop_
 _atom_site_type_symbol
 _atom_site_label
 _atom_site_symmetry_multiplicity
 _atom_site_fract_x
 _atom_site_fract_y
 _atom_site_fract_z
 _atom_site_occupancy
  K  K0  1  0.50000000  0.00000000  0.50000000  1
  K  K1  1  0.50000000  0.50000000  -0.00000000  1
  K  K2  1  -0.00000000  0.50000000  -0.00000000  1
  K  K3  1  -0.00000000  0.00000000  0.50000000  1
  Eu  Eu4  1  -0.00000000  0.50000000  0.50000000  1
  Eu  Eu5  1  0.50000000  0.00000000  -0.00000000  1
  Eu  Eu6  1  -0.00000000  0.00000000  -0.00000000  1
  Eu  Eu7  1  0.50000000  0.50000000  0.50000000  1
  Nb  Nb8  1  0.25000000  0.25000000  0.25000000  1
  Nb  Nb9  1  0.75000000  0.75000000  0.25000000  1
  Nb  Nb10  1  0.75000000  0.25000000  0.75000000  1
  Nb  Nb11  1  0.25000000  0.75000000  0.75000000  1
  Bi  Bi12  1  0.75000000  0.75000000  0.75000000  1
  Bi  Bi13  1  0.25000000  0.25000000  0.75000000  1
  Bi  Bi14  1  0.25000000  0.75000000  0.25000000  1
  Bi  Bi15  1  0.75000000  0.25000000  0.25000000  1
  O  O16  1  0.01519963  0.23938705  0.25972921  1
  O  O17  1  0.98480037  0.76061295  0.25972921  1
  O  O18  1  0.98480037  0.23938705  0.74027079  1
  O  O19  1  0.01519963  0.76061295  0.74027079  1
  O  O20  1  0.26034790  0.01469452  0.23287396  1
  O  O21  1  0.26034790  0.98530548  0.76712604  1
  O  O22  1  0.73965210  0.98530548  0.23287396  1
  O  O23  1  0.73965210  0.01469452  0.76712604  1
  O  O24  1  0.23885098  0.25456044  0.01518059  1
  O  O25  1  0.76114902  0.25456044  0.98481941  1
  O  O26  1  0.23885098  0.74543956  0.98481941  1
  O  O27  1  0.76114902  0.74543956  0.01518059  1
  O  O28  1  0.48480037  0.26061295  0.24027079  1
  O  O29  1  0.51519963  0.73938705  0.24027079  1
  O  O30  1  0.51519963  0.26061295  0.75972921  1
  O  O31  1  0.48480037  0.73938705  0.75972921  1
  O  O32  1  0.23965210  0.48530548  0.26712604  1
  O  O33  1  0.23965210  0.51469452  0.73287396  1
  O  O34  1  0.76034790  0.51469452  0.26712604  1
  O  O35  1  0.76034790  0.48530548  0.73287396  1
  O  O36  1  0.26114902  0.24543956  0.48481941  1
  O  O37  1  0.73885098  0.24543956  0.51518059  1
  O  O38  1  0.26114902  0.75456044  0.51518059  1
  O  O39  1  0.73885098  0.75456044  0.48481941  1
