# generated using pymatgen
data_BaCaNdSbO6
_symmetry_space_group_name_H-M   'P 1'
_cell_length_a   8.50505280
_cell_length_b   8.51657485
_cell_length_c   8.51413768
_cell_angle_alpha   90.00000000
_cell_angle_beta   90.00000000
_cell_angle_gamma   90.00000000
_symmetry_Int_Tables_number   1
_chemical_formula_structural   BaCaNdSbO6
_chemical_formula_sum   'Ba4 Ca4 Nd4 Sb4 O24'
_cell_volume   616.71235715
_cell_formula_units_Z   4
loop_
 _symmetry_equiv_pos_site_id
 _symmetry_equiv_pos_as_xyz
  1  'x, y, z'
loop_
 _atom_site_type_symbol
 _atom_site_label
 _atom_site_symmetry_multiplicity
 _atom_site_fract_x
 _atom_site_fract_y
 _atom_site_fract_z
 _atom_site_occupancy
  Ba  Ba0  1  0.00000000  -0.00000000  -0.00000000  1
  Ba  Ba1  1  0.50000000  0.50000000  0.50000000  1
  Ba  Ba2  1  0.50000000  -0.00000000  0.50000000  1
  Ba  Ba3  1  0.00000000  0.50000000  -0.00000000  1
  Ca  Ca4  1  0.00000000  0.50000000  0.50000000  1
  Ca  Ca5  1  0.50000000  0.50000000  -0.00000000  1
  Ca  Ca6  1  0.50000000  -0.00000000  -0.00000000  1
  Ca  Ca7  1  0.00000000  -0.00000000  0.50000000  1
  Nd  Nd8  1  0.75000000  0.75000000  0.75000000  1
  Nd  Nd9  1  0.25000000  0.25000000  0.75000000  1
  Nd  Nd10  1  0.25000000  0.75000000  0.25000000  1
  Nd  Nd11  1  0.75000000  0.25000000  0.25000000  1
  Sb  Sb12  1  0.25000000  0.25000000  0.25000000  1
  Sb  Sb13  1  0.75000000  0.75000000  0.25000000  1
  Sb  Sb14  1  0.75000000  0.25000000  0.75000000  1
  Sb  Sb15  1  0.25000000  0.75000000  0.75000000  1
  O  O16  1  0.02031456  0.19129474  0.28428021  1
  O  O17  1  0.97968544  0.80870526  0.28428021  1
  O  O18  1  0.97968544  0.19129474  0.71571979  1
  O  O19  1  0.02031456  0.80870526  0.71571979  1
  O  O20  1  0.30468097  0.02002225  0.20940899  1
  O  O21  1  0.30468097  0.97997775  0.79059101  1
  O  O22  1  0.69531903  0.97997775  0.20940899  1
  O  O23  1  0.69531903  0.02002225  0.79059101  1
  O  O24  1  0.21814353  0.27633573  0.01843209  1
  O  O25  1  0.78185647  0.27633573  0.98156791  1
  O  O26  1  0.21814353  0.72366427  0.98156791  1
  O  O27  1  0.78185647  0.72366427  0.01843209  1
  O  O28  1  0.47968544  0.30870526  0.21571979  1
  O  O29  1  0.52031456  0.69129474  0.21571979  1
  O  O30  1  0.52031456  0.30870526  0.78428021  1
  O  O31  1  0.47968544  0.69129474  0.78428021  1
  O  O32  1  0.19531903  0.47997775  0.29059101  1
  O  O33  1  0.19531903  0.52002225  0.70940899  1
  O  O34  1  0.80468097  0.52002225  0.29059101  1
  O  O35  1  0.80468097  0.47997775  0.70940899  1
  O  O36  1  0.28185647  0.22366427  0.48156791  1
  O  O37  1  0.71814353  0.22366427  0.51843209  1
  O  O38  1  0.28185647  0.77633573  0.51843209  1
  O  O39  1  0.71814353  0.77633573  0.48156791  1
