# generated using pymatgen
data_BaZr2SnO6
_symmetry_space_group_name_H-M   'P 1'
_cell_length_a   8.45713783
_cell_length_b   8.45713783
_cell_length_c   8.45592610
_cell_angle_alpha   90.00000000
_cell_angle_beta   90.00000000
_cell_angle_gamma   90.00000000
_symmetry_Int_Tables_number   1
_chemical_formula_structural   BaZr2SnO6
_chemical_formula_sum   'Ba4 Zr8 Sn4 O24'
_cell_volume   604.79472685
_cell_formula_units_Z   4
loop_
 _symmetry_equiv_pos_site_id
 _symmetry_equiv_pos_as_xyz
  1  'x, y, z'
loop_
 _atom_site_type_symbol
 _atom_site_label
 _atom_site_symmetry_multiplicity
 _atom_site_fract_x
 _atom_site_fract_y
 _atom_site_fract_z
 _atom_site_occupancy
  Ba  Ba0  1  -0.00000000  -0.00000000  0.00000000  1
  Ba  Ba1  1  -0.00000000  -0.00000000  0.50000000  1
  Ba  Ba2  1  0.50000000  -0.00000000  0.00000000  1
  Ba  Ba3  1  -0.00000000  0.50000000  0.00000000  1
  Zr  Zr4  1  0.25149273  0.25149273  0.25151045  1
  Zr  Zr5  1  0.25149273  0.25149273  0.74848955  1
  Zr  Zr6  1  0.74850727  0.25149273  0.25151045  1
  Zr  Zr7  1  0.74850727  0.25149273  0.74848955  1
  Zr  Zr8  1  0.25149273  0.74850727  0.25151045  1
  Zr  Zr9  1  0.25149273  0.74850727  0.74848955  1
  Zr  Zr10  1  0.74850727  0.74850727  0.25151045  1
  Zr  Zr11  1  0.74850727  0.74850727  0.74848955  1
  Sn  Sn12  1  0.50000000  -0.00000000  0.50000000  1
  Sn  Sn13  1  -0.00000000  0.50000000  0.50000000  1
  Sn  Sn14  1  0.50000000  0.50000000  0.00000000  1
  Sn  Sn15  1  0.50000000  0.50000000  0.50000000  1
  O  O16  1  0.25013689  0.25013689  0.00000000  1
  O  O17  1  0.25017744  0.25017744  0.50000000  1
  O  O18  1  0.74986311  0.25013689  0.00000000  1
  O  O19  1  0.74982256  0.25017744  0.50000000  1
  O  O20  1  0.25013689  0.74986311  0.00000000  1
  O  O21  1  0.25017744  0.74982256  0.50000000  1
  O  O22  1  0.74986311  0.74986311  0.00000000  1
  O  O23  1  0.74982256  0.74982256  0.50000000  1
  O  O24  1  -0.00000000  0.25011098  0.74988855  1
  O  O25  1  -0.00000000  0.25011098  0.25011145  1
  O  O26  1  0.50000000  0.25015097  0.74984684  1
  O  O27  1  0.50000000  0.25015097  0.25015316  1
  O  O28  1  -0.00000000  0.74988902  0.74988855  1
  O  O29  1  -0.00000000  0.74988902  0.25011145  1
  O  O30  1  0.50000000  0.74984903  0.74984684  1
  O  O31  1  0.50000000  0.74984903  0.25015316  1
  O  O32  1  0.25011098  -0.00000000  0.25011145  1
  O  O33  1  0.25011098  -0.00000000  0.74988855  1
  O  O34  1  0.74988902  -0.00000000  0.25011145  1
  O  O35  1  0.74988902  -0.00000000  0.74988855  1
  O  O36  1  0.25015097  0.50000000  0.25015316  1
  O  O37  1  0.25015097  0.50000000  0.74984684  1
  O  O38  1  0.74984903  0.50000000  0.25015316  1
  O  O39  1  0.74984903  0.50000000  0.74984684  1
