# generated using pymatgen
data_KCaPrWO6
_symmetry_space_group_name_H-M   'P 1'
_cell_length_a   8.44543464
_cell_length_b   8.50669652
_cell_length_c   8.45819586
_cell_angle_alpha   90.00000000
_cell_angle_beta   90.00000000
_cell_angle_gamma   90.00000000
_symmetry_Int_Tables_number   1
_chemical_formula_structural   KCaPrWO6
_chemical_formula_sum   'K4 Ca4 Pr4 W4 O24'
_cell_volume   607.66004607
_cell_formula_units_Z   4
loop_
 _symmetry_equiv_pos_site_id
 _symmetry_equiv_pos_as_xyz
  1  'x, y, z'
loop_
 _atom_site_type_symbol
 _atom_site_label
 _atom_site_symmetry_multiplicity
 _atom_site_fract_x
 _atom_site_fract_y
 _atom_site_fract_z
 _atom_site_occupancy
  K  K0  1  0.50000000  -0.00000000  0.50000000  1
  K  K1  1  0.50000000  0.50000000  -0.00000000  1
  K  K2  1  0.00000000  0.50000000  -0.00000000  1
  K  K3  1  0.00000000  0.00000000  0.50000000  1
  Ca  Ca4  1  0.00000000  0.50000000  0.50000000  1
  Ca  Ca5  1  0.50000000  -0.00000000  -0.00000000  1
  Ca  Ca6  1  0.00000000  0.00000000  -0.00000000  1
  Ca  Ca7  1  0.50000000  0.50000000  0.50000000  1
  Pr  Pr8  1  0.75000000  0.75000000  0.75000000  1
  Pr  Pr9  1  0.25000000  0.25000000  0.75000000  1
  Pr  Pr10  1  0.25000000  0.75000000  0.25000000  1
  Pr  Pr11  1  0.75000000  0.25000000  0.25000000  1
  W  W12  1  0.25000000  0.25000000  0.25000000  1
  W  W13  1  0.75000000  0.75000000  0.25000000  1
  W  W14  1  0.75000000  0.25000000  0.75000000  1
  W  W15  1  0.25000000  0.75000000  0.75000000  1
  O  O16  1  0.02426698  0.21458678  0.27595047  1
  O  O17  1  0.97573302  0.78541322  0.27595047  1
  O  O18  1  0.97573302  0.21458678  0.72404953  1
  O  O19  1  0.02426698  0.78541322  0.72404953  1
  O  O20  1  0.28371009  0.02333788  0.20088555  1
  O  O21  1  0.28371009  0.97666212  0.79911445  1
  O  O22  1  0.71628991  0.97666212  0.20088555  1
  O  O23  1  0.71628991  0.02333788  0.79911445  1
  O  O24  1  0.21466014  0.27308870  0.02461395  1
  O  O25  1  0.78533986  0.27308870  0.97538605  1
  O  O26  1  0.21466014  0.72691130  0.97538605  1
  O  O27  1  0.78533986  0.72691130  0.02461395  1
  O  O28  1  0.47573302  0.28541322  0.22404953  1
  O  O29  1  0.52426698  0.71458678  0.22404953  1
  O  O30  1  0.52426698  0.28541322  0.77595047  1
  O  O31  1  0.47573302  0.71458678  0.77595047  1
  O  O32  1  0.21628991  0.47666212  0.29911445  1
  O  O33  1  0.21628991  0.52333788  0.70088555  1
  O  O34  1  0.78371009  0.52333788  0.29911445  1
  O  O35  1  0.78371009  0.47666212  0.70088555  1
  O  O36  1  0.28533986  0.22691130  0.47538605  1
  O  O37  1  0.71466014  0.22691130  0.52461395  1
  O  O38  1  0.28533986  0.77308870  0.52461395  1
  O  O39  1  0.71466014  0.77308870  0.47538605  1
