# generated using pymatgen
data_SrLaDySnO6
_symmetry_space_group_name_H-M   'P 1'
_cell_length_a   8.37818832
_cell_length_b   8.40063669
_cell_length_c   8.41635961
_cell_angle_alpha   90.00000000
_cell_angle_beta   90.00000000
_cell_angle_gamma   90.00000000
_symmetry_Int_Tables_number   1
_chemical_formula_structural   SrLaDySnO6
_chemical_formula_sum   'Sr4 La4 Dy4 Sn4 O24'
_cell_volume   592.36120002
_cell_formula_units_Z   4
loop_
 _symmetry_equiv_pos_site_id
 _symmetry_equiv_pos_as_xyz
  1  'x, y, z'
loop_
 _atom_site_type_symbol
 _atom_site_label
 _atom_site_symmetry_multiplicity
 _atom_site_fract_x
 _atom_site_fract_y
 _atom_site_fract_z
 _atom_site_occupancy
  Sr  Sr0  1  0.50000000  0.00000000  0.50000000  1
  Sr  Sr1  1  0.50000000  0.50000000  0.00000000  1
  Sr  Sr2  1  -0.00000000  0.50000000  0.00000000  1
  Sr  Sr3  1  -0.00000000  0.00000000  0.50000000  1
  La  La4  1  -0.00000000  0.50000000  0.50000000  1
  La  La5  1  0.50000000  0.00000000  0.00000000  1
  La  La6  1  -0.00000000  0.00000000  0.00000000  1
  La  La7  1  0.50000000  0.50000000  0.50000000  1
  Dy  Dy8  1  0.75000000  0.75000000  0.75000000  1
  Dy  Dy9  1  0.25000000  0.25000000  0.75000000  1
  Dy  Dy10  1  0.25000000  0.75000000  0.25000000  1
  Dy  Dy11  1  0.75000000  0.25000000  0.25000000  1
  Sn  Sn12  1  0.25000000  0.25000000  0.25000000  1
  Sn  Sn13  1  0.75000000  0.75000000  0.25000000  1
  Sn  Sn14  1  0.75000000  0.25000000  0.75000000  1
  Sn  Sn15  1  0.25000000  0.75000000  0.75000000  1
  O  O16  1  0.00863676  0.20287657  0.28193896  1
  O  O17  1  0.99136324  0.79712343  0.28193896  1
  O  O18  1  0.99136324  0.20287657  0.71806104  1
  O  O19  1  0.00863676  0.79712343  0.71806104  1
  O  O20  1  0.28683208  0.00805060  0.19371619  1
  O  O21  1  0.28683208  0.99194940  0.80628381  1
  O  O22  1  0.71316792  0.99194940  0.19371619  1
  O  O23  1  0.71316792  0.00805060  0.80628381  1
  O  O24  1  0.20237000  0.27852871  0.00879894  1
  O  O25  1  0.79763000  0.27852871  0.99120106  1
  O  O26  1  0.20237000  0.72147129  0.99120106  1
  O  O27  1  0.79763000  0.72147129  0.00879894  1
  O  O28  1  0.49136324  0.29712343  0.21806104  1
  O  O29  1  0.50863676  0.70287657  0.21806104  1
  O  O30  1  0.50863676  0.29712343  0.78193896  1
  O  O31  1  0.49136324  0.70287657  0.78193896  1
  O  O32  1  0.21316792  0.49194940  0.30628381  1
  O  O33  1  0.21316792  0.50805060  0.69371619  1
  O  O34  1  0.78683208  0.50805060  0.30628381  1
  O  O35  1  0.78683208  0.49194940  0.69371619  1
  O  O36  1  0.29763000  0.22147129  0.49120106  1
  O  O37  1  0.70237000  0.22147129  0.50879894  1
  O  O38  1  0.29763000  0.77852871  0.50879894  1
  O  O39  1  0.70237000  0.77852871  0.49120106  1
