# generated using pymatgen
data_NaNd(NiO3)4
_symmetry_space_group_name_H-M   'P 1'
_cell_length_a   5.36569210
_cell_length_b   5.36569210
_cell_length_c   7.67743467
_cell_angle_alpha   90.00000000
_cell_angle_beta   90.00000000
_cell_angle_gamma   90.00000000
_symmetry_Int_Tables_number   1
_chemical_formula_structural   NaNd(NiO3)4
_chemical_formula_sum   'Na1 Nd1 Ni4 O12'
_cell_volume   221.03834763
_cell_formula_units_Z   1
loop_
 _symmetry_equiv_pos_site_id
 _symmetry_equiv_pos_as_xyz
  1  'x, y, z'
loop_
 _atom_site_type_symbol
 _atom_site_label
 _atom_site_symmetry_multiplicity
 _atom_site_fract_x
 _atom_site_fract_y
 _atom_site_fract_z
 _atom_site_occupancy
  Na  Na0  1  0.50000000  0.50000000  -0.00000000  1
  Nd  Nd1  1  -0.00000000  -0.00000000  0.50000000  1
  Ni  Ni2  1  -0.00000000  0.50000000  0.75514000  1
  Ni  Ni3  1  -0.00000000  0.50000000  0.24486000  1
  Ni  Ni4  1  0.50000000  -0.00000000  0.75514000  1
  Ni  Ni5  1  0.50000000  -0.00000000  0.24486000  1
  O  O6  1  0.23651756  0.23651756  0.73559809  1
  O  O7  1  0.23651756  0.23651756  0.26440191  1
  O  O8  1  0.76348244  0.76348244  0.73559809  1
  O  O9  1  0.76348244  0.76348244  0.26440191  1
  O  O10  1  0.76348244  0.23651756  0.73559809  1
  O  O11  1  0.76348244  0.23651756  0.26440191  1
  O  O12  1  0.23651756  0.76348244  0.26440191  1
  O  O13  1  0.23651756  0.76348244  0.73559809  1
  O  O14  1  -0.00000000  0.50000000  0.50000000  1
  O  O15  1  -0.00000000  0.50000000  -0.00000000  1
  O  O16  1  0.50000000  -0.00000000  0.50000000  1
  O  O17  1  0.50000000  -0.00000000  0.00000000  1
