# generated using pymatgen
data_BaGdNbSnO6
_symmetry_space_group_name_H-M   'P 1'
_cell_length_a   5.96078156
_cell_length_b   6.02187265
_cell_length_c   8.54922103
_cell_angle_alpha   89.43555337
_cell_angle_beta   89.68535797
_cell_angle_gamma   90.60111686
_symmetry_Int_Tables_number   1
_chemical_formula_structural   BaGdNbSnO6
_chemical_formula_sum   'Ba2 Gd2 Nb2 Sn2 O12'
_cell_volume   306.83828310
_cell_formula_units_Z   2
loop_
 _symmetry_equiv_pos_site_id
 _symmetry_equiv_pos_as_xyz
  1  'x, y, z'
loop_
 _atom_site_type_symbol
 _atom_site_label
 _atom_site_symmetry_multiplicity
 _atom_site_fract_x
 _atom_site_fract_y
 _atom_site_fract_z
 _atom_site_occupancy
  Ba  Ba0  1  0.50563568  0.52239719  0.25141726  1
  Ba  Ba1  1  0.49436432  0.47760281  0.74858274  1
  Gd  Gd2  1  0.00000000  0.50000000  -0.00000000  1
  Gd  Gd3  1  0.50000000  0.00000000  0.50000000  1
  Nb  Nb4  1  0.50000000  0.00000000  -0.00000000  1
  Nb  Nb5  1  0.00000000  0.50000000  0.50000000  1
  Sn  Sn6  1  0.00431725  0.01831034  0.25241433  1
  Sn  Sn7  1  0.99568275  0.98168966  0.74758567  1
  O  O8  1  0.23193531  0.19559665  0.94468650  1
  O  O9  1  0.27748565  0.69165309  0.51752197  1
  O  O10  1  0.76806469  0.80440335  0.05531350  1
  O  O11  1  0.72251435  0.30834691  0.48247803  1
  O  O12  1  0.30920229  0.72701634  0.97328774  1
  O  O13  1  0.19033994  0.22319485  0.54742701  1
  O  O14  1  0.69079771  0.27298366  0.02671226  1
  O  O15  1  0.80966006  0.77680515  0.45257299  1
  O  O16  1  0.40062320  0.00419558  0.23367495  1
  O  O17  1  0.05662020  0.46344274  0.26666000  1
  O  O18  1  0.59937680  0.99580442  0.76632505  1
  O  O19  1  0.94337980  0.53655726  0.73334000  1
