# generated using pymatgen
data_NaEuDySeO6
_symmetry_space_group_name_H-M   'P 1'
_cell_length_a   11.47844184
_cell_length_b   10.44835678
_cell_length_c   11.65614705
_cell_angle_alpha   90.00000000
_cell_angle_beta   90.00000000
_cell_angle_gamma   90.00000000
_symmetry_Int_Tables_number   1
_chemical_formula_structural   NaEuDySeO6
_chemical_formula_sum   'Na4 Eu4 Dy4 Se4 O24'
_cell_volume   1397.93168897
_cell_formula_units_Z   4
loop_
 _symmetry_equiv_pos_site_id
 _symmetry_equiv_pos_as_xyz
  1  'x, y, z'
loop_
 _atom_site_type_symbol
 _atom_site_label
 _atom_site_symmetry_multiplicity
 _atom_site_fract_x
 _atom_site_fract_y
 _atom_site_fract_z
 _atom_site_occupancy
  Na  Na0  1  0.50000000  -0.00000000  0.50000000  1
  Na  Na1  1  0.50000000  0.50000000  -0.00000000  1
  Na  Na2  1  -0.00000000  0.50000000  -0.00000000  1
  Na  Na3  1  0.00000000  -0.00000000  0.50000000  1
  Eu  Eu4  1  -0.00000000  0.50000000  0.50000000  1
  Eu  Eu5  1  0.50000000  -0.00000000  -0.00000000  1
  Eu  Eu6  1  0.00000000  -0.00000000  -0.00000000  1
  Eu  Eu7  1  0.50000000  0.50000000  0.50000000  1
  Dy  Dy8  1  0.75000000  0.75000000  0.75000000  1
  Dy  Dy9  1  0.25000000  0.25000000  0.75000000  1
  Dy  Dy10  1  0.25000000  0.75000000  0.25000000  1
  Dy  Dy11  1  0.75000000  0.25000000  0.25000000  1
  Se  Se12  1  0.25000000  0.25000000  0.25000000  1
  Se  Se13  1  0.75000000  0.75000000  0.25000000  1
  Se  Se14  1  0.75000000  0.25000000  0.75000000  1
  Se  Se15  1  0.25000000  0.75000000  0.75000000  1
  O  O16  1  0.02589421  0.21249332  0.28537264  1
  O  O17  1  0.97410579  0.78750668  0.28537264  1
  O  O18  1  0.97410579  0.21249332  0.71462736  1
  O  O19  1  0.02589421  0.78750668  0.71462736  1
  O  O20  1  0.27587339  0.02314773  0.20215085  1
  O  O21  1  0.27587339  0.97685227  0.79784915  1
  O  O22  1  0.72412661  0.97685227  0.20215085  1
  O  O23  1  0.72412661  0.02314773  0.79784915  1
  O  O24  1  0.20395004  0.27331294  0.02636151  1
  O  O25  1  0.79604996  0.27331294  0.97363849  1
  O  O26  1  0.20395004  0.72668706  0.97363849  1
  O  O27  1  0.79604996  0.72668706  0.02636151  1
  O  O28  1  0.47410579  0.28750668  0.21462736  1
  O  O29  1  0.52589421  0.71249332  0.21462736  1
  O  O30  1  0.52589421  0.28750668  0.78537264  1
  O  O31  1  0.47410579  0.71249332  0.78537264  1
  O  O32  1  0.22412661  0.47685227  0.29784915  1
  O  O33  1  0.22412661  0.52314773  0.70215085  1
  O  O34  1  0.77587339  0.52314773  0.29784915  1
  O  O35  1  0.77587339  0.47685227  0.70215085  1
  O  O36  1  0.29604996  0.22668706  0.47363849  1
  O  O37  1  0.70395004  0.22668706  0.52636151  1
  O  O38  1  0.29604996  0.77331294  0.52636151  1
  O  O39  1  0.70395004  0.77331294  0.47363849  1
