# generated using pymatgen
data_BaEuYBiO6
_symmetry_space_group_name_H-M   'P 1'
_cell_length_a   6.07930600
_cell_length_b   6.18155836
_cell_length_c   8.66015028
_cell_angle_alpha   90.04047776
_cell_angle_beta   89.91834220
_cell_angle_gamma   89.83536934
_symmetry_Int_Tables_number   1
_chemical_formula_structural   BaEuYBiO6
_chemical_formula_sum   'Ba2 Eu2 Y2 Bi2 O12'
_cell_volume   325.44309584
_cell_formula_units_Z   2
loop_
 _symmetry_equiv_pos_site_id
 _symmetry_equiv_pos_as_xyz
  1  'x, y, z'
loop_
 _atom_site_type_symbol
 _atom_site_label
 _atom_site_symmetry_multiplicity
 _atom_site_fract_x
 _atom_site_fract_y
 _atom_site_fract_z
 _atom_site_occupancy
  Ba  Ba0  1  0.98983440  0.03673720  0.25007034  1
  Ba  Ba1  1  0.01016560  0.96326280  0.74992966  1
  Eu  Eu2  1  0.50952066  0.54579716  0.25051346  1
  Eu  Eu3  1  0.49047934  0.45420284  0.74948654  1
  Y  Y4  1  0.50000000  0.00000000  0.00000000  1
  Y  Y5  1  -0.00000000  0.50000000  0.50000000  1
  Bi  Bi6  1  -0.00000000  0.50000000  0.00000000  1
  Bi  Bi7  1  0.50000000  0.00000000  0.50000000  1
  O  O8  1  0.21125940  0.22098606  0.95402657  1
  O  O9  1  0.30754464  0.70219855  0.54858283  1
  O  O10  1  0.78874060  0.77901394  0.04597343  1
  O  O11  1  0.69245536  0.29780145  0.45141717  1
  O  O12  1  0.29584380  0.69391706  0.95025772  1
  O  O13  1  0.22065434  0.21385183  0.54561408  1
  O  O14  1  0.70415620  0.30608294  0.04974228  1
  O  O15  1  0.77934566  0.78614817  0.45438592  1
  O  O16  1  0.42819866  0.96210497  0.25405527  1
  O  O17  1  0.10344088  0.48813757  0.24492922  1
  O  O18  1  0.57180134  0.03789503  0.74594473  1
  O  O19  1  0.89655912  0.51186243  0.75507078  1
