# generated using pymatgen
data_CaDy(CoO3)4
_symmetry_space_group_name_H-M   'P 1'
_cell_length_a   5.24587038
_cell_length_b   5.24587038
_cell_length_c   7.46673075
_cell_angle_alpha   90.00000000
_cell_angle_beta   90.00000000
_cell_angle_gamma   89.55474401
_symmetry_Int_Tables_number   1
_chemical_formula_structural   CaDy(CoO3)4
_chemical_formula_sum   'Ca1 Dy1 Co4 O12'
_cell_volume   205.47192445
_cell_formula_units_Z   1
loop_
 _symmetry_equiv_pos_site_id
 _symmetry_equiv_pos_as_xyz
  1  'x, y, z'
loop_
 _atom_site_type_symbol
 _atom_site_label
 _atom_site_symmetry_multiplicity
 _atom_site_fract_x
 _atom_site_fract_y
 _atom_site_fract_z
 _atom_site_occupancy
  Ca  Ca0  1  0.48841122  0.48841122  0.50000000  1
  Dy  Dy1  1  0.01776655  0.01776655  0.00000000  1
  Co  Co2  1  0.50413676  0.99636745  0.74663439  1
  Co  Co3  1  0.50413676  0.99636745  0.25336561  1
  Co  Co4  1  0.99636745  0.50413676  0.25336561  1
  Co  Co5  1  0.99636745  0.50413676  0.74663439  1
  O  O6  1  0.72641664  0.27336391  0.75209142  1
  O  O7  1  0.27336391  0.72641664  0.75209142  1
  O  O8  1  0.27336391  0.72641664  0.24790858  1
  O  O9  1  0.72641664  0.27336391  0.24790858  1
  O  O10  1  0.78927139  0.78927139  0.79054095  1
  O  O11  1  0.22158728  0.22158728  0.73052617  1
  O  O12  1  0.22158728  0.22158728  0.26947383  1
  O  O13  1  0.78927139  0.78927139  0.20945905  1
  O  O14  1  0.45460440  0.01983480  0.00000000  1
  O  O15  1  0.52844514  0.96715101  0.50000000  1
  O  O16  1  0.01983480  0.45460440  0.00000000  1
  O  O17  1  0.96715101  0.52844514  0.50000000  1
