# generated using pymatgen
data_KBaSmMnO6
_symmetry_space_group_name_H-M   'P 1'
_cell_length_a   8.46609624
_cell_length_b   8.44122696
_cell_length_c   8.46439221
_cell_angle_alpha   90.00000000
_cell_angle_beta   90.00000000
_cell_angle_gamma   90.00000000
_symmetry_Int_Tables_number   1
_chemical_formula_structural   KBaSmMnO6
_chemical_formula_sum   'K4 Ba4 Sm4 Mn4 O24'
_cell_volume   604.90135489
_cell_formula_units_Z   4
loop_
 _symmetry_equiv_pos_site_id
 _symmetry_equiv_pos_as_xyz
  1  'x, y, z'
loop_
 _atom_site_type_symbol
 _atom_site_label
 _atom_site_symmetry_multiplicity
 _atom_site_fract_x
 _atom_site_fract_y
 _atom_site_fract_z
 _atom_site_occupancy
  K  K0  1  0.50000000  0.00000000  0.50000000  1
  K  K1  1  0.50000000  0.50000000  -0.00000000  1
  K  K2  1  0.00000000  0.50000000  -0.00000000  1
  K  K3  1  0.00000000  0.00000000  0.50000000  1
  Ba  Ba4  1  0.00000000  0.50000000  0.50000000  1
  Ba  Ba5  1  0.50000000  0.00000000  -0.00000000  1
  Ba  Ba6  1  0.00000000  0.00000000  -0.00000000  1
  Ba  Ba7  1  0.50000000  0.50000000  0.50000000  1
  Sm  Sm8  1  0.25000000  0.25000000  0.25000000  1
  Sm  Sm9  1  0.75000000  0.75000000  0.25000000  1
  Sm  Sm10  1  0.75000000  0.25000000  0.75000000  1
  Sm  Sm11  1  0.25000000  0.75000000  0.75000000  1
  Mn  Mn12  1  0.75000000  0.75000000  0.75000000  1
  Mn  Mn13  1  0.25000000  0.25000000  0.75000000  1
  Mn  Mn14  1  0.25000000  0.75000000  0.25000000  1
  Mn  Mn15  1  0.75000000  0.25000000  0.25000000  1
  O  O16  1  0.97743650  0.24412932  0.25785841  1
  O  O17  1  0.02256350  0.75587068  0.25785841  1
  O  O18  1  0.02256350  0.24412932  0.74214159  1
  O  O19  1  0.97743650  0.75587068  0.74214159  1
  O  O20  1  0.25562072  0.97766065  0.23410962  1
  O  O21  1  0.25562072  0.02233935  0.76589038  1
  O  O22  1  0.74437928  0.02233935  0.23410962  1
  O  O23  1  0.74437928  0.97766065  0.76589038  1
  O  O24  1  0.24170367  0.25067185  0.97779172  1
  O  O25  1  0.75829633  0.25067185  0.02220828  1
  O  O26  1  0.24170367  0.74932815  0.02220828  1
  O  O27  1  0.75829633  0.74932815  0.97779172  1
  O  O28  1  0.52256350  0.25587068  0.24214159  1
  O  O29  1  0.47743650  0.74412932  0.24214159  1
  O  O30  1  0.47743650  0.25587068  0.75785841  1
  O  O31  1  0.52256350  0.74412932  0.75785841  1
  O  O32  1  0.24437928  0.52233935  0.26589038  1
  O  O33  1  0.24437928  0.47766065  0.73410962  1
  O  O34  1  0.75562072  0.47766065  0.26589038  1
  O  O35  1  0.75562072  0.52233935  0.73410962  1
  O  O36  1  0.25829633  0.24932815  0.52220828  1
  O  O37  1  0.74170367  0.24932815  0.47779172  1
  O  O38  1  0.25829633  0.75067185  0.47779172  1
  O  O39  1  0.74170367  0.75067185  0.52220828  1
