# generated using pymatgen
data_KCaLaWO6
_symmetry_space_group_name_H-M   'P 1'
_cell_length_a   8.56084006
_cell_length_b   8.50556608
_cell_length_c   8.50006915
_cell_angle_alpha   90.00000000
_cell_angle_beta   90.00000000
_cell_angle_gamma   90.00000000
_symmetry_Int_Tables_number   1
_chemical_formula_structural   KCaLaWO6
_chemical_formula_sum   'K4 Ca4 La4 W4 O24'
_cell_volume   618.93075720
_cell_formula_units_Z   4
loop_
 _symmetry_equiv_pos_site_id
 _symmetry_equiv_pos_as_xyz
  1  'x, y, z'
loop_
 _atom_site_type_symbol
 _atom_site_label
 _atom_site_symmetry_multiplicity
 _atom_site_fract_x
 _atom_site_fract_y
 _atom_site_fract_z
 _atom_site_occupancy
  K  K0  1  0.00000000  0.50000000  0.50000000  1
  K  K1  1  0.50000000  0.00000000  0.50000000  1
  K  K2  1  0.50000000  0.00000000  0.00000000  1
  K  K3  1  0.00000000  0.50000000  0.00000000  1
  Ca  Ca4  1  0.50000000  0.50000000  0.00000000  1
  Ca  Ca5  1  0.00000000  0.00000000  0.50000000  1
  Ca  Ca6  1  0.00000000  -0.00000000  0.00000000  1
  Ca  Ca7  1  0.50000000  0.50000000  0.50000000  1
  La  La8  1  0.75000000  0.75000000  0.75000000  1
  La  La9  1  0.25000000  0.25000000  0.75000000  1
  La  La10  1  0.25000000  0.75000000  0.25000000  1
  La  La11  1  0.75000000  0.25000000  0.25000000  1
  W  W12  1  0.25000000  0.25000000  0.25000000  1
  W  W13  1  0.75000000  0.75000000  0.25000000  1
  W  W14  1  0.75000000  0.25000000  0.75000000  1
  W  W15  1  0.25000000  0.75000000  0.75000000  1
  O  O16  1  0.02446912  0.19827040  0.28659841  1
  O  O17  1  0.97553088  0.80172960  0.28659841  1
  O  O18  1  0.97553088  0.19827040  0.71340159  1
  O  O19  1  0.02446912  0.80172960  0.71340159  1
  O  O20  1  0.27698038  0.02493198  0.21404762  1
  O  O21  1  0.27698038  0.97506802  0.78595238  1
  O  O22  1  0.72301962  0.97506802  0.21404762  1
  O  O23  1  0.72301962  0.02493198  0.78595238  1
  O  O24  1  0.21000784  0.27500052  0.02486054  1
  O  O25  1  0.78999216  0.27500052  0.97513946  1
  O  O26  1  0.21000784  0.72499948  0.97513946  1
  O  O27  1  0.78999216  0.72499948  0.02486054  1
  O  O28  1  0.47553088  0.30172960  0.21340159  1
  O  O29  1  0.52446912  0.69827040  0.21340159  1
  O  O30  1  0.52446912  0.30172960  0.78659841  1
  O  O31  1  0.47553088  0.69827040  0.78659841  1
  O  O32  1  0.22301962  0.47506802  0.28595238  1
  O  O33  1  0.22301962  0.52493198  0.71404762  1
  O  O34  1  0.77698038  0.52493198  0.28595238  1
  O  O35  1  0.77698038  0.47506802  0.71404762  1
  O  O36  1  0.28999216  0.22499948  0.47513946  1
  O  O37  1  0.71000784  0.22499948  0.52486054  1
  O  O38  1  0.28999216  0.77500052  0.52486054  1
  O  O39  1  0.71000784  0.77500052  0.47513946  1
