# generated using pymatgen
data_BaSrCeTiO6
_symmetry_space_group_name_H-M   'P 1'
_cell_length_a   8.38334749
_cell_length_b   8.39832642
_cell_length_c   8.42752912
_cell_angle_alpha   90.00000000
_cell_angle_beta   90.00000000
_cell_angle_gamma   90.00000000
_symmetry_Int_Tables_number   1
_chemical_formula_structural   BaSrCeTiO6
_chemical_formula_sum   'Ba4 Sr4 Ce4 Ti4 O24'
_cell_volume   593.34936286
_cell_formula_units_Z   4
loop_
 _symmetry_equiv_pos_site_id
 _symmetry_equiv_pos_as_xyz
  1  'x, y, z'
loop_
 _atom_site_type_symbol
 _atom_site_label
 _atom_site_symmetry_multiplicity
 _atom_site_fract_x
 _atom_site_fract_y
 _atom_site_fract_z
 _atom_site_occupancy
  Ba  Ba0  1  0.00000000  -0.00000000  -0.00000000  1
  Ba  Ba1  1  0.50000000  0.50000000  0.50000000  1
  Ba  Ba2  1  0.50000000  -0.00000000  -0.00000000  1
  Ba  Ba3  1  -0.00000000  -0.00000000  0.50000000  1
  Sr  Sr4  1  0.00000000  0.50000000  0.50000000  1
  Sr  Sr5  1  0.50000000  -0.00000000  0.50000000  1
  Sr  Sr6  1  0.50000000  0.50000000  -0.00000000  1
  Sr  Sr7  1  -0.00000000  0.50000000  -0.00000000  1
  Ce  Ce8  1  0.74940398  0.74676112  0.74981685  1
  Ce  Ce9  1  0.25059602  0.25323888  0.74981685  1
  Ce  Ce10  1  0.25059602  0.74676112  0.25018315  1
  Ce  Ce11  1  0.74940398  0.25323888  0.25018315  1
  Ti  Ti12  1  0.25000467  0.25410806  0.25092466  1
  Ti  Ti13  1  0.74999533  0.74589194  0.25092466  1
  Ti  Ti14  1  0.74999533  0.25410806  0.74907534  1
  Ti  Ti15  1  0.25000467  0.74589194  0.74907534  1
  O  O16  1  0.01484929  0.23597063  0.26935057  1
  O  O17  1  0.98515071  0.76402937  0.26935057  1
  O  O18  1  0.98515071  0.23597063  0.73064943  1
  O  O19  1  0.01484929  0.76402937  0.73064943  1
  O  O20  1  0.26684624  0.01644997  0.23357992  1
  O  O21  1  0.26684624  0.98355003  0.76642008  1
  O  O22  1  0.73315376  0.98355003  0.23357992  1
  O  O23  1  0.73315376  0.01644997  0.76642008  1
  O  O24  1  0.22726477  0.27636883  0.01475873  1
  O  O25  1  0.77273523  0.27636883  0.98524127  1
  O  O26  1  0.22726477  0.72363117  0.98524127  1
  O  O27  1  0.77273523  0.72363117  0.01475873  1
  O  O28  1  0.48426626  0.27884175  0.22342680  1
  O  O29  1  0.51573374  0.72115825  0.22342680  1
  O  O30  1  0.51573374  0.27884175  0.77657320  1
  O  O31  1  0.48426626  0.72115825  0.77657320  1
  O  O32  1  0.22392823  0.48600350  0.27838684  1
  O  O33  1  0.22392823  0.51399650  0.72161316  1
  O  O34  1  0.77607177  0.51399650  0.27838684  1
  O  O35  1  0.77607177  0.48600350  0.72161316  1
  O  O36  1  0.27872519  0.22795651  0.48495603  1
  O  O37  1  0.72127481  0.22795651  0.51504397  1
  O  O38  1  0.27872519  0.77204349  0.51504397  1
  O  O39  1  0.72127481  0.77204349  0.48495603  1
