# generated using pymatgen
data_BaSrNdSbO6
_symmetry_space_group_name_H-M   'P 1'
_cell_length_a   8.58834252
_cell_length_b   8.58129025
_cell_length_c   8.58609898
_cell_angle_alpha   90.00000000
_cell_angle_beta   90.00000000
_cell_angle_gamma   90.00000000
_symmetry_Int_Tables_number   1
_chemical_formula_structural   BaSrNdSbO6
_chemical_formula_sum   'Ba4 Sr4 Nd4 Sb4 O24'
_cell_volume   632.78742330
_cell_formula_units_Z   4
loop_
 _symmetry_equiv_pos_site_id
 _symmetry_equiv_pos_as_xyz
  1  'x, y, z'
loop_
 _atom_site_type_symbol
 _atom_site_label
 _atom_site_symmetry_multiplicity
 _atom_site_fract_x
 _atom_site_fract_y
 _atom_site_fract_z
 _atom_site_occupancy
  Ba  Ba0  1  0.00000000  -0.00000000  0.00000000  1
  Ba  Ba1  1  0.50000000  0.50000000  0.50000000  1
  Ba  Ba2  1  0.00000000  0.50000000  0.50000000  1
  Ba  Ba3  1  0.50000000  -0.00000000  0.50000000  1
  Sr  Sr4  1  0.50000000  0.50000000  0.00000000  1
  Sr  Sr5  1  0.50000000  -0.00000000  0.00000000  1
  Sr  Sr6  1  0.00000000  0.50000000  0.00000000  1
  Sr  Sr7  1  0.00000000  -0.00000000  0.50000000  1
  Nd  Nd8  1  0.75051955  0.75080452  0.75222187  1
  Nd  Nd9  1  0.24948045  0.24919548  0.75222187  1
  Nd  Nd10  1  0.24948045  0.75080452  0.24777813  1
  Nd  Nd11  1  0.75051955  0.24919548  0.24777813  1
  Sb  Sb12  1  0.24923858  0.25051807  0.24616996  1
  Sb  Sb13  1  0.75076142  0.74948193  0.24616996  1
  Sb  Sb14  1  0.75076142  0.25051807  0.75383004  1
  Sb  Sb15  1  0.24923858  0.74948193  0.75383004  1
  O  O16  1  0.01876695  0.21185918  0.27967997  1
  O  O17  1  0.98123305  0.78814082  0.27967997  1
  O  O18  1  0.98123305  0.21185918  0.72032003  1
  O  O19  1  0.01876695  0.78814082  0.72032003  1
  O  O20  1  0.28394106  0.01961505  0.21276491  1
  O  O21  1  0.28394106  0.98038495  0.78723509  1
  O  O22  1  0.71605894  0.98038495  0.21276491  1
  O  O23  1  0.71605894  0.01961505  0.78723509  1
  O  O24  1  0.21094369  0.28170901  0.01728386  1
  O  O25  1  0.78905631  0.28170901  0.98271614  1
  O  O26  1  0.21094369  0.71829099  0.98271614  1
  O  O27  1  0.78905631  0.71829099  0.01728386  1
  O  O28  1  0.48138029  0.28207146  0.21582479  1
  O  O29  1  0.51861971  0.71792854  0.21582479  1
  O  O30  1  0.51861971  0.28207146  0.78417521  1
  O  O31  1  0.48138029  0.71792854  0.78417521  1
  O  O32  1  0.22355899  0.48244819  0.27289917  1
  O  O33  1  0.22355899  0.51755181  0.72710083  1
  O  O34  1  0.77644101  0.51755181  0.27289917  1
  O  O35  1  0.77644101  0.48244819  0.72710083  1
  O  O36  1  0.27648989  0.22732897  0.48010164  1
  O  O37  1  0.72351011  0.22732897  0.51989836  1
  O  O38  1  0.27648989  0.77267103  0.51989836  1
  O  O39  1  0.72351011  0.77267103  0.48010164  1
