# generated using pymatgen
data_KIn(WO3)4
_symmetry_space_group_name_H-M   'P 1'
_cell_length_a   5.51095638
_cell_length_b   5.51095638
_cell_length_c   7.90907375
_cell_angle_alpha   90.00000000
_cell_angle_beta   90.00000000
_cell_angle_gamma   88.92189024
_symmetry_Int_Tables_number   1
_chemical_formula_structural   KIn(WO3)4
_chemical_formula_sum   'K1 In1 W4 O12'
_cell_volume   240.16111065
_cell_formula_units_Z   1
loop_
 _symmetry_equiv_pos_site_id
 _symmetry_equiv_pos_as_xyz
  1  'x, y, z'
loop_
 _atom_site_type_symbol
 _atom_site_label
 _atom_site_symmetry_multiplicity
 _atom_site_fract_x
 _atom_site_fract_y
 _atom_site_fract_z
 _atom_site_occupancy
  K  K0  1  0.98988707  0.01011293  -0.00000000  1
  In  In1  1  0.51721512  0.48278488  0.50000000  1
  W  W2  1  0.50151085  0.00103816  0.24877212  1
  W  W3  1  0.50151085  0.00103816  0.75122788  1
  W  W4  1  0.99896184  0.49848915  0.75122788  1
  W  W5  1  0.99896184  0.49848915  0.24877212  1
  O  O6  1  0.20500581  0.20773992  0.25834809  1
  O  O7  1  0.79226008  0.79499419  0.25834809  1
  O  O8  1  0.79226008  0.79499419  0.74165191  1
  O  O9  1  0.20500581  0.20773992  0.74165191  1
  O  O10  1  0.31158177  0.68841823  0.31071275  1
  O  O11  1  0.69825966  0.30174034  0.21167865  1
  O  O12  1  0.69825966  0.30174034  0.78832135  1
  O  O13  1  0.31158177  0.68841823  0.68928725  1
  O  O14  1  0.47566978  0.94594387  -0.00000000  1
  O  O15  1  0.52020234  0.08799044  0.50000000  1
  O  O16  1  0.05405613  0.52433022  -0.00000000  1
  O  O17  1  0.91200956  0.47979766  0.50000000  1
