# generated using pymatgen
data_KGdSnWO6
_symmetry_space_group_name_H-M   'P 1'
_cell_length_a   5.98103085
_cell_length_b   5.98103085
_cell_length_c   8.42634286
_cell_angle_alpha   90.00000000
_cell_angle_beta   90.00000000
_cell_angle_gamma   90.00000000
_symmetry_Int_Tables_number   1
_chemical_formula_structural   KGdSnWO6
_chemical_formula_sum   'K2 Gd2 Sn2 W2 O12'
_cell_volume   301.43328826
_cell_formula_units_Z   2
loop_
 _symmetry_equiv_pos_site_id
 _symmetry_equiv_pos_as_xyz
  1  'x, y, z'
loop_
 _atom_site_type_symbol
 _atom_site_label
 _atom_site_symmetry_multiplicity
 _atom_site_fract_x
 _atom_site_fract_y
 _atom_site_fract_z
 _atom_site_occupancy
  K  K0  1  -0.00000000  -0.00000000  0.25000000  1
  K  K1  1  -0.00000000  0.00000000  0.75000000  1
  Gd  Gd2  1  0.50000000  0.00000000  0.50000000  1
  Gd  Gd3  1  0.00000000  0.50000000  0.00000000  1
  Sn  Sn4  1  0.50000000  0.50000000  0.75000000  1
  Sn  Sn5  1  0.50000000  0.50000000  0.25000000  1
  W  W6  1  0.50000000  0.00000000  0.00000000  1
  W  W7  1  -0.00000000  0.50000000  0.50000000  1
  O  O8  1  0.27576284  0.76171692  0.00000000  1
  O  O9  1  0.72423716  0.23828308  0.00000000  1
  O  O10  1  0.23828308  0.72423716  0.50000000  1
  O  O11  1  0.76171692  0.27576284  0.50000000  1
  O  O12  1  0.72423716  0.76171692  0.00000000  1
  O  O13  1  0.76171692  0.72423716  0.50000000  1
  O  O14  1  0.27576284  0.23828308  0.00000000  1
  O  O15  1  0.23828308  0.27576284  0.50000000  1
  O  O16  1  0.50000000  0.00000000  0.76909736  1
  O  O17  1  -0.00000000  0.50000000  0.73090264  1
  O  O18  1  0.50000000  0.00000000  0.23090264  1
  O  O19  1  -0.00000000  0.50000000  0.26909736  1
