# generated using pymatgen
data_BaSrTbNbO6
_symmetry_space_group_name_H-M   'P 1'
_cell_length_a   8.46542347
_cell_length_b   8.46336369
_cell_length_c   8.46568366
_cell_angle_alpha   90.00000000
_cell_angle_beta   90.00000000
_cell_angle_gamma   90.00000000
_symmetry_Int_Tables_number   1
_chemical_formula_structural   BaSrTbNbO6
_chemical_formula_sum   'Ba4 Sr4 Tb4 Nb4 O24'
_cell_volume   606.53201270
_cell_formula_units_Z   4
loop_
 _symmetry_equiv_pos_site_id
 _symmetry_equiv_pos_as_xyz
  1  'x, y, z'
loop_
 _atom_site_type_symbol
 _atom_site_label
 _atom_site_symmetry_multiplicity
 _atom_site_fract_x
 _atom_site_fract_y
 _atom_site_fract_z
 _atom_site_occupancy
  Ba  Ba0  1  0.00000000  -0.00000000  -0.00000000  1
  Ba  Ba1  1  0.50000000  0.50000000  0.50000000  1
  Ba  Ba2  1  0.50000000  -0.00000000  0.50000000  1
  Ba  Ba3  1  0.50000000  0.50000000  0.00000000  1
  Sr  Sr4  1  0.00000000  0.50000000  0.50000000  1
  Sr  Sr5  1  0.50000000  -0.00000000  -0.00000000  1
  Sr  Sr6  1  0.00000000  0.50000000  -0.00000000  1
  Sr  Sr7  1  0.00000000  -0.00000000  0.50000000  1
  Tb  Tb8  1  0.24736212  0.24959362  0.24928045  1
  Tb  Tb9  1  0.75263788  0.75040638  0.24928045  1
  Tb  Tb10  1  0.75263788  0.24959362  0.75071955  1
  Tb  Tb11  1  0.24736212  0.75040638  0.75071955  1
  Nb  Nb12  1  0.75445024  0.75108359  0.74913564  1
  Nb  Nb13  1  0.24554976  0.24891641  0.74913564  1
  Nb  Nb14  1  0.24554976  0.75108359  0.25086436  1
  Nb  Nb15  1  0.75445024  0.24891641  0.25086436  1
  O  O16  1  0.98648974  0.21123885  0.28155155  1
  O  O17  1  0.01351026  0.78876115  0.28155155  1
  O  O18  1  0.01351026  0.21123885  0.71844845  1
  O  O19  1  0.98648974  0.78876115  0.71844845  1
  O  O20  1  0.27837811  0.98556221  0.21310263  1
  O  O21  1  0.27837811  0.01443779  0.78689737  1
  O  O22  1  0.72162189  0.01443779  0.21310263  1
  O  O23  1  0.72162189  0.98556221  0.78689737  1
  O  O24  1  0.21318123  0.28376292  0.98470951  1
  O  O25  1  0.78681877  0.28376292  0.01529049  1
  O  O26  1  0.21318123  0.71623708  0.01529049  1
  O  O27  1  0.78681877  0.71623708  0.98470951  1
  O  O28  1  0.51481545  0.27386633  0.22902947  1
  O  O29  1  0.48518455  0.72613367  0.22902947  1
  O  O30  1  0.48518455  0.27386633  0.77097053  1
  O  O31  1  0.51481545  0.72613367  0.77097053  1
  O  O32  1  0.21808525  0.51391359  0.27985561  1
  O  O33  1  0.21808525  0.48608641  0.72014439  1
  O  O34  1  0.78191475  0.48608641  0.27985561  1
  O  O35  1  0.78191475  0.51391359  0.72014439  1
  O  O36  1  0.27143185  0.22603827  0.51310089  1
  O  O37  1  0.72856815  0.22603827  0.48689911  1
  O  O38  1  0.27143185  0.77396173  0.48689911  1
  O  O39  1  0.72856815  0.77396173  0.51310089  1
