# generated using pymatgen
data_EuZrFeBiO6
_symmetry_space_group_name_H-M   'P 1'
_cell_length_a   9.44551351
_cell_length_b   9.92652081
_cell_length_c   9.05589717
_cell_angle_alpha   90.00000000
_cell_angle_beta   90.00000000
_cell_angle_gamma   90.00000000
_symmetry_Int_Tables_number   1
_chemical_formula_structural   EuZrFeBiO6
_chemical_formula_sum   'Eu4 Zr4 Fe4 Bi4 O24'
_cell_volume   849.09075715
_cell_formula_units_Z   4
loop_
 _symmetry_equiv_pos_site_id
 _symmetry_equiv_pos_as_xyz
  1  'x, y, z'
loop_
 _atom_site_type_symbol
 _atom_site_label
 _atom_site_symmetry_multiplicity
 _atom_site_fract_x
 _atom_site_fract_y
 _atom_site_fract_z
 _atom_site_occupancy
  Eu  Eu0  1  0.00000000  0.50000000  0.50000000  1
  Eu  Eu1  1  0.50000000  0.00000000  0.00000000  1
  Eu  Eu2  1  0.00000000  0.50000000  0.00000000  1
  Eu  Eu3  1  0.00000000  0.00000000  0.50000000  1
  Zr  Zr4  1  0.24935068  0.25007923  0.24917805  1
  Zr  Zr5  1  0.75064932  0.74992077  0.24917805  1
  Zr  Zr6  1  0.75064932  0.25007923  0.75082195  1
  Zr  Zr7  1  0.24935068  0.74992077  0.75082195  1
  Fe  Fe8  1  0.75043912  0.74963970  0.75036022  1
  Fe  Fe9  1  0.24956088  0.25036030  0.75036022  1
  Fe  Fe10  1  0.24956088  0.74963970  0.24963978  1
  Fe  Fe11  1  0.75043912  0.25036030  0.24963978  1
  Bi  Bi12  1  0.50000000  0.00000000  0.50000000  1
  Bi  Bi13  1  0.50000000  0.50000000  0.00000000  1
  Bi  Bi14  1  0.00000000  0.00000000  0.00000000  1
  Bi  Bi15  1  0.50000000  0.50000000  0.50000000  1
  O  O16  1  0.00348976  0.19521690  0.29198723  1
  O  O17  1  0.99651024  0.80478310  0.29198723  1
  O  O18  1  0.99651024  0.19521690  0.70801277  1
  O  O19  1  0.00348976  0.80478310  0.70801277  1
  O  O20  1  0.29223751  0.00561931  0.19533573  1
  O  O21  1  0.29223751  0.99438069  0.80466427  1
  O  O22  1  0.70776249  0.99438069  0.19533573  1
  O  O23  1  0.70776249  0.00561931  0.80466427  1
  O  O24  1  0.19511292  0.29087559  0.00245860  1
  O  O25  1  0.80488708  0.29087559  -0.00245860  1
  O  O26  1  0.19511292  0.70912441  -0.00245860  1
  O  O27  1  0.80488708  0.70912441  0.00245860  1
  O  O28  1  0.49814130  0.30595563  0.20765076  1
  O  O29  1  0.50185870  0.69404437  0.20765076  1
  O  O30  1  0.50185870  0.30595563  0.79234924  1
  O  O31  1  0.49814130  0.69404437  0.79234924  1
  O  O32  1  0.20785429  0.49386388  0.30614325  1
  O  O33  1  0.20785429  0.50613612  0.69385675  1
  O  O34  1  0.79214571  0.50613612  0.30614325  1
  O  O35  1  0.79214571  0.49386388  0.69385675  1
  O  O36  1  0.30601428  0.20690777  0.49872859  1
  O  O37  1  0.69398572  0.20690777  0.50127141  1
  O  O38  1  0.30601428  0.79309223  0.50127141  1
  O  O39  1  0.69398572  0.79309223  0.49872859  1
