# generated using pymatgen
data_KSrLaWO6
_symmetry_space_group_name_H-M   'P 1'
_cell_length_a   8.56716346
_cell_length_b   8.54390922
_cell_length_c   8.54777440
_cell_angle_alpha   90.00000000
_cell_angle_beta   90.00000000
_cell_angle_gamma   90.00000000
_symmetry_Int_Tables_number   1
_chemical_formula_structural   KSrLaWO6
_chemical_formula_sum   'K4 Sr4 La4 W4 O24'
_cell_volume   625.67201439
_cell_formula_units_Z   4
loop_
 _symmetry_equiv_pos_site_id
 _symmetry_equiv_pos_as_xyz
  1  'x, y, z'
loop_
 _atom_site_type_symbol
 _atom_site_label
 _atom_site_symmetry_multiplicity
 _atom_site_fract_x
 _atom_site_fract_y
 _atom_site_fract_z
 _atom_site_occupancy
  K  K0  1  0.00000000  0.50000000  0.50000000  1
  K  K1  1  0.50000000  -0.00000000  0.50000000  1
  K  K2  1  0.50000000  0.00000000  -0.00000000  1
  K  K3  1  0.00000000  0.50000000  -0.00000000  1
  Sr  Sr4  1  0.50000000  0.50000000  -0.00000000  1
  Sr  Sr5  1  0.00000000  -0.00000000  0.50000000  1
  Sr  Sr6  1  0.00000000  0.00000000  -0.00000000  1
  Sr  Sr7  1  0.50000000  0.50000000  0.50000000  1
  La  La8  1  0.75000000  0.75000000  0.75000000  1
  La  La9  1  0.25000000  0.25000000  0.75000000  1
  La  La10  1  0.25000000  0.75000000  0.25000000  1
  La  La11  1  0.75000000  0.25000000  0.25000000  1
  W  W12  1  0.25000000  0.25000000  0.25000000  1
  W  W13  1  0.75000000  0.75000000  0.25000000  1
  W  W14  1  0.75000000  0.25000000  0.75000000  1
  W  W15  1  0.25000000  0.75000000  0.75000000  1
  O  O16  1  0.02461243  0.20656952  0.27833081  1
  O  O17  1  0.97538757  0.79343048  0.27833081  1
  O  O18  1  0.97538757  0.20656952  0.72166919  1
  O  O19  1  0.02461243  0.79343048  0.72166919  1
  O  O20  1  0.27059927  0.02571053  0.21651576  1
  O  O21  1  0.27059927  0.97428947  0.78348424  1
  O  O22  1  0.72940073  0.97428947  0.21651576  1
  O  O23  1  0.72940073  0.02571053  0.78348424  1
  O  O24  1  0.21818008  0.27561368  0.02553046  1
  O  O25  1  0.78181992  0.27561368  0.97446954  1
  O  O26  1  0.21818008  0.72438632  0.97446954  1
  O  O27  1  0.78181992  0.72438632  0.02553046  1
  O  O28  1  0.47538757  0.29343048  0.22166919  1
  O  O29  1  0.52461243  0.70656952  0.22166919  1
  O  O30  1  0.52461243  0.29343048  0.77833081  1
  O  O31  1  0.47538757  0.70656952  0.77833081  1
  O  O32  1  0.22940073  0.47428947  0.28348424  1
  O  O33  1  0.22940073  0.52571053  0.71651576  1
  O  O34  1  0.77059927  0.52571053  0.28348424  1
  O  O35  1  0.77059927  0.47428947  0.71651576  1
  O  O36  1  0.28181992  0.22438632  0.47446954  1
  O  O37  1  0.71818008  0.22438632  0.52553046  1
  O  O38  1  0.28181992  0.77561368  0.52553046  1
  O  O39  1  0.71818008  0.77561368  0.47446954  1
