# generated using pymatgen
data_SrSmTi4O12
_symmetry_space_group_name_H-M   'P 1'
_cell_length_a   5.49750242
_cell_length_b   5.49750242
_cell_length_c   7.77464723
_cell_angle_alpha   90.00000000
_cell_angle_beta   90.00000000
_cell_angle_gamma   90.00000000
_symmetry_Int_Tables_number   1
_chemical_formula_structural   SrSmTi4O12
_chemical_formula_sum   'Sr1 Sm1 Ti4 O12'
_cell_volume   234.96953137
_cell_formula_units_Z   1
loop_
 _symmetry_equiv_pos_site_id
 _symmetry_equiv_pos_as_xyz
  1  'x, y, z'
loop_
 _atom_site_type_symbol
 _atom_site_label
 _atom_site_symmetry_multiplicity
 _atom_site_fract_x
 _atom_site_fract_y
 _atom_site_fract_z
 _atom_site_occupancy
  Sr  Sr0  1  -0.00000000  0.00000000  0.50000000  1
  Sm  Sm1  1  0.50000000  0.50000000  -0.00000000  1
  Ti  Ti2  1  0.00000000  0.50000000  0.74867740  1
  Ti  Ti3  1  -0.00000000  0.50000000  0.25132260  1
  Ti  Ti4  1  0.50000000  -0.00000000  0.74867740  1
  Ti  Ti5  1  0.50000000  0.00000000  0.25132260  1
  O  O6  1  0.25569563  0.25569563  0.76136081  1
  O  O7  1  0.25569563  0.25569563  0.23863919  1
  O  O8  1  0.74430437  0.74430437  0.76136081  1
  O  O9  1  0.74430437  0.74430437  0.23863919  1
  O  O10  1  0.74430437  0.25569563  0.76136081  1
  O  O11  1  0.74430437  0.25569563  0.23863919  1
  O  O12  1  0.25569563  0.74430437  0.76136081  1
  O  O13  1  0.25569563  0.74430437  0.23863919  1
  O  O14  1  0.00000000  0.50000000  0.50000000  1
  O  O15  1  0.00000000  0.50000000  0.00000000  1
  O  O16  1  0.50000000  -0.00000000  0.50000000  1
  O  O17  1  0.50000000  -0.00000000  0.00000000  1
