# generated using pymatgen
data_BaCaSmNbO6
_symmetry_space_group_name_H-M   'P 1'
_cell_length_a   8.45354632
_cell_length_b   8.42592807
_cell_length_c   8.47958246
_cell_angle_alpha   90.00000000
_cell_angle_beta   90.00000000
_cell_angle_gamma   90.00000000
_symmetry_Int_Tables_number   1
_chemical_formula_structural   BaCaSmNbO6
_chemical_formula_sum   'Ba4 Ca4 Sm4 Nb4 O24'
_cell_volume   603.99195203
_cell_formula_units_Z   4
loop_
 _symmetry_equiv_pos_site_id
 _symmetry_equiv_pos_as_xyz
  1  'x, y, z'
loop_
 _atom_site_type_symbol
 _atom_site_label
 _atom_site_symmetry_multiplicity
 _atom_site_fract_x
 _atom_site_fract_y
 _atom_site_fract_z
 _atom_site_occupancy
  Ba  Ba0  1  -0.00000000  -0.00000000  0.00000000  1
  Ba  Ba1  1  0.50000000  0.50000000  0.50000000  1
  Ba  Ba2  1  0.50000000  -0.00000000  0.00000000  1
  Ba  Ba3  1  -0.00000000  -0.00000000  0.50000000  1
  Ca  Ca4  1  0.00000000  0.50000000  0.50000000  1
  Ca  Ca5  1  0.50000000  -0.00000000  0.50000000  1
  Ca  Ca6  1  0.50000000  0.50000000  0.00000000  1
  Ca  Ca7  1  0.00000000  0.50000000  0.00000000  1
  Sm  Sm8  1  0.25362233  0.25610157  0.25052673  1
  Sm  Sm9  1  0.74637767  0.74389843  0.25052673  1
  Sm  Sm10  1  0.74637767  0.25610157  0.74947327  1
  Sm  Sm11  1  0.25362233  0.74389843  0.74947327  1
  Nb  Nb12  1  0.75128284  0.74300975  0.74809437  1
  Nb  Nb13  1  0.24871716  0.25699025  0.74809437  1
  Nb  Nb14  1  0.24871716  0.74300975  0.25190563  1
  Nb  Nb15  1  0.75128284  0.25699025  0.25190563  1
  O  O16  1  0.98494790  0.22401412  0.28014793  1
  O  O17  1  0.01505210  0.77598588  0.28014793  1
  O  O18  1  0.01505210  0.22401412  0.71985207  1
  O  O19  1  0.98494790  0.77598588  0.71985207  1
  O  O20  1  0.27258681  0.98123757  0.21712450  1
  O  O21  1  0.27258681  0.01876243  0.78287550  1
  O  O22  1  0.72741319  0.01876243  0.21712450  1
  O  O23  1  0.72741319  0.98123757  0.78287550  1
  O  O24  1  0.20554315  0.29948681  0.98300124  1
  O  O25  1  0.79445685  0.29948681  0.01699876  1
  O  O26  1  0.20554315  0.70051319  0.01699876  1
  O  O27  1  0.79445685  0.70051319  0.98300124  1
  O  O28  1  0.52047913  0.30425099  0.20061441  1
  O  O29  1  0.47952087  0.69574901  0.20061441  1
  O  O30  1  0.47952087  0.30425099  0.79938559  1
  O  O31  1  0.52047913  0.69574901  0.79938559  1
  O  O32  1  0.20828841  0.51665638  0.31415910  1
  O  O33  1  0.20828841  0.48334362  0.68584090  1
  O  O34  1  0.79171159  0.48334362  0.31415910  1
  O  O35  1  0.79171159  0.51665638  0.68584090  1
  O  O36  1  0.30677473  0.20927490  0.51877268  1
  O  O37  1  0.69322527  0.20927490  0.48122732  1
  O  O38  1  0.30677473  0.79072510  0.48122732  1
  O  O39  1  0.69322527  0.79072510  0.51877268  1
