# generated using pymatgen
data_BaCaBiSbO6
_symmetry_space_group_name_H-M   'P 1'
_cell_length_a   8.49777029
_cell_length_b   8.51761626
_cell_length_c   8.48739642
_cell_angle_alpha   90.00000000
_cell_angle_beta   90.00000000
_cell_angle_gamma   90.00000000
_symmetry_Int_Tables_number   1
_chemical_formula_structural   BaCaBiSbO6
_chemical_formula_sum   'Ba4 Ca4 Bi4 Sb4 O24'
_cell_volume   614.32408784
_cell_formula_units_Z   4
loop_
 _symmetry_equiv_pos_site_id
 _symmetry_equiv_pos_as_xyz
  1  'x, y, z'
loop_
 _atom_site_type_symbol
 _atom_site_label
 _atom_site_symmetry_multiplicity
 _atom_site_fract_x
 _atom_site_fract_y
 _atom_site_fract_z
 _atom_site_occupancy
  Ba  Ba0  1  0.00000000  -0.00000000  0.00000000  1
  Ba  Ba1  1  0.50000000  0.50000000  0.50000000  1
  Ba  Ba2  1  0.50000000  -0.00000000  0.00000000  1
  Ba  Ba3  1  0.00000000  -0.00000000  0.50000000  1
  Ca  Ca4  1  -0.00000000  0.50000000  0.50000000  1
  Ca  Ca5  1  0.50000000  -0.00000000  0.50000000  1
  Ca  Ca6  1  0.50000000  0.50000000  0.00000000  1
  Ca  Ca7  1  -0.00000000  0.50000000  0.00000000  1
  Bi  Bi8  1  0.74906584  0.74157925  0.74904956  1
  Bi  Bi9  1  0.25093416  0.25842075  0.74904956  1
  Bi  Bi10  1  0.25093416  0.74157925  0.25095044  1
  Bi  Bi11  1  0.74906584  0.25842075  0.25095044  1
  Sb  Sb12  1  0.24827176  0.25982871  0.25042788  1
  Sb  Sb13  1  0.75172824  0.74017129  0.25042788  1
  Sb  Sb14  1  0.75172824  0.25982871  0.74957212  1
  Sb  Sb15  1  0.24827176  0.74017129  0.74957212  1
  O  O16  1  0.01507267  0.23311777  0.29040875  1
  O  O17  1  0.98492733  0.76688223  0.29040875  1
  O  O18  1  0.98492733  0.23311777  0.70959125  1
  O  O19  1  0.01507267  0.76688223  0.70959125  1
  O  O20  1  0.26859150  0.02762682  0.21135563  1
  O  O21  1  0.26859150  0.97237318  0.78864437  1
  O  O22  1  0.73140850  0.97237318  0.21135563  1
  O  O23  1  0.73140850  0.02762682  0.78864437  1
  O  O24  1  0.20029222  0.30733773  0.02084438  1
  O  O25  1  0.79970778  0.30733773  0.97915562  1
  O  O26  1  0.20029222  0.69266227  0.97915562  1
  O  O27  1  0.79970778  0.69266227  0.02084438  1
  O  O28  1  0.47680104  0.30655872  0.20095198  1
  O  O29  1  0.52319896  0.69344128  0.20095198  1
  O  O30  1  0.52319896  0.30655872  0.79904802  1
  O  O31  1  0.47680104  0.69344128  0.79904802  1
  O  O32  1  0.21107278  0.48734260  0.31331655  1
  O  O33  1  0.21107278  0.51265740  0.68668345  1
  O  O34  1  0.78892722  0.51265740  0.31331655  1
  O  O35  1  0.78892722  0.48734260  0.68668345  1
  O  O36  1  0.30732951  0.20933314  0.47992575  1
  O  O37  1  0.69267049  0.20933314  0.52007425  1
  O  O38  1  0.30732951  0.79066686  0.52007425  1
  O  O39  1  0.69267049  0.79066686  0.47992575  1
