# generated using pymatgen
data_BaSrV4O12
_symmetry_space_group_name_H-M   'P 1'
_cell_length_a   5.40160112
_cell_length_b   5.40160112
_cell_length_c   7.62920826
_cell_angle_alpha   90.00000000
_cell_angle_beta   90.00000000
_cell_angle_gamma   90.00000000
_symmetry_Int_Tables_number   1
_chemical_formula_structural   BaSrV4O12
_chemical_formula_sum   'Ba1 Sr1 V4 O12'
_cell_volume   222.59965742
_cell_formula_units_Z   1
loop_
 _symmetry_equiv_pos_site_id
 _symmetry_equiv_pos_as_xyz
  1  'x, y, z'
loop_
 _atom_site_type_symbol
 _atom_site_label
 _atom_site_symmetry_multiplicity
 _atom_site_fract_x
 _atom_site_fract_y
 _atom_site_fract_z
 _atom_site_occupancy
  Ba  Ba0  1  0.50000000  0.50000000  0.00000000  1
  Sr  Sr1  1  -0.00000000  -0.00000000  0.50000000  1
  V  V2  1  -0.00000000  0.50000000  0.74754158  1
  V  V3  1  0.00000000  0.50000000  0.25245842  1
  V  V4  1  0.50000000  -0.00000000  0.74754158  1
  V  V5  1  0.50000000  -0.00000000  0.25245842  1
  O  O6  1  0.24758607  0.24758607  0.25482543  1
  O  O7  1  0.24758607  0.24758607  0.74517457  1
  O  O8  1  0.75241393  0.75241393  0.74517457  1
  O  O9  1  0.75241393  0.75241393  0.25482543  1
  O  O10  1  0.75241393  0.24758607  0.74517457  1
  O  O11  1  0.75241393  0.24758607  0.25482543  1
  O  O12  1  0.24758607  0.75241393  0.74517457  1
  O  O13  1  0.24758607  0.75241393  0.25482543  1
  O  O14  1  0.00000000  0.50000000  0.50000000  1
  O  O15  1  -0.00000000  0.50000000  -0.00000000  1
  O  O16  1  0.50000000  0.00000000  0.50000000  1
  O  O17  1  0.50000000  -0.00000000  -0.00000000  1
