# generated using pymatgen
data_BaSrPrSnO6
_symmetry_space_group_name_H-M   'P 1'
_cell_length_a   6.12901918
_cell_length_b   6.18612534
_cell_length_c   8.66617400
_cell_angle_alpha   90.41027218
_cell_angle_beta   90.44246078
_cell_angle_gamma   90.07607300
_symmetry_Int_Tables_number   1
_chemical_formula_structural   BaSrPrSnO6
_chemical_formula_sum   'Ba2 Sr2 Pr2 Sn2 O12'
_cell_volume   328.55841938
_cell_formula_units_Z   2
loop_
 _symmetry_equiv_pos_site_id
 _symmetry_equiv_pos_as_xyz
  1  'x, y, z'
loop_
 _atom_site_type_symbol
 _atom_site_label
 _atom_site_symmetry_multiplicity
 _atom_site_fract_x
 _atom_site_fract_y
 _atom_site_fract_z
 _atom_site_occupancy
  Ba  Ba0  1  0.50738171  0.53205785  0.24994917  1
  Ba  Ba1  1  0.49261829  0.46794215  0.75005083  1
  Sr  Sr2  1  0.98855991  0.03988631  0.25340640  1
  Sr  Sr3  1  0.01144009  0.96011369  0.74659360  1
  Pr  Pr4  1  0.00000000  0.50000000  0.00000000  1
  Pr  Pr5  1  0.50000000  0.00000000  0.50000000  1
  Sn  Sn6  1  0.50000000  0.00000000  0.00000000  1
  Sn  Sn7  1  0.00000000  0.50000000  0.50000000  1
  O  O8  1  0.22621313  0.19542539  0.94977979  1
  O  O9  1  0.27042217  0.70136166  0.53906881  1
  O  O10  1  0.77378687  0.80457461  0.05022021  1
  O  O11  1  0.72957783  0.29863834  0.46093119  1
  O  O12  1  0.30271640  0.73101762  0.95600783  1
  O  O13  1  0.18959710  0.22323136  0.54950478  1
  O  O14  1  0.69728360  0.26898238  0.04399217  1
  O  O15  1  0.81040290  0.77676864  0.45049522  1
  O  O16  1  0.40207032  0.98208057  0.23339975  1
  O  O17  1  0.07541441  0.45658354  0.26592692  1
  O  O18  1  0.59792968  0.01791943  0.76660025  1
  O  O19  1  0.92458559  0.54341646  0.73407308  1
