# generated using pymatgen
data_KTb(FeO3)4
_symmetry_space_group_name_H-M   'P 1'
_cell_length_a   5.42079555
_cell_length_b   5.42079555
_cell_length_c   7.61993268
_cell_angle_alpha   90.00000000
_cell_angle_beta   90.00000000
_cell_angle_gamma   90.38501153
_symmetry_Int_Tables_number   1
_chemical_formula_structural   KTb(FeO3)4
_chemical_formula_sum   'K1 Tb1 Fe4 O12'
_cell_volume   223.90685265
_cell_formula_units_Z   1
loop_
 _symmetry_equiv_pos_site_id
 _symmetry_equiv_pos_as_xyz
  1  'x, y, z'
loop_
 _atom_site_type_symbol
 _atom_site_label
 _atom_site_symmetry_multiplicity
 _atom_site_fract_x
 _atom_site_fract_y
 _atom_site_fract_z
 _atom_site_occupancy
  K  K0  1  0.99505414  0.00494586  -0.00000000  1
  Tb  Tb1  1  0.51464901  0.48535099  0.50000000  1
  Fe  Fe2  1  0.49860032  0.99727745  0.24800234  1
  Fe  Fe3  1  0.49860032  0.99727745  0.75199766  1
  Fe  Fe4  1  0.00272255  0.50139968  0.75199766  1
  Fe  Fe5  1  0.00272255  0.50139968  0.24800234  1
  O  O6  1  0.25431541  0.25580017  0.27260770  1
  O  O7  1  0.74419983  0.74568459  0.27260770  1
  O  O8  1  0.74419983  0.74568459  0.72739230  1
  O  O9  1  0.25431541  0.25580017  0.72739230  1
  O  O10  1  0.27131760  0.72868240  0.28875854  1
  O  O11  1  0.72972506  0.27027494  0.25118208  1
  O  O12  1  0.72972506  0.27027494  0.74881792  1
  O  O13  1  0.27131760  0.72868240  0.71124146  1
  O  O14  1  0.49009121  0.98333669  0.00000000  1
  O  O15  1  0.51649938  0.03861860  0.50000000  1
  O  O16  1  0.01666331  0.50990879  0.00000000  1
  O  O17  1  0.96138140  0.48350062  0.50000000  1
