# generated using pymatgen
data_KSmV4O12
_symmetry_space_group_name_H-M   'P 1'
_cell_length_a   6.08342674
_cell_length_b   6.08342674
_cell_length_c   7.22975552
_cell_angle_alpha   90.00000000
_cell_angle_beta   90.00000000
_cell_angle_gamma   107.35195116
_symmetry_Int_Tables_number   1
_chemical_formula_structural   KSmV4O12
_chemical_formula_sum   'K1 Sm1 V4 O12'
_cell_volume   255.38295670
_cell_formula_units_Z   1
loop_
 _symmetry_equiv_pos_site_id
 _symmetry_equiv_pos_as_xyz
  1  'x, y, z'
loop_
 _atom_site_type_symbol
 _atom_site_label
 _atom_site_symmetry_multiplicity
 _atom_site_fract_x
 _atom_site_fract_y
 _atom_site_fract_z
 _atom_site_occupancy
  K  K0  1  0.97568384  0.02431616  0.00000000  1
  Sm  Sm1  1  0.43174981  0.56825019  0.50000000  1
  V  V2  1  0.46731315  0.04486541  0.25265467  1
  V  V3  1  0.46731315  0.04486541  0.74734533  1
  V  V4  1  0.95513459  0.53268685  0.74734533  1
  V  V5  1  0.95513459  0.53268685  0.25265467  1
  O  O6  1  0.31057986  0.22686941  0.28411666  1
  O  O7  1  0.77313059  0.68942014  0.28411666  1
  O  O8  1  0.77313059  0.68942014  0.71588334  1
  O  O9  1  0.31057986  0.22686941  0.71588334  1
  O  O10  1  0.26535484  0.73464516  0.26678660  1
  O  O11  1  0.76275332  0.23724668  0.23610281  1
  O  O12  1  0.76275332  0.23724668  0.76389719  1
  O  O13  1  0.26535484  0.73464516  0.73321340  1
  O  O14  1  0.46401488  0.00176136  0.00000000  1
  O  O15  1  0.53820388  0.97942376  0.50000000  1
  O  O16  1  -0.00176136  0.53598512  0.00000000  1
  O  O17  1  0.02057624  0.46179612  0.50000000  1
