# generated using pymatgen
data_BaSrGdNbO6
_symmetry_space_group_name_H-M   'P 1'
_cell_length_a   8.49958916
_cell_length_b   8.50368512
_cell_length_c   8.51698905
_cell_angle_alpha   90.00000000
_cell_angle_beta   90.00000000
_cell_angle_gamma   90.00000000
_symmetry_Int_Tables_number   1
_chemical_formula_structural   BaSrGdNbO6
_chemical_formula_sum   'Ba4 Sr4 Gd4 Nb4 O24'
_cell_volume   615.58948553
_cell_formula_units_Z   4
loop_
 _symmetry_equiv_pos_site_id
 _symmetry_equiv_pos_as_xyz
  1  'x, y, z'
loop_
 _atom_site_type_symbol
 _atom_site_label
 _atom_site_symmetry_multiplicity
 _atom_site_fract_x
 _atom_site_fract_y
 _atom_site_fract_z
 _atom_site_occupancy
  Ba  Ba0  1  -0.00000000  0.00000000  -0.00000000  1
  Ba  Ba1  1  0.50000000  0.50000000  0.50000000  1
  Ba  Ba2  1  0.50000000  0.00000000  0.00000000  1
  Ba  Ba3  1  -0.00000000  0.00000000  0.50000000  1
  Sr  Sr4  1  -0.00000000  0.50000000  0.50000000  1
  Sr  Sr5  1  0.50000000  0.00000000  0.50000000  1
  Sr  Sr6  1  0.50000000  0.50000000  -0.00000000  1
  Sr  Sr7  1  -0.00000000  0.50000000  -0.00000000  1
  Gd  Gd8  1  0.74917861  0.74744427  0.74985070  1
  Gd  Gd9  1  0.25082139  0.25255573  0.74985070  1
  Gd  Gd10  1  0.25082139  0.74744427  0.25014930  1
  Gd  Gd11  1  0.74917861  0.25255573  0.25014930  1
  Nb  Nb12  1  0.24951652  0.25334212  0.25082140  1
  Nb  Nb13  1  0.75048348  0.74665788  0.25082140  1
  Nb  Nb14  1  0.75048348  0.25334212  0.74917860  1
  Nb  Nb15  1  0.24951652  0.74665788  0.74917860  1
  O  O16  1  0.01483605  0.22603512  0.27511329  1
  O  O17  1  0.98516395  0.77396488  0.27511329  1
  O  O18  1  0.98516395  0.22603512  0.72488671  1
  O  O19  1  0.01483605  0.77396488  0.72488671  1
  O  O20  1  0.27258248  0.01654016  0.22401238  1
  O  O21  1  0.27258248  0.98345984  0.77598762  1
  O  O22  1  0.72741752  0.98345984  0.22401238  1
  O  O23  1  0.72741752  0.01654016  0.77598762  1
  O  O24  1  0.21697526  0.28373987  0.01538357  1
  O  O25  1  0.78302474  0.28373987  0.98461643  1
  O  O26  1  0.21697526  0.71626013  0.98461643  1
  O  O27  1  0.78302474  0.71626013  0.01538357  1
  O  O28  1  0.48347551  0.28885987  0.21512555  1
  O  O29  1  0.51652449  0.71114013  0.21512555  1
  O  O30  1  0.51652449  0.28885987  0.78487445  1
  O  O31  1  0.48347551  0.71114013  0.78487445  1
  O  O32  1  0.21645552  0.48520314  0.29027331  1
  O  O33  1  0.21645552  0.51479686  0.70972669  1
  O  O34  1  0.78354448  0.51479686  0.29027331  1
  O  O35  1  0.78354448  0.48520314  0.70972669  1
  O  O36  1  0.28867964  0.21936545  0.48388496  1
  O  O37  1  0.71132036  0.21936545  0.51611504  1
  O  O38  1  0.28867964  0.78063455  0.51611504  1
  O  O39  1  0.71132036  0.78063455  0.48388496  1
