# generated using pymatgen
data_KLaDyBiO6
_symmetry_space_group_name_H-M   'P 1'
_cell_length_a   8.59461296
_cell_length_b   8.44907548
_cell_length_c   8.59981793
_cell_angle_alpha   90.00000000
_cell_angle_beta   90.00000000
_cell_angle_gamma   90.00000000
_symmetry_Int_Tables_number   1
_chemical_formula_structural   KLaDyBiO6
_chemical_formula_sum   'K4 La4 Dy4 Bi4 O24'
_cell_volume   624.48896784
_cell_formula_units_Z   4
loop_
 _symmetry_equiv_pos_site_id
 _symmetry_equiv_pos_as_xyz
  1  'x, y, z'
loop_
 _atom_site_type_symbol
 _atom_site_label
 _atom_site_symmetry_multiplicity
 _atom_site_fract_x
 _atom_site_fract_y
 _atom_site_fract_z
 _atom_site_occupancy
  K  K0  1  -0.00000000  0.50000000  0.50000000  1
  K  K1  1  0.50000000  0.50000000  -0.00000000  1
  K  K2  1  0.50000000  0.00000000  -0.00000000  1
  K  K3  1  0.00000000  0.00000000  0.50000000  1
  La  La4  1  0.50000000  0.00000000  0.50000000  1
  La  La5  1  -0.00000000  0.50000000  -0.00000000  1
  La  La6  1  0.00000000  0.00000000  -0.00000000  1
  La  La7  1  0.50000000  0.50000000  0.50000000  1
  Dy  Dy8  1  0.25000000  0.25000000  0.25000000  1
  Dy  Dy9  1  0.75000000  0.75000000  0.25000000  1
  Dy  Dy10  1  0.75000000  0.25000000  0.75000000  1
  Dy  Dy11  1  0.25000000  0.75000000  0.75000000  1
  Bi  Bi12  1  0.75000000  0.75000000  0.75000000  1
  Bi  Bi13  1  0.25000000  0.25000000  0.75000000  1
  Bi  Bi14  1  0.25000000  0.75000000  0.25000000  1
  Bi  Bi15  1  0.75000000  0.25000000  0.25000000  1
  O  O16  1  0.99356333  0.20942018  0.25945859  1
  O  O17  1  0.00643667  0.79057982  0.25945859  1
  O  O18  1  0.00643667  0.20942018  0.74054141  1
  O  O19  1  0.99356333  0.79057982  0.74054141  1
  O  O20  1  0.27476374  0.99382296  0.21189786  1
  O  O21  1  0.27476374  0.00617704  0.78810214  1
  O  O22  1  0.72523626  0.00617704  0.21189786  1
  O  O23  1  0.72523626  0.99382296  0.78810214  1
  O  O24  1  0.19153494  0.28218596  0.99470344  1
  O  O25  1  0.80846506  0.28218596  0.00529656  1
  O  O26  1  0.19153494  0.71781404  0.00529656  1
  O  O27  1  0.80846506  0.71781404  0.99470344  1
  O  O28  1  0.50643667  0.29057982  0.24054141  1
  O  O29  1  0.49356333  0.70942018  0.24054141  1
  O  O30  1  0.49356333  0.29057982  0.75945859  1
  O  O31  1  0.50643667  0.70942018  0.75945859  1
  O  O32  1  0.22523626  0.50617704  0.28810214  1
  O  O33  1  0.22523626  0.49382296  0.71189786  1
  O  O34  1  0.77476374  0.49382296  0.28810214  1
  O  O35  1  0.77476374  0.50617704  0.71189786  1
  O  O36  1  0.30846506  0.21781404  0.50529656  1
  O  O37  1  0.69153494  0.21781404  0.49470344  1
  O  O38  1  0.30846506  0.78218596  0.49470344  1
  O  O39  1  0.69153494  0.78218596  0.50529656  1
