# generated using pymatgen
data_BaCaEuWO6
_symmetry_space_group_name_H-M   'P 1'
_cell_length_a   8.55509499
_cell_length_b   8.51093048
_cell_length_c   8.53025859
_cell_angle_alpha   90.00000000
_cell_angle_beta   90.00000000
_cell_angle_gamma   90.00000000
_symmetry_Int_Tables_number   1
_chemical_formula_structural   BaCaEuWO6
_chemical_formula_sum   'Ba4 Ca4 Eu4 W4 O24'
_cell_volume   621.10364200
_cell_formula_units_Z   4
loop_
 _symmetry_equiv_pos_site_id
 _symmetry_equiv_pos_as_xyz
  1  'x, y, z'
loop_
 _atom_site_type_symbol
 _atom_site_label
 _atom_site_symmetry_multiplicity
 _atom_site_fract_x
 _atom_site_fract_y
 _atom_site_fract_z
 _atom_site_occupancy
  Ba  Ba0  1  -0.00000000  0.00000000  0.00000000  1
  Ba  Ba1  1  0.50000000  0.50000000  0.50000000  1
  Ba  Ba2  1  0.50000000  0.50000000  0.00000000  1
  Ba  Ba3  1  -0.00000000  0.00000000  0.50000000  1
  Ca  Ca4  1  -0.00000000  0.50000000  0.50000000  1
  Ca  Ca5  1  0.50000000  0.00000000  0.50000000  1
  Ca  Ca6  1  0.50000000  0.00000000  0.00000000  1
  Ca  Ca7  1  -0.00000000  0.50000000  0.00000000  1
  Eu  Eu8  1  0.75000000  0.75000000  0.75000000  1
  Eu  Eu9  1  0.25000000  0.25000000  0.75000000  1
  Eu  Eu10  1  0.25000000  0.75000000  0.25000000  1
  Eu  Eu11  1  0.75000000  0.25000000  0.25000000  1
  W  W12  1  0.25000000  0.25000000  0.25000000  1
  W  W13  1  0.75000000  0.75000000  0.25000000  1
  W  W14  1  0.75000000  0.25000000  0.75000000  1
  W  W15  1  0.25000000  0.75000000  0.75000000  1
  O  O16  1  0.02593028  0.20713738  0.28115828  1
  O  O17  1  0.97406972  0.79286262  0.28115828  1
  O  O18  1  0.97406972  0.20713738  0.71884172  1
  O  O19  1  0.02593028  0.79286262  0.71884172  1
  O  O20  1  0.29155098  0.02976360  0.19292123  1
  O  O21  1  0.29155098  0.97023640  0.80707877  1
  O  O22  1  0.70844902  0.97023640  0.19292123  1
  O  O23  1  0.70844902  0.02976360  0.80707877  1
  O  O24  1  0.20289487  0.30002365  0.02863026  1
  O  O25  1  0.79710513  0.30002365  0.97136974  1
  O  O26  1  0.20289487  0.69997635  0.97136974  1
  O  O27  1  0.79710513  0.69997635  0.02863026  1
  O  O28  1  0.47406972  0.29286262  0.21884172  1
  O  O29  1  0.52593028  0.70713738  0.21884172  1
  O  O30  1  0.52593028  0.29286262  0.78115828  1
  O  O31  1  0.47406972  0.70713738  0.78115828  1
  O  O32  1  0.20844902  0.47023640  0.30707877  1
  O  O33  1  0.20844902  0.52976360  0.69292123  1
  O  O34  1  0.79155098  0.52976360  0.30707877  1
  O  O35  1  0.79155098  0.47023640  0.69292123  1
  O  O36  1  0.29710513  0.19997635  0.47136974  1
  O  O37  1  0.70289487  0.19997635  0.52863026  1
  O  O38  1  0.29710513  0.80002365  0.52863026  1
  O  O39  1  0.70289487  0.80002365  0.47136974  1
