# generated using pymatgen
data_SrPrGdCoO6
_symmetry_space_group_name_H-M   'P 1'
_cell_length_a   6.13209401
_cell_length_b   6.52470683
_cell_length_c   8.71071933
_cell_angle_alpha   89.09193533
_cell_angle_beta   90.09509430
_cell_angle_gamma   89.92619347
_symmetry_Int_Tables_number   1
_chemical_formula_structural   SrPrGdCoO6
_chemical_formula_sum   'Sr2 Pr2 Gd2 Co2 O12'
_cell_volume   348.47233742
_cell_formula_units_Z   2
loop_
 _symmetry_equiv_pos_site_id
 _symmetry_equiv_pos_as_xyz
  1  'x, y, z'
loop_
 _atom_site_type_symbol
 _atom_site_label
 _atom_site_symmetry_multiplicity
 _atom_site_fract_x
 _atom_site_fract_y
 _atom_site_fract_z
 _atom_site_occupancy
  Sr  Sr0  1  0.52831173  0.58250295  0.25618153  1
  Sr  Sr1  1  0.02781943  0.91836923  0.75106302  1
  Pr  Pr2  1  0.97238032  0.08017896  0.24950125  1
  Pr  Pr3  1  0.47202323  0.41902219  0.74391239  1
  Gd  Gd4  1  0.49940658  0.99735179  0.99975908  1
  Gd  Gd5  1  0.99955909  0.50225111  0.49995683  1
  Co  Co6  1  0.00031773  0.50104028  0.00063031  1
  Co  Co7  1  0.50027258  0.99950356  0.50026791  1
  O  O8  1  0.16568840  0.21907686  0.93982424  1
  O  O9  1  0.33819867  0.71614215  0.56142186  1
  O  O10  1  0.83725936  0.78499340  0.06149191  1
  O  O11  1  0.66460400  0.27956205  0.43987942  1
  O  O12  1  0.28456797  0.67169596  0.94011920  1
  O  O13  1  0.21790525  0.17542195  0.55921027  1
  O  O14  1  0.71815821  0.32380438  0.05844950  1
  O  O15  1  0.78519428  0.82914664  0.43941204  1
  O  O16  1  0.37777092  0.97124722  0.27475018  1
  O  O17  1  0.11647228  0.46677165  0.22454367  1
  O  O18  1  0.61649704  0.03314599  0.72482055  1
  O  O19  1  0.87759292  0.52877167  0.77480483  1
