# generated using pymatgen
data_BaSrGdNbO6
_symmetry_space_group_name_H-M   'P 1'
_cell_length_a   5.99135121
_cell_length_b   6.02643843
_cell_length_c   8.49572678
_cell_angle_alpha   90.30603607
_cell_angle_beta   90.23774916
_cell_angle_gamma   90.25919757
_symmetry_Int_Tables_number   1
_chemical_formula_structural   BaSrGdNbO6
_chemical_formula_sum   'Ba2 Sr2 Gd2 Nb2 O12'
_cell_volume   306.74085052
_cell_formula_units_Z   2
loop_
 _symmetry_equiv_pos_site_id
 _symmetry_equiv_pos_as_xyz
  1  'x, y, z'
loop_
 _atom_site_type_symbol
 _atom_site_label
 _atom_site_symmetry_multiplicity
 _atom_site_fract_x
 _atom_site_fract_y
 _atom_site_fract_z
 _atom_site_occupancy
  Ba  Ba0  1  0.50609621  0.52620509  0.25002840  1
  Ba  Ba1  1  0.49390379  0.47379491  0.74997160  1
  Sr  Sr2  1  0.99421332  0.03247018  0.25090703  1
  Sr  Sr3  1  0.00578668  0.96752982  0.74909297  1
  Gd  Gd4  1  -0.00000000  0.50000000  -0.00000000  1
  Gd  Gd5  1  0.50000000  -0.00000000  0.50000000  1
  Nb  Nb6  1  0.50000000  -0.00000000  -0.00000000  1
  Nb  Nb7  1  -0.00000000  0.50000000  0.50000000  1
  O  O8  1  0.23027194  0.19807651  0.96113381  1
  O  O9  1  0.26432100  0.70491551  0.53386830  1
  O  O10  1  0.76972806  0.80192349  0.03886619  1
  O  O11  1  0.73567900  0.29508449  0.46613170  1
  O  O12  1  0.29705502  0.73435416  0.96417759  1
  O  O13  1  0.19553761  0.22729361  0.53757171  1
  O  O14  1  0.70294498  0.26564584  0.03582241  1
  O  O15  1  0.80446239  0.77270639  0.46242829  1
  O  O16  1  0.42347902  0.99179225  0.23366424  1
  O  O17  1  0.06155799  0.47822593  0.26582967  1
  O  O18  1  0.57652098  0.00820775  0.76633576  1
  O  O19  1  0.93844201  0.52177407  0.73417033  1
