# generated using pymatgen
data_BaCaNdBiO6
_symmetry_space_group_name_H-M   'P 1'
_cell_length_a   8.65606972
_cell_length_b   8.68978013
_cell_length_c   8.66944665
_cell_angle_alpha   90.00000000
_cell_angle_beta   90.00000000
_cell_angle_gamma   90.00000000
_symmetry_Int_Tables_number   1
_chemical_formula_structural   BaCaNdBiO6
_chemical_formula_sum   'Ba4 Ca4 Nd4 Bi4 O24'
_cell_volume   652.11007821
_cell_formula_units_Z   4
loop_
 _symmetry_equiv_pos_site_id
 _symmetry_equiv_pos_as_xyz
  1  'x, y, z'
loop_
 _atom_site_type_symbol
 _atom_site_label
 _atom_site_symmetry_multiplicity
 _atom_site_fract_x
 _atom_site_fract_y
 _atom_site_fract_z
 _atom_site_occupancy
  Ba  Ba0  1  0.00000000  -0.00000000  -0.00000000  1
  Ba  Ba1  1  0.50000000  0.50000000  0.50000000  1
  Ba  Ba2  1  0.00000000  0.50000000  0.00000000  1
  Ba  Ba3  1  0.00000000  -0.00000000  0.50000000  1
  Ca  Ca4  1  0.00000000  0.50000000  0.50000000  1
  Ca  Ca5  1  0.50000000  0.00000000  0.50000000  1
  Ca  Ca6  1  0.50000000  0.50000000  -0.00000000  1
  Ca  Ca7  1  0.50000000  0.00000000  -0.00000000  1
  Nd  Nd8  1  0.25513356  0.25073618  0.25176267  1
  Nd  Nd9  1  0.74486644  0.74926382  0.25176267  1
  Nd  Nd10  1  0.74486644  0.25073618  0.74823733  1
  Nd  Nd11  1  0.25513356  0.74926382  0.74823733  1
  Bi  Bi12  1  0.74391295  0.74906743  0.74984452  1
  Bi  Bi13  1  0.25608705  0.25093257  0.74984452  1
  Bi  Bi14  1  0.25608705  0.74906743  0.25015548  1
  Bi  Bi15  1  0.74391295  0.25093257  0.25015548  1
  O  O16  1  0.98744883  0.20974229  0.27733090  1
  O  O17  1  0.01255117  0.79025771  0.27733090  1
  O  O18  1  0.01255117  0.20974229  0.72266910  1
  O  O19  1  0.98744883  0.79025771  0.72266910  1
  O  O20  1  0.30349299  0.98805418  0.19914107  1
  O  O21  1  0.30349299  0.01194582  0.80085893  1
  O  O22  1  0.69650701  0.01194582  0.19914107  1
  O  O23  1  0.69650701  0.98805418  0.80085893  1
  O  O24  1  0.21696512  0.28521807  0.99069707  1
  O  O25  1  0.78303488  0.28521807  0.00930293  1
  O  O26  1  0.21696512  0.71478193  0.00930293  1
  O  O27  1  0.78303488  0.71478193  0.99069707  1
  O  O28  1  0.51044875  0.31599661  0.20514759  1
  O  O29  1  0.48955125  0.68400339  0.20514759  1
  O  O30  1  0.48955125  0.31599661  0.79485241  1
  O  O31  1  0.51044875  0.68400339  0.79485241  1
  O  O32  1  0.20452353  0.51268305  0.31068021  1
  O  O33  1  0.20452353  0.48731695  0.68931979  1
  O  O34  1  0.79547647  0.48731695  0.31068021  1
  O  O35  1  0.79547647  0.51268305  0.68931979  1
  O  O36  1  0.30758221  0.19833068  0.51336004  1
  O  O37  1  0.69241779  0.19833068  0.48663996  1
  O  O38  1  0.30758221  0.80166932  0.48663996  1
  O  O39  1  0.69241779  0.80166932  0.51336004  1
