# generated using pymatgen
data_BaSrNdMnO6
_symmetry_space_group_name_H-M   'P 1'
_cell_length_a   5.95801550
_cell_length_b   5.94613898
_cell_length_c   8.42162343
_cell_angle_alpha   90.09743122
_cell_angle_beta   89.83008610
_cell_angle_gamma   89.73676370
_symmetry_Int_Tables_number   1
_chemical_formula_structural   BaSrNdMnO6
_chemical_formula_sum   'Ba2 Sr2 Nd2 Mn2 O12'
_cell_volume   298.34953905
_cell_formula_units_Z   2
loop_
 _symmetry_equiv_pos_site_id
 _symmetry_equiv_pos_as_xyz
  1  'x, y, z'
loop_
 _atom_site_type_symbol
 _atom_site_label
 _atom_site_symmetry_multiplicity
 _atom_site_fract_x
 _atom_site_fract_y
 _atom_site_fract_z
 _atom_site_occupancy
  Ba  Ba0  1  0.99790274  0.01059477  0.24958374  1
  Ba  Ba1  1  0.00209726  0.98940523  0.75041626  1
  Sr  Sr2  1  0.50180955  0.51154405  0.25070122  1
  Sr  Sr3  1  0.49819045  0.48845595  0.74929878  1
  Nd  Nd4  1  0.50000000  -0.00000000  0.00000000  1
  Nd  Nd5  1  0.00000000  0.50000000  0.50000000  1
  Mn  Mn6  1  0.00000000  0.50000000  0.00000000  1
  Mn  Mn7  1  0.50000000  -0.00000000  0.50000000  1
  O  O8  1  0.20730824  0.25439198  0.97719163  1
  O  O9  1  0.29861777  0.74664332  0.52306846  1
  O  O10  1  0.79269176  0.74560802  0.02280837  1
  O  O11  1  0.70138223  0.25335668  0.47693154  1
  O  O12  1  0.25227440  0.70273678  0.97641638  1
  O  O13  1  0.25531589  0.20873281  0.52241468  1
  O  O14  1  0.74772560  0.29726322  0.02358362  1
  O  O15  1  0.74468411  0.79126719  0.47758532  1
  O  O16  1  0.45921479  0.99367751  0.27332218  1
  O  O17  1  0.04870606  0.49632771  0.22674508  1
  O  O18  1  0.54078521  0.00632249  0.72667782  1
  O  O19  1  0.95129394  0.50367229  0.77325492  1
