# generated using pymatgen
data_SrCaSmBiO6
_symmetry_space_group_name_H-M   'P 1'
_cell_length_a   5.98699321
_cell_length_b   5.98699321
_cell_length_c   8.71321038
_cell_angle_alpha   90.00000000
_cell_angle_beta   90.00000000
_cell_angle_gamma   90.00000000
_symmetry_Int_Tables_number   1
_chemical_formula_structural   SrCaSmBiO6
_chemical_formula_sum   'Sr2 Ca2 Sm2 Bi2 O12'
_cell_volume   312.31707698
_cell_formula_units_Z   2
loop_
 _symmetry_equiv_pos_site_id
 _symmetry_equiv_pos_as_xyz
  1  'x, y, z'
loop_
 _atom_site_type_symbol
 _atom_site_label
 _atom_site_symmetry_multiplicity
 _atom_site_fract_x
 _atom_site_fract_y
 _atom_site_fract_z
 _atom_site_occupancy
  Sr  Sr0  1  0.50000000  0.50000000  0.50000000  1
  Sr  Sr1  1  -0.00000000  -0.00000000  0.50000000  1
  Ca  Ca2  1  0.50000000  0.50000000  -0.00000000  1
  Ca  Ca3  1  -0.00000000  -0.00000000  -0.00000000  1
  Sm  Sm4  1  0.50000000  0.00000000  0.24703131  1
  Sm  Sm5  1  0.00000000  0.50000000  0.75296869  1
  Bi  Bi6  1  0.50000000  0.00000000  0.75385105  1
  Bi  Bi7  1  0.00000000  0.50000000  0.24614895  1
  O  O8  1  0.50000000  0.00000000  0.99385149  1
  O  O9  1  -0.00000000  0.50000000  0.00614851  1
  O  O10  1  0.50000000  -0.00000000  0.50854442  1
  O  O11  1  0.00000000  0.50000000  0.49145558  1
  O  O12  1  0.65831327  0.68045036  0.75742848  1
  O  O13  1  0.34168673  0.31954964  0.75742848  1
  O  O14  1  0.81954964  0.15831327  0.75742848  1
  O  O15  1  0.18045036  0.84168673  0.75742848  1
  O  O16  1  0.84168673  0.18045036  0.24257152  1
  O  O17  1  0.15831327  0.81954964  0.24257152  1
  O  O18  1  0.68045036  0.65831327  0.24257152  1
  O  O19  1  0.31954964  0.34168673  0.24257152  1
