# generated using pymatgen
data_K2Mn2Be3F12
_symmetry_space_group_name_H-M   'P 1'
_cell_length_a   10.31269700
_cell_length_b   10.31269700
_cell_length_c   10.31269700
_cell_angle_alpha   90.00000000
_cell_angle_beta   90.00000000
_cell_angle_gamma   90.00000000
_symmetry_Int_Tables_number   1
_chemical_formula_structural   K2Mn2Be3F12
_chemical_formula_sum   'K8 Mn8 Be12 F48'
_cell_volume   1096.77305774
_cell_formula_units_Z   4
loop_
 _symmetry_equiv_pos_site_id
 _symmetry_equiv_pos_as_xyz
  1  'x, y, z'
loop_
 _atom_site_type_symbol
 _atom_site_label
 _atom_site_symmetry_multiplicity
 _atom_site_fract_x
 _atom_site_fract_y
 _atom_site_fract_z
 _atom_site_occupancy
  K  K0  1  0.19155200  0.30844800  0.69155200  1
  K  K1  1  0.69155200  0.19155200  0.30844800  1
  K  K2  1  0.30844800  0.69155200  0.19155200  1
  K  K3  1  0.80844800  0.80844800  0.80844800  1
  K  K4  1  0.44900400  0.94900400  0.55099600  1
  K  K5  1  0.55099600  0.44900400  0.94900400  1
  K  K6  1  0.94900400  0.55099600  0.44900400  1
  K  K7  1  0.05099600  0.05099600  0.05099600  1
  Mn  Mn8  1  0.33110100  0.33110100  0.33110100  1
  Mn  Mn9  1  0.16889900  0.66889900  0.83110100  1
  Mn  Mn10  1  0.83110100  0.16889900  0.66889900  1
  Mn  Mn11  1  0.66889900  0.83110100  0.16889900  1
  Mn  Mn12  1  0.59279400  0.59279400  0.59279400  1
  Mn  Mn13  1  0.90720600  0.40720600  0.09279400  1
  Mn  Mn14  1  0.09279400  0.90720600  0.40720600  1
  Mn  Mn15  1  0.40720600  0.09279400  0.90720600  1
  Be  Be16  1  0.27901500  0.62503600  0.51418500  1
  Be  Be17  1  0.22098500  0.37496400  0.01418500  1
  Be  Be18  1  0.72098500  0.12503600  0.98581500  1
  Be  Be19  1  0.77901500  0.87496400  0.48581500  1
  Be  Be20  1  0.12503600  0.98581500  0.72098500  1
  Be  Be21  1  0.48581500  0.77901500  0.87496400  1
  Be  Be22  1  0.98581500  0.72098500  0.12503600  1
  Be  Be23  1  0.37496400  0.01418500  0.22098500  1
  Be  Be24  1  0.01418500  0.22098500  0.37496400  1
  Be  Be25  1  0.87496400  0.48581500  0.77901500  1
  Be  Be26  1  0.62503600  0.51418500  0.27901500  1
  Be  Be27  1  0.51418500  0.27901500  0.62503600  1
  F  F28  1  0.45572800  0.18282700  0.72659300  1
  F  F29  1  0.72894300  0.00753100  0.08009900  1
  F  F30  1  0.77105700  0.99246900  0.58009900  1
  F  F31  1  0.00753100  0.08009900  0.72894300  1
  F  F32  1  0.26339100  0.41571900  0.15314100  1
  F  F33  1  0.23660900  0.58428100  0.65314100  1
  F  F34  1  0.65314100  0.23660900  0.58428100  1
  F  F35  1  0.58428100  0.65314100  0.23660900  1
  F  F36  1  0.91571900  0.34685900  0.73660900  1
  F  F37  1  0.15314100  0.26339100  0.41571900  1
  F  F38  1  0.41571900  0.15314100  0.26339100  1
  F  F39  1  0.84685900  0.76339100  0.08428100  1
  F  F40  1  0.34685900  0.73660900  0.91571900  1
  F  F41  1  0.08428100  0.84685900  0.76339100  1
  F  F42  1  0.73660900  0.91571900  0.34685900  1
  F  F43  1  0.76339100  0.08428100  0.84685900  1
  F  F44  1  0.18282700  0.72659300  0.45572800  1
  F  F45  1  0.22894300  0.49246900  0.91990100  1
  F  F46  1  0.72659300  0.45572800  0.18282700  1
  F  F47  1  0.77340700  0.54427200  0.68282700  1
  F  F48  1  0.95572800  0.31717300  0.27340700  1
  F  F49  1  0.27340700  0.95572800  0.31717300  1
  F  F50  1  0.04427200  0.81717300  0.22659300  1
  F  F51  1  0.54427200  0.68282700  0.77340700  1
  F  F52  1  0.22659300  0.04427200  0.81717300  1
  F  F53  1  0.68282700  0.77340700  0.54427200  1
  F  F54  1  0.81717300  0.22659300  0.04427200  1
  F  F55  1  0.31717300  0.27340700  0.95572800  1
  F  F56  1  0.42016600  0.68079400  0.51588300  1
  F  F57  1  0.51588300  0.42016600  0.68079400  1
  F  F58  1  0.68079400  0.51588300  0.42016600  1
  F  F59  1  0.81920600  0.48411700  0.92016600  1
  F  F60  1  0.01588300  0.07983400  0.31920600  1
  F  F61  1  0.31920600  0.01588300  0.07983400  1
  F  F62  1  0.98411700  0.57983400  0.18079400  1
  F  F63  1  0.48411700  0.92016600  0.81920600  1
  F  F64  1  0.18079400  0.98411700  0.57983400  1
  F  F65  1  0.92016600  0.81920600  0.48411700  1
  F  F66  1  0.57983400  0.18079400  0.98411700  1
  F  F67  1  0.07983400  0.31920600  0.01588300  1
  F  F68  1  0.27105700  0.50753100  0.41990100  1
  F  F69  1  0.41990100  0.27105700  0.50753100  1
  F  F70  1  0.50753100  0.41990100  0.27105700  1
  F  F71  1  0.99246900  0.58009900  0.77105700  1
  F  F72  1  0.91990100  0.22894300  0.49246900  1
  F  F73  1  0.58009900  0.77105700  0.99246900  1
  F  F74  1  0.08009900  0.72894300  0.00753100  1
  F  F75  1  0.49246900  0.91990100  0.22894300  1
