data_image0
_chemical_formula_structural       Cl2FeH4O2
_chemical_formula_sum              "Cl2 Fe1 H4 O2"
_cell_length_a       3.62405
_cell_length_b       5.56681
_cell_length_c       5.56681
_cell_angle_alpha    97.7198
_cell_angle_beta     95.794
_cell_angle_gamma    95.794

_space_group_name_H-M_alt    "P 1"
_space_group_IT_number       1

loop_
  _space_group_symop_operation_xyz
  'x, y, z'

loop_
  _atom_site_type_symbol
  _atom_site_label
  _atom_site_symmetry_multiplicity
  _atom_site_fract_x
  _atom_site_fract_y
  _atom_site_fract_z
  _atom_site_occupancy
  Cl  Cl1       1.0  0.57000  0.24000  0.24000  1.0000
  Cl  Cl2       1.0  0.43000  0.76000  0.76000  1.0000
  Fe  Fe1       1.0  0.00000  0.00000  0.00000  1.0000
  H   H1        1.0  0.84200  0.59400  0.22700  1.0000
  H   H2        1.0  0.15800  0.77300  0.40600  1.0000
  H   H3        1.0  0.84200  0.22700  0.59400  1.0000
  H   H4        1.0  0.15800  0.40600  0.77300  1.0000
  O   O1        1.0  0.00000  0.75300  0.24700  1.0000
  O   O2        1.0  0.00000  0.24700  0.75300  1.0000
