# generated using pymatgen
data_BaYSnSbO6
_symmetry_space_group_name_H-M   'P 1'
_cell_length_a   5.92163206
_cell_length_b   5.92163206
_cell_length_c   8.51960703
_cell_angle_alpha   90.00000000
_cell_angle_beta   90.00000000
_cell_angle_gamma   90.00000000
_symmetry_Int_Tables_number   1
_chemical_formula_structural   BaYSnSbO6
_chemical_formula_sum   'Ba2 Y2 Sn2 Sb2 O12'
_cell_volume   298.74620791
_cell_formula_units_Z   2
loop_
 _symmetry_equiv_pos_site_id
 _symmetry_equiv_pos_as_xyz
  1  'x, y, z'
loop_
 _atom_site_type_symbol
 _atom_site_label
 _atom_site_symmetry_multiplicity
 _atom_site_fract_x
 _atom_site_fract_y
 _atom_site_fract_z
 _atom_site_occupancy
  Ba  Ba0  1  0.00000000  0.50000000  0.25000000  1
  Ba  Ba1  1  0.50000000  -0.00000000  0.75000000  1
  Y  Y2  1  -0.00000000  -0.00000000  0.50000000  1
  Y  Y3  1  0.50000000  0.50000000  -0.00000000  1
  Sn  Sn4  1  0.50000000  -0.00000000  0.25000000  1
  Sn  Sn5  1  -0.00000000  0.50000000  0.75000000  1
  Sb  Sb6  1  0.00000000  0.00000000  -0.00000000  1
  Sb  Sb7  1  0.50000000  0.50000000  0.50000000  1
  O  O8  1  0.00000000  0.00000000  0.23705108  1
  O  O9  1  0.50000000  0.50000000  0.26294892  1
  O  O10  1  -0.00000000  -0.00000000  0.76294892  1
  O  O11  1  0.50000000  0.50000000  0.73705108  1
  O  O12  1  0.28284883  0.18811011  0.01193515  1
  O  O13  1  0.71715117  0.81188989  0.01193515  1
  O  O14  1  0.81188989  0.28284883  0.98806485  1
  O  O15  1  0.18811011  0.71715117  0.98806485  1
  O  O16  1  0.78284883  0.31188989  0.51193515  1
  O  O17  1  0.21715117  0.68811011  0.51193515  1
  O  O18  1  0.31188989  0.21715117  0.48806485  1
  O  O19  1  0.68811011  0.78284883  0.48806485  1
