# generated using pymatgen
data_KBaGdWO6
_symmetry_space_group_name_H-M   'P 1'
_cell_length_a   8.50308979
_cell_length_b   8.50987155
_cell_length_c   8.51622296
_cell_angle_alpha   90.00000000
_cell_angle_beta   90.00000000
_cell_angle_gamma   90.00000000
_symmetry_Int_Tables_number   1
_chemical_formula_structural   KBaGdWO6
_chemical_formula_sum   'K4 Ba4 Gd4 W4 O24'
_cell_volume   616.23561273
_cell_formula_units_Z   4
loop_
 _symmetry_equiv_pos_site_id
 _symmetry_equiv_pos_as_xyz
  1  'x, y, z'
loop_
 _atom_site_type_symbol
 _atom_site_label
 _atom_site_symmetry_multiplicity
 _atom_site_fract_x
 _atom_site_fract_y
 _atom_site_fract_z
 _atom_site_occupancy
  K  K0  1  0.00000000  0.50000000  0.50000000  1
  K  K1  1  0.50000000  0.00000000  0.50000000  1
  K  K2  1  0.50000000  0.00000000  -0.00000000  1
  K  K3  1  0.00000000  0.50000000  -0.00000000  1
  Ba  Ba4  1  0.50000000  0.50000000  -0.00000000  1
  Ba  Ba5  1  0.00000000  0.00000000  0.50000000  1
  Ba  Ba6  1  0.00000000  0.00000000  -0.00000000  1
  Ba  Ba7  1  0.50000000  0.50000000  0.50000000  1
  Gd  Gd8  1  0.75000000  0.75000000  0.75000000  1
  Gd  Gd9  1  0.25000000  0.25000000  0.75000000  1
  Gd  Gd10  1  0.25000000  0.75000000  0.25000000  1
  Gd  Gd11  1  0.75000000  0.25000000  0.25000000  1
  W  W12  1  0.25000000  0.25000000  0.25000000  1
  W  W13  1  0.75000000  0.75000000  0.25000000  1
  W  W14  1  0.75000000  0.25000000  0.75000000  1
  W  W15  1  0.25000000  0.75000000  0.75000000  1
  O  O16  1  0.01925952  0.23362742  0.25977782  1
  O  O17  1  0.98074048  0.76637258  0.25977782  1
  O  O18  1  0.98074048  0.23362742  0.74022218  1
  O  O19  1  0.01925952  0.76637258  0.74022218  1
  O  O20  1  0.25416424  0.01966897  0.23918750  1
  O  O21  1  0.25416424  0.98033103  0.76081250  1
  O  O22  1  0.74583576  0.98033103  0.23918750  1
  O  O23  1  0.74583576  0.01966897  0.76081250  1
  O  O24  1  0.23959501  0.26008637  0.01991146  1
  O  O25  1  0.76040499  0.26008637  0.98008854  1
  O  O26  1  0.23959501  0.73991363  0.98008854  1
  O  O27  1  0.76040499  0.73991363  0.01991146  1
  O  O28  1  0.48074048  0.26637258  0.24022218  1
  O  O29  1  0.51925952  0.73362742  0.24022218  1
  O  O30  1  0.51925952  0.26637258  0.75977782  1
  O  O31  1  0.48074048  0.73362742  0.75977782  1
  O  O32  1  0.24583576  0.48033103  0.26081250  1
  O  O33  1  0.24583576  0.51966897  0.73918750  1
  O  O34  1  0.75416424  0.51966897  0.26081250  1
  O  O35  1  0.75416424  0.48033103  0.73918750  1
  O  O36  1  0.26040499  0.23991363  0.48008854  1
  O  O37  1  0.73959501  0.23991363  0.51991146  1
  O  O38  1  0.26040499  0.76008637  0.51991146  1
  O  O39  1  0.73959501  0.76008637  0.48008854  1
