# generated using pymatgen
data_NaSmV4O12
_symmetry_space_group_name_H-M   'P 1'
_cell_length_a   5.30699986
_cell_length_b   5.30699986
_cell_length_c   7.51467614
_cell_angle_alpha   90.00000000
_cell_angle_beta   90.00000000
_cell_angle_gamma   90.00000000
_symmetry_Int_Tables_number   1
_chemical_formula_structural   NaSmV4O12
_chemical_formula_sum   'Na1 Sm1 V4 O12'
_cell_volume   211.64519879
_cell_formula_units_Z   1
loop_
 _symmetry_equiv_pos_site_id
 _symmetry_equiv_pos_as_xyz
  1  'x, y, z'
loop_
 _atom_site_type_symbol
 _atom_site_label
 _atom_site_symmetry_multiplicity
 _atom_site_fract_x
 _atom_site_fract_y
 _atom_site_fract_z
 _atom_site_occupancy
  Na  Na0  1  0.50000000  0.50000000  0.50000000  1
  Sm  Sm1  1  0.00000000  -0.00000000  -0.00000000  1
  V  V2  1  -0.00000000  0.50000000  0.74482568  1
  V  V3  1  0.00000000  0.50000000  0.25517432  1
  V  V4  1  0.50000000  -0.00000000  0.74482568  1
  V  V5  1  0.50000000  -0.00000000  0.25517432  1
  O  O6  1  0.24460817  0.24460817  0.24378824  1
  O  O7  1  0.24460817  0.24460817  0.75621176  1
  O  O8  1  0.75539183  0.75539183  0.75621176  1
  O  O9  1  0.75539183  0.75539183  0.24378824  1
  O  O10  1  0.75539183  0.24460817  0.75621176  1
  O  O11  1  0.75539183  0.24460817  0.24378824  1
  O  O12  1  0.24460817  0.75539183  0.75621176  1
  O  O13  1  0.24460817  0.75539183  0.24378824  1
  O  O14  1  -0.00000000  0.50000000  0.50000000  1
  O  O15  1  0.00000000  0.50000000  -0.00000000  1
  O  O16  1  0.50000000  0.00000000  0.50000000  1
  O  O17  1  0.50000000  -0.00000000  -0.00000000  1
