# generated using pymatgen
data_Ca4Ti3O10
_symmetry_space_group_name_H-M   'P 1'
_cell_length_a   5.44465100
_cell_length_b   5.52786100
_cell_length_c   27.17890800
_cell_angle_alpha   90.00000000
_cell_angle_beta   90.00000000
_cell_angle_gamma   90.00000000
_symmetry_Int_Tables_number   1
_chemical_formula_structural   Ca4Ti3O10
_chemical_formula_sum   'Ca16 Ti12 O40'
_cell_volume   818.01103896
_cell_formula_units_Z   4
loop_
 _symmetry_equiv_pos_site_id
 _symmetry_equiv_pos_as_xyz
  1  'x, y, z'
loop_
 _atom_site_type_symbol
 _atom_site_label
 _atom_site_symmetry_multiplicity
 _atom_site_fract_x
 _atom_site_fract_y
 _atom_site_fract_z
 _atom_site_occupancy
  Ca  Ca0  1  0.50553800  0.54023100  0.06939500  1
  Ca  Ca1  1  0.00553800  0.95976900  0.93060500  1
  Ca  Ca2  1  0.49446200  0.04023100  0.43060500  1
  Ca  Ca3  1  0.99446200  0.45976900  0.56939500  1
  Ca  Ca4  1  0.49446200  0.45976900  0.93060500  1
  Ca  Ca5  1  0.99446200  0.04023100  0.06939500  1
  Ca  Ca6  1  0.50553800  0.95976900  0.56939500  1
  Ca  Ca7  1  0.00553800  0.54023100  0.43060500  1
  Ca  Ca8  1  0.99292000  0.95407400  0.20518400  1
  Ca  Ca9  1  0.49292000  0.54592600  0.79481600  1
  Ca  Ca10  1  0.00708000  0.45407400  0.29481600  1
  Ca  Ca11  1  0.50708000  0.04592600  0.70518400  1
  Ca  Ca12  1  0.49292000  0.95407400  0.29481600  1
  Ca  Ca13  1  0.99292000  0.54592600  0.70518400  1
  Ca  Ca14  1  0.50708000  0.45407400  0.20518400  1
  Ca  Ca15  1  0.00708000  0.04592600  0.79481600  1
  Ti  Ti16  1  0.00000000  0.50000000  0.00000000  1
  Ti  Ti17  1  0.50000000  0.00000000  0.00000000  1
  Ti  Ti18  1  0.00000000  0.00000000  0.50000000  1
  Ti  Ti19  1  0.50000000  0.50000000  0.50000000  1
  Ti  Ti20  1  0.50171500  0.98671500  0.14256800  1
  Ti  Ti21  1  0.00171500  0.51328500  0.85743200  1
  Ti  Ti22  1  0.49828500  0.48671500  0.35743200  1
  Ti  Ti23  1  0.99828500  0.01328500  0.64256800  1
  Ti  Ti24  1  0.49828500  0.01328500  0.85743200  1
  Ti  Ti25  1  0.99828500  0.48671500  0.14256800  1
  Ti  Ti26  1  0.50171500  0.51328500  0.64256800  1
  Ti  Ti27  1  0.00171500  0.98671500  0.35743200  1
  O  O28  1  0.70971500  0.20989400  0.51110400  1
  O  O29  1  0.20971500  0.29010600  0.48889600  1
  O  O30  1  0.29028500  0.70989400  0.98889600  1
  O  O31  1  0.79028500  0.79010600  0.01110400  1
  O  O32  1  0.29028500  0.79010600  0.48889600  1
  O  O33  1  0.79028500  0.70989400  0.51110400  1
  O  O34  1  0.70971500  0.29010600  0.01110400  1
  O  O35  1  0.20971500  0.20989400  0.98889600  1
  O  O36  1  0.79102700  0.71350800  0.34784000  1
  O  O37  1  0.29102700  0.78649200  0.65216000  1
  O  O38  1  0.20897300  0.21350800  0.15216000  1
  O  O39  1  0.70897300  0.28649200  0.84784000  1
  O  O40  1  0.20897300  0.28649200  0.65216000  1
  O  O41  1  0.70897300  0.21350800  0.34784000  1
  O  O42  1  0.79102700  0.78649200  0.84784000  1
  O  O43  1  0.29102700  0.71350800  0.15216000  1
  O  O44  1  0.93132300  0.97685300  0.71249400  1
  O  O45  1  0.20990300  0.29562400  0.36940600  1
  O  O46  1  0.79009700  0.79562400  0.13059400  1
  O  O47  1  0.29009700  0.70437600  0.86940600  1
  O  O48  1  0.79009700  0.70437600  0.63059400  1
  O  O49  1  0.29009700  0.79562400  0.36940600  1
  O  O50  1  0.20990300  0.20437600  0.86940600  1
  O  O51  1  0.70990300  0.29562400  0.13059400  1
  O  O52  1  0.06867700  0.02314700  0.28750600  1
  O  O53  1  0.56867700  0.47685300  0.71249400  1
  O  O54  1  0.93132300  0.52314700  0.21249400  1
  O  O55  1  0.43132300  0.97685300  0.78750600  1
  O  O56  1  0.42448700  0.98201400  0.07056800  1
  O  O57  1  0.92448700  0.51798600  0.92943200  1
  O  O58  1  0.57551300  0.48201400  0.42943200  1
  O  O59  1  0.07551300  0.01798600  0.57056800  1
  O  O60  1  0.57551300  0.01798600  0.92943200  1
  O  O61  1  0.07551300  0.48201400  0.07056800  1
  O  O62  1  0.42448700  0.51798600  0.57056800  1
  O  O63  1  0.92448700  0.98201400  0.42943200  1
  O  O64  1  0.56867700  0.02314700  0.21249400  1
  O  O65  1  0.06867700  0.47685300  0.78750600  1
  O  O66  1  0.43132300  0.52314700  0.28750600  1
  O  O67  1  0.70990300  0.20437600  0.63059400  1
