# generated using pymatgen
data_SmSi3Pt5
_symmetry_space_group_name_H-M   'P 1'
_cell_length_a   16.05358574
_cell_length_b   16.05358574
_cell_length_c   4.00916700
_cell_angle_alpha   90.00000000
_cell_angle_beta   90.00000000
_cell_angle_gamma   119.99999894
_symmetry_Int_Tables_number   1
_chemical_formula_structural   SmSi3Pt5
_chemical_formula_sum   'Sm6 Si18 Pt30'
_cell_volume   894.80599932
_cell_formula_units_Z   6
loop_
 _symmetry_equiv_pos_site_id
 _symmetry_equiv_pos_as_xyz
  1  'x, y, z'
loop_
 _atom_site_type_symbol
 _atom_site_label
 _atom_site_symmetry_multiplicity
 _atom_site_fract_x
 _atom_site_fract_y
 _atom_site_fract_z
 _atom_site_occupancy
  Sm  Sm0  1  0.60939900  0.90324500  0.25000000  1
  Sm  Sm1  1  0.70615400  0.60939900  0.75000000  1
  Sm  Sm2  1  0.90324500  0.29384600  0.75000000  1
  Sm  Sm3  1  0.09675500  0.70615400  0.25000000  1
  Sm  Sm4  1  0.29384600  0.39060100  0.25000000  1
  Sm  Sm5  1  0.39060100  0.09675500  0.75000000  1
  Si  Si6  1  0.44899200  0.76718700  0.75000000  1
  Si  Si7  1  0.62677600  0.06090500  0.75000000  1
  Si  Si8  1  0.56587100  0.62677600  0.25000000  1
  Si  Si9  1  0.06090500  0.43412900  0.25000000  1
  Si  Si10  1  0.93909500  0.56587100  0.75000000  1
  Si  Si11  1  0.43412900  0.37322400  0.75000000  1
  Si  Si12  1  0.68180500  0.44899200  0.25000000  1
  Si  Si13  1  0.76718700  0.31819500  0.25000000  1
  Si  Si14  1  0.23281300  0.68180500  0.75000000  1
  Si  Si15  1  0.31819500  0.55100800  0.75000000  1
  Si  Si16  1  0.55100800  0.23281300  0.25000000  1
  Si  Si17  1  0.37322400  0.93909500  0.25000000  1
  Si  Si18  1  0.75091000  0.88302800  0.75000000  1
  Si  Si19  1  0.88302800  0.13211800  0.25000000  1
  Si  Si20  1  0.11697200  0.86788200  0.75000000  1
  Si  Si21  1  0.13211800  0.24909000  0.75000000  1
  Si  Si22  1  0.24909000  0.11697200  0.25000000  1
  Si  Si23  1  0.86788200  0.75091000  0.25000000  1
  Pt  Pt24  1  0.58847500  0.74461300  0.75000000  1
  Pt  Pt25  1  0.43540100  0.66511600  0.25000000  1
  Pt  Pt26  1  0.22971500  0.56459900  0.25000000  1
  Pt  Pt27  1  0.66511600  0.22971500  0.75000000  1
  Pt  Pt28  1  0.56459900  0.33488400  0.75000000  1
  Pt  Pt29  1  0.33488400  0.77028500  0.25000000  1
  Pt  Pt30  1  0.14967800  0.03156300  0.75000000  1
  Pt  Pt31  1  0.11811500  0.14967800  0.25000000  1
  Pt  Pt32  1  0.03156300  0.88188500  0.25000000  1
  Pt  Pt33  1  0.96843700  0.11811500  0.75000000  1
  Pt  Pt34  1  0.88188500  0.85032200  0.75000000  1
  Pt  Pt35  1  0.85032200  0.96843700  0.25000000  1
  Pt  Pt36  1  0.84386100  0.58847500  0.25000000  1
  Pt  Pt37  1  0.74461300  0.15613900  0.25000000  1
  Pt  Pt38  1  0.25538700  0.84386100  0.75000000  1
  Pt  Pt39  1  0.15613900  0.41152500  0.75000000  1
  Pt  Pt40  1  0.41152500  0.25538700  0.25000000  1
  Pt  Pt41  1  0.46580600  0.92352900  0.75000000  1
  Pt  Pt42  1  0.54227700  0.46580600  0.25000000  1
  Pt  Pt43  1  0.92352900  0.45772300  0.25000000  1
  Pt  Pt44  1  0.07647100  0.54227700  0.75000000  1
  Pt  Pt45  1  0.45772300  0.53419400  0.75000000  1
  Pt  Pt46  1  0.53419400  0.07647100  0.25000000  1
  Pt  Pt47  1  0.72414300  0.76462000  0.25000000  1
  Pt  Pt48  1  0.95952300  0.72414300  0.75000000  1
  Pt  Pt49  1  0.76462000  0.04047700  0.75000000  1
  Pt  Pt50  1  0.23538000  0.95952300  0.25000000  1
  Pt  Pt51  1  0.04047700  0.27585700  0.25000000  1
  Pt  Pt52  1  0.27585700  0.23538000  0.75000000  1
  Pt  Pt53  1  0.77028500  0.43540100  0.75000000  1
