# generated using pymatgen
data_CaCr(GeO3)2
_symmetry_space_group_name_H-M   'P 1'
_cell_length_a   5.48808999
_cell_length_b   10.37442199
_cell_length_c   9.40772503
_cell_angle_alpha   90.00787519
_cell_angle_beta   90.00539426
_cell_angle_gamma   104.51739712
_symmetry_Int_Tables_number   1
_chemical_formula_structural   CaCr(GeO3)2
_chemical_formula_sum   'Ca4 Cr4 Ge8 O24'
_cell_volume   518.53396347
_cell_formula_units_Z   4
loop_
 _symmetry_equiv_pos_site_id
 _symmetry_equiv_pos_as_xyz
  1  'x, y, z'
loop_
 _atom_site_type_symbol
 _atom_site_label
 _atom_site_symmetry_multiplicity
 _atom_site_fract_x
 _atom_site_fract_y
 _atom_site_fract_z
 _atom_site_occupancy
  Ca  Ca0  1  0.25000800  0.50000000  0.19719700  1
  Ca  Ca1  1  0.74998500  0.99998500  0.69715300  1
  Ca  Ca2  1  0.75003900  0.50002000  0.80283900  1
  Ca  Ca3  1  0.25002900  0.00000100  0.30282700  1
  Cr  Cr4  1  0.75002300  0.00003000  0.09324300  1
  Cr  Cr5  1  0.75000200  0.50000300  0.40675000  1
  Cr  Cr6  1  0.25000300  0.49999800  0.59323400  1
  Cr  Cr7  1  0.25000000  0.00000200  0.90676700  1
  Ge  Ge8  1  0.06404500  0.28506900  0.90256200  1
  Ge  Ge9  1  0.56401500  0.78505200  0.40258200  1
  Ge  Ge10  1  0.43595100  0.71494200  0.90260200  1
  Ge  Ge11  1  0.93593000  0.21492700  0.40256900  1
  Ge  Ge12  1  0.93597300  0.71494700  0.09743300  1
  Ge  Ge13  1  0.43596100  0.21494000  0.59742100  1
  Ge  Ge14  1  0.56404900  0.28506500  0.09740800  1
  Ge  Ge15  1  0.06405700  0.78506400  0.59741600  1
  O  O16  1  0.88108000  0.35579000  0.03180900  1
  O  O17  1  0.38109300  0.85580000  0.53182300  1
  O  O18  1  0.61891800  0.64420400  0.03181500  1
  O  O19  1  0.11890400  0.14420000  0.53178400  1
  O  O20  1  0.11891200  0.64420600  0.96819500  1
  O  O21  1  0.61891000  0.14420200  0.46818000  1
  O  O22  1  0.38109600  0.35580600  0.96819600  1
  O  O23  1  0.88108000  0.85579200  0.46819500  1
  O  O24  1  0.51810500  0.36472000  0.25293200  1
  O  O25  1  0.01812700  0.86473400  0.75292700  1
  O  O26  1  0.98187000  0.63526400  0.25292800  1
  O  O27  1  0.48188900  0.13526000  0.75290500  1
  O  O28  1  0.48188100  0.63527300  0.74708900  1
  O  O29  1  0.98183100  0.13524100  0.24705600  1
  O  O30  1  0.01812600  0.36474900  0.74707700  1
  O  O31  1  0.51804900  0.86469900  0.24708400  1
  O  O32  1  0.98123700  0.11004600  0.90354400  1
  O  O33  1  0.48118400  0.61002300  0.40362000  1
  O  O34  1  0.51884000  0.88998100  0.90364200  1
  O  O35  1  0.01880600  0.38995900  0.40359400  1
  O  O36  1  0.01881300  0.88997400  0.09640200  1
  O  O37  1  0.51880100  0.38996800  0.59639600  1
  O  O38  1  0.48117800  0.11003300  0.09639300  1
  O  O39  1  0.98120100  0.61003100  0.59641100  1
