# generated using pymatgen
data_CaFeP2O7
_symmetry_space_group_name_H-M   'P 1'
_cell_length_a   6.22098415
_cell_length_b   10.45541683
_cell_length_c   9.20787947
_cell_angle_alpha   84.24340128
_cell_angle_beta   103.39956821
_cell_angle_gamma   75.69258550
_symmetry_Int_Tables_number   1
_chemical_formula_structural   CaFeP2O7
_chemical_formula_sum   'Ca4 Fe4 P8 O28'
_cell_volume   556.59038364
_cell_formula_units_Z   4
loop_
 _symmetry_equiv_pos_site_id
 _symmetry_equiv_pos_as_xyz
  1  'x, y, z'
loop_
 _atom_site_type_symbol
 _atom_site_label
 _atom_site_symmetry_multiplicity
 _atom_site_fract_x
 _atom_site_fract_y
 _atom_site_fract_z
 _atom_site_occupancy
  Ca  Ca0  1  0.30356300  0.67389300  0.96838600  1
  Ca  Ca1  1  0.30356000  0.17386500  0.46841000  1
  Ca  Ca2  1  0.69647700  0.32609500  0.03163900  1
  Ca  Ca3  1  0.69656200  0.82612600  0.53168800  1
  Fe  Fe4  1  0.25486800  0.66158600  0.53151900  1
  Fe  Fe5  1  0.74535800  0.33857800  0.46853300  1
  Fe  Fe6  1  0.25493600  0.16163200  0.03151800  1
  Fe  Fe7  1  0.74517100  0.83833800  0.96848100  1
  P  P8  1  0.16775600  0.38912100  0.73002000  1
  P  P9  1  0.16776100  0.88914000  0.23008400  1
  P  P10  1  0.83223500  0.61094600  0.27001100  1
  P  P11  1  0.83225100  0.11085100  0.76992000  1
  P  P12  1  0.23563400  0.41792600  0.20025500  1
  P  P13  1  0.23576800  0.91793700  0.70029000  1
  P  P14  1  0.76434400  0.58205900  0.79974900  1
  P  P15  1  0.76426200  0.08202300  0.29971100  1
  O  O16  1  0.08367300  0.82387600  0.09344800  1
  O  O17  1  0.08366700  0.32389100  0.59340200  1
  O  O18  1  0.91635300  0.17608300  0.90656300  1
  O  O19  1  0.91632400  0.67608700  0.40667100  1
  O  O20  1  0.25504700  0.50816500  0.69022100  1
  O  O21  1  0.25508200  0.00816900  0.19050000  1
  O  O22  1  0.74467900  0.49197300  0.30965600  1
  O  O23  1  0.74472700  0.99182900  0.80943000  1
  O  O24  1  0.33470400  0.28414000  0.86376800  1
  O  O25  1  0.33468300  0.78417400  0.36385800  1
  O  O26  1  0.66531200  0.71588800  0.13621900  1
  O  O27  1  0.66536600  0.21582400  0.63614200  1
  O  O28  1  0.63669300  0.54098500  0.91069300  1
  O  O29  1  0.63670100  0.04090200  0.41064100  1
  O  O30  1  0.36323600  0.45902800  0.08932100  1
  O  O31  1  0.36334500  0.95901400  0.58931300  1
  O  O32  1  0.10039000  0.31815900  0.14674700  1
  O  O33  1  0.10066700  0.81814300  0.64677300  1
  O  O34  1  0.89958600  0.68182700  0.85321200  1
  O  O35  1  0.89930400  0.18185900  0.35320900  1
  O  O36  1  0.05824800  0.55632400  0.20795700  1
  O  O37  1  0.05836100  0.05629900  0.70792500  1
  O  O38  1  0.94166600  0.44365600  0.79205100  1
  O  O39  1  0.94163700  0.94365000  0.29210100  1
  O  O40  1  0.60833100  0.13787600  0.13832800  1
  O  O41  1  0.60845000  0.63788400  0.63838600  1
  O  O42  1  0.39157900  0.36209100  0.36160600  1
  O  O43  1  0.39168900  0.86209200  0.86164800  1
