# generated using pymatgen
data_ZnCoP2O7
_symmetry_space_group_name_H-M   'P 1'
_cell_length_a   6.41364858
_cell_length_b   8.37837160
_cell_length_c   10.34027591
_cell_angle_alpha   89.18880716
_cell_angle_beta   106.52028821
_cell_angle_gamma   79.60951098
_symmetry_Int_Tables_number   1
_chemical_formula_structural   ZnCoP2O7
_chemical_formula_sum   'Zn4 Co4 P8 O28'
_cell_volume   522.70793995
_cell_formula_units_Z   4
loop_
 _symmetry_equiv_pos_site_id
 _symmetry_equiv_pos_as_xyz
  1  'x, y, z'
loop_
 _atom_site_type_symbol
 _atom_site_label
 _atom_site_symmetry_multiplicity
 _atom_site_fract_x
 _atom_site_fract_y
 _atom_site_fract_z
 _atom_site_occupancy
  Zn  Zn0  1  0.84645300  0.63400400  0.56234600  1
  Zn  Zn1  1  0.34844500  0.13401000  0.06309700  1
  Zn  Zn2  1  0.15297800  0.36518500  0.43809900  1
  Zn  Zn3  1  0.65171800  0.86515800  0.93660900  1
  Co  Co4  1  0.32049600  0.56635900  0.23310400  1
  Co  Co5  1  0.17949800  0.93622200  0.26910600  1
  Co  Co6  1  0.82881300  0.06372800  0.73616500  1
  Co  Co7  1  0.67847800  0.43395400  0.76721100  1
  P  P8  1  0.67599000  0.30350200  0.46936900  1
  P  P9  1  0.17650000  0.80254400  0.96765000  1
  P  P10  1  0.32325800  0.69676100  0.53293700  1
  P  P11  1  0.82421100  0.19609200  0.03180400  1
  P  P12  1  0.28666800  0.03476500  0.63991200  1
  P  P13  1  0.78658500  0.53303900  0.14143200  1
  P  P14  1  0.71317400  0.96702500  0.35862200  1
  P  P15  1  0.21341000  0.46575600  0.85885400  1
  O  O16  1  0.22817200  0.85616500  0.59454100  1
  O  O17  1  0.72892600  0.35554600  0.09267100  1
  O  O18  1  0.76981100  0.14424700  0.40746300  1
  O  O19  1  0.27314800  0.64261700  0.90819900  1
  O  O20  1  0.43992500  0.37622900  0.37997000  1
  O  O21  1  0.93981500  0.87151700  0.87664800  1
  O  O22  1  0.55976100  0.62534500  0.62199800  1
  O  O23  1  0.06029800  0.12462000  0.12112500  1
  O  O24  1  0.73527100  0.86618300  0.48827900  1
  O  O25  1  0.23613700  0.36609700  0.98934700  1
  O  O26  1  0.26379600  0.13062900  0.50730900  1
  O  O27  1  0.76380300  0.63305800  0.01108400  1
  O  O28  1  0.88318900  0.90955100  0.28571100  1
  O  O29  1  0.38315200  0.40743100  0.78604300  1
  O  O30  1  0.11488300  0.09868400  0.71018400  1
  O  O31  1  0.61650200  0.59101600  0.21415500  1
  O  O32  1  0.15817600  0.58460000  0.53373600  1
  O  O33  1  0.65881900  0.08388600  0.03211400  1
  O  O34  1  0.84197500  0.41499300  0.46789100  1
  O  O35  1  0.33939800  0.91603800  0.96476400  1
  O  O36  1  0.32956600  0.73509400  0.38880700  1
  O  O37  1  0.83154400  0.23446000  0.88783300  1
  O  O38  1  0.66910900  0.26473000  0.61309000  1
  O  O39  1  0.16927500  0.76681200  0.11180100  1
  O  O40  1  0.47239300  0.00773300  0.26221200  1
  O  O41  1  0.97240700  0.50791300  0.76346800  1
  O  O42  1  0.52658200  0.99452200  0.73603200  1
  O  O43  1  0.02749500  0.49218200  0.23720800  1
