# generated using pymatgen
data_Ca2MnSbO6
_symmetry_space_group_name_H-M   'P 1'
_cell_length_a   5.56227519
_cell_length_b   9.61389467
_cell_length_c   9.53173231
_cell_angle_alpha   73.31828333
_cell_angle_beta   88.00166103
_cell_angle_gamma   92.73700441
_symmetry_Int_Tables_number   1
_chemical_formula_structural   Ca2MnSbO6
_chemical_formula_sum   'Ca8 Mn4 Sb4 O24'
_cell_volume   487.07305650
_cell_formula_units_Z   4
loop_
 _symmetry_equiv_pos_site_id
 _symmetry_equiv_pos_as_xyz
  1  'x, y, z'
loop_
 _atom_site_type_symbol
 _atom_site_label
 _atom_site_symmetry_multiplicity
 _atom_site_fract_x
 _atom_site_fract_y
 _atom_site_fract_z
 _atom_site_occupancy
  Ca  Ca0  1  0.51620900  0.40083600  0.84760900  1
  Ca  Ca1  1  0.51608900  0.90068300  0.34767500  1
  Ca  Ca2  1  0.99779500  0.15147800  0.09902800  1
  Ca  Ca3  1  0.99779700  0.65162100  0.59908400  1
  Ca  Ca4  1  0.48391100  0.59929100  0.15232200  1
  Ca  Ca5  1  0.48375200  0.09919400  0.65240900  1
  Ca  Ca6  1  0.00217300  0.84839400  0.90092300  1
  Ca  Ca7  1  0.00224300  0.34852800  0.40092900  1
  Mn  Mn8  1  0.99997600  0.75000400  0.24995700  1
  Mn  Mn9  1  0.50005300  0.75001800  0.75003900  1
  Mn  Mn10  1  0.99994100  0.25001800  0.74993200  1
  Mn  Mn11  1  0.50008800  0.24995600  0.25006300  1
  Sb  Sb12  1  0.00001300  0.49992300  0.00002900  1
  Sb  Sb13  1  0.00000400  0.00004300  0.49996600  1
  Sb  Sb14  1  0.49996400  0.00000000  0.00001200  1
  Sb  Sb15  1  0.50000800  0.50002400  0.49999600  1
  O  O16  1  0.78236300  0.43121200  0.61566600  1
  O  O17  1  0.78239500  0.93109500  0.11565200  1
  O  O18  1  0.69523600  0.37158900  0.07689400  1
  O  O19  1  0.69530400  0.87148000  0.57692000  1
  O  O20  1  0.21761000  0.56888900  0.38432100  1
  O  O21  1  0.21759600  0.06878200  0.88436000  1
  O  O22  1  0.30470800  0.62851900  0.92308000  1
  O  O23  1  0.30477100  0.12839800  0.42314200  1
  O  O24  1  0.18281600  0.38567600  0.16448300  1
  O  O25  1  0.18278600  0.88558400  0.66445700  1
  O  O26  1  0.29920500  0.82462900  0.12856300  1
  O  O27  1  0.29910800  0.32462100  0.62849400  1
  O  O28  1  0.81719100  0.61443300  0.83557600  1
  O  O29  1  0.81722200  0.11432600  0.33551000  1
  O  O30  1  0.70086200  0.17538300  0.87149300  1
  O  O31  1  0.70081600  0.67537000  0.37143700  1
  O  O32  1  0.40494600  0.60951700  0.64452200  1
  O  O33  1  0.40499500  0.10946200  0.14457300  1
  O  O34  1  0.09536800  0.35711100  0.88964600  1
  O  O35  1  0.09534700  0.85711600  0.38962200  1
  O  O36  1  0.59503400  0.39052500  0.35546100  1
  O  O37  1  0.59505800  0.89052400  0.85547200  1
  O  O38  1  0.90466000  0.64286900  0.11036600  1
  O  O39  1  0.90458900  0.14287700  0.61031800  1
