# generated using pymatgen
data_O2
_symmetry_space_group_name_H-M   'P 1'
_cell_length_a   5.18472417
_cell_length_b   5.18472417
_cell_length_c   5.18472440
_cell_angle_alpha   56.86540217
_cell_angle_beta   56.86540217
_cell_angle_gamma   56.86540387
_symmetry_Int_Tables_number   1
_chemical_formula_structural   O2
_chemical_formula_sum   O6
_cell_volume   91.42355083
_cell_formula_units_Z   3
loop_
 _symmetry_equiv_pos_site_id
 _symmetry_equiv_pos_as_xyz
  1  'x, y, z'
loop_
 _atom_site_type_symbol
 _atom_site_label
 _atom_site_symmetry_multiplicity
 _atom_site_fract_x
 _atom_site_fract_y
 _atom_site_fract_z
 _atom_site_occupancy
  O  O0  1  0.06816100  0.26482600  0.92688200  1
  O  O1  1  0.26482600  0.92688200  0.06816100  1
  O  O2  1  0.92688200  0.06816100  0.26482600  1
  O  O3  1  0.56816100  0.42688200  0.76482600  1
  O  O4  1  0.76482600  0.56816100  0.42688200  1
  O  O5  1  0.42688200  0.76482600  0.56816100  1
