# generated using pymatgen
data_K2Ni2(SO4)3
_symmetry_space_group_name_H-M   'P 1'
_cell_length_a   9.95645900
_cell_length_b   9.95645900
_cell_length_c   9.95645900
_cell_angle_alpha   90.00000000
_cell_angle_beta   90.00000000
_cell_angle_gamma   90.00000000
_symmetry_Int_Tables_number   1
_chemical_formula_structural   K2Ni2(SO4)3
_chemical_formula_sum   'K8 Ni8 S12 O48'
_cell_volume   986.99449201
_cell_formula_units_Z   4
loop_
 _symmetry_equiv_pos_site_id
 _symmetry_equiv_pos_as_xyz
  1  'x, y, z'
loop_
 _atom_site_type_symbol
 _atom_site_label
 _atom_site_symmetry_multiplicity
 _atom_site_fract_x
 _atom_site_fract_y
 _atom_site_fract_z
 _atom_site_occupancy
  K  K0  1  0.68605900  0.18605900  0.31394100  1
  K  K1  1  0.31394100  0.68605900  0.18605900  1
  K  K2  1  0.94960400  0.55039600  0.44960400  1
  K  K3  1  0.18605900  0.31394100  0.68605900  1
  K  K4  1  0.05039600  0.05039600  0.05039600  1
  K  K5  1  0.44960400  0.94960400  0.55039600  1
  K  K6  1  0.55039600  0.44960400  0.94960400  1
  K  K7  1  0.81394100  0.81394100  0.81394100  1
  Ni  Ni8  1  0.33615400  0.33615400  0.33615400  1
  Ni  Ni9  1  0.16384600  0.66384600  0.83615400  1
  Ni  Ni10  1  0.83615400  0.16384600  0.66384600  1
  Ni  Ni11  1  0.66384600  0.83615400  0.16384600  1
  Ni  Ni12  1  0.59231300  0.59231300  0.59231300  1
  Ni  Ni13  1  0.09231300  0.90768700  0.40768700  1
  Ni  Ni14  1  0.40768700  0.09231300  0.90768700  1
  Ni  Ni15  1  0.90768700  0.40768700  0.09231300  1
  S  S16  1  0.28210700  0.62178600  0.52232600  1
  S  S17  1  0.78210700  0.87821400  0.47767400  1
  S  S18  1  0.71789300  0.12178600  0.97767400  1
  S  S19  1  0.87821400  0.47767400  0.78210700  1
  S  S20  1  0.97767400  0.71789300  0.12178600  1
  S  S21  1  0.47767400  0.78210700  0.87821400  1
  S  S22  1  0.62178600  0.52232600  0.28210700  1
  S  S23  1  0.52232600  0.28210700  0.62178600  1
  S  S24  1  0.12178600  0.97767400  0.71789300  1
  S  S25  1  0.21789300  0.37821400  0.02232600  1
  S  S26  1  0.02232600  0.21789300  0.37821400  1
  S  S27  1  0.37821400  0.02232600  0.21789300  1
  O  O28  1  0.25642900  0.59399300  0.66618600  1
  O  O29  1  0.75642900  0.90600700  0.33381400  1
  O  O30  1  0.74357100  0.09399300  0.83381400  1
  O  O31  1  0.90600700  0.33381400  0.75642900  1
  O  O32  1  0.83381400  0.74357100  0.09399300  1
  O  O33  1  0.33381400  0.75642900  0.90600700  1
  O  O34  1  0.59399300  0.66618600  0.25642900  1
  O  O35  1  0.66618600  0.25642900  0.59399300  1
  O  O36  1  0.09399300  0.83381400  0.74357100  1
  O  O37  1  0.40600700  0.16618600  0.24357100  1
  O  O38  1  0.16618600  0.24357100  0.40600700  1
  O  O39  1  0.24357100  0.40600700  0.16618600  1
  O  O40  1  0.25704200  0.49452500  0.44691600  1
  O  O41  1  0.75704200  0.00547500  0.55308400  1
  O  O42  1  0.74295800  0.99452500  0.05308400  1
  O  O43  1  0.00547500  0.55308400  0.75704200  1
  O  O44  1  0.05308400  0.74295800  0.99452500  1
  O  O45  1  0.55308400  0.75704200  0.00547500  1
  O  O46  1  0.99709300  0.57607200  0.16959300  1
  O  O47  1  0.49452500  0.44691600  0.25704200  1
  O  O48  1  0.99452500  0.05308400  0.74295800  1
  O  O49  1  0.50547500  0.94691600  0.24295800  1
  O  O50  1  0.94691600  0.24295800  0.50547500  1
  O  O51  1  0.24295800  0.50547500  0.94691600  1
  O  O52  1  0.42392800  0.66959300  0.50290700  1
  O  O53  1  0.92392800  0.83040700  0.49709300  1
  O  O54  1  0.57607200  0.16959300  0.99709300  1
  O  O55  1  0.83040700  0.49709300  0.92392800  1
  O  O56  1  0.30942700  0.27574000  0.96492200  1
  O  O57  1  0.96492200  0.30942700  0.27574000  1
  O  O58  1  0.27574000  0.96492200  0.30942700  1
  O  O59  1  0.22426000  0.03507800  0.80942700  1
  O  O60  1  0.46492200  0.19057300  0.72426000  1
  O  O61  1  0.72426000  0.46492200  0.19057300  1
  O  O62  1  0.53507800  0.69057300  0.77574000  1
  O  O63  1  0.03507800  0.80942700  0.22426000  1
  O  O64  1  0.77574000  0.53507800  0.69057300  1
  O  O65  1  0.80942700  0.22426000  0.03507800  1
  O  O66  1  0.69057300  0.77574000  0.53507800  1
  O  O67  1  0.19057300  0.72426000  0.46492200  1
  O  O68  1  0.07607200  0.33040700  0.00290700  1
  O  O69  1  0.00290700  0.07607200  0.33040700  1
  O  O70  1  0.33040700  0.00290700  0.07607200  1
  O  O71  1  0.16959300  0.99709300  0.57607200  1
  O  O72  1  0.50290700  0.42392800  0.66959300  1
  O  O73  1  0.66959300  0.50290700  0.42392800  1
  O  O74  1  0.49709300  0.92392800  0.83040700  1
  O  O75  1  0.44691600  0.25704200  0.49452500  1
