# generated using pymatgen
data_Sr2Sb
_symmetry_space_group_name_H-M   'P 1'
_cell_length_a   9.61816614
_cell_length_b   9.61816614
_cell_length_c   9.61816614
_cell_angle_alpha   149.45402149
_cell_angle_beta   149.45402149
_cell_angle_gamma   43.74343504
_symmetry_Int_Tables_number   1
_chemical_formula_structural   Sr2Sb
_chemical_formula_sum   'Sr4 Sb2'
_cell_volume   229.18498686
_cell_formula_units_Z   2
loop_
 _symmetry_equiv_pos_site_id
 _symmetry_equiv_pos_as_xyz
  1  'x, y, z'
loop_
 _atom_site_type_symbol
 _atom_site_label
 _atom_site_symmetry_multiplicity
 _atom_site_fract_x
 _atom_site_fract_y
 _atom_site_fract_z
 _atom_site_occupancy
  Sr  Sr0  1  0.00000000  0.50000000  0.50000000  1
  Sr  Sr1  1  0.50000000  0.00000000  0.50000000  1
  Sr  Sr2  1  0.32203400  0.32203400  0.00000000  1
  Sr  Sr3  1  0.67796600  0.67796600  0.00000000  1
  Sb  Sb4  1  0.13494800  0.13494800  0.00000000  1
  Sb  Sb5  1  0.86505200  0.86505200  0.00000000  1
