# generated using pymatgen
data_AsRu
_symmetry_space_group_name_H-M   'P 1'
_cell_length_a   3.35268300
_cell_length_b   5.76623400
_cell_length_c   6.42637000
_cell_angle_alpha   90.00000000
_cell_angle_beta   90.00000000
_cell_angle_gamma   90.00000000
_symmetry_Int_Tables_number   1
_chemical_formula_structural   AsRu
_chemical_formula_sum   'As4 Ru4'
_cell_volume   124.23686431
_cell_formula_units_Z   4
loop_
 _symmetry_equiv_pos_site_id
 _symmetry_equiv_pos_as_xyz
  1  'x, y, z'
loop_
 _atom_site_type_symbol
 _atom_site_label
 _atom_site_symmetry_multiplicity
 _atom_site_fract_x
 _atom_site_fract_y
 _atom_site_fract_z
 _atom_site_occupancy
  As  As0  1  0.25000000  0.69644700  0.06817200  1
  As  As1  1  0.75000000  0.30355300  0.93182800  1
  As  As2  1  0.25000000  0.19644700  0.43182800  1
  As  As3  1  0.75000000  0.80355300  0.56817200  1
  Ru  Ru4  1  0.25000000  0.50166500  0.70374000  1
  Ru  Ru5  1  0.75000000  0.49833500  0.29626000  1
  Ru  Ru6  1  0.25000000  0.00166500  0.79626000  1
  Ru  Ru7  1  0.75000000  0.99833500  0.20374000  1
