# generated using pymatgen
data_CrAs2
_symmetry_space_group_name_H-M   'P 1'
_cell_length_a   4.74370727
_cell_length_b   4.74370727
_cell_length_c   7.42636643
_cell_angle_alpha   62.07268016
_cell_angle_beta   62.07268016
_cell_angle_gamma   39.76447331
_symmetry_Int_Tables_number   1
_chemical_formula_structural   CrAs2
_chemical_formula_sum   'Cr2 As4'
_cell_volume   92.69155088
_cell_formula_units_Z   2
loop_
 _symmetry_equiv_pos_site_id
 _symmetry_equiv_pos_as_xyz
  1  'x, y, z'
loop_
 _atom_site_type_symbol
 _atom_site_label
 _atom_site_symmetry_multiplicity
 _atom_site_fract_x
 _atom_site_fract_y
 _atom_site_fract_z
 _atom_site_occupancy
  Cr  Cr0  1  0.84711100  0.84711100  0.69979000  1
  Cr  Cr1  1  0.15288900  0.15288900  0.30021000  1
  As  As2  1  0.59631400  0.59631400  0.60546600  1
  As  As3  1  0.40368600  0.40368600  0.39453400  1
  As  As4  1  0.15022600  0.15022600  0.96309000  1
  As  As5  1  0.84977400  0.84977400  0.03691000  1
