# generated using pymatgen
data_Ca3CoO6
_symmetry_space_group_name_H-M   'P 1'
_cell_length_a   6.35115211
_cell_length_b   6.35193392
_cell_length_c   6.38829291
_cell_angle_alpha   87.83337605
_cell_angle_beta   88.13096859
_cell_angle_gamma   88.12449278
_symmetry_Int_Tables_number   1
_chemical_formula_structural   Ca3CoO6
_chemical_formula_sum   'Ca6 Co2 O12'
_cell_volume   257.26788216
_cell_formula_units_Z   2
loop_
 _symmetry_equiv_pos_site_id
 _symmetry_equiv_pos_as_xyz
  1  'x, y, z'
loop_
 _atom_site_type_symbol
 _atom_site_label
 _atom_site_symmetry_multiplicity
 _atom_site_fract_x
 _atom_site_fract_y
 _atom_site_fract_z
 _atom_site_occupancy
  Ca  Ca0  1  0.39611100  0.10336400  0.74744300  1
  Ca  Ca1  1  0.10409300  0.75046400  0.39936500  1
  Ca  Ca2  1  0.25102900  0.60215400  0.89585800  1
  Ca  Ca3  1  0.60399100  0.89908300  0.25030300  1
  Ca  Ca4  1  0.89720000  0.24713200  0.60152300  1
  Ca  Ca5  1  0.74973900  0.39576000  0.10167600  1
  Co  Co6  1  0.49673600  0.50161300  0.49879800  1
  Co  Co7  1  0.99577400  0.99853000  0.00104300  1
  O  O8  1  0.43219700  0.77602300  0.56752300  1
  O  O9  1  0.92522700  0.71649800  0.07322800  1
  O  O10  1  0.77903200  0.57961200  0.43307100  1
  O  O11  1  0.42463000  0.57334300  0.21716100  1
  O  O12  1  0.27767900  0.93379000  0.07755000  1
  O  O13  1  0.22163600  0.42630500  0.57107700  1
  O  O14  1  0.57776200  0.43406100  0.77112300  1
  O  O15  1  0.06739300  0.92330300  0.72898800  1
  O  O16  1  0.92977700  0.06838900  0.27702000  1
  O  O17  1  0.08024200  0.27060200  0.93698800  1
  O  O18  1  0.72420900  0.06906600  0.92674100  1
  O  O19  1  0.56554200  0.23090800  0.42352100  1
