# generated using pymatgen
data_Mn3(P2O7)2
_symmetry_space_group_name_H-M   'P 1'
_cell_length_a   6.04070977
_cell_length_b   13.33368024
_cell_length_c   7.71860699
_cell_angle_alpha   88.25058675
_cell_angle_beta   73.63165861
_cell_angle_gamma   101.94097002
_symmetry_Int_Tables_number   1
_chemical_formula_structural   Mn3(P2O7)2
_chemical_formula_sum   'Mn6 P8 O28'
_cell_volume   580.97035152
_cell_formula_units_Z   2
loop_
 _symmetry_equiv_pos_site_id
 _symmetry_equiv_pos_as_xyz
  1  'x, y, z'
loop_
 _atom_site_type_symbol
 _atom_site_label
 _atom_site_symmetry_multiplicity
 _atom_site_fract_x
 _atom_site_fract_y
 _atom_site_fract_z
 _atom_site_occupancy
  Mn  Mn0  1  0.48798900  0.50345600  0.99285600  1
  Mn  Mn1  1  0.51562000  0.76389800  0.66485700  1
  Mn  Mn2  1  0.47530300  0.23533900  0.33681900  1
  Mn  Mn3  1  0.98814800  0.00318900  0.99293400  1
  Mn  Mn4  1  0.01514400  0.26389500  0.66502300  1
  Mn  Mn5  1  0.97577600  0.73543800  0.33663700  1
  P  P6  1  0.51604100  0.15343400  0.92980300  1
  P  P7  1  0.01621500  0.65334700  0.92985200  1
  P  P8  1  0.97973200  0.34611500  0.07690800  1
  P  P9  1  0.47985200  0.84614100  0.07695300  1
  P  P10  1  0.94447700  0.15319300  0.30465000  1
  P  P11  1  0.44451800  0.65321000  0.30473500  1
  P  P12  1  0.57162300  0.34775500  0.68156400  1
  P  P13  1  0.07186100  0.84766700  0.68162300  1
  O  O14  1  0.12002700  0.18823900  0.41889500  1
  O  O15  1  0.62019000  0.68818700  0.41890100  1
  O  O16  1  0.40302300  0.30498100  0.56409100  1
  O  O17  1  0.90326500  0.80501100  0.56407600  1
  O  O18  1  0.69604400  0.15548500  0.41653200  1
  O  O19  1  0.19606400  0.65551000  0.41659200  1
  O  O20  1  0.82466500  0.35573900  0.57496900  1
  O  O21  1  0.32490100  0.85568400  0.57507100  1
  O  O22  1  0.31468100  0.07460800  0.89129900  1
  O  O23  1  0.81482100  0.57453200  0.89140400  1
  O  O24  1  0.17582900  0.42566900  0.12110300  1
  O  O25  1  0.67589700  0.92567700  0.12118900  1
  O  O26  1  0.49088400  0.26500700  0.85874800  1
  O  O27  1  0.99093500  0.76490600  0.85877500  1
  O  O28  1  0.02669000  0.23425800  0.12779800  1
  O  O29  1  0.52676700  0.73431100  0.12787400  1
  O  O30  1  0.50550000  0.44444400  0.76402900  1
  O  O31  1  0.00563200  0.94431900  0.76414700  1
  O  O32  1  0.98242600  0.05222400  0.22613700  1
  O  O33  1  0.48228000  0.55225700  0.22614400  1
  O  O34  1  0.99791100  0.35082800  0.87946000  1
  O  O35  1  0.49802100  0.85081200  0.87949900  1
  O  O36  1  0.47710900  0.15828100  0.13469600  1
  O  O37  1  0.97708200  0.65825000  0.13476300  1
  O  O38  1  0.73280200  0.35077500  0.20114400  1
  O  O39  1  0.23291400  0.85086200  0.20109600  1
  O  O40  1  0.76053600  0.13653600  0.83308100  1
  O  O41  1  0.26080400  0.63653200  0.83327400  1
