# generated using pymatgen
data_K3CoPCO7
_symmetry_space_group_name_H-M   'P 1'
_cell_length_a   8.98166747
_cell_length_b   8.97978585
_cell_length_c   9.57230549
_cell_angle_alpha   89.90814116
_cell_angle_beta   89.94149868
_cell_angle_gamma   101.87634642
_symmetry_Int_Tables_number   1
_chemical_formula_structural   K3CoPCO7
_chemical_formula_sum   'K12 Co4 P4 C4 O28'
_cell_volume   755.51152212
_cell_formula_units_Z   4
loop_
 _symmetry_equiv_pos_site_id
 _symmetry_equiv_pos_as_xyz
  1  'x, y, z'
loop_
 _atom_site_type_symbol
 _atom_site_label
 _atom_site_symmetry_multiplicity
 _atom_site_fract_x
 _atom_site_fract_y
 _atom_site_fract_z
 _atom_site_occupancy
  K  K0  1  0.50251100  0.25535600  0.06955100  1
  K  K1  1  0.00387300  0.75071100  0.07030800  1
  K  K2  1  0.49760100  0.74462800  0.93042000  1
  K  K3  1  0.99592000  0.24951100  0.92985400  1
  K  K4  1  0.13429800  0.12363400  0.29143700  1
  K  K5  1  0.63291200  0.62257100  0.29380100  1
  K  K6  1  0.37418200  0.88400200  0.29148600  1
  K  K7  1  0.87228700  0.38398300  0.29440000  1
  K  K8  1  0.62585200  0.11610500  0.70827700  1
  K  K9  1  0.12767100  0.61602100  0.70590300  1
  K  K10  1  0.86562300  0.87674300  0.70865100  1
  K  K11  1  0.36707900  0.37711700  0.70621600  1
  Co  Co12  1  0.25378600  0.50435700  0.35141300  1
  Co  Co13  1  0.74634000  0.49580200  0.64860600  1
  Co  Co14  1  0.75445300  0.00437800  0.34983900  1
  Co  Co15  1  0.24549800  0.99542000  0.65018500  1
  P  P16  1  0.49527100  0.24374100  0.41936000  1
  P  P17  1  0.99432900  0.74625700  0.41974900  1
  P  P18  1  0.50470900  0.75610700  0.58054400  1
  P  P19  1  0.00564200  0.25381900  0.58024300  1
  C  C20  1  0.74690900  0.99760000  0.08263000  1
  C  C21  1  0.24694300  0.49749400  0.08422100  1
  C  C22  1  0.25306300  0.00237200  0.91737800  1
  C  C23  1  0.75316100  0.50255000  0.91574300  1
  O  O24  1  0.25612000  0.00528000  0.05198500  1
  O  O25  1  0.75549200  0.50492400  0.05022800  1
  O  O26  1  0.74383800  0.99485600  0.94801700  1
  O  O27  1  0.24457600  0.49501000  0.94972600  1
  O  O28  1  0.84362900  0.10036700  0.15161400  1
  O  O29  1  0.34991400  0.59362000  0.15381300  1
  O  O30  1  0.15639000  0.89950100  0.84848400  1
  O  O31  1  0.65071300  0.40593200  0.84609500  1
  O  O32  1  0.65324700  0.89743500  0.15804100  1
  O  O33  1  0.14648200  0.40387800  0.15941700  1
  O  O34  1  0.34672400  0.10246800  0.84190800  1
  O  O35  1  0.85314100  0.59678000  0.84063600  1
  O  O36  1  0.37392600  0.12003300  0.49469300  1
  O  O37  1  0.86969700  0.62399900  0.49302500  1
  O  O38  1  0.62614600  0.87989600  0.50551600  1
  O  O39  1  0.13021700  0.37555600  0.50633000  1
  O  O40  1  0.40447200  0.65590600  0.46999100  1
  O  O41  1  0.90639100  0.15463500  0.46859800  1
  O  O42  1  0.59565400  0.34416100  0.52972800  1
  O  O43  1  0.09306300  0.84518000  0.53195600  1
  O  O44  1  0.41308400  0.34391300  0.32539200  1
  O  O45  1  0.91514000  0.84735900  0.32393000  1
  O  O46  1  0.59556600  0.16356900  0.32366100  1
  O  O47  1  0.09562000  0.66492000  0.32630100  1
  O  O48  1  0.40431000  0.83612000  0.67631500  1
  O  O49  1  0.90488200  0.33583200  0.67369500  1
  O  O50  1  0.58675700  0.65570700  0.67447400  1
  O  O51  1  0.08489300  0.15288300  0.67621600  1
