# generated using pymatgen
data_Sr2As
_symmetry_space_group_name_H-M   'P 1'
_cell_length_a   9.14641032
_cell_length_b   9.14641032
_cell_length_c   9.14641032
_cell_angle_alpha   149.16824135
_cell_angle_beta   149.16824135
_cell_angle_gamma   44.16372215
_symmetry_Int_Tables_number   1
_chemical_formula_structural   Sr2As
_chemical_formula_sum   'Sr4 As2'
_cell_volume   200.40695066
_cell_formula_units_Z   2
loop_
 _symmetry_equiv_pos_site_id
 _symmetry_equiv_pos_as_xyz
  1  'x, y, z'
loop_
 _atom_site_type_symbol
 _atom_site_label
 _atom_site_symmetry_multiplicity
 _atom_site_fract_x
 _atom_site_fract_y
 _atom_site_fract_z
 _atom_site_occupancy
  Sr  Sr0  1  0.31858000  0.31858000  0.00000000  1
  Sr  Sr1  1  0.68142000  0.68142000  0.00000000  1
  Sr  Sr2  1  0.50000000  0.00000000  0.50000000  1
  Sr  Sr3  1  0.00000000  0.50000000  0.50000000  1
  As  As4  1  0.86656900  0.86656900  0.00000000  1
  As  As5  1  0.13343100  0.13343100  0.00000000  1
