# generated using pymatgen
data_Mg3V2O7
_symmetry_space_group_name_H-M   'P 1'
_cell_length_a   5.18707354
_cell_length_b   9.20331546
_cell_length_c   5.35252002
_cell_angle_alpha   90.00227439
_cell_angle_beta   89.99025379
_cell_angle_gamma   106.37251911
_symmetry_Int_Tables_number   1
_chemical_formula_structural   Mg3V2O7
_chemical_formula_sum   'Mg6 V4 O14'
_cell_volume   245.15854288
_cell_formula_units_Z   2
loop_
 _symmetry_equiv_pos_site_id
 _symmetry_equiv_pos_as_xyz
  1  'x, y, z'
loop_
 _atom_site_type_symbol
 _atom_site_label
 _atom_site_symmetry_multiplicity
 _atom_site_fract_x
 _atom_site_fract_y
 _atom_site_fract_z
 _atom_site_occupancy
  Mg  Mg0  1  0.75320800  0.00000600  0.69943500  1
  Mg  Mg1  1  0.24694800  0.00007600  0.19955400  1
  Mg  Mg2  1  0.57026000  0.61472700  0.81667800  1
  Mg  Mg3  1  0.42962500  0.38528700  0.31660800  1
  Mg  Mg4  1  0.95551900  0.38529300  0.81671200  1
  Mg  Mg5  1  0.04435400  0.61468300  0.31656400  1
  V  V6  1  0.64610500  0.79038800  0.25339600  1
  V  V7  1  0.85562400  0.20958000  0.25342900  1
  V  V8  1  0.35389100  0.20961500  0.75341600  1
  V  V9  1  0.14434700  0.79041000  0.75339900  1
  O  O10  1  0.36812200  0.99999200  0.80954100  1
  O  O11  1  0.63180800  0.00000600  0.30966000  1
  O  O12  1  0.92933800  0.58958700  0.69552500  1
  O  O13  1  0.07069100  0.41041900  0.19553300  1
  O  O14  1  0.66030600  0.58953300  0.19544500  1
  O  O15  1  0.33973600  0.41043000  0.69561300  1
  O  O16  1  0.30444500  0.73810700  0.05847000  1
  O  O17  1  0.69563600  0.26183600  0.55857600  1
  O  O18  1  0.43391600  0.73820300  0.55852600  1
  O  O19  1  0.56614900  0.26177500  0.05857000  1
  O  O20  1  0.84873600  0.84277700  0.93133000  1
  O  O21  1  0.15126500  0.15727300  0.43135700  1
  O  O22  1  0.00590700  0.15722800  0.93136300  1
  O  O23  1  0.99406300  0.84276800  0.43130600  1
