# generated using pymatgen
data_MgCrP2O7
_symmetry_space_group_name_H-M   'P 1'
_cell_length_a   6.37229294
_cell_length_b   6.43040350
_cell_length_c   7.29398895
_cell_angle_alpha   70.12467083
_cell_angle_beta   74.90657639
_cell_angle_gamma   81.44334378
_symmetry_Int_Tables_number   1
_chemical_formula_structural   MgCrP2O7
_chemical_formula_sum   'Mg2 Cr2 P4 O14'
_cell_volume   270.78371305
_cell_formula_units_Z   2
loop_
 _symmetry_equiv_pos_site_id
 _symmetry_equiv_pos_as_xyz
  1  'x, y, z'
loop_
 _atom_site_type_symbol
 _atom_site_label
 _atom_site_symmetry_multiplicity
 _atom_site_fract_x
 _atom_site_fract_y
 _atom_site_fract_z
 _atom_site_occupancy
  Mg  Mg0  1  0.92561700  0.28845800  0.18688700  1
  Mg  Mg1  1  0.07449400  0.71165700  0.81303300  1
  Cr  Cr2  1  0.68641400  0.09308600  0.77990600  1
  Cr  Cr3  1  0.31329600  0.90686100  0.22027800  1
  P  P4  1  0.17535900  0.21339000  0.76481600  1
  P  P5  1  0.82461700  0.78660200  0.23518300  1
  P  P6  1  0.62089500  0.63811500  0.68190500  1
  P  P7  1  0.37920300  0.36189200  0.31805300  1
  O  O8  1  0.74570600  0.62485500  0.45672500  1
  O  O9  1  0.25455400  0.37499900  0.54331200  1
  O  O10  1  0.01736000  0.05524300  0.75981000  1
  O  O11  1  0.98250100  0.94491300  0.24010900  1
  O  O12  1  0.60951200  0.26505300  0.33011100  1
  O  O13  1  0.39061200  0.73496500  0.66970400  1
  O  O14  1  0.35933500  0.60067100  0.18806000  1
  O  O15  1  0.64060600  0.39935300  0.81200800  1
  O  O16  1  0.93744100  0.62757900  0.11684600  1
  O  O17  1  0.06264700  0.37251700  0.88306100  1
  O  O18  1  0.63739600  0.92705000  0.15057500  1
  O  O19  1  0.36241500  0.07273800  0.84959300  1
  O  O20  1  0.23696200  0.21434800  0.27471100  1
  O  O21  1  0.76305900  0.78565800  0.72531400  1
