# generated using pymatgen
data_Mg2Nb2FeO8
_symmetry_space_group_name_H-M   'P 1'
_cell_length_a   5.21234893
_cell_length_b   6.04708014
_cell_length_c   10.10683929
_cell_angle_alpha   107.40516010
_cell_angle_beta   89.13813547
_cell_angle_gamma   90.00683256
_symmetry_Int_Tables_number   1
_chemical_formula_structural   Mg2Nb2FeO8
_chemical_formula_sum   'Mg4 Nb4 Fe2 O16'
_cell_volume   303.93895085
_cell_formula_units_Z   2
loop_
 _symmetry_equiv_pos_site_id
 _symmetry_equiv_pos_as_xyz
  1  'x, y, z'
loop_
 _atom_site_type_symbol
 _atom_site_label
 _atom_site_symmetry_multiplicity
 _atom_site_fract_x
 _atom_site_fract_y
 _atom_site_fract_z
 _atom_site_occupancy
  Mg  Mg0  1  0.75458300  0.41198200  0.54123400  1
  Mg  Mg1  1  0.74870800  0.86998300  0.45746500  1
  Mg  Mg2  1  0.24877600  0.58800100  0.45711000  1
  Mg  Mg3  1  0.25467400  0.13027100  0.54124000  1
  Nb  Nb4  1  0.74692900  0.28619100  0.23210100  1
  Nb  Nb5  1  0.75622800  0.05353200  0.76636600  1
  Nb  Nb6  1  0.25625000  0.71408500  0.76623400  1
  Nb  Nb7  1  0.24694800  0.94694100  0.23226200  1
  Fe  Fe8  1  0.75129700  0.65446000  0.99935800  1
  Fe  Fe9  1  0.25113000  0.34616400  0.99933600  1
  O  O10  1  0.08494300  0.18132600  0.14223800  1
  O  O11  1  0.41835900  0.03803900  0.85613400  1
  O  O12  1  0.91831800  0.81936600  0.85610300  1
  O  O13  1  0.58494800  0.96201500  0.14226700  1
  O  O14  1  0.59579500  0.43547700  0.11854100  1
  O  O15  1  0.90667600  0.31709400  0.88009600  1
  O  O16  1  0.40664700  0.56446000  0.88007400  1
  O  O17  1  0.09560400  0.68417900  0.11864800  1
  O  O18  1  0.46078600  0.29304100  0.37532300  1
  O  O19  1  0.04247800  0.91734500  0.62319500  1
  O  O20  1  0.38776200  0.83650200  0.38172700  1
  O  O21  1  0.11552000  0.45414400  0.61666400  1
  O  O22  1  0.61554700  0.16367200  0.61672600  1
  O  O23  1  0.88769100  0.54609600  0.38173100  1
  O  O24  1  0.96081300  0.08309000  0.37537800  1
  O  O25  1  0.54244800  0.70697700  0.62310200  1
