# generated using pymatgen
data_Nb5Se4
_symmetry_space_group_name_H-M   'P 1'
_cell_length_a   7.29205732
_cell_length_b   7.29205732
_cell_length_c   7.29205732
_cell_angle_alpha   93.21214392
_cell_angle_beta   93.21214392
_cell_angle_gamma   152.61474041
_symmetry_Int_Tables_number   1
_chemical_formula_structural   Nb5Se4
_chemical_formula_sum   'Nb5 Se4'
_cell_volume   173.28437012
_cell_formula_units_Z   1
loop_
 _symmetry_equiv_pos_site_id
 _symmetry_equiv_pos_as_xyz
  1  'x, y, z'
loop_
 _atom_site_type_symbol
 _atom_site_label
 _atom_site_symmetry_multiplicity
 _atom_site_fract_x
 _atom_site_fract_y
 _atom_site_fract_z
 _atom_site_occupancy
  Nb  Nb0  1  0.62474100  0.69666000  0.32140100  1
  Nb  Nb1  1  0.69666000  0.37525900  0.07191900  1
  Nb  Nb2  1  0.30334000  0.62474100  0.92808100  1
  Nb  Nb3  1  0.37525900  0.30334000  0.67859900  1
  Nb  Nb4  1  0.00000000  0.00000000  0.00000000  1
  Se  Se5  1  0.71896400  0.94117400  0.66013800  1
  Se  Se6  1  0.94117400  0.28103600  0.22221000  1
  Se  Se7  1  0.05882600  0.71896400  0.77779000  1
  Se  Se8  1  0.28103600  0.05882600  0.33986200  1
