# generated using pymatgen
data_Mn3(OF3)2
_symmetry_space_group_name_H-M   'P 1'
_cell_length_a   4.78425146
_cell_length_b   5.53009670
_cell_length_c   10.07155267
_cell_angle_alpha   94.46901471
_cell_angle_beta   89.02906119
_cell_angle_gamma   87.58575498
_symmetry_Int_Tables_number   1
_chemical_formula_structural   Mn3(OF3)2
_chemical_formula_sum   'Mn6 O4 F12'
_cell_volume   265.36613288
_cell_formula_units_Z   2
loop_
 _symmetry_equiv_pos_site_id
 _symmetry_equiv_pos_as_xyz
  1  'x, y, z'
loop_
 _atom_site_type_symbol
 _atom_site_label
 _atom_site_symmetry_multiplicity
 _atom_site_fract_x
 _atom_site_fract_y
 _atom_site_fract_z
 _atom_site_occupancy
  Mn  Mn0  1  0.98062900  0.74365000  0.24652800  1
  Mn  Mn1  1  0.47403500  0.26409400  0.25474000  1
  Mn  Mn2  1  0.52597200  0.73593100  0.74524500  1
  Mn  Mn3  1  0.01939600  0.25632400  0.75349400  1
  Mn  Mn4  1  0.99990700  0.49996200  0.50002800  1
  Mn  Mn5  1  0.50001500  0.50004900  0.99998700  1
  O  O6  1  0.66090400  0.50684900  0.17452800  1
  O  O7  1  0.18379900  0.48377600  0.32587800  1
  O  O8  1  0.81617200  0.51620200  0.67416000  1
  O  O9  1  0.33918900  0.49317800  0.82547000  1
  F  F10  1  0.16446500  0.70415100  0.07905200  1
  F  F11  1  0.66437800  0.29683000  0.41299400  1
  F  F12  1  0.33552500  0.70308300  0.58703000  1
  F  F13  1  0.83569700  0.29590900  0.92097700  1
  F  F14  1  0.30754400  0.21952000  0.08786700  1
  F  F15  1  0.81671200  0.77697400  0.42409000  1
  F  F16  1  0.18320000  0.22294200  0.57592600  1
  F  F17  1  0.69258200  0.78059500  0.91209100  1
  F  F18  1  0.75864700  0.01781200  0.18860300  1
  F  F19  1  0.27190400  0.00162100  0.31383400  1
  F  F20  1  0.72800500  0.99842100  0.68610800  1
  F  F21  1  0.24132300  0.98213000  0.81136800  1
