# generated using pymatgen
data_ZnFeP2O7
_symmetry_space_group_name_H-M   'P 1'
_cell_length_a   7.12572928
_cell_length_b   7.44785561
_cell_length_c   9.77430507
_cell_angle_alpha   83.33365182
_cell_angle_beta   83.09303097
_cell_angle_gamma   85.86440568
_symmetry_Int_Tables_number   1
_chemical_formula_structural   ZnFeP2O7
_chemical_formula_sum   'Zn4 Fe4 P8 O28'
_cell_volume   510.59931101
_cell_formula_units_Z   4
loop_
 _symmetry_equiv_pos_site_id
 _symmetry_equiv_pos_as_xyz
  1  'x, y, z'
loop_
 _atom_site_type_symbol
 _atom_site_label
 _atom_site_symmetry_multiplicity
 _atom_site_fract_x
 _atom_site_fract_y
 _atom_site_fract_z
 _atom_site_occupancy
  Zn  Zn0  1  0.16325400  0.65850100  0.49101100  1
  Zn  Zn1  1  0.66299300  0.65872300  0.99102200  1
  Zn  Zn2  1  0.83688700  0.34128900  0.50901300  1
  Zn  Zn3  1  0.33669400  0.34156000  0.00898600  1
  Fe  Fe4  1  0.44988100  0.20213200  0.70720200  1
  Fe  Fe5  1  0.05014600  0.79777100  0.79288800  1
  Fe  Fe6  1  0.94975200  0.20227100  0.20721200  1
  Fe  Fe7  1  0.55026500  0.79778400  0.29282500  1
  P  P8  1  0.24742400  0.09274500  0.43687000  1
  P  P9  1  0.74725400  0.09289700  0.93695200  1
  P  P10  1  0.75280500  0.90705800  0.56310400  1
  P  P11  1  0.25260300  0.90730400  0.06312100  1
  P  P12  1  0.98803000  0.61474600  0.21026900  1
  P  P13  1  0.48803500  0.61463100  0.71029200  1
  P  P14  1  0.01193600  0.38530300  0.78968300  1
  P  P15  1  0.51194900  0.38531300  0.28970500  1
  O  O16  1  0.29176200  0.89840100  0.39796600  1
  O  O17  1  0.79156700  0.89849200  0.89811800  1
  O  O18  1  0.70838800  0.10147700  0.60188000  1
  O  O19  1  0.20817700  0.10165100  0.10197600  1
  O  O20  1  0.28057500  0.11406400  0.58410700  1
  O  O21  1  0.78019700  0.11434700  0.08420700  1
  O  O22  1  0.71995300  0.88560700  0.41582400  1
  O  O23  1  0.21957900  0.88593200  0.91586900  1
  O  O24  1  0.04958300  0.16766000  0.40103300  1
  O  O25  1  0.54943600  0.16781300  0.90107300  1
  O  O26  1  0.95063000  0.83216500  0.59898700  1
  O  O27  1  0.45042700  0.83239500  0.09903300  1
  O  O28  1  0.01327900  0.42439900  0.63138300  1
  O  O29  1  0.51317200  0.42467200  0.13142900  1
  O  O30  1  0.98683800  0.57537300  0.36853200  1
  O  O31  1  0.48669000  0.57557100  0.86859800  1
  O  O32  1  0.08201400  0.45628000  0.13402000  1
  O  O33  1  0.58215000  0.45609800  0.63422200  1
  O  O34  1  0.91785200  0.54383000  0.86576700  1
  O  O35  1  0.41797500  0.54377700  0.36596900  1
  O  O36  1  0.10440100  0.79256100  0.17042200  1
  O  O37  1  0.60459000  0.79231900  0.67037800  1
  O  O38  1  0.89538900  0.20760900  0.82958500  1
  O  O39  1  0.39553400  0.20751500  0.32949300  1
  O  O40  1  0.71174300  0.33008200  0.33082000  1
  O  O41  1  0.21172200  0.33005000  0.83084500  1
  O  O42  1  0.28825700  0.66990900  0.66913500  1
  O  O43  1  0.78820700  0.66992600  0.16917300  1
