# generated using pymatgen
data_Nb2O5
_symmetry_space_group_name_H-M   'P 1'
_cell_length_a   6.82690486
_cell_length_b   6.82690486
_cell_length_c   4.06094601
_cell_angle_alpha   89.27452663
_cell_angle_beta   89.27452663
_cell_angle_gamma   32.95482376
_symmetry_Int_Tables_number   1
_chemical_formula_structural   Nb2O5
_chemical_formula_sum   'Nb2 O5'
_cell_volume   102.94803667
_cell_formula_units_Z   1
loop_
 _symmetry_equiv_pos_site_id
 _symmetry_equiv_pos_as_xyz
  1  'x, y, z'
loop_
 _atom_site_type_symbol
 _atom_site_label
 _atom_site_symmetry_multiplicity
 _atom_site_fract_x
 _atom_site_fract_y
 _atom_site_fract_z
 _atom_site_occupancy
  Nb  Nb0  1  0.14616000  0.14616000  0.93278400  1
  Nb  Nb1  1  0.85384000  0.85384000  0.06721600  1
  O  O2  1  0.14758300  0.14758300  0.48936600  1
  O  O3  1  0.85241700  0.85241700  0.51063400  1
  O  O4  1  0.00000000  0.00000000  0.00000000  1
  O  O5  1  0.31496700  0.31496700  0.00308500  1
  O  O6  1  0.68503300  0.68503300  0.99691500  1
