# generated using pymatgen
data_LaMgFeAgO6
_symmetry_space_group_name_H-M   'P 1'
_cell_length_a   5.52577500
_cell_length_b   10.00117585
_cell_length_c   10.28734212
_cell_angle_alpha   62.10410875
_cell_angle_beta   89.99827519
_cell_angle_gamma   89.99863209
_symmetry_Int_Tables_number   1
_chemical_formula_structural   LaMgFeAgO6
_chemical_formula_sum   'La4 Mg4 Fe4 Ag4 O24'
_cell_volume   502.45947468
_cell_formula_units_Z   4
loop_
 _symmetry_equiv_pos_site_id
 _symmetry_equiv_pos_as_xyz
  1  'x, y, z'
loop_
 _atom_site_type_symbol
 _atom_site_label
 _atom_site_symmetry_multiplicity
 _atom_site_fract_x
 _atom_site_fract_y
 _atom_site_fract_z
 _atom_site_occupancy
  La  La0  1  0.06349600  0.61560700  0.63948000  1
  La  La1  1  0.06349300  0.11561100  0.13950600  1
  La  La2  1  0.43652300  0.61562200  0.13946600  1
  La  La3  1  0.43652600  0.11562000  0.63949400  1
  Mg  Mg4  1  0.56761200  0.39271500  0.85151200  1
  Mg  Mg5  1  0.56760600  0.89272400  0.35150900  1
  Mg  Mg6  1  0.93238500  0.39272100  0.35151200  1
  Mg  Mg7  1  0.93239400  0.89272100  0.85151200  1
  Fe  Fe8  1  0.51073400  0.50418400  0.49865800  1
  Fe  Fe9  1  0.98927700  0.00418300  0.49867200  1
  Fe  Fe10  1  0.51072300  0.00417500  0.99866700  1
  Fe  Fe11  1  0.98928300  0.50417600  0.99865600  1
  Ag  Ag12  1  0.49825300  0.74830500  0.75642700  1
  Ag  Ag13  1  0.49825700  0.24831000  0.25642800  1
  Ag  Ag14  1  0.00176000  0.24830300  0.75643600  1
  Ag  Ag15  1  0.00174500  0.74830800  0.25642600  1
  O  O16  1  0.03490200  0.67941600  0.01440300  1
  O  O17  1  0.03489900  0.17941400  0.51440500  1
  O  O18  1  0.46510200  0.17941700  0.01440700  1
  O  O19  1  0.46510400  0.67941900  0.51440400  1
  O  O20  1  0.20046300  0.54924800  0.36342300  1
  O  O21  1  0.20045900  0.04924600  0.86342100  1
  O  O22  1  0.29954600  0.54924700  0.86342000  1
  O  O23  1  0.29955000  0.04924800  0.36342400  1
  O  O24  1  0.18949500  0.38163400  0.18414300  1
  O  O25  1  0.18948300  0.88163500  0.68414300  1
  O  O26  1  0.31056400  0.38155800  0.68418100  1
  O  O27  1  0.31050800  0.88163500  0.18414600  1
  O  O28  1  0.56806700  0.84713400  0.95436900  1
  O  O29  1  0.56806400  0.34712600  0.45437400  1
  O  O30  1  0.93194500  0.34712800  0.95437300  1
  O  O31  1  0.93194000  0.84712200  0.45437500  1
  O  O32  1  0.72804300  0.43303400  0.15988900  1
  O  O33  1  0.72793800  0.93303100  0.65996700  1
  O  O34  1  0.77195800  0.43305500  0.65984400  1
  O  O35  1  0.77196700  0.93303400  0.15989300  1
  O  O36  1  0.72855600  0.59873100  0.32765400  1
  O  O37  1  0.72841600  0.09873000  0.82766200  1
  O  O38  1  0.77152400  0.59873600  0.82765700  1
  O  O39  1  0.77144100  0.09873300  0.32766000  1
