# generated using pymatgen
data_KMn4(PO4)3
_symmetry_space_group_name_H-M   'P 1'
_cell_length_a   6.44943800
_cell_length_b   10.02931400
_cell_length_c   16.88958700
_cell_angle_alpha   90.00000000
_cell_angle_beta   90.00000000
_cell_angle_gamma   90.00000000
_symmetry_Int_Tables_number   1
_chemical_formula_structural   KMn4(PO4)3
_chemical_formula_sum   'K4 Mn16 P12 O48'
_cell_volume   1092.47656750
_cell_formula_units_Z   4
loop_
 _symmetry_equiv_pos_site_id
 _symmetry_equiv_pos_as_xyz
  1  'x, y, z'
loop_
 _atom_site_type_symbol
 _atom_site_label
 _atom_site_symmetry_multiplicity
 _atom_site_fract_x
 _atom_site_fract_y
 _atom_site_fract_z
 _atom_site_occupancy
  K  K0  1  0.50000000  0.78817000  0.03552700  1
  K  K1  1  0.00000000  0.71183000  0.53552700  1
  K  K2  1  0.00000000  0.28817000  0.46447300  1
  K  K3  1  0.50000000  0.21183000  0.96447300  1
  Mn  Mn4  1  0.25234000  0.24728100  0.20135700  1
  Mn  Mn5  1  0.75234000  0.25271900  0.70135700  1
  Mn  Mn6  1  0.74766000  0.24728100  0.20135700  1
  Mn  Mn7  1  0.74766000  0.75271900  0.79864300  1
  Mn  Mn8  1  0.50000000  0.47676500  0.36116200  1
  Mn  Mn9  1  0.50000000  0.52323500  0.63883800  1
  Mn  Mn10  1  0.00000000  0.97676500  0.13883800  1
  Mn  Mn11  1  0.00000000  0.02323500  0.86116200  1
  Mn  Mn12  1  0.50000000  0.04049700  0.40398200  1
  Mn  Mn13  1  0.50000000  0.95950300  0.59601800  1
  Mn  Mn14  1  0.00000000  0.54049700  0.09601800  1
  Mn  Mn15  1  0.00000000  0.45950300  0.90398200  1
  Mn  Mn16  1  0.25234000  0.75271900  0.79864300  1
  Mn  Mn17  1  0.24766000  0.74728100  0.29864300  1
  Mn  Mn18  1  0.24766000  0.25271900  0.70135700  1
  Mn  Mn19  1  0.75234000  0.74728100  0.29864300  1
  P  P20  1  0.50000000  0.71598200  0.46390600  1
  P  P21  1  0.50000000  0.28401800  0.53609400  1
  P  P22  1  0.00000000  0.21598200  0.03609400  1
  P  P23  1  0.00000000  0.78401800  0.96390600  1
  P  P24  1  0.00000000  0.45813100  0.28568600  1
  P  P25  1  0.00000000  0.54186900  0.71431400  1
  P  P26  1  0.50000000  0.95813100  0.21431400  1
  P  P27  1  0.50000000  0.45913600  0.83153000  1
  P  P28  1  0.50000000  0.04186900  0.78568600  1
  P  P29  1  0.00000000  0.95913600  0.66847000  1
  P  P30  1  0.50000000  0.54086400  0.16847000  1
  P  P31  1  0.00000000  0.04086400  0.33153000  1
  O  O32  1  0.50000000  0.86952400  0.47800500  1
  O  O33  1  0.50000000  0.13047600  0.52199500  1
  O  O34  1  0.00000000  0.36952400  0.02199500  1
  O  O35  1  0.00000000  0.63047600  0.97800500  1
  O  O36  1  0.80187800  0.59181400  0.67313100  1
  O  O37  1  0.80187800  0.40818600  0.32686900  1
  O  O38  1  0.69812200  0.09181400  0.82686900  1
  O  O39  1  0.69812200  0.90818600  0.17313100  1
  O  O40  1  0.19812200  0.40818600  0.32686900  1
  O  O41  1  0.19812200  0.59181400  0.67313100  1
  O  O42  1  0.30187800  0.90818600  0.17313100  1
  O  O43  1  0.30187800  0.09181400  0.82686900  1
  O  O44  1  0.30668200  0.32739200  0.58610400  1
  O  O45  1  0.30668200  0.67260800  0.41389600  1
  O  O46  1  0.19331800  0.82739200  0.91389600  1
  O  O47  1  0.19331800  0.17260800  0.08610400  1
  O  O48  1  0.69331800  0.67260800  0.41389600  1
  O  O49  1  0.69331800  0.32739200  0.58610400  1
  O  O50  1  0.80668200  0.17260800  0.08610400  1
  O  O51  1  0.19537200  0.91666400  0.62337300  1
  O  O52  1  0.80668200  0.82739200  0.91389600  1
  O  O53  1  0.50000000  0.64813800  0.54483500  1
  O  O54  1  0.00000000  0.85186200  0.04483500  1
  O  O55  1  0.00000000  0.14813800  0.95516500  1
  O  O56  1  0.00000000  0.11207700  0.24650000  1
  O  O57  1  0.00000000  0.88792300  0.75350000  1
  O  O58  1  0.50000000  0.61207700  0.25350000  1
  O  O59  1  0.50000000  0.38792300  0.74650000  1
  O  O60  1  0.50000000  0.89326100  0.30048100  1
  O  O61  1  0.50000000  0.10673900  0.69951900  1
  O  O62  1  0.00000000  0.39326100  0.19951900  1
  O  O63  1  0.00000000  0.60673900  0.80048100  1
  O  O64  1  0.50000000  0.61389800  0.81562300  1
  O  O65  1  0.50000000  0.38610200  0.18437700  1
  O  O66  1  0.00000000  0.11389800  0.68437700  1
  O  O67  1  0.00000000  0.88610200  0.31562300  1
  O  O68  1  0.50000000  0.88678000  0.77531400  1
  O  O69  1  0.50000000  0.11322000  0.22468600  1
  O  O70  1  0.00000000  0.38678000  0.72468600  1
  O  O71  1  0.00000000  0.61322000  0.27531400  1
  O  O72  1  0.69537200  0.41666400  0.87662700  1
  O  O73  1  0.69537200  0.58333600  0.12337300  1
  O  O74  1  0.80462800  0.91666400  0.62337300  1
  O  O75  1  0.80462800  0.08333600  0.37662700  1
  O  O76  1  0.30462800  0.58333600  0.12337300  1
  O  O77  1  0.30462800  0.41666400  0.87662700  1
  O  O78  1  0.19537200  0.08333600  0.37662700  1
  O  O79  1  0.50000000  0.35186200  0.45516500  1
