# generated using pymatgen
data_Li9Mn2Co5O16
_symmetry_space_group_name_H-M   'P 1'
_cell_length_a   5.07316354
_cell_length_b   7.71548481
_cell_length_c   7.71548527
_cell_angle_alpha   96.53510363
_cell_angle_beta   76.63228360
_cell_angle_gamma   76.63228669
_symmetry_Int_Tables_number   1
_chemical_formula_structural   Li9Mn2Co5O16
_chemical_formula_sum   'Li9 Mn2 Co5 O16'
_cell_volume   281.35745739
_cell_formula_units_Z   1
loop_
 _symmetry_equiv_pos_site_id
 _symmetry_equiv_pos_as_xyz
  1  'x, y, z'
loop_
 _atom_site_type_symbol
 _atom_site_label
 _atom_site_symmetry_multiplicity
 _atom_site_fract_x
 _atom_site_fract_y
 _atom_site_fract_z
 _atom_site_occupancy
  Li  Li0  1  0.00914800  0.11543700  0.36865100  1
  Li  Li1  1  0.99085200  0.63134900  0.88456300  1
  Li  Li2  1  0.50130000  0.00003000  0.49427800  1
  Li  Li3  1  0.49870000  0.50572200  0.99997000  1
  Li  Li4  1  0.00142800  0.87862800  0.62625100  1
  Li  Li5  1  0.99857200  0.37374900  0.12137200  1
  Li  Li6  1  0.49617200  0.75371400  0.75899600  1
  Li  Li7  1  0.50382800  0.24100400  0.24628600  1
  Li  Li8  1  0.50000000  0.87503000  0.12497000  1
  Mn  Mn9  1  0.00000000  0.99682300  0.00317700  1
  Mn  Mn10  1  0.50000000  0.63116300  0.36883700  1
  Co  Co11  1  0.00000000  0.49997300  0.50002700  1
  Co  Co12  1  0.50000000  0.37361700  0.62638300  1
  Co  Co13  1  0.00000000  0.75105400  0.24894600  1
  Co  Co14  1  0.00000000  0.24765900  0.75234100  1
  Co  Co15  1  0.50000000  0.12217300  0.87782700  1
  O  O16  1  0.78214300  0.98888600  0.23791100  1
  O  O17  1  0.76056700  0.49626400  0.74226400  1
  O  O18  1  0.24615300  0.85303100  0.36856100  1
  O  O19  1  0.26795600  0.35822800  0.86474400  1
  O  O20  1  0.74554800  0.73932300  0.48225200  1
  O  O21  1  0.77362700  0.23912600  0.99633000  1
  O  O22  1  0.26469600  0.61447200  0.60911400  1
  O  O23  1  0.24989200  0.11614900  0.10143100  1
  O  O24  1  0.23943300  0.25773600  0.50373600  1
  O  O25  1  0.21785700  0.76208900  0.01111400  1
  O  O26  1  0.73204400  0.13525600  0.64177200  1
  O  O27  1  0.75384700  0.63143900  0.14696900  1
  O  O28  1  0.22637300  0.00367000  0.76087400  1
  O  O29  1  0.25445200  0.51774800  0.26067700  1
  O  O30  1  0.75010800  0.89856900  0.88385100  1
  O  O31  1  0.73530400  0.39088600  0.38552800  1
