# generated using pymatgen
data_CaMnP2O7
_symmetry_space_group_name_H-M   'P 1'
_cell_length_a   7.28897524
_cell_length_b   10.73972805
_cell_length_c   7.29137710
_cell_angle_alpha   85.61587401
_cell_angle_beta   84.96831498
_cell_angle_gamma   84.68633219
_symmetry_Int_Tables_number   1
_chemical_formula_structural   CaMnP2O7
_chemical_formula_sum   'Ca4 Mn4 P8 O28'
_cell_volume   564.79312769
_cell_formula_units_Z   4
loop_
 _symmetry_equiv_pos_site_id
 _symmetry_equiv_pos_as_xyz
  1  'x, y, z'
loop_
 _atom_site_type_symbol
 _atom_site_label
 _atom_site_symmetry_multiplicity
 _atom_site_fract_x
 _atom_site_fract_y
 _atom_site_fract_z
 _atom_site_occupancy
  Ca  Ca0  1  0.64157200  0.50621700  0.19759800  1
  Ca  Ca1  1  0.64156900  0.00622300  0.69764000  1
  Ca  Ca2  1  0.35842900  0.49378700  0.80240200  1
  Ca  Ca3  1  0.35842400  0.99377200  0.30235800  1
  Mn  Mn4  1  0.19312500  0.69270100  0.43854500  1
  Mn  Mn5  1  0.80690100  0.30729400  0.56146600  1
  Mn  Mn6  1  0.19305200  0.19260400  0.93843500  1
  Mn  Mn7  1  0.80695800  0.80740000  0.06156200  1
  P  P8  1  0.12040000  0.41499700  0.24247700  1
  P  P9  1  0.12042300  0.91500300  0.74245900  1
  P  P10  1  0.87959700  0.58500800  0.75752100  1
  P  P11  1  0.87957600  0.08499500  0.25754200  1
  P  P12  1  0.62051900  0.22615400  0.99407500  1
  P  P13  1  0.62056000  0.72616700  0.49405600  1
  P  P14  1  0.37948200  0.77384500  0.00592900  1
  P  P15  1  0.37944100  0.27383600  0.50593900  1
  O  O16  1  0.91788000  0.40893400  0.32086900  1
  O  O17  1  0.91790000  0.90894300  0.82083700  1
  O  O18  1  0.08211900  0.59106600  0.67913000  1
  O  O19  1  0.08210000  0.09105000  0.17916400  1
  O  O20  1  0.20450400  0.53337400  0.28103000  1
  O  O21  1  0.20448100  0.03339100  0.78104700  1
  O  O22  1  0.79549200  0.46663000  0.71896900  1
  O  O23  1  0.79551300  0.96660700  0.21895700  1
  O  O24  1  0.14813100  0.38223100  0.03977600  1
  O  O25  1  0.14817200  0.88222700  0.53976900  1
  O  O26  1  0.85186300  0.61777200  0.96022200  1
  O  O27  1  0.85182400  0.11777500  0.46023100  1
  O  O28  1  0.44885700  0.63611600  0.99582500  1
  O  O29  1  0.44886700  0.13610300  0.49582900  1
  O  O30  1  0.55114000  0.36388300  0.00417600  1
  O  O31  1  0.55111900  0.86389700  0.50415800  1
  O  O32  1  0.46597600  0.13669900  0.03852300  1
  O  O33  1  0.46606100  0.63668900  0.53850900  1
  O  O34  1  0.53403000  0.86329700  0.96148100  1
  O  O35  1  0.53394400  0.36331200  0.46149100  1
  O  O36  1  0.76767100  0.20335000  0.14711200  1
  O  O37  1  0.76764700  0.70337600  0.64709400  1
  O  O38  1  0.23234000  0.79665000  0.85288300  1
  O  O39  1  0.23235000  0.29663200  0.35290400  1
  O  O40  1  0.27554300  0.80428200  0.19293400  1
  O  O41  1  0.27553400  0.30428800  0.69295200  1
  O  O42  1  0.72445200  0.19571200  0.80706900  1
  O  O43  1  0.72446600  0.69570800  0.30704700  1
