# generated using pymatgen
data_Sc15C19
_symmetry_space_group_name_H-M   'P 1'
_cell_length_a   7.54017000
_cell_length_b   7.54017000
_cell_length_c   14.66641700
_cell_angle_alpha   90.00000000
_cell_angle_beta   90.00000000
_cell_angle_gamma   90.00000000
_symmetry_Int_Tables_number   1
_chemical_formula_structural   Sc15C19
_chemical_formula_sum   'Sc30 C38'
_cell_volume   833.84687197
_cell_formula_units_Z   2
loop_
 _symmetry_equiv_pos_site_id
 _symmetry_equiv_pos_as_xyz
  1  'x, y, z'
loop_
 _atom_site_type_symbol
 _atom_site_label
 _atom_site_symmetry_multiplicity
 _atom_site_fract_x
 _atom_site_fract_y
 _atom_site_fract_z
 _atom_site_occupancy
  Sc  Sc0  1  0.50000000  0.50000000  0.50000000  1
  Sc  Sc1  1  0.00000000  0.00000000  0.00000000  1
  Sc  Sc2  1  0.00000000  0.00000000  0.33323200  1
  Sc  Sc3  1  0.00000000  0.00000000  0.66676800  1
  Sc  Sc4  1  0.50000000  0.50000000  0.16676800  1
  Sc  Sc5  1  0.50000000  0.50000000  0.83323200  1
  Sc  Sc6  1  0.59864100  0.21594900  0.64657100  1
  Sc  Sc7  1  0.40135900  0.78405100  0.64657100  1
  Sc  Sc8  1  0.28405100  0.90135900  0.14657100  1
  Sc  Sc9  1  0.78405100  0.59864100  0.35342900  1
  Sc  Sc10  1  0.21594900  0.40135900  0.35342900  1
  Sc  Sc11  1  0.90135900  0.71594900  0.85342900  1
  Sc  Sc12  1  0.09864100  0.28405100  0.85342900  1
  Sc  Sc13  1  0.71594900  0.09864100  0.14657100  1
  Sc  Sc14  1  0.78405100  0.59864100  0.64657100  1
  Sc  Sc15  1  0.21594900  0.40135900  0.64657100  1
  Sc  Sc16  1  0.90135900  0.71594900  0.14657100  1
  Sc  Sc17  1  0.40135900  0.78405100  0.35342900  1
  Sc  Sc18  1  0.59864100  0.21594900  0.35342900  1
  Sc  Sc19  1  0.71594900  0.09864100  0.85342900  1
  Sc  Sc20  1  0.28405100  0.90135900  0.85342900  1
  Sc  Sc21  1  0.09864100  0.28405100  0.14657100  1
  Sc  Sc22  1  0.70363200  0.90651900  0.50000000  1
  Sc  Sc23  1  0.29636800  0.09348100  0.50000000  1
  Sc  Sc24  1  0.59348100  0.79636800  0.00000000  1
  Sc  Sc25  1  0.09348100  0.70363200  0.50000000  1
  Sc  Sc26  1  0.90651900  0.29636800  0.50000000  1
  Sc  Sc27  1  0.79636800  0.40651900  0.00000000  1
  Sc  Sc28  1  0.20363200  0.59348100  0.00000000  1
  Sc  Sc29  1  0.40651900  0.20363200  0.00000000  1
  C  C30  1  0.50000000  0.50000000  0.00000000  1
  C  C31  1  0.00000000  0.00000000  0.50000000  1
  C  C32  1  0.50000000  0.50000000  0.66096500  1
  C  C33  1  0.50000000  0.50000000  0.33903500  1
  C  C34  1  0.00000000  0.00000000  0.83903500  1
  C  C35  1  0.00000000  0.00000000  0.16096500  1
  C  C36  1  0.90515200  0.30340300  0.66662600  1
  C  C37  1  0.09484800  0.69659700  0.66662600  1
  C  C38  1  0.19659700  0.59484800  0.16662600  1
  C  C39  1  0.69659700  0.90515200  0.33337400  1
  C  C40  1  0.30340300  0.09484800  0.33337400  1
  C  C41  1  0.59484800  0.80340300  0.83337400  1
  C  C42  1  0.40515200  0.19659700  0.83337400  1
  C  C43  1  0.80340300  0.40515200  0.16662600  1
  C  C44  1  0.65117500  0.84882500  0.75000000  1
  C  C45  1  0.34882500  0.15117500  0.75000000  1
  C  C46  1  0.60364700  0.19795600  0.50000000  1
  C  C47  1  0.65117500  0.84882500  0.25000000  1
  C  C48  1  0.84882500  0.34882500  0.25000000  1
  C  C49  1  0.84882500  0.34882500  0.75000000  1
  C  C50  1  0.15117500  0.65117500  0.75000000  1
  C  C51  1  0.34882500  0.15117500  0.25000000  1
  C  C52  1  0.69659700  0.90515200  0.66662600  1
  C  C53  1  0.30340300  0.09484800  0.66662600  1
  C  C54  1  0.59484800  0.80340300  0.16662600  1
  C  C55  1  0.09484800  0.69659700  0.33337400  1
  C  C56  1  0.90515200  0.30340300  0.33337400  1
  C  C57  1  0.80340300  0.40515200  0.83337400  1
  C  C58  1  0.19659700  0.59484800  0.83337400  1
  C  C59  1  0.40515200  0.19659700  0.16662600  1
  C  C60  1  0.69795600  0.10364700  0.00000000  1
  C  C61  1  0.10364700  0.30204400  0.00000000  1
  C  C62  1  0.89635300  0.69795600  0.00000000  1
  C  C63  1  0.19795600  0.39635300  0.50000000  1
  C  C64  1  0.80204400  0.60364700  0.50000000  1
  C  C65  1  0.30204400  0.89635300  0.00000000  1
  C  C66  1  0.39635300  0.80204400  0.50000000  1
  C  C67  1  0.15117500  0.65117500  0.25000000  1
