# generated using pymatgen
data_SrCo(GeO3)2
_symmetry_space_group_name_H-M   'P 1'
_cell_length_a   7.99035736
_cell_length_b   8.02282252
_cell_length_c   9.81335400
_cell_angle_alpha   76.32047399
_cell_angle_beta   109.21471229
_cell_angle_gamma   71.79756834
_symmetry_Int_Tables_number   1
_chemical_formula_structural   SrCo(GeO3)2
_chemical_formula_sum   'Sr4 Co4 Ge8 O24'
_cell_volume   522.39083298
_cell_formula_units_Z   4
loop_
 _symmetry_equiv_pos_site_id
 _symmetry_equiv_pos_as_xyz
  1  'x, y, z'
loop_
 _atom_site_type_symbol
 _atom_site_label
 _atom_site_symmetry_multiplicity
 _atom_site_fract_x
 _atom_site_fract_y
 _atom_site_fract_z
 _atom_site_occupancy
  Sr  Sr0  1  0.19357800  0.17911400  0.62341400  1
  Sr  Sr1  1  0.19754800  0.68160000  0.12434700  1
  Sr  Sr2  1  0.80604800  0.31873000  0.87500700  1
  Sr  Sr3  1  0.80340400  0.82064000  0.37438700  1
  Co  Co4  1  0.59068200  0.28501200  0.12574200  1
  Co  Co5  1  0.40746800  0.21758100  0.37426400  1
  Co  Co6  1  0.59020900  0.78322700  0.62453300  1
  Co  Co7  1  0.40735200  0.71721700  0.87416200  1
  Ge  Ge8  1  0.12501900  0.98895400  0.32525500  1
  Ge  Ge9  1  0.12073800  0.49503500  0.81987400  1
  Ge  Ge10  1  0.87948700  0.50533800  0.17794400  1
  Ge  Ge11  1  0.87514100  0.00854300  0.67758100  1
  Ge  Ge12  1  0.68241100  0.95039200  0.93028500  1
  Ge  Ge13  1  0.68571100  0.45013300  0.42436600  1
  Ge  Ge14  1  0.31735800  0.54743800  0.57017000  1
  Ge  Ge15  1  0.31490400  0.05238500  0.07452000  1
  O  O16  1  0.87117100  0.97135600  0.86601300  1
  O  O17  1  0.88076500  0.46594600  0.36737700  1
  O  O18  1  0.12592200  0.53049100  0.63206600  1
  O  O19  1  0.12285200  0.03392000  0.13414800  1
  O  O20  1  0.16488200  0.73768900  0.38101800  1
  O  O21  1  0.16296200  0.24349300  0.88423900  1
  O  O22  1  0.83747100  0.75670900  0.11768300  1
  O  O23  1  0.83506600  0.25900900  0.61545900  1
  O  O24  1  0.31380100  0.01056400  0.46287200  1
  O  O25  1  0.30527000  0.52395200  0.95478100  1
  O  O26  1  0.68929600  0.48060900  0.04229900  1
  O  O27  1  0.68732700  0.98345100  0.54132600  1
  O  O28  1  0.52089400  0.89728700  0.79649700  1
  O  O29  1  0.52567900  0.40001900  0.28710800  1
  O  O30  1  0.47898900  0.60054600  0.70413600  1
  O  O31  1  0.47476200  0.10611700  0.20995600  1
  O  O32  1  0.88035900  0.60728100  0.79302500  1
  O  O33  1  0.88926100  0.10153900  0.30444400  1
  O  O34  1  0.11531200  0.89406700  0.70537100  1
  O  O35  1  0.11885700  0.39560400  0.20277400  1
  O  O36  1  0.59572000  0.66334700  0.44634400  1
  O  O37  1  0.59884800  0.16318500  0.95697500  1
  O  O38  1  0.40686500  0.83925400  0.05270400  1
  O  O39  1  0.40060900  0.33322400  0.54553300  1
