# generated using pymatgen
data_LaZnFeMoO6
_symmetry_space_group_name_H-M   'P 1'
_cell_length_a   5.49294545
_cell_length_b   7.85203699
_cell_length_c   5.81633747
_cell_angle_alpha   89.95831038
_cell_angle_beta   90.62784768
_cell_angle_gamma   89.55408598
_symmetry_Int_Tables_number   1
_chemical_formula_structural   LaZnFeMoO6
_chemical_formula_sum   'La2 Zn2 Fe2 Mo2 O12'
_cell_volume   250.84061030
_cell_formula_units_Z   2
loop_
 _symmetry_equiv_pos_site_id
 _symmetry_equiv_pos_as_xyz
  1  'x, y, z'
loop_
 _atom_site_type_symbol
 _atom_site_label
 _atom_site_symmetry_multiplicity
 _atom_site_fract_x
 _atom_site_fract_y
 _atom_site_fract_z
 _atom_site_occupancy
  La  La0  1  0.98165100  0.24634800  0.05727500  1
  La  La1  1  0.48044900  0.74718900  0.44282400  1
  Zn  Zn2  1  0.48350200  0.24721900  0.39629000  1
  Zn  Zn3  1  0.97514100  0.75220500  0.10372600  1
  Fe  Fe4  1  0.49723300  0.50153100  0.98872600  1
  Fe  Fe5  1  0.99435200  0.00113700  0.52333500  1
  Mo  Mo6  1  0.49711800  0.99698200  0.97484900  1
  Mo  Mo7  1  0.00185200  0.49649700  0.52843500  1
  O  O8  1  0.62719800  0.75420700  0.02835500  1
  O  O9  1  0.13150100  0.25288100  0.47228000  1
  O  O10  1  0.19027500  0.94220600  0.19466900  1
  O  O11  1  0.69992800  0.44126600  0.30951300  1
  O  O12  1  0.17604300  0.54985100  0.21234500  1
  O  O13  1  0.70073800  0.05184900  0.30051800  1
  O  O14  1  0.91419400  0.74932600  0.49733800  1
  O  O15  1  0.41133500  0.24563200  0.01324300  1
  O  O16  1  0.30168100  0.54946700  0.69420400  1
  O  O17  1  0.81150300  0.05688800  0.79037600  1
  O  O18  1  0.31131600  0.95655900  0.68857000  1
  O  O19  1  0.81298700  0.46075900  0.78312900  1
