# generated using pymatgen
data_Co2O3F
_symmetry_space_group_name_H-M   'P 1'
_cell_length_a   4.52472057
_cell_length_b   4.52469646
_cell_length_c   11.79461600
_cell_angle_alpha   89.99966598
_cell_angle_beta   89.99999802
_cell_angle_gamma   95.20733179
_symmetry_Int_Tables_number   1
_chemical_formula_structural   Co2O3F
_chemical_formula_sum   'Co8 O12 F4'
_cell_volume   240.47442076
_cell_formula_units_Z   4
loop_
 _symmetry_equiv_pos_site_id
 _symmetry_equiv_pos_as_xyz
  1  'x, y, z'
loop_
 _atom_site_type_symbol
 _atom_site_label
 _atom_site_symmetry_multiplicity
 _atom_site_fract_x
 _atom_site_fract_y
 _atom_site_fract_z
 _atom_site_occupancy
  Co  Co0  1  0.46025700  0.53974400  0.62206600  1
  Co  Co1  1  0.46025300  0.53974400  0.87793300  1
  Co  Co2  1  0.99976600  0.00023300  0.00089700  1
  Co  Co3  1  0.99976400  0.00023800  0.49910600  1
  Co  Co4  1  0.00238700  0.99761400  0.25000000  1
  Co  Co5  1  0.00122300  0.99877800  0.74999900  1
  Co  Co6  1  0.54190300  0.45809800  0.12572500  1
  Co  Co7  1  0.54190400  0.45810000  0.37427700  1
  O  O8  1  0.17912100  0.82086900  0.62206900  1
  O  O9  1  0.17912100  0.82086000  0.87793300  1
  O  O10  1  0.82540300  0.17460200  0.13079600  1
  O  O11  1  0.82540100  0.17460200  0.36920100  1
  O  O12  1  0.30403200  0.30415700  0.00365700  1
  O  O13  1  0.30403300  0.30416600  0.49634300  1
  O  O14  1  0.69583000  0.69597400  0.00365800  1
  O  O15  1  0.69582600  0.69597300  0.49634200  1
  O  O16  1  0.32318800  0.28621700  0.24999900  1
  O  O17  1  0.28541000  0.32222100  0.75000100  1
  O  O18  1  0.71378100  0.67681400  0.24999900  1
  O  O19  1  0.67776500  0.71460700  0.75000000  1
  F  F20  1  0.20350600  0.79649500  0.13497200  1
  F  F21  1  0.20349900  0.79649300  0.36502600  1
  F  F22  1  0.78831400  0.21170500  0.62583200  1
  F  F23  1  0.78831100  0.21169800  0.87416900  1
