# generated using pymatgen
data_LaMgFeWO6
_symmetry_space_group_name_H-M   'P 1'
_cell_length_a   5.45735699
_cell_length_b   8.10752132
_cell_length_c   5.57873300
_cell_angle_alpha   90.00108087
_cell_angle_beta   90.00070808
_cell_angle_gamma   89.55606117
_symmetry_Int_Tables_number   1
_chemical_formula_structural   LaMgFeWO6
_chemical_formula_sum   'La2 Mg2 Fe2 W2 O12'
_cell_volume   246.82719238
_cell_formula_units_Z   2
loop_
 _symmetry_equiv_pos_site_id
 _symmetry_equiv_pos_as_xyz
  1  'x, y, z'
loop_
 _atom_site_type_symbol
 _atom_site_label
 _atom_site_symmetry_multiplicity
 _atom_site_fract_x
 _atom_site_fract_y
 _atom_site_fract_z
 _atom_site_occupancy
  La  La0  1  0.99500500  0.24618600  0.04999800  1
  La  La1  1  0.49500900  0.74618100  0.45002700  1
  Mg  Mg2  1  0.52234800  0.25514600  0.55256100  1
  Mg  Mg3  1  0.02234300  0.75514800  0.94743500  1
  Fe  Fe4  1  0.49888000  0.49656200  0.00435200  1
  Fe  Fe5  1  0.99890100  0.99656700  0.49569700  1
  W  W6  1  0.50240000  0.99881300  0.99042700  1
  W  W7  1  0.00240300  0.49881500  0.50956600  1
  O  O8  1  0.64877300  0.76649500  0.04137400  1
  O  O9  1  0.14878900  0.26650100  0.45860200  1
  O  O10  1  0.18776700  0.93416000  0.18553900  1
  O  O11  1  0.68779000  0.43414400  0.31444300  1
  O  O12  1  0.16048900  0.56980500  0.20992400  1
  O  O13  1  0.66049100  0.06979100  0.29008600  1
  O  O14  1  0.90043100  0.73839800  0.57576000  1
  O  O15  1  0.40044500  0.23840100  0.92424300  1
  O  O16  1  0.28402100  0.56252900  0.72045700  1
  O  O17  1  0.78402100  0.06251700  0.77955900  1
  O  O18  1  0.29984300  0.93193100  0.72418900  1
  O  O19  1  0.79984700  0.43190700  0.77576100  1
