# generated using pymatgen
data_Li4TiCo5O12
_symmetry_space_group_name_H-M   'P 1'
_cell_length_a   4.96007702
_cell_length_b   10.81193710
_cell_length_c   8.53754573
_cell_angle_alpha   113.24798450
_cell_angle_beta   90.02200205
_cell_angle_gamma   85.43653006
_symmetry_Int_Tables_number   1
_chemical_formula_structural   Li4TiCo5O12
_chemical_formula_sum   'Li8 Ti2 Co10 O24'
_cell_volume   419.10239867
_cell_formula_units_Z   2
loop_
 _symmetry_equiv_pos_site_id
 _symmetry_equiv_pos_as_xyz
  1  'x, y, z'
loop_
 _atom_site_type_symbol
 _atom_site_label
 _atom_site_symmetry_multiplicity
 _atom_site_fract_x
 _atom_site_fract_y
 _atom_site_fract_z
 _atom_site_occupancy
  Li  Li0  1  0.03986500  0.74539100  0.20130800  1
  Li  Li1  1  0.53216800  0.74674600  0.70552200  1
  Li  Li2  1  0.46062400  0.25480800  0.95611400  1
  Li  Li3  1  0.96781500  0.25327600  0.45867100  1
  Li  Li4  1  0.53217300  0.74672400  0.04135000  1
  Li  Li5  1  0.03938600  0.74518400  0.54386000  1
  Li  Li6  1  0.96781600  0.25324900  0.79446600  1
  Li  Li7  1  0.46018400  0.25461200  0.29872300  1
  Ti  Ti8  1  0.99688500  0.00098700  0.00047100  1
  Ti  Ti9  1  0.50311200  0.99901300  0.49952600  1
  Co  Co10  1  0.75002700  0.49999100  0.74999500  1
  Co  Co11  1  0.24996800  0.49998000  0.24999300  1
  Co  Co12  1  0.25025200  0.50003600  0.91454700  1
  Co  Co13  1  0.74959000  0.49993900  0.41585700  1
  Co  Co14  1  0.75041900  0.50010200  0.08414500  1
  Co  Co15  1  0.24980600  0.49995900  0.58544500  1
  Co  Co16  1  0.00039900  0.99990100  0.66640300  1
  Co  Co17  1  0.49959900  0.00007500  0.16650400  1
  Co  Co18  1  0.49959400  0.00009900  0.83359600  1
  Co  Co19  1  0.00039500  0.99992000  0.33349100  1
  O  O20  1  0.40350700  0.60132100  0.80064600  1
  O  O21  1  0.90993500  0.59877200  0.29965900  1
  O  O22  1  0.58996700  0.40130000  0.20038000  1
  O  O23  1  0.09652900  0.39866800  0.69935900  1
  O  O24  1  0.82420900  0.10661200  0.55325500  1
  O  O25  1  0.32287300  0.10583400  0.05288800  1
  O  O26  1  0.17712200  0.89416800  0.44711300  1
  O  O27  1  0.67578700  0.89338700  0.94674200  1
  O  O28  1  0.31068700  0.10527400  0.72314500  1
  O  O29  1  0.80877100  0.10706300  0.22512000  1
  O  O30  1  0.18927500  0.89471300  0.11794000  1
  O  O31  1  0.69119000  0.89293700  0.61814400  1
  O  O32  1  0.80880000  0.10706700  0.88185800  1
  O  O33  1  0.31071900  0.10528400  0.38205600  1
  O  O34  1  0.69122100  0.89293400  0.27487700  1
  O  O35  1  0.18930500  0.89472700  0.77685400  1
  O  O36  1  0.12533800  0.38860000  0.01055400  1
  O  O37  1  0.59951000  0.40009500  0.53121700  1
  O  O38  1  0.60001600  0.40000800  0.86858500  1
  O  O39  1  0.12544000  0.38847900  0.37778200  1
  O  O40  1  0.37455500  0.61150600  0.12223800  1
  O  O41  1  0.90003000  0.59996900  0.63136500  1
  O  O42  1  0.90055800  0.59988300  0.96878900  1
  O  O43  1  0.37458300  0.61140900  0.48944500  1
