# generated using pymatgen
data_MnTe2O5
_symmetry_space_group_name_H-M   'P 1'
_cell_length_a   6.09747400
_cell_length_b   7.43506702
_cell_length_c   11.03111608
_cell_angle_alpha   89.99214956
_cell_angle_beta   89.99476885
_cell_angle_gamma   90.00050370
_symmetry_Int_Tables_number   1
_chemical_formula_structural   MnTe2O5
_chemical_formula_sum   'Mn4 Te8 O20'
_cell_volume   500.09705062
_cell_formula_units_Z   4
loop_
 _symmetry_equiv_pos_site_id
 _symmetry_equiv_pos_as_xyz
  1  'x, y, z'
loop_
 _atom_site_type_symbol
 _atom_site_label
 _atom_site_symmetry_multiplicity
 _atom_site_fract_x
 _atom_site_fract_y
 _atom_site_fract_z
 _atom_site_occupancy
  Mn  Mn0  1  0.24978500  0.99986100  0.05847700  1
  Mn  Mn1  1  0.75038600  0.49999600  0.44148700  1
  Mn  Mn2  1  0.74979500  0.00053900  0.93670900  1
  Mn  Mn3  1  0.25018000  0.50052400  0.56322900  1
  Te  Te4  1  0.01324700  0.86358500  0.34738800  1
  Te  Te5  1  0.51333200  0.63667400  0.15252500  1
  Te  Te6  1  0.98681600  0.36350300  0.15258000  1
  Te  Te7  1  0.48669900  0.13678200  0.34750700  1
  Te  Te8  1  0.51132200  0.86668400  0.65435400  1
  Te  Te9  1  0.01115900  0.63316300  0.84555200  1
  Te  Te10  1  0.48860700  0.36671800  0.84564800  1
  Te  Te11  1  0.98875000  0.13320200  0.65444000  1
  O  O12  1  0.95258500  0.34844400  0.56637100  1
  O  O13  1  0.45265400  0.15152200  0.93390400  1
  O  O14  1  0.04733900  0.84834100  0.93365300  1
  O  O15  1  0.54730500  0.65148000  0.56616000  1
  O  O16  1  0.04775600  0.64687300  0.43633800  1
  O  O17  1  0.54784400  0.85318900  0.06355200  1
  O  O18  1  0.95234100  0.14681900  0.06365800  1
  O  O19  1  0.45219300  0.35326000  0.43645400  1
  O  O20  1  0.81282100  0.19205200  0.79129400  1
  O  O21  1  0.31264300  0.30744400  0.70897800  1
  O  O22  1  0.18716600  0.69204400  0.70872300  1
  O  O23  1  0.68731400  0.80744100  0.79104000  1
  O  O24  1  0.24991300  0.99997000  0.43993100  1
  O  O25  1  0.75006100  0.49997900  0.06005800  1
  O  O26  1  0.74990300  0.99996900  0.56229100  1
  O  O27  1  0.25008100  0.49996400  0.93772700  1
  O  O28  1  0.31049700  0.19533100  0.21119700  1
  O  O29  1  0.81043800  0.30467000  0.28878100  1
  O  O30  1  0.68949000  0.69522700  0.28882900  1
  O  O31  1  0.18957700  0.80474900  0.21116600  1
