# generated using pymatgen
data_Li3Fe2P4HO14
_symmetry_space_group_name_H-M   'P 1'
_cell_length_a   5.21052387
_cell_length_b   8.53420721
_cell_length_c   12.94032958
_cell_angle_alpha   81.86853897
_cell_angle_beta   78.79780497
_cell_angle_gamma   88.33968697
_symmetry_Int_Tables_number   1
_chemical_formula_structural   Li3Fe2P4HO14
_chemical_formula_sum   'Li6 Fe4 P8 H2 O28'
_cell_volume   558.78767890
_cell_formula_units_Z   2
loop_
 _symmetry_equiv_pos_site_id
 _symmetry_equiv_pos_as_xyz
  1  'x, y, z'
loop_
 _atom_site_type_symbol
 _atom_site_label
 _atom_site_symmetry_multiplicity
 _atom_site_fract_x
 _atom_site_fract_y
 _atom_site_fract_z
 _atom_site_occupancy
  Li  Li0  1  0.50017200  0.00005000  0.49989100  1
  Li  Li1  1  0.00045100  0.49994900  0.49986800  1
  Li  Li2  1  0.69486000  0.44849600  0.05862400  1
  Li  Li3  1  0.19482100  0.94856200  0.05867400  1
  Li  Li4  1  0.80512100  0.05145500  0.94135000  1
  Li  Li5  1  0.30513100  0.55155800  0.94135400  1
  Fe  Fe6  1  0.37433700  0.91838600  0.76857400  1
  Fe  Fe7  1  0.62577400  0.08153100  0.23126500  1
  Fe  Fe8  1  0.87482100  0.41824400  0.76845200  1
  Fe  Fe9  1  0.12505200  0.58175300  0.23160500  1
  P  P10  1  0.43322100  0.33338700  0.63165200  1
  P  P11  1  0.93282100  0.83349200  0.63175500  1
  P  P12  1  0.06720300  0.16647500  0.36819000  1
  P  P13  1  0.56673600  0.66658000  0.36844700  1
  P  P14  1  0.34907300  0.22821400  0.85749100  1
  P  P15  1  0.84891900  0.72816600  0.85751400  1
  P  P16  1  0.15106500  0.27190700  0.14244300  1
  P  P17  1  0.65083000  0.77176400  0.14257600  1
  H  H18  1  0.75050400  0.24984600  0.49992800  1
  H  H19  1  0.24955300  0.75014700  0.50014700  1
  O  O20  1  0.16437800  0.40959700  0.63361500  1
  O  O21  1  0.66392200  0.90953200  0.63368300  1
  O  O22  1  0.33613800  0.09044700  0.36620200  1
  O  O23  1  0.83555500  0.59030700  0.36638200  1
  O  O24  1  0.18548400  0.37956800  0.86451000  1
  O  O25  1  0.68529600  0.87949900  0.86455800  1
  O  O26  1  0.31468700  0.12057500  0.13539100  1
  O  O27  1  0.81447000  0.62044800  0.13551200  1
  O  O28  1  0.20930200  0.07538000  0.91481200  1
  O  O29  1  0.70929000  0.57531600  0.91483000  1
  O  O30  1  0.29074000  0.42477800  0.08517700  1
  O  O31  1  0.79051700  0.92466100  0.08529700  1
  O  O32  1  0.39027200  0.19020500  0.73462500  1
  O  O33  1  0.89009200  0.69020100  0.73463000  1
  O  O34  1  0.10983600  0.30981700  0.26534300  1
  O  O35  1  0.60955800  0.80970300  0.26544400  1
  O  O36  1  0.51991600  0.24308100  0.53634900  1
  O  O37  1  0.01970100  0.74330500  0.53636600  1
  O  O38  1  0.98045700  0.25659200  0.46361400  1
  O  O39  1  0.48028900  0.75696300  0.46371800  1
  O  O40  1  0.87282800  0.25299500  0.12140200  1
  O  O41  1  0.37257700  0.75289700  0.12151900  1
  O  O42  1  0.62732800  0.24708800  0.87852800  1
  O  O43  1  0.12718900  0.74710200  0.87852800  1
  O  O44  1  0.64250900  0.44116400  0.64983500  1
  O  O45  1  0.14199900  0.94133200  0.64995100  1
  O  O46  1  0.85800300  0.05865400  0.34998700  1
  O  O47  1  0.35720100  0.55883400  0.35039500  1
