# generated using pymatgen
data_CoP2WO8
_symmetry_space_group_name_H-M   'P 1'
_cell_length_a   4.95730970
_cell_length_b   10.13843950
_cell_length_c   5.98647715
_cell_angle_alpha   90.01532627
_cell_angle_beta   89.97756703
_cell_angle_gamma   92.09093496
_symmetry_Int_Tables_number   1
_chemical_formula_structural   CoP2WO8
_chemical_formula_sum   'Co2 P4 W2 O16'
_cell_volume   300.67629436
_cell_formula_units_Z   2
loop_
 _symmetry_equiv_pos_site_id
 _symmetry_equiv_pos_as_xyz
  1  'x, y, z'
loop_
 _atom_site_type_symbol
 _atom_site_label
 _atom_site_symmetry_multiplicity
 _atom_site_fract_x
 _atom_site_fract_y
 _atom_site_fract_z
 _atom_site_occupancy
  Co  Co0  1  0.06939900  0.71802600  0.75006900  1
  Co  Co1  1  0.94255100  0.27722000  0.25035400  1
  P  P2  1  0.40360000  0.09214000  0.24990800  1
  P  P3  1  0.59757000  0.90806400  0.74998800  1
  P  P4  1  0.88406800  0.40913900  0.74994600  1
  P  P5  1  0.11210900  0.59078000  0.25006900  1
  W  W6  1  0.44193300  0.22263000  0.75014900  1
  W  W7  1  0.55745600  0.77814900  0.24999900  1
  O  O8  1  0.68325500  0.05455500  0.74991100  1
  O  O9  1  0.31604900  0.94605000  0.25016500  1
  O  O10  1  0.70784700  0.11305400  0.24940300  1
  O  O11  1  0.29455400  0.88572400  0.75009000  1
  O  O12  1  0.18384600  0.37979900  0.75011800  1
  O  O13  1  0.81245800  0.61948800  0.24998200  1
  O  O14  1  0.16137400  0.44479800  0.25022500  1
  O  O15  1  0.83991200  0.55537200  0.74977800  1
  O  O16  1  0.26529800  0.16581700  0.04637000  1
  O  O17  1  0.26602400  0.16608300  0.45368400  1
  O  O18  1  0.73468000  0.83501500  0.54512100  1
  O  O19  1  0.73464700  0.83503600  0.95476400  1
  O  O20  1  0.72803500  0.33340100  0.55205700  1
  O  O21  1  0.72771800  0.33368900  0.94782200  1
  O  O22  1  0.26786000  0.66792500  0.05276100  1
  O  O23  1  0.26775600  0.66804400  0.44726600  1
