# generated using pymatgen
data_LaMgTiFeO6
_symmetry_space_group_name_H-M   'P 1'
_cell_length_a   5.37172554
_cell_length_b   9.49550401
_cell_length_c   9.49558682
_cell_angle_alpha   71.27518279
_cell_angle_beta   90.03640746
_cell_angle_gamma   90.03678717
_symmetry_Int_Tables_number   1
_chemical_formula_structural   LaMgTiFeO6
_chemical_formula_sum   'La4 Mg4 Ti4 Fe4 O24'
_cell_volume   458.70787469
_cell_formula_units_Z   4
loop_
 _symmetry_equiv_pos_site_id
 _symmetry_equiv_pos_as_xyz
  1  'x, y, z'
loop_
 _atom_site_type_symbol
 _atom_site_label
 _atom_site_symmetry_multiplicity
 _atom_site_fract_x
 _atom_site_fract_y
 _atom_site_fract_z
 _atom_site_occupancy
  La  La0  1  0.99246500  0.10743600  0.14331600  1
  La  La1  1  0.99246500  0.60743400  0.64331800  1
  La  La2  1  0.49246900  0.14330300  0.60743900  1
  La  La3  1  0.49246400  0.64330400  0.10744400  1
  Mg  Mg4  1  0.52602300  0.85078200  0.40159200  1
  Mg  Mg5  1  0.52602300  0.35078200  0.90159200  1
  Mg  Mg6  1  0.02601900  0.90159100  0.85078100  1
  Mg  Mg7  1  0.02601900  0.40159100  0.35078100  1
  Ti  Ti8  1  0.00156800  0.99641400  0.50222000  1
  Ti  Ti9  1  0.00157100  0.49641200  0.00222400  1
  Ti  Ti10  1  0.50156800  0.00221900  0.99641200  1
  Ti  Ti11  1  0.50156800  0.50222000  0.49640800  1
  Fe  Fe12  1  0.00082300  0.25184200  0.74972800  1
  Fe  Fe13  1  0.50080600  0.74972200  0.75183300  1
  Fe  Fe14  1  0.00082300  0.75183600  0.24973500  1
  Fe  Fe15  1  0.50080600  0.24972400  0.25182900  1
  O  O16  1  0.63190300  0.36704600  0.38780900  1
  O  O17  1  0.63190300  0.86704500  0.88780900  1
  O  O18  1  0.13190000  0.88779600  0.36704500  1
  O  O19  1  0.13190300  0.38779500  0.86704600  1
  O  O20  1  0.19609100  0.37425600  0.56788300  1
  O  O21  1  0.19609100  0.87425500  0.06788400  1
  O  O22  1  0.69609900  0.06788200  0.37426000  1
  O  O23  1  0.69610000  0.56788200  0.87426000  1
  O  O24  1  0.18649500  0.17922200  0.38049500  1
  O  O25  1  0.18649600  0.67922200  0.88049600  1
  O  O26  1  0.68649300  0.88049600  0.17921300  1
  O  O27  1  0.68649100  0.38049500  0.67921300  1
  O  O28  1  0.91973800  0.10119900  0.64414800  1
  O  O29  1  0.91974000  0.60120100  0.14414800  1
  O  O30  1  0.41974000  0.64416100  0.60119700  1
  O  O31  1  0.41974300  0.14416200  0.10119800  1
  O  O32  1  0.27020400  0.91362700  0.63834800  1
  O  O33  1  0.27020400  0.41362900  0.13834400  1
  O  O34  1  0.77020000  0.63836100  0.41362800  1
  O  O35  1  0.77020100  0.13835900  0.91362900  1
  O  O36  1  0.27469400  0.10604500  0.83660600  1
  O  O37  1  0.27469100  0.60604400  0.33660700  1
  O  O38  1  0.77469600  0.83660500  0.60604000  1
  O  O39  1  0.77470000  0.33660400  0.10604100  1
