# generated using pymatgen
data_Ca4Mn3SbO12
_symmetry_space_group_name_H-M   'P 1'
_cell_length_a   5.35377645
_cell_length_b   9.55367109
_cell_length_c   9.58668297
_cell_angle_alpha   69.38510176
_cell_angle_beta   89.79602677
_cell_angle_gamma   89.68031814
_symmetry_Int_Tables_number   1
_chemical_formula_structural   Ca4Mn3SbO12
_chemical_formula_sum   'Ca8 Mn6 Sb2 O24'
_cell_volume   458.93639625
_cell_formula_units_Z   2
loop_
 _symmetry_equiv_pos_site_id
 _symmetry_equiv_pos_as_xyz
  1  'x, y, z'
loop_
 _atom_site_type_symbol
 _atom_site_label
 _atom_site_symmetry_multiplicity
 _atom_site_fract_x
 _atom_site_fract_y
 _atom_site_fract_z
 _atom_site_occupancy
  Ca  Ca0  1  0.99042800  0.84209200  0.88500400  1
  Ca  Ca1  1  0.99208400  0.35078000  0.38913400  1
  Ca  Ca2  1  0.00956200  0.15785100  0.11496800  1
  Ca  Ca3  1  0.00786300  0.64927900  0.61087400  1
  Ca  Ca4  1  0.51298500  0.59855800  0.13908300  1
  Ca  Ca5  1  0.51237700  0.08811000  0.64596900  1
  Ca  Ca6  1  0.48713700  0.40145600  0.86077000  1
  Ca  Ca7  1  0.48760700  0.91190800  0.35416400  1
  Mn  Mn8  1  0.49993500  0.50013000  0.50000000  1
  Mn  Mn9  1  0.00013300  0.49994300  0.99999900  1
  Mn  Mn10  1  0.99988500  0.00004100  0.50004600  1
  Mn  Mn11  1  0.50536600  0.25345300  0.25107200  1
  Mn  Mn12  1  0.49438500  0.74646300  0.74885700  1
  Mn  Mn13  1  0.50017700  0.00005300  0.99996300  1
  Sb  Sb14  1  0.99715700  0.24480400  0.74854400  1
  Sb  Sb15  1  0.00278400  0.75517100  0.25147800  1
  O  O16  1  0.70815500  0.62347900  0.91004200  1
  O  O17  1  0.71048800  0.12552100  0.41718700  1
  O  O18  1  0.29197300  0.37650300  0.08985900  1
  O  O19  1  0.28934600  0.87452900  0.58286000  1
  O  O20  1  0.30935300  0.16761200  0.86626100  1
  O  O21  1  0.30024800  0.67523600  0.38536600  1
  O  O22  1  0.69083500  0.83225600  0.13374800  1
  O  O23  1  0.69982500  0.32476600  0.61468700  1
  O  O24  1  0.08475000  0.64671900  0.11859500  1
  O  O25  1  0.08418600  0.13081400  0.61199000  1
  O  O26  1  0.91529900  0.35328000  0.88141200  1
  O  O27  1  0.91578200  0.86926200  0.38792300  1
  O  O28  1  0.78849000  0.37660000  0.16773600  1
  O  O29  1  0.79205400  0.87259300  0.66002100  1
  O  O30  1  0.21166500  0.62336400  0.83228600  1
  O  O31  1  0.20786600  0.12751300  0.33992300  1
  O  O32  1  0.20161800  0.41992900  0.62043700  1
  O  O33  1  0.20292300  0.93192700  0.12910900  1
  O  O34  1  0.79832400  0.58002600  0.37958500  1
  O  O35  1  0.79694400  0.06796800  0.87101600  1
  O  O36  1  0.41873100  0.39649800  0.36364600  1
  O  O37  1  0.42311000  0.87168100  0.85982100  1
  O  O38  1  0.58123400  0.60355500  0.63628600  1
  O  O39  1  0.57693500  0.12828100  0.14028100  1
