# generated using pymatgen
data_Li7Mn2(CoO4)3
_symmetry_space_group_name_H-M   'P 1'
_cell_length_a   5.17478386
_cell_length_b   10.62524363
_cell_length_c   8.52529590
_cell_angle_alpha   66.34258991
_cell_angle_beta   89.99493069
_cell_angle_gamma   97.40421091
_symmetry_Int_Tables_number   1
_chemical_formula_structural   Li7Mn2(CoO4)3
_chemical_formula_sum   'Li14 Mn4 Co6 O24'
_cell_volume   425.08307754
_cell_formula_units_Z   2
loop_
 _symmetry_equiv_pos_site_id
 _symmetry_equiv_pos_as_xyz
  1  'x, y, z'
loop_
 _atom_site_type_symbol
 _atom_site_label
 _atom_site_symmetry_multiplicity
 _atom_site_fract_x
 _atom_site_fract_y
 _atom_site_fract_z
 _atom_site_occupancy
  Li  Li0  1  0.24640900  0.50249900  0.91635800  1
  Li  Li1  1  0.75368400  0.49751500  0.41883200  1
  Li  Li2  1  0.35811800  0.25817400  0.53675700  1
  Li  Li3  1  0.86296500  0.25836900  0.03545500  1
  Li  Li4  1  0.13722300  0.74162000  0.29375900  1
  Li  Li5  1  0.64197000  0.74176000  0.79492100  1
  Li  Li6  1  0.38490000  0.24993100  0.20567100  1
  Li  Li7  1  0.88462900  0.25014900  0.70632300  1
  Li  Li8  1  0.11557300  0.74997600  0.95639100  1
  Li  Li9  1  0.61498900  0.75006700  0.45558300  1
  Li  Li10  1  0.87119500  0.25520400  0.37497300  1
  Li  Li11  1  0.37086500  0.25419600  0.87435900  1
  Li  Li12  1  0.62903700  0.74571000  0.12856900  1
  Li  Li13  1  0.12895600  0.74489000  0.63001000  1
  Mn  Mn14  1  0.99966100  0.99997600  0.99603400  1
  Mn  Mn15  1  0.99956800  0.99997600  0.33674900  1
  Mn  Mn16  1  0.50026900  0.00005100  0.83400800  1
  Mn  Mn17  1  0.50000000  0.00000600  0.49503500  1
  Co  Co18  1  0.00004500  0.99999600  0.66519800  1
  Co  Co19  1  0.49976100  0.00002600  0.16446700  1
  Co  Co20  1  0.25445500  0.49904900  0.25120900  1
  Co  Co21  1  0.74569800  0.50094900  0.75025600  1
  Co  Co22  1  0.24895200  0.49910800  0.59266300  1
  Co  Co23  1  0.75124700  0.50090300  0.09175200  1
  O  O24  1  0.19890100  0.10725900  0.11251100  1
  O  O25  1  0.69908700  0.10755100  0.61101000  1
  O  O26  1  0.30112600  0.89251300  0.71858900  1
  O  O27  1  0.80041500  0.89264200  0.21981000  1
  O  O28  1  0.40528900  0.60783000  0.36255500  1
  O  O29  1  0.90999200  0.60990700  0.86441000  1
  O  O30  1  0.09024400  0.39011200  0.47434200  1
  O  O31  1  0.59489600  0.39219800  0.97038900  1
  O  O32  1  0.16797200  0.11752600  0.77109700  1
  O  O33  1  0.66704000  0.11837700  0.26952800  1
  O  O34  1  0.16702800  0.11924200  0.44137900  1
  O  O35  1  0.66732900  0.11898100  0.94031300  1
  O  O36  1  0.33260400  0.88165800  0.38795100  1
  O  O37  1  0.83197400  0.88236700  0.88863000  1
  O  O38  1  0.33254700  0.88113800  0.05915400  1
  O  O39  1  0.83276100  0.88063800  0.56084300  1
  O  O40  1  0.45812500  0.60532700  0.04596900  1
  O  O41  1  0.95282100  0.60376900  0.54844000  1
  O  O42  1  0.93186800  0.61596900  0.17857400  1
  O  O43  1  0.43443000  0.61603600  0.67743800  1
  O  O44  1  0.04733300  0.39621100  0.15228000  1
  O  O45  1  0.54198400  0.39463300  0.65136700  1
  O  O46  1  0.56575000  0.38396900  0.29350700  1
  O  O47  1  0.06831500  0.38404700  0.79458300  1
