# generated using pymatgen
data_CaCr(GeO3)2
_symmetry_space_group_name_H-M   'P 1'
_cell_length_a   6.83035315
_cell_length_b   8.10479425
_cell_length_c   9.95593408
_cell_angle_alpha   73.98580375
_cell_angle_beta   79.74280738
_cell_angle_gamma   91.73117158
_symmetry_Int_Tables_number   1
_chemical_formula_structural   CaCr(GeO3)2
_chemical_formula_sum   'Ca4 Cr4 Ge8 O24'
_cell_volume   519.45507200
_cell_formula_units_Z   4
loop_
 _symmetry_equiv_pos_site_id
 _symmetry_equiv_pos_as_xyz
  1  'x, y, z'
loop_
 _atom_site_type_symbol
 _atom_site_label
 _atom_site_symmetry_multiplicity
 _atom_site_fract_x
 _atom_site_fract_y
 _atom_site_fract_z
 _atom_site_occupancy
  Ca  Ca0  1  0.30720500  0.97623300  0.72353000  1
  Ca  Ca1  1  0.30700400  0.47614900  0.22361700  1
  Ca  Ca2  1  0.69297000  0.02367500  0.27637500  1
  Ca  Ca3  1  0.69280800  0.52394100  0.77657700  1
  Cr  Cr4  1  0.90627700  0.16858100  0.92445900  1
  Cr  Cr5  1  0.09353900  0.33160400  0.57545000  1
  Cr  Cr6  1  0.90623400  0.66787900  0.42523200  1
  Cr  Cr7  1  0.09367600  0.83202600  0.07507000  1
  Ge  Ge8  1  0.38060800  0.70488200  0.48774400  1
  Ge  Ge9  1  0.38061900  0.20494600  0.98772900  1
  Ge  Ge10  1  0.81702300  0.94658000  0.66959900  1
  Ge  Ge11  1  0.81719100  0.44654800  0.16948300  1
  Ge  Ge12  1  0.61931300  0.29507500  0.51218800  1
  Ge  Ge13  1  0.61944700  0.79506700  0.01230500  1
  Ge  Ge14  1  0.18283500  0.05335800  0.33042200  1
  Ge  Ge15  1  0.18302700  0.55354000  0.83045400  1
  O  O16  1  0.32534200  0.93030800  0.45793500  1
  O  O17  1  0.32514800  0.43029000  0.95803000  1
  O  O18  1  0.60884800  0.86197800  0.82449100  1
  O  O19  1  0.60888900  0.36192900  0.32440900  1
  O  O20  1  0.67478000  0.06971800  0.54203600  1
  O  O21  1  0.67498200  0.56971100  0.04180400  1
  O  O22  1  0.39113200  0.13805700  0.17549100  1
  O  O23  1  0.39119200  0.63810400  0.67555600  1
  O  O24  1  0.11469600  0.23614000  0.37704600  1
  O  O25  1  0.11490700  0.73630200  0.87700200  1
  O  O26  1  0.37920600  0.27392000  0.61212400  1
  O  O27  1  0.37926800  0.77382900  0.11222100  1
  O  O28  1  0.88524800  0.76380300  0.62306400  1
  O  O29  1  0.88513100  0.26369000  0.12290700  1
  O  O30  1  0.62084300  0.72591200  0.38793100  1
  O  O31  1  0.62067000  0.22626000  0.88765800  1
  O  O32  1  0.20009900  0.58019400  0.44260100  1
  O  O33  1  0.20021500  0.08051200  0.94228400  1
  O  O34  1  0.99282800  0.08258800  0.70417200  1
  O  O35  1  0.99290800  0.58269500  0.20393800  1
  O  O36  1  0.79973000  0.41940200  0.55776400  1
  O  O37  1  0.79988500  0.91989800  0.05739800  1
  O  O38  1  0.00711700  0.91708300  0.29606900  1
  O  O39  1  0.00716000  0.41759300  0.79583800  1
