# generated using pymatgen
data_CaLaFeNiO6
_symmetry_space_group_name_H-M   'P 1'
_cell_length_a   5.48763489
_cell_length_b   5.46673532
_cell_length_c   7.70808733
_cell_angle_alpha   89.77115480
_cell_angle_beta   90.30092848
_cell_angle_gamma   90.01370169
_symmetry_Int_Tables_number   1
_chemical_formula_structural   CaLaFeNiO6
_chemical_formula_sum   'Ca2 La2 Fe2 Ni2 O12'
_cell_volume   231.23332172
_cell_formula_units_Z   2
loop_
 _symmetry_equiv_pos_site_id
 _symmetry_equiv_pos_as_xyz
  1  'x, y, z'
loop_
 _atom_site_type_symbol
 _atom_site_label
 _atom_site_symmetry_multiplicity
 _atom_site_fract_x
 _atom_site_fract_y
 _atom_site_fract_z
 _atom_site_occupancy
  Ca  Ca0  1  0.54270800  0.50732700  0.24796800  1
  Ca  Ca1  1  0.95701400  0.01244400  0.75160000  1
  La  La2  1  0.03211200  0.99092600  0.24821900  1
  La  La3  1  0.46849900  0.49603300  0.75223900  1
  Fe  Fe4  1  0.99964600  0.49936300  0.50074300  1
  Fe  Fe5  1  0.50053100  0.99982100  0.00048000  1
  Ni  Ni6  1  0.49932700  0.00060500  0.49933100  1
  Ni  Ni7  1  0.00109900  0.49921300  0.99925800  1
  O  O8  1  0.01685700  0.58692900  0.73801900  1
  O  O9  1  0.48675800  0.07639500  0.24368700  1
  O  O10  1  0.22165300  0.20784500  0.95856300  1
  O  O11  1  0.27787500  0.69642800  0.45407800  1
  O  O12  1  0.20131700  0.22380100  0.54528000  1
  O  O13  1  0.29113600  0.72119900  0.03970200  1
  O  O14  1  0.51692400  0.93327200  0.75604700  1
  O  O15  1  0.97829000  0.42296700  0.26159300  1
  O  O16  1  0.72616800  0.29648700  0.54313100  1
  O  O17  1  0.77456500  0.78526100  0.03647700  1
  O  O18  1  0.71546400  0.27281900  0.96488800  1
  O  O19  1  0.79205600  0.77086400  0.45869200  1
