# generated using pymatgen
data_BaSr4(FeO3)5
_symmetry_space_group_name_H-M   'P 1'
_cell_length_a   5.57210498
_cell_length_b   7.88474152
_cell_length_c   14.74834056
_cell_angle_alpha   74.45643772
_cell_angle_beta   79.13635231
_cell_angle_gamma   89.97939956
_symmetry_Int_Tables_number   1
_chemical_formula_structural   BaSr4(FeO3)5
_chemical_formula_sum   'Ba2 Sr8 Fe10 O30'
_cell_volume   612.21521013
_cell_formula_units_Z   2
loop_
 _symmetry_equiv_pos_site_id
 _symmetry_equiv_pos_as_xyz
  1  'x, y, z'
loop_
 _atom_site_type_symbol
 _atom_site_label
 _atom_site_symmetry_multiplicity
 _atom_site_fract_x
 _atom_site_fract_y
 _atom_site_fract_z
 _atom_site_occupancy
  Ba  Ba0  1  0.49997800  0.25018800  0.00003300  1
  Ba  Ba1  1  0.50001600  0.74980700  0.99998900  1
  Sr  Sr2  1  0.89939200  0.14959900  0.20124700  1
  Sr  Sr3  1  0.89952300  0.64919100  0.20118000  1
  Sr  Sr4  1  0.10059100  0.85039200  0.79877300  1
  Sr  Sr5  1  0.10047600  0.35080900  0.79883800  1
  Sr  Sr6  1  0.29988700  0.04987100  0.40048900  1
  Sr  Sr7  1  0.29964200  0.54966800  0.40047000  1
  Sr  Sr8  1  0.70011600  0.95014400  0.59948700  1
  Sr  Sr9  1  0.70034700  0.45032800  0.59951300  1
  Fe  Fe10  1  0.00000800  0.49998500  0.99998400  1
  Fe  Fe11  1  0.00000000  0.00000300  0.99998000  1
  Fe  Fe12  1  0.60148800  0.10156000  0.79693500  1
  Fe  Fe13  1  0.60067900  0.60069600  0.79845600  1
  Fe  Fe14  1  0.39932600  0.39931300  0.20154100  1
  Fe  Fe15  1  0.39851700  0.89842700  0.20308100  1
  Fe  Fe16  1  0.79960300  0.29969200  0.40071500  1
  Fe  Fe17  1  0.79956500  0.79958600  0.40084200  1
  Fe  Fe18  1  0.20042500  0.20040400  0.59915400  1
  Fe  Fe19  1  0.20040700  0.70030400  0.59927700  1
  O  O20  1  0.99990000  0.24320800  0.99992800  1
  O  O21  1  0.00009900  0.75680100  0.00007200  1
  O  O22  1  0.99941700  0.25016500  0.50015800  1
  O  O23  1  0.00059200  0.74983900  0.49983500  1
  O  O24  1  0.50024400  0.24981800  0.50014000  1
  O  O25  1  0.49975800  0.75018600  0.49985300  1
  O  O26  1  0.60330000  0.85774800  0.79252200  1
  O  O27  1  0.60396100  0.34989600  0.79255200  1
  O  O28  1  0.39670500  0.14225000  0.20747900  1
  O  O29  1  0.39604000  0.65010900  0.20745200  1
  O  O30  1  0.79916500  0.04952200  0.40091700  1
  O  O31  1  0.79945700  0.54954000  0.40089500  1
  O  O32  1  0.20082900  0.95048000  0.59908700  1
  O  O33  1  0.20053700  0.45045700  0.59910400  1
  O  O34  1  0.80646800  0.05301900  0.89445800  1
  O  O35  1  0.80537700  0.55325300  0.89340200  1
  O  O36  1  0.19462100  0.44674900  0.10659600  1
  O  O37  1  0.19352700  0.94697700  0.10555000  1
  O  O38  1  0.29979300  0.05291600  0.89453300  1
  O  O39  1  0.30066000  0.55345000  0.89366400  1
  O  O40  1  0.69934800  0.44655500  0.10633800  1
  O  O41  1  0.70021700  0.94708400  0.10547600  1
  O  O42  1  0.40067100  0.15122200  0.69735300  1
  O  O43  1  0.40177100  0.65195100  0.69622000  1
  O  O44  1  0.59824300  0.34805300  0.30378000  1
  O  O45  1  0.59932200  0.84877100  0.30265200  1
  O  O46  1  0.90191900  0.15139300  0.69735500  1
  O  O47  1  0.90181000  0.65209400  0.69601500  1
  O  O48  1  0.09818600  0.34791100  0.30398400  1
  O  O49  1  0.09807700  0.84861300  0.30264700  1
