# generated using pymatgen
data_FeTe(PO4)2
_symmetry_space_group_name_H-M   'P 1'
_cell_length_a   8.35947017
_cell_length_b   8.28111111
_cell_length_c   10.03292337
_cell_angle_alpha   94.04419608
_cell_angle_beta   94.36438829
_cell_angle_gamma   107.85964221
_symmetry_Int_Tables_number   1
_chemical_formula_structural   FeTe(PO4)2
_chemical_formula_sum   'Fe4 Te4 P8 O32'
_cell_volume   655.91818486
_cell_formula_units_Z   4
loop_
 _symmetry_equiv_pos_site_id
 _symmetry_equiv_pos_as_xyz
  1  'x, y, z'
loop_
 _atom_site_type_symbol
 _atom_site_label
 _atom_site_symmetry_multiplicity
 _atom_site_fract_x
 _atom_site_fract_y
 _atom_site_fract_z
 _atom_site_occupancy
  Fe  Fe0  1  0.11031790  0.85255204  0.26494396  1
  Fe  Fe1  1  0.88986189  0.14738199  0.73494958  1
  Fe  Fe2  1  0.61029613  0.35251754  0.26523119  1
  Fe  Fe3  1  0.38998478  0.64717136  0.73495036  1
  Te  Te4  1  0.59576125  0.84163304  0.20152847  1
  Te  Te5  1  0.09576018  0.34169923  0.20156525  1
  Te  Te6  1  0.40427118  0.15823925  0.79844364  1
  Te  Te7  1  0.90426898  0.65829032  0.79844402  1
  P  P8  1  0.31143156  0.06293675  0.09026696  1
  P  P9  1  0.81143383  0.56292831  0.09029878  1
  P  P10  1  0.68854426  0.93706095  0.90974063  1
  P  P11  1  0.18855952  0.43707051  0.90977357  1
  P  P12  1  0.82511066  0.07580778  0.39805989  1
  P  P13  1  0.32514623  0.57582007  0.39800038  1
  P  P14  1  0.17483392  0.92428256  0.60191872  1
  P  P15  1  0.67482597  0.42421632  0.60196607  1
  O  O16  1  0.74326589  0.99045885  0.06387329  1
  O  O17  1  0.24325067  0.49044499  0.06387958  1
  O  O18  1  0.25671176  0.00953740  0.93608845  1
  O  O19  1  0.75676210  0.50959127  0.93613013  1
  O  O20  1  0.46836802  0.21985817  0.10154224  1
  O  O21  1  0.96837650  0.71988230  0.10159479  1
  O  O22  1  0.53161611  0.78010058  0.89847213  1
  O  O23  1  0.03165302  0.28012145  0.89845338  1
  O  O24  1  0.47782163  0.72641577  0.37384632  1
  O  O25  1  0.97777014  0.22638126  0.37382021  1
  O  O26  1  0.52221140  0.27360918  0.62616176  1
  O  O27  1  0.02221240  0.77360921  0.62618779  1
  O  O28  1  0.18867693  0.93934160  0.45423309  1
  O  O29  1  0.68865398  0.43931937  0.45426673  1
  O  O30  1  0.81128519  0.06071793  0.54577649  1
  O  O31  1  0.31135721  0.56071183  0.54577596  1
  O  O32  1  0.16116282  0.09478960  0.16069986  1
  O  O33  1  0.66121416  0.59482049  0.16069523  1
  O  O34  1  0.33950717  0.91113636  0.16109348  1
  O  O35  1  0.83950252  0.41112838  0.16110165  1
  O  O36  1  0.66026688  0.08866920  0.83874660  1
  O  O37  1  0.16044453  0.58881793  0.83888873  1
  O  O38  1  0.83882471  0.90529622  0.83933773  1
  O  O39  1  0.33878870  0.40527041  0.83934388  1
  O  O40  1  0.82625886  0.89988330  0.31948199  1
  O  O41  1  0.32627070  0.39983997  0.31951932  1
  O  O42  1  0.65255398  0.08045924  0.31934884  1
  O  O43  1  0.15260089  0.58047160  0.31933799  1
  O  O44  1  0.17361930  0.10022347  0.68050767  1
  O  O45  1  0.67366265  0.60017342  0.68046133  1
  O  O46  1  0.34744628  0.91965063  0.68063790  1
  O  O47  1  0.84747569  0.41966060  0.68061401  1
