# generated using pymatgen
data_SrLa4Cr5O15
_symmetry_space_group_name_H-M   'P 1'
_cell_length_a   5.55545134
_cell_length_b   6.78695354
_cell_length_c   8.73338731
_cell_angle_alpha   104.83756038
_cell_angle_beta   108.43716371
_cell_angle_gamma   89.72173928
_symmetry_Int_Tables_number   1
_chemical_formula_structural   SrLa4Cr5O15
_chemical_formula_sum   'Sr1 La4 Cr5 O15'
_cell_volume   300.92800682
_cell_formula_units_Z   1
loop_
 _symmetry_equiv_pos_site_id
 _symmetry_equiv_pos_as_xyz
  1  'x, y, z'
loop_
 _atom_site_type_symbol
 _atom_site_label
 _atom_site_symmetry_multiplicity
 _atom_site_fract_x
 _atom_site_fract_y
 _atom_site_fract_z
 _atom_site_occupancy
  Sr  Sr0  1  0.40168800  0.09917700  0.80273200  1
  La  La1  1  0.00257300  0.51168000  0.00036200  1
  La  La2  1  0.80256400  0.69324500  0.60306500  1
  La  La3  1  0.59676300  0.89440600  0.19755200  1
  La  La4  1  0.19668700  0.30463000  0.39378400  1
  Cr  Cr5  1  0.60003100  0.39831000  0.19982400  1
  Cr  Cr6  1  0.20025500  0.80322900  0.40163900  1
  Cr  Cr7  1  0.40032600  0.59814900  0.79872600  1
  Cr  Cr8  1  0.79983000  0.19807500  0.59998900  1
  Cr  Cr9  1  0.00007400  0.00182300  0.00010400  1
  O  O10  1  0.89674900  0.10102300  0.79331500  1
  O  O11  1  0.90001000  0.60142200  0.30254800  1
  O  O12  1  0.39874400  0.59953400  0.30160200  1
  O  O13  1  0.70512000  0.30718200  0.40935100  1
  O  O14  1  0.09627100  0.89081400  0.19495300  1
  O  O15  1  0.29711100  0.69381500  0.59654100  1
  O  O16  1  0.50287900  0.50649000  0.00421400  1
  O  O17  1  0.08821500  0.40539200  0.69813600  1
  O  O18  1  0.70857900  0.79043400  0.89852000  1
  O  O19  1  0.60929000  0.40093400  0.69627900  1
  O  O20  1  0.19634200  0.79292300  0.90112700  1
  O  O21  1  0.30163300  0.19846000  0.11074600  1
  O  O22  1  0.50209900  0.00401000  0.49063600  1
  O  O23  1  0.98641100  0.00627700  0.49308000  1
  O  O24  1  0.80975600  0.19856500  0.11117700  1
