# generated using pymatgen
data_ZrCrO4
_symmetry_space_group_name_H-M   'P 1'
_cell_length_a   4.79011462
_cell_length_b   11.77029718
_cell_length_c   4.93454853
_cell_angle_alpha   90.52583753
_cell_angle_beta   89.95744663
_cell_angle_gamma   89.36956114
_symmetry_Int_Tables_number   1
_chemical_formula_structural   ZrCrO4
_chemical_formula_sum   'Zr4 Cr4 O16'
_cell_volume   278.18648189
_cell_formula_units_Z   4
loop_
 _symmetry_equiv_pos_site_id
 _symmetry_equiv_pos_as_xyz
  1  'x, y, z'
loop_
 _atom_site_type_symbol
 _atom_site_label
 _atom_site_symmetry_multiplicity
 _atom_site_fract_x
 _atom_site_fract_y
 _atom_site_fract_z
 _atom_site_occupancy
  Zr  Zr0  1  0.98856900  0.16541600  0.25490900  1
  Zr  Zr1  1  0.99786000  0.83417000  0.73353200  1
  Zr  Zr2  1  0.50114200  0.66563700  0.27048500  1
  Zr  Zr3  1  0.51572200  0.33456100  0.75817000  1
  Cr  Cr4  1  0.00785800  0.57034300  0.76580300  1
  Cr  Cr5  1  0.49020200  0.06975800  0.75200400  1
  Cr  Cr6  1  0.00992300  0.42979700  0.26043300  1
  Cr  Cr7  1  0.50241700  0.93026400  0.23633500  1
  O  O8  1  0.21988800  0.31474100  0.40850100  1
  O  O9  1  0.21746100  0.68440200  0.91237400  1
  O  O10  1  0.28273600  0.18552100  0.90530700  1
  O  O11  1  0.27648900  0.81176200  0.40956500  1
  O  O12  1  0.71928000  0.18839000  0.58250700  1
  O  O13  1  0.71521400  0.81460700  0.08947800  1
  O  O14  1  0.77839800  0.68911900  0.59230900  1
  O  O15  1  0.78256200  0.31081400  0.08544600  1
  O  O16  1  0.27725500  0.05327100  0.42546000  1
  O  O17  1  0.26629700  0.94822100  0.93534100  1
  O  O18  1  0.22692200  0.44575600  0.93515900  1
  O  O19  1  0.22603100  0.55314900  0.43779000  1
  O  O20  1  0.77596500  0.45060500  0.56408200  1
  O  O21  1  0.77519300  0.55113400  0.06534200  1
  O  O22  1  0.72852100  0.05098700  0.05451700  1
  O  O23  1  0.71809900  0.94757200  0.56514800  1
