# generated using pymatgen
data_CaV5O7
_symmetry_space_group_name_H-M   'P 1'
_cell_length_a   3.11409302
_cell_length_b   5.30672407
_cell_length_c   18.01402902
_cell_angle_alpha   89.99547958
_cell_angle_beta   89.99792744
_cell_angle_gamma   107.07694077
_symmetry_Int_Tables_number   1
_chemical_formula_structural   CaV5O7
_chemical_formula_sum   'Ca2 V10 O14'
_cell_volume   284.56830644
_cell_formula_units_Z   2
loop_
 _symmetry_equiv_pos_site_id
 _symmetry_equiv_pos_as_xyz
  1  'x, y, z'
loop_
 _atom_site_type_symbol
 _atom_site_label
 _atom_site_symmetry_multiplicity
 _atom_site_fract_x
 _atom_site_fract_y
 _atom_site_fract_z
 _atom_site_occupancy
  Ca  Ca0  1  0.78969400  0.57958000  0.75073400  1
  Ca  Ca1  1  0.21050200  0.42042100  0.25071000  1
  V  V2  1  0.72590600  0.45180900  0.42900600  1
  V  V3  1  0.27418100  0.54824600  0.92902000  1
  V  V4  1  0.45983400  0.91990600  0.14973200  1
  V  V5  1  0.54007500  0.08005300  0.64977800  1
  V  V6  1  0.00297300  0.00584500  0.49797800  1
  V  V7  1  0.99695200  0.99413400  0.99798600  1
  V  V8  1  0.27510900  0.54990100  0.57442800  1
  V  V9  1  0.72462000  0.45003000  0.07442600  1
  V  V10  1  0.54022700  0.08040600  0.84886100  1
  V  V11  1  0.45987100  0.91965400  0.34881700  1
  O  O12  1  0.46002900  0.91998500  0.74935000  1
  O  O13  1  0.54011800  0.08002100  0.24930900  1
  O  O14  1  0.63017200  0.26043200  0.96044400  1
  O  O15  1  0.36770200  0.73581100  0.04121300  1
  O  O16  1  0.36981400  0.73956300  0.46042500  1
  O  O17  1  0.63216900  0.26415800  0.54121500  1
  O  O18  1  0.16827900  0.33654400  0.82896500  1
  O  O19  1  0.83374000  0.66668600  0.17289800  1
  O  O20  1  0.83181900  0.66350500  0.32892900  1
  O  O21  1  0.16650000  0.33329700  0.67292200  1
  O  O22  1  0.91257700  0.82495800  0.88754500  1
  O  O23  1  0.08477100  0.17082200  0.10888500  1
  O  O24  1  0.08751000  0.17505800  0.38752000  1
  O  O25  1  0.91485800  0.82917400  0.60890300  1
