# generated using pymatgen
data_Li7Mn5O12
_symmetry_space_group_name_H-M   'P 1'
_cell_length_a   5.09217845
_cell_length_b   10.95645276
_cell_length_c   8.61356897
_cell_angle_alpha   104.89977794
_cell_angle_beta   106.41707798
_cell_angle_gamma   92.14208003
_symmetry_Int_Tables_number   1
_chemical_formula_structural   Li7Mn5O12
_chemical_formula_sum   'Li14 Mn10 O24'
_cell_volume   442.32728553
_cell_formula_units_Z   2
loop_
 _symmetry_equiv_pos_site_id
 _symmetry_equiv_pos_as_xyz
  1  'x, y, z'
loop_
 _atom_site_type_symbol
 _atom_site_label
 _atom_site_symmetry_multiplicity
 _atom_site_fract_x
 _atom_site_fract_y
 _atom_site_fract_z
 _atom_site_occupancy
  Li  Li0  1  0.98896700  0.24955800  0.24534100  1
  Li  Li1  1  0.01111500  0.75047800  0.75465700  1
  Li  Li2  1  0.49395800  0.12931400  0.96257900  1
  Li  Li3  1  0.49016200  0.61285700  0.45411700  1
  Li  Li4  1  0.50601400  0.87067600  0.03739700  1
  Li  Li5  1  0.50989600  0.38716500  0.54590200  1
  Li  Li6  1  0.51056400  0.37090800  0.20657900  1
  Li  Li7  1  0.52576800  0.87360100  0.71737000  1
  Li  Li8  1  0.48947200  0.62903800  0.79337000  1
  Li  Li9  1  0.47429300  0.12639400  0.28260200  1
  Li  Li10  1  0.51266200  0.38309800  0.87983500  1
  Li  Li11  1  0.51352500  0.87497900  0.37725900  1
  Li  Li12  1  0.48735200  0.61684400  0.12006000  1
  Li  Li13  1  0.48641900  0.12500900  0.62273800  1
  Mn  Mn14  1  0.99996700  0.50000000  0.49998900  1
  Mn  Mn15  1  0.00003800  0.00001800  0.99997800  1
  Mn  Mn16  1  0.98150200  0.24634000  0.91573900  1
  Mn  Mn17  1  0.01225200  0.74990000  0.42230300  1
  Mn  Mn18  1  0.01838300  0.75360500  0.08422600  1
  Mn  Mn19  1  0.98769200  0.24997800  0.57775500  1
  Mn  Mn20  1  0.99257700  0.49234300  0.16443200  1
  Mn  Mn21  1  0.99729100  0.99473700  0.66515400  1
  Mn  Mn22  1  0.00750700  0.50773500  0.83567400  1
  Mn  Mn23  1  0.00269100  0.00527600  0.33484800  1
  O  O24  1  0.22352500  0.44123100  0.35273800  1
  O  O25  1  0.22797000  0.94711600  0.85191300  1
  O  O26  1  0.77643900  0.55879400  0.64723200  1
  O  O27  1  0.77196100  0.05301200  0.14828200  1
  O  O28  1  0.20602600  0.17051500  0.08286900  1
  O  O29  1  0.22230200  0.66897000  0.58577700  1
  O  O30  1  0.79412900  0.82954200  0.91716900  1
  O  O31  1  0.77767500  0.33102700  0.41421500  1
  O  O32  1  0.24467700  0.69746800  0.27538500  1
  O  O33  1  0.19406300  0.17244400  0.75517900  1
  O  O34  1  0.75530600  0.30250000  0.72461400  1
  O  O35  1  0.80592700  0.82753000  0.24477400  1
  O  O36  1  0.22918700  0.44051900  0.01754300  1
  O  O37  1  0.23382400  0.94904400  0.52438600  1
  O  O38  1  0.77079600  0.55948700  0.98241800  1
  O  O39  1  0.76616000  0.05096200  0.47566800  1
  O  O40  1  0.23311400  0.44488700  0.68416900  1
  O  O41  1  0.23670900  0.95415100  0.19159200  1
  O  O42  1  0.76694100  0.55511000  0.31585600  1
  O  O43  1  0.76319400  0.04587100  0.80840000  1
  O  O44  1  0.25459500  0.69499900  0.95172800  1
  O  O45  1  0.20531200  0.17165800  0.43185800  1
  O  O46  1  0.74539200  0.30495700  0.04813200  1
  O  O47  1  0.79470800  0.82835700  0.56820000  1
