# generated using pymatgen
data_Na3CoBPO7
_symmetry_space_group_name_H-M   'P 1'
_cell_length_a   6.69192637
_cell_length_b   10.49158894
_cell_length_c   10.21618496
_cell_angle_alpha   119.28716064
_cell_angle_beta   90.01214228
_cell_angle_gamma   89.93034608
_symmetry_Int_Tables_number   1
_chemical_formula_structural   Na3CoBPO7
_chemical_formula_sum   'Na12 Co4 B4 P4 O28'
_cell_volume   625.58508895
_cell_formula_units_Z   4
loop_
 _symmetry_equiv_pos_site_id
 _symmetry_equiv_pos_as_xyz
  1  'x, y, z'
loop_
 _atom_site_type_symbol
 _atom_site_label
 _atom_site_symmetry_multiplicity
 _atom_site_fract_x
 _atom_site_fract_y
 _atom_site_fract_z
 _atom_site_occupancy
  Na  Na0  1  0.24872000  0.42397700  0.08036600  1
  Na  Na1  1  0.25092700  0.91289400  0.07728400  1
  Na  Na2  1  0.75273000  0.58309000  0.92434600  1
  Na  Na3  1  0.74903900  0.08087500  0.92356900  1
  Na  Na4  1  0.00268900  0.25370500  0.25762500  1
  Na  Na5  1  0.00423500  0.75294600  0.25878100  1
  Na  Na6  1  0.49617700  0.25099500  0.25580400  1
  Na  Na7  1  0.49694300  0.75647200  0.26046000  1
  Na  Na8  1  0.49975200  0.75143500  0.74629400  1
  Na  Na9  1  0.50531000  0.24566900  0.73907400  1
  Na  Na10  1  0.99899800  0.74879700  0.74486400  1
  Na  Na11  1  0.99620000  0.24711800  0.74066000  1
  Co  Co12  1  0.75339000  0.05624500  0.33968700  1
  Co  Co13  1  0.25231700  0.44313900  0.65954100  1
  Co  Co14  1  0.74728100  0.55591100  0.34028700  1
  Co  Co15  1  0.24982900  0.94491400  0.65930200  1
  B  B16  1  0.75104100  0.39677000  0.06657100  1
  B  B17  1  0.74851500  0.89726000  0.06679800  1
  B  B18  1  0.24948300  0.59948200  0.93279900  1
  B  B19  1  0.24952300  0.09947400  0.93457800  1
  P  P20  1  0.25007900  0.57283100  0.42454100  1
  P  P21  1  0.25033600  0.06887900  0.42055200  1
  P  P22  1  0.74942700  0.43043500  0.57692100  1
  P  P23  1  0.75089600  0.92955100  0.57646100  1
  O  O24  1  0.24797600  0.19716500  0.08171100  1
  O  O25  1  0.25189700  0.68267200  0.08311800  1
  O  O26  1  0.74993100  0.81250400  0.91677700  1
  O  O27  1  0.74945300  0.31213600  0.91630400  1
  O  O28  1  0.75475400  0.55063200  0.14142000  1
  O  O29  1  0.74480800  0.05099200  0.14107000  1
  O  O30  1  0.24534200  0.44536100  0.85708400  1
  O  O31  1  0.24851800  0.94880900  0.86959500  1
  O  O32  1  0.74956600  0.34580200  0.16953000  1
  O  O33  1  0.75028900  0.84600000  0.16962300  1
  O  O34  1  0.24962000  0.65196800  0.83124900  1
  O  O35  1  0.25239200  0.14199600  0.82159400  1
  O  O36  1  0.25063500  0.44996500  0.47122200  1
  O  O37  1  0.25198700  0.94171900  0.45970900  1
  O  O38  1  0.74870000  0.55499900  0.53224300  1
  O  O39  1  0.75099100  0.05484600  0.53281800  1
  O  O40  1  0.75004000  0.28161300  0.43194900  1
  O  O41  1  0.75025100  0.78102600  0.43132200  1
  O  O42  1  0.25057400  0.72360000  0.56891700  1
  O  O43  1  0.24954800  0.21717000  0.56717100  1
  O  O44  1  0.06545300  0.55229900  0.32497800  1
  O  O45  1  0.06389600  0.05125500  0.32159500  1
  O  O46  1  0.43559200  0.55210100  0.32503100  1
  O  O47  1  0.43393200  0.05293600  0.32057200  1
  O  O48  1  0.56382500  0.45043100  0.67672200  1
  O  O49  1  0.56613200  0.94872200  0.67657300  1
  O  O50  1  0.93375400  0.45044900  0.67714900  1
  O  O51  1  0.93630800  0.94796900  0.67578900  1
