# generated using pymatgen
data_Sr4Ca(FeO3)5
_symmetry_space_group_name_H-M   'P 1'
_cell_length_a   3.89427500
_cell_length_b   8.73156045
_cell_length_c   17.48065925
_cell_angle_alpha   89.91242618
_cell_angle_beta   90.00000987
_cell_angle_gamma   90.00001973
_symmetry_Int_Tables_number   1
_chemical_formula_structural   Sr4Ca(FeO3)5
_chemical_formula_sum   'Sr8 Ca2 Fe10 O30'
_cell_volume   594.39586796
_cell_formula_units_Z   2
loop_
 _symmetry_equiv_pos_site_id
 _symmetry_equiv_pos_as_xyz
  1  'x, y, z'
loop_
 _atom_site_type_symbol
 _atom_site_label
 _atom_site_symmetry_multiplicity
 _atom_site_fract_x
 _atom_site_fract_y
 _atom_site_fract_z
 _atom_site_occupancy
  Sr  Sr0  1  0.99999800  0.39865700  0.09902300  1
  Sr  Sr1  1  0.00000000  0.39874000  0.59900100  1
  Sr  Sr2  1  0.00000000  0.80043100  0.20004700  1
  Sr  Sr3  1  0.00000200  0.80044700  0.69982700  1
  Sr  Sr4  1  0.99999900  0.19950800  0.30018700  1
  Sr  Sr5  1  0.00000100  0.19955800  0.80000100  1
  Sr  Sr6  1  0.00000000  0.60129800  0.40105000  1
  Sr  Sr7  1  0.00000100  0.60122600  0.90088000  1
  Ca  Ca8  1  0.99999900  0.00024800  0.99999800  1
  Ca  Ca9  1  0.00000100  0.99985600  0.49992600  1
  Fe  Fe10  1  0.50000000  0.50011300  0.74996600  1
  Fe  Fe11  1  0.50000000  0.90018100  0.35105300  1
  Fe  Fe12  1  0.49999900  0.29849000  0.45006400  1
  Fe  Fe13  1  0.50000000  0.70157900  0.04992300  1
  Fe  Fe14  1  0.49999900  0.09981100  0.14901000  1
  Fe  Fe15  1  0.49999900  0.50001100  0.25002300  1
  Fe  Fe16  1  0.50000100  0.90013000  0.85102600  1
  Fe  Fe17  1  0.50000100  0.29855700  0.95005600  1
  Fe  Fe18  1  0.50000000  0.70146800  0.54995400  1
  Fe  Fe19  1  0.50000000  0.09978800  0.64896200  1
  O  O20  1  0.00000100  0.49997200  0.25003700  1
  O  O21  1  0.00000100  0.49996700  0.74993500  1
  O  O22  1  0.49999900  0.49999400  0.00001400  1
  O  O23  1  0.50000000  0.50007800  0.49999600  1
  O  O24  1  0.49999900  0.99996800  0.25010400  1
  O  O25  1  0.50000100  0.99997500  0.74992700  1
  O  O26  1  0.00000000  0.90443800  0.35253000  1
  O  O27  1  0.00000100  0.90433500  0.85246400  1
  O  O28  1  0.99999900  0.29114600  0.45076300  1
  O  O29  1  0.00000000  0.29120600  0.95073600  1
  O  O30  1  0.99999900  0.70884000  0.04927400  1
  O  O31  1  0.00000100  0.70884100  0.54922800  1
  O  O32  1  0.99999900  0.09558700  0.14757000  1
  O  O33  1  0.00000100  0.09561800  0.64747800  1
  O  O34  1  0.49999900  0.29697100  0.19676500  1
  O  O35  1  0.50000000  0.29692900  0.69668800  1
  O  O36  1  0.49999900  0.70301900  0.30330700  1
  O  O37  1  0.50000100  0.70295200  0.80324500  1
  O  O38  1  0.50000000  0.39742400  0.35092200  1
  O  O39  1  0.50000100  0.39761100  0.85085800  1
  O  O40  1  0.49999900  0.60247400  0.14911400  1
  O  O41  1  0.50000200  0.60252700  0.64911400  1
  O  O42  1  0.49999900  0.09678500  0.39896000  1
  O  O43  1  0.50000000  0.09688400  0.89889900  1
  O  O44  1  0.49999900  0.90319600  0.10113600  1
  O  O45  1  0.50000200  0.90309800  0.60100300  1
  O  O46  1  0.50000100  0.80886500  0.45298300  1
  O  O47  1  0.50000000  0.80904400  0.95291300  1
  O  O48  1  0.49999900  0.19092700  0.04705800  1
  O  O49  1  0.50000000  0.19123000  0.54699900  1
