# generated using pymatgen
data_VWO4
_symmetry_space_group_name_H-M   'P 1'
_cell_length_a   4.57686672
_cell_length_b   4.99970048
_cell_length_c   11.84935199
_cell_angle_alpha   90.56339633
_cell_angle_beta   89.97016731
_cell_angle_gamma   90.31446649
_symmetry_Int_Tables_number   1
_chemical_formula_structural   VWO4
_chemical_formula_sum   'V4 W4 O16'
_cell_volume   271.13105816
_cell_formula_units_Z   4
loop_
 _symmetry_equiv_pos_site_id
 _symmetry_equiv_pos_as_xyz
  1  'x, y, z'
loop_
 _atom_site_type_symbol
 _atom_site_label
 _atom_site_symmetry_multiplicity
 _atom_site_fract_x
 _atom_site_fract_y
 _atom_site_fract_z
 _atom_site_occupancy
  V  V0  1  0.50328800  0.25389100  0.93770800  1
  V  V1  1  0.00185500  0.24791100  0.43732600  1
  V  V2  1  0.00244100  0.74595600  0.56317600  1
  V  V3  1  0.50048100  0.75293400  0.06387400  1
  W  W4  1  0.00095300  0.75126000  0.82133200  1
  W  W5  1  0.49645700  0.75203800  0.32294000  1
  W  W6  1  0.50041300  0.24847000  0.67717200  1
  W  W7  1  0.99636700  0.24755300  0.17826200  1
  O  O8  1  0.26286200  0.07151800  0.81309900  1
  O  O9  1  0.77080300  0.41912000  0.30459000  1
  O  O10  1  0.73926400  0.43032600  0.81291000  1
  O  O11  1  0.77967400  0.91290300  0.69666700  1
  O  O12  1  0.22819700  0.07115200  0.30675200  1
  O  O13  1  0.27305800  0.57908100  0.19204500  1
  O  O14  1  0.22199700  0.58429200  0.69703300  1
  O  O15  1  0.72905000  0.92820800  0.18970400  1
  O  O16  1  0.24796300  0.59234700  0.93425800  1
  O  O17  1  0.75234400  0.90598200  0.43265900  1
  O  O18  1  0.75216900  0.91397400  0.93437400  1
  O  O19  1  0.76016700  0.41654300  0.56156900  1
  O  O20  1  0.24390500  0.57835500  0.43678300  1
  O  O21  1  0.25553600  0.09397800  0.06344400  1
  O  O22  1  0.23680300  0.07833400  0.56111900  1
  O  O23  1  0.74395300  0.42387600  0.06120500  1
