# generated using pymatgen
data_CaVP2O7
_symmetry_space_group_name_H-M   'P 1'
_cell_length_a   6.31599183
_cell_length_b   12.54203529
_cell_length_c   7.14927972
_cell_angle_alpha   83.55186512
_cell_angle_beta   88.61600005
_cell_angle_gamma   96.15964492
_symmetry_Int_Tables_number   1
_chemical_formula_structural   CaVP2O7
_chemical_formula_sum   'Ca4 V4 P8 O28'
_cell_volume   559.12565906
_cell_formula_units_Z   4
loop_
 _symmetry_equiv_pos_site_id
 _symmetry_equiv_pos_as_xyz
  1  'x, y, z'
loop_
 _atom_site_type_symbol
 _atom_site_label
 _atom_site_symmetry_multiplicity
 _atom_site_fract_x
 _atom_site_fract_y
 _atom_site_fract_z
 _atom_site_occupancy
  Ca  Ca0  1  0.65963600  0.35531900  0.63541400  1
  Ca  Ca1  1  0.15963600  0.85528300  0.63548700  1
  Ca  Ca2  1  0.84035900  0.14471600  0.36451300  1
  Ca  Ca3  1  0.34036300  0.64467900  0.36457900  1
  V  V4  1  0.82224200  0.56588500  0.18713100  1
  V  V5  1  0.17776500  0.43411200  0.81287000  1
  V  V6  1  0.32228500  0.06586800  0.18720200  1
  V  V7  1  0.67771500  0.93413400  0.81281700  1
  P  P8  1  0.50061200  0.32910800  0.12192300  1
  P  P9  1  0.00059300  0.82909500  0.12193100  1
  P  P10  1  0.99941100  0.17090500  0.87807400  1
  P  P11  1  0.49938900  0.67089200  0.87807300  1
  P  P12  1  0.34561300  0.11027600  0.62083000  1
  P  P13  1  0.84561200  0.61024200  0.62083000  1
  P  P14  1  0.15438900  0.38975900  0.37916500  1
  P  P15  1  0.65438400  0.88972200  0.37917400  1
  O  O16  1  0.45645100  0.36615200  0.91539300  1
  O  O17  1  0.95639900  0.86615100  0.91543400  1
  O  O18  1  0.04360300  0.13384900  0.08457000  1
  O  O19  1  0.54355300  0.63384700  0.08460300  1
  O  O20  1  0.65531700  0.40708300  0.21240400  1
  O  O21  1  0.15530100  0.90706500  0.21244800  1
  O  O22  1  0.84470000  0.09293500  0.78756000  1
  O  O23  1  0.34468500  0.59291800  0.78758900  1
  O  O24  1  0.55098700  0.21152300  0.14954800  1
  O  O25  1  0.05099100  0.71151200  0.14952300  1
  O  O26  1  0.94901300  0.28848700  0.85047600  1
  O  O27  1  0.44901100  0.78847700  0.85045300  1
  O  O28  1  0.95554000  0.31509800  0.44770500  1
  O  O29  1  0.45551900  0.81507100  0.44769900  1
  O  O30  1  0.54447400  0.18492600  0.55229700  1
  O  O31  1  0.04445900  0.68490500  0.55228800  1
  O  O32  1  0.19144300  0.08589800  0.46261800  1
  O  O33  1  0.69145600  0.58584100  0.46263000  1
  O  O34  1  0.30854300  0.41416000  0.53736500  1
  O  O35  1  0.80854400  0.91409900  0.53739400  1
  O  O36  1  0.23215800  0.17478100  0.76844800  1
  O  O37  1  0.73215000  0.67472700  0.76847400  1
  O  O38  1  0.26785000  0.32527400  0.23152100  1
  O  O39  1  0.76784700  0.82521900  0.23155800  1
  O  O40  1  0.10751000  0.49787700  0.27105900  1
  O  O41  1  0.60755300  0.99784500  0.27107900  1
  O  O42  1  0.39244900  0.00215300  0.72891900  1
  O  O43  1  0.89249500  0.50212400  0.72893400  1
