# generated using pymatgen
data_CoSb(PO4)2
_symmetry_space_group_name_H-M   'P 1'
_cell_length_a   7.97125072
_cell_length_b   8.05586850
_cell_length_c   10.08776457
_cell_angle_alpha   86.70598539
_cell_angle_beta   88.07058408
_cell_angle_gamma   103.36076043
_symmetry_Int_Tables_number   1
_chemical_formula_structural   CoSb(PO4)2
_chemical_formula_sum   'Co4 Sb4 P8 O32'
_cell_volume   628.47983755
_cell_formula_units_Z   4
loop_
 _symmetry_equiv_pos_site_id
 _symmetry_equiv_pos_as_xyz
  1  'x, y, z'
loop_
 _atom_site_type_symbol
 _atom_site_label
 _atom_site_symmetry_multiplicity
 _atom_site_fract_x
 _atom_site_fract_y
 _atom_site_fract_z
 _atom_site_occupancy
  Co  Co0  1  0.08651800  0.32821900  0.22023700  1
  Co  Co1  1  0.91751000  0.66841900  0.78339000  1
  Co  Co2  1  0.58344600  0.83179200  0.21728000  1
  Co  Co3  1  0.41351800  0.17237500  0.77988700  1
  Sb  Sb4  1  0.59710300  0.34109100  0.29861400  1
  Sb  Sb5  1  0.10607400  0.85500900  0.28533600  1
  Sb  Sb6  1  0.39376400  0.64459900  0.71433000  1
  Sb  Sb7  1  0.90292000  0.15911600  0.70172700  1
  P  P8  1  0.32531500  0.07460800  0.09178900  1
  P  P9  1  0.82926100  0.57973600  0.10877500  1
  P  P10  1  0.67022800  0.92026400  0.89100600  1
  P  P11  1  0.17493700  0.42538400  0.90862000  1
  P  P12  1  0.81755600  0.04382800  0.40390900  1
  P  P13  1  0.29938600  0.57148000  0.40899700  1
  P  P14  1  0.20068700  0.92769200  0.59090700  1
  P  P15  1  0.68262600  0.45683100  0.59608000  1
  O  O16  1  0.67851000  0.92856400  0.03902900  1
  O  O17  1  0.20205300  0.45211300  0.05389800  1
  O  O18  1  0.29873800  0.04807500  0.94642200  1
  O  O19  1  0.82041500  0.57157300  0.96077600  1
  O  O20  1  0.47303800  0.22338400  0.11719800  1
  O  O21  1  0.98419700  0.73198000  0.13633200  1
  O  O22  1  0.51548300  0.76807800  0.86321100  1
  O  O23  1  0.02688300  0.27674200  0.88357200  1
  O  O24  1  0.46087900  0.71128100  0.38309600  1
  O  O25  1  0.96181100  0.20529700  0.38581800  1
  O  O26  1  0.53765300  0.29582200  0.61396100  1
  O  O27  1  0.03941800  0.78764800  0.61704000  1
  O  O28  1  0.23094000  0.97418300  0.43562700  1
  O  O29  1  0.73863000  0.49822500  0.44863000  1
  O  O30  1  0.76258900  0.00210000  0.55152900  1
  O  O31  1  0.26791000  0.52544900  0.56427800  1
  O  O32  1  0.14747800  0.08584000  0.17185300  1
  O  O33  1  0.65449000  0.59491000  0.17980600  1
  O  O34  1  0.33599000  0.89735600  0.17314500  1
  O  O35  1  0.84830600  0.40631800  0.18268900  1
  O  O36  1  0.65140800  0.09371800  0.81680300  1
  O  O37  1  0.16429500  0.60262000  0.82717800  1
  O  O38  1  0.84535700  0.90539100  0.82023100  1
  O  O39  1  0.35244500  0.41389400  0.82815100  1
  O  O40  1  0.87635900  0.88061400  0.34768600  1
  O  O41  1  0.29854700  0.40704700  0.33899000  1
  O  O42  1  0.66241500  0.05434100  0.31733000  1
  O  O43  1  0.13087500  0.62736700  0.35827200  1
  O  O44  1  0.20184000  0.09181900  0.66138000  1
  O  O45  1  0.62354100  0.62026200  0.65157200  1
  O  O46  1  0.36969100  0.87171400  0.64024200  1
  O  O47  1  0.83697100  0.44583000  0.68337200  1
