# generated using pymatgen
data_Na3CoSiBO7
_symmetry_space_group_name_H-M   'P 1'
_cell_length_a   8.44119915
_cell_length_b   8.43568859
_cell_length_c   8.96798315
_cell_angle_alpha   88.70441043
_cell_angle_beta   88.81429567
_cell_angle_gamma   103.24862702
_symmetry_Int_Tables_number   1
_chemical_formula_structural   Na3CoSiBO7
_chemical_formula_sum   'Na12 Co4 Si4 B4 O28'
_cell_volume   621.21136810
_cell_formula_units_Z   4
loop_
 _symmetry_equiv_pos_site_id
 _symmetry_equiv_pos_as_xyz
  1  'x, y, z'
loop_
 _atom_site_type_symbol
 _atom_site_label
 _atom_site_symmetry_multiplicity
 _atom_site_fract_x
 _atom_site_fract_y
 _atom_site_fract_z
 _atom_site_occupancy
  Na  Na0  1  0.50557700  0.25160400  0.08329000  1
  Na  Na1  1  0.00794500  0.76131000  0.08651000  1
  Na  Na2  1  0.49442300  0.74839500  0.91671000  1
  Na  Na3  1  0.99205200  0.23868900  0.91349700  1
  Na  Na4  1  0.12793200  0.12281700  0.25925000  1
  Na  Na5  1  0.63120000  0.62427800  0.26336900  1
  Na  Na6  1  0.37533900  0.88080200  0.26125000  1
  Na  Na7  1  0.87143800  0.37785000  0.26125200  1
  Na  Na8  1  0.62466100  0.11919800  0.73875400  1
  Na  Na9  1  0.12856100  0.62215300  0.73874800  1
  Na  Na10  1  0.87206900  0.87718400  0.74075400  1
  Na  Na11  1  0.36879700  0.37572000  0.73663000  1
  Co  Co12  1  0.26810700  0.51919500  0.33647900  1
  Co  Co13  1  0.73188900  0.48080300  0.66352400  1
  Co  Co14  1  0.76814700  0.01384200  0.34487200  1
  Co  Co15  1  0.23184900  0.98614500  0.65508800  1
  Si  Si16  1  0.48871600  0.23841000  0.42294400  1
  Si  Si17  1  0.98163000  0.73063400  0.42819900  1
  Si  Si18  1  0.51131000  0.76161400  0.57704600  1
  Si  Si19  1  0.01836400  0.26936700  0.57179300  1
  B  B20  1  0.74347000  0.99331400  0.06554200  1
  B  B21  1  0.23880900  0.48927700  0.06939400  1
  B  B22  1  0.25652800  0.00668700  0.93446100  1
  B  B23  1  0.76119000  0.51072200  0.93060600  1
  O  O24  1  0.27573100  0.02528800  0.08260000  1
  O  O25  1  0.77638200  0.52734400  0.07782800  1
  O  O26  1  0.72426800  0.97471400  0.91740100  1
  O  O27  1  0.22361900  0.47265600  0.92217200  1
  O  O28  1  0.86196900  0.11152400  0.13066600  1
  O  O29  1  0.35601300  0.60761600  0.13775500  1
  O  O30  1  0.13803700  0.88847500  0.86933100  1
  O  O31  1  0.64398400  0.39238400  0.86224300  1
  O  O32  1  0.64373000  0.89264900  0.17318800  1
  O  O33  1  0.14066800  0.39157100  0.17929800  1
  O  O34  1  0.35627600  0.10736000  0.82681700  1
  O  O35  1  0.85933000  0.60842500  0.82069800  1
  O  O36  1  0.33356100  0.08406100  0.47679500  1
  O  O37  1  0.82561400  0.57652900  0.47523300  1
  O  O38  1  0.66642600  0.91593000  0.52321000  1
  O  O39  1  0.17439000  0.42347300  0.52477300  1
  O  O40  1  0.43155800  0.68218900  0.42389200  1
  O  O41  1  0.93412200  0.18379600  0.42253900  1
  O  O42  1  0.56844100  0.31781400  0.57610700  1
  O  O43  1  0.06587600  0.81620100  0.57746600  1
  O  O44  1  0.41924300  0.36421300  0.31415800  1
  O  O45  1  0.91343500  0.86076200  0.32054800  1
  O  O46  1  0.61439600  0.16579500  0.31688300  1
  O  O47  1  0.11114700  0.66724100  0.31814600  1
  O  O48  1  0.38561100  0.83419600  0.68312400  1
  O  O49  1  0.88885700  0.33275500  0.68185900  1
  O  O50  1  0.58075000  0.63578700  0.68584200  1
  O  O51  1  0.08656300  0.13924200  0.67946600  1
