# generated using pymatgen
data_Li7Mn5O12
_symmetry_space_group_name_H-M   'P 1'
_cell_length_a   6.05697039
_cell_length_b   7.81419377
_cell_length_c   10.16657994
_cell_angle_alpha   105.95083389
_cell_angle_beta   92.81600848
_cell_angle_gamma   104.56960659
_symmetry_Int_Tables_number   1
_chemical_formula_structural   Li7Mn5O12
_chemical_formula_sum   'Li14 Mn10 O24'
_cell_volume   444.15252065
_cell_formula_units_Z   2
loop_
 _symmetry_equiv_pos_site_id
 _symmetry_equiv_pos_as_xyz
  1  'x, y, z'
loop_
 _atom_site_type_symbol
 _atom_site_label
 _atom_site_symmetry_multiplicity
 _atom_site_fract_x
 _atom_site_fract_y
 _atom_site_fract_z
 _atom_site_occupancy
  Li  Li0  1  0.56292900  0.34700100  0.26593000  1
  Li  Li1  1  0.10391800  0.31951900  0.73409300  1
  Li  Li2  1  0.08687800  0.34006800  0.25433900  1
  Li  Li3  1  0.57993100  0.32671200  0.74555700  1
  Li  Li4  1  0.83332300  0.33332200  0.99993300  1
  Li  Li5  1  0.33343800  0.33319700  0.49997900  1
  Li  Li6  1  0.42173000  0.66463100  0.25182200  1
  Li  Li7  1  0.92360300  0.66238500  0.74313100  1
  Li  Li8  1  0.74318200  0.00422200  0.25680500  1
  Li  Li9  1  0.24502400  0.00199100  0.74813100  1
  Li  Li10  1  0.90496800  0.67651400  0.25821300  1
  Li  Li11  1  0.43730200  0.64007700  0.72905600  1
  Li  Li12  1  0.22937900  0.02656600  0.27090600  1
  Li  Li13  1  0.76180600  0.99006600  0.74169400  1
  Mn  Mn14  1  0.83349100  0.33330000  0.50006600  1
  Mn  Mn15  1  0.33327800  0.33338400  0.99998600  1
  Mn  Mn16  1  0.99383900  0.00485200  0.00237200  1
  Mn  Mn17  1  0.49190000  0.00683600  0.50381500  1
  Mn  Mn18  1  0.17494500  0.65978700  0.49623500  1
  Mn  Mn19  1  0.67265300  0.66189400  0.99754000  1
  Mn  Mn20  1  0.50318700  0.00404200  0.99947400  1
  Mn  Mn21  1  0.99914900  0.00509300  0.50420600  1
  Mn  Mn22  1  0.16345500  0.66284400  0.00047000  1
  Mn  Mn23  1  0.66723500  0.66131300  0.49574500  1
  O  O24  1  0.15402100  0.48832100  0.10156900  1
  O  O25  1  0.65152300  0.48857600  0.60614700  1
  O  O26  1  0.01523000  0.17800300  0.39388400  1
  O  O27  1  0.51249000  0.17843200  0.89837600  1
  O  O28  1  0.94390400  0.83538100  0.11705600  1
  O  O29  1  0.44780800  0.83341800  0.61914200  1
  O  O30  1  0.21898600  0.83320200  0.38094000  1
  O  O31  1  0.72246800  0.83147500  0.88293700  1
  O  O32  1  0.61441500  0.50248500  0.11236200  1
  O  O33  1  0.11262200  0.50165500  0.61750200  1
  O  O34  1  0.55421300  0.16498100  0.38266200  1
  O  O35  1  0.05202400  0.16430800  0.88761200  1
  O  O36  1  0.47249300  0.81256800  0.09711900  1
  O  O37  1  0.94433500  0.83461600  0.61731200  1
  O  O38  1  0.72230900  0.83199100  0.38291900  1
  O  O39  1  0.19393000  0.85416800  0.90294100  1
  O  O40  1  0.27240400  0.17197700  0.11954300  1
  O  O41  1  0.77554200  0.17682200  0.62100400  1
  O  O42  1  0.89146800  0.49001500  0.37906900  1
  O  O43  1  0.39415500  0.49466600  0.88043000  1
  O  O44  1  0.80143500  0.13801800  0.10342700  1
  O  O45  1  0.27456400  0.15888100  0.62094000  1
  O  O46  1  0.39208300  0.50770700  0.37904900  1
  O  O47  1  0.86503400  0.52871700  0.89655600  1
