# generated using pymatgen
data_Sr6Ti3FeO14
_symmetry_space_group_name_H-M   'P 1'
_cell_length_a   3.93334900
_cell_length_b   20.79336977
_cell_length_c   7.88371000
_cell_angle_alpha   79.06869822
_cell_angle_beta   90.00101856
_cell_angle_gamma   90.00008354
_symmetry_Int_Tables_number   1
_chemical_formula_structural   Sr6Ti3FeO14
_chemical_formula_sum   'Sr12 Ti6 Fe2 O28'
_cell_volume   633.09002478
_cell_formula_units_Z   2
loop_
 _symmetry_equiv_pos_site_id
 _symmetry_equiv_pos_as_xyz
  1  'x, y, z'
loop_
 _atom_site_type_symbol
 _atom_site_label
 _atom_site_symmetry_multiplicity
 _atom_site_fract_x
 _atom_site_fract_y
 _atom_site_fract_z
 _atom_site_occupancy
  Sr  Sr0  1  0.49999000  0.18525800  0.15736200  1
  Sr  Sr1  1  0.50000200  0.18548700  0.65725800  1
  Sr  Sr2  1  0.00000900  0.68355600  0.15916600  1
  Sr  Sr3  1  0.99999700  0.68355800  0.65728400  1
  Sr  Sr4  1  0.99999900  0.31814300  0.34125600  1
  Sr  Sr5  1  0.00001300  0.31813400  0.84058200  1
  Sr  Sr6  1  0.49999900  0.81564900  0.84217500  1
  Sr  Sr7  1  0.50000700  0.81551900  0.34223600  1
  Sr  Sr8  1  0.50000200  0.00027000  0.24985600  1
  Sr  Sr9  1  0.50000500  0.00028300  0.74985000  1
  Sr  Sr10  1  0.00000100  0.49701700  0.25084400  1
  Sr  Sr11  1  0.99999800  0.49701200  0.75217700  1
  Ti  Ti12  1  0.00000100  0.90220300  0.04887800  1
  Ti  Ti13  1  0.99999800  0.90220200  0.54892600  1
  Ti  Ti14  1  0.99999900  0.09851100  0.45067100  1
  Ti  Ti15  1  0.99999700  0.09850800  0.95079200  1
  Ti  Ti16  1  0.50000000  0.59742800  0.95131000  1
  Ti  Ti17  1  0.50000000  0.59672300  0.45166700  1
  Fe  Fe18  1  0.50001100  0.40262300  0.04870600  1
  Fe  Fe19  1  0.49998700  0.40242100  0.54878100  1
  O  O20  1  0.50000100  0.30702600  0.09645600  1
  O  O21  1  0.50000500  0.30625300  0.59685200  1
  O  O22  1  0.00000100  0.80558400  0.09693200  1
  O  O23  1  0.99999700  0.80558400  0.59738900  1
  O  O24  1  0.99999700  0.19451200  0.40211000  1
  O  O25  1  0.99999800  0.19451300  0.90345900  1
  O  O26  1  0.50000200  0.69302000  0.90350200  1
  O  O27  1  0.49999700  0.69338100  0.40333100  1
  O  O28  1  0.99999900  0.00002400  0.00000300  1
  O  O29  1  0.99999400  0.00002300  0.49998400  1
  O  O30  1  0.50000400  0.49872100  0.00060000  1
  O  O31  1  0.50000800  0.49938500  0.50031900  1
  O  O32  1  0.00000000  0.40390100  0.04801200  1
  O  O33  1  0.99999700  0.40410600  0.54790400  1
  O  O34  1  0.49994100  0.40427200  0.29091900  1
  O  O35  1  0.50005300  0.40430800  0.80476200  1
  O  O36  1  0.50000200  0.90341700  0.04815000  1
  O  O37  1  0.50000100  0.90341600  0.54830800  1
  O  O38  1  0.00000500  0.90344500  0.79822600  1
  O  O39  1  0.00000300  0.90342600  0.29823600  1
  O  O40  1  0.49999800  0.09675700  0.45146800  1
  O  O41  1  0.49999900  0.09675600  0.95189200  1
  O  O42  1  0.99999900  0.09672700  0.20168800  1
  O  O43  1  0.00000100  0.09679100  0.70165400  1
  O  O44  1  0.99999900  0.59588700  0.95209600  1
  O  O45  1  0.99999800  0.59626400  0.45190700  1
  O  O46  1  0.49999500  0.59599900  0.20179100  1
  O  O47  1  0.49999300  0.59599600  0.70227700  1
