# generated using pymatgen
data_Sr3CaV4O12
_symmetry_space_group_name_H-M   'P 1'
_cell_length_a   3.98184287
_cell_length_b   12.21753194
_cell_length_c   10.94431858
_cell_angle_alpha   116.50711110
_cell_angle_beta   90.05109949
_cell_angle_gamma   90.17015021
_symmetry_Int_Tables_number   1
_chemical_formula_structural   Sr3CaV4O12
_chemical_formula_sum   'Sr6 Ca2 V8 O24'
_cell_volume   476.45005844
_cell_formula_units_Z   2
loop_
 _symmetry_equiv_pos_site_id
 _symmetry_equiv_pos_as_xyz
  1  'x, y, z'
loop_
 _atom_site_type_symbol
 _atom_site_label
 _atom_site_symmetry_multiplicity
 _atom_site_fract_x
 _atom_site_fract_y
 _atom_site_fract_z
 _atom_site_occupancy
  Sr  Sr0  1  0.49979000  0.50028500  0.50012000  1
  Sr  Sr1  1  0.50042700  0.49977900  0.99983300  1
  Sr  Sr2  1  0.49984700  0.24896200  0.62462200  1
  Sr  Sr3  1  0.49900800  0.24894800  0.12476000  1
  Sr  Sr4  1  0.50031400  0.75092000  0.87530300  1
  Sr  Sr5  1  0.50088600  0.75131900  0.37545800  1
  Ca  Ca6  1  0.50041900  0.00054700  0.25140100  1
  Ca  Ca7  1  0.50048700  0.99985700  0.74986900  1
  V  V8  1  0.00058200  0.00025800  0.50017500  1
  V  V9  1  0.99912500  0.99985800  0.00021100  1
  V  V10  1  0.00059200  0.75288500  0.62658200  1
  V  V11  1  0.00095800  0.75274000  0.12642400  1
  V  V12  1  0.99831700  0.24771900  0.37349400  1
  V  V13  1  0.99946700  0.24690900  0.87365800  1
  V  V14  1  0.00014800  0.49997100  0.75005800  1
  V  V15  1  0.00038900  0.50020200  0.24997100  1
  O  O16  1  0.50016900  0.49999200  0.75019300  1
  O  O17  1  0.49999900  0.49999400  0.24972100  1
  O  O18  1  0.49997000  0.00012800  0.49907200  1
  O  O19  1  0.49964200  0.99985100  0.00034300  1
  O  O20  1  0.50120400  0.75673000  0.62881900  1
  O  O21  1  0.50117100  0.75595900  0.12818500  1
  O  O22  1  0.49867100  0.24447100  0.37191900  1
  O  O23  1  0.49897700  0.24250000  0.87083300  1
  O  O24  1  0.00107800  0.62969300  0.68433800  1
  O  O25  1  0.00250200  0.62953500  0.18441600  1
  O  O26  1  0.99846100  0.37090700  0.31582400  1
  O  O27  1  0.99929100  0.36977000  0.81543800  1
  O  O28  1  0.99990600  0.37864000  0.56901700  1
  O  O29  1  0.00203600  0.37754900  0.06864000  1
  O  O30  1  0.99747500  0.62222800  0.43117700  1
  O  O31  1  0.00034700  0.62126400  0.93117100  1
  O  O32  1  0.00133300  0.87219600  0.56390600  1
  O  O33  1  0.99926000  0.87170900  0.06352400  1
  O  O34  1  0.99990700  0.12847200  0.43632300  1
  O  O35  1  0.99863000  0.12722200  0.93555900  1
  O  O36  1  0.00520000  0.88132500  0.81719000  1
  O  O37  1  0.00371900  0.88186600  0.31700000  1
  O  O38  1  0.99479700  0.11866700  0.18299600  1
  O  O39  1  0.99550100  0.11817200  0.68245500  1
