# generated using pymatgen
data_Sr4LaMn5O13
_symmetry_space_group_name_H-M   'P 1'
_cell_length_a   7.62895900
_cell_length_b   9.67045729
_cell_length_c   8.87288912
_cell_angle_alpha   90.20708651
_cell_angle_beta   90.00055742
_cell_angle_gamma   66.77178239
_symmetry_Int_Tables_number   1
_chemical_formula_structural   Sr4LaMn5O13
_chemical_formula_sum   'Sr8 La2 Mn10 O26'
_cell_volume   601.53614072
_cell_formula_units_Z   2
loop_
 _symmetry_equiv_pos_site_id
 _symmetry_equiv_pos_as_xyz
  1  'x, y, z'
loop_
 _atom_site_type_symbol
 _atom_site_label
 _atom_site_symmetry_multiplicity
 _atom_site_fract_x
 _atom_site_fract_y
 _atom_site_fract_z
 _atom_site_occupancy
  Sr  Sr0  1  0.09314500  0.31657200  0.90133900  1
  Sr  Sr1  1  0.59023700  0.31661500  0.90129700  1
  Sr  Sr2  1  0.90812600  0.68713600  0.09954900  1
  Sr  Sr3  1  0.40472200  0.68714400  0.09945500  1
  Sr  Sr4  1  0.80558900  0.88871600  0.70818100  1
  Sr  Sr5  1  0.30576500  0.88865200  0.70816900  1
  Sr  Sr6  1  0.19500500  0.11074500  0.29289300  1
  Sr  Sr7  1  0.69420900  0.11073600  0.29291400  1
  La  La8  1  0.00247400  0.49998700  0.50121300  1
  La  La9  1  0.49752600  0.50000100  0.50135200  1
  Mn  Mn10  1  0.49933000  0.00105600  0.99930900  1
  Mn  Mn11  1  0.99702300  0.00590800  0.00251400  1
  Mn  Mn12  1  0.19708200  0.60576700  0.79920800  1
  Mn  Mn13  1  0.80148700  0.39679700  0.20365900  1
  Mn  Mn14  1  0.59832800  0.80344400  0.39130700  1
  Mn  Mn15  1  0.69695000  0.60625300  0.80113200  1
  Mn  Mn16  1  0.30340400  0.39319100  0.19995400  1
  Mn  Mn17  1  0.40502400  0.19021000  0.60347200  1
  Mn  Mn18  1  0.90186000  0.19651600  0.60636100  1
  Mn  Mn19  1  0.09885600  0.80210500  0.39285500  1
  O  O20  1  0.24626600  0.50729300  0.98999900  1
  O  O21  1  0.75269700  0.49470700  0.01836200  1
  O  O22  1  0.29622400  0.40749000  0.67172800  1
  O  O23  1  0.79197400  0.41601700  0.68704400  1
  O  O24  1  0.20955900  0.58091300  0.31667100  1
  O  O25  1  0.70741800  0.58514500  0.31485600  1
  O  O26  1  0.17054500  0.14979800  0.58133500  1
  O  O27  1  0.67971100  0.14980400  0.58137500  1
  O  O28  1  0.83761800  0.82694100  0.40492600  1
  O  O29  1  0.33543800  0.82701500  0.40491400  1
  O  O30  1  0.45694600  0.08606800  0.80093000  1
  O  O31  1  0.95059600  0.09878800  0.80361500  1
  O  O32  1  0.04321000  0.91353900  0.20283400  1
  O  O33  1  0.54101100  0.91816200  0.20148500  1
  O  O34  1  0.09180100  0.81629400  0.91312800  1
  O  O35  1  0.59877000  0.80269900  0.91588500  1
  O  O36  1  0.40015500  0.19956800  0.08438500  1
  O  O37  1  0.89940800  0.20107400  0.09733300  1
  O  O38  1  0.14097200  0.71810800  0.59458800  1
  O  O39  1  0.63563100  0.72879200  0.58824600  1
  O  O40  1  0.36479700  0.27045700  0.40591400  1
  O  O41  1  0.85389800  0.29206800  0.40710800  1
  O  O42  1  0.94888300  0.60205700  0.78995600  1
  O  O43  1  0.44915800  0.60207600  0.79006400  1
  O  O44  1  0.04823800  0.39878500  0.21365100  1
  O  O45  1  0.55293800  0.39879000  0.21353300  1
