# generated using pymatgen
data_ZnCoP2O7
_symmetry_space_group_name_H-M   'P 1'
_cell_length_a   6.42552489
_cell_length_b   7.06183171
_cell_length_c   6.27300515
_cell_angle_alpha   77.40001508
_cell_angle_beta   81.08344678
_cell_angle_gamma   69.35747659
_symmetry_Int_Tables_number   1
_chemical_formula_structural   ZnCoP2O7
_chemical_formula_sum   'Zn2 Co2 P4 O14'
_cell_volume   259.00194020
_cell_formula_units_Z   2
loop_
 _symmetry_equiv_pos_site_id
 _symmetry_equiv_pos_as_xyz
  1  'x, y, z'
loop_
 _atom_site_type_symbol
 _atom_site_label
 _atom_site_symmetry_multiplicity
 _atom_site_fract_x
 _atom_site_fract_y
 _atom_site_fract_z
 _atom_site_occupancy
  Zn  Zn0  1  0.28478600  0.19778600  0.93419700  1
  Zn  Zn1  1  0.71698800  0.79865400  0.06863000  1
  Co  Co2  1  0.90674200  0.20921600  0.33365000  1
  Co  Co3  1  0.09318400  0.80202000  0.67008100  1
  P  P4  1  0.20795900  0.77034400  0.16610200  1
  P  P5  1  0.78987800  0.23095900  0.83729100  1
  P  P6  1  0.64620500  0.67471700  0.60159400  1
  P  P7  1  0.35473600  0.32332500  0.39707400  1
  O  O8  1  0.63025400  0.45186800  0.73868400  1
  O  O9  1  0.36372900  0.55035000  0.26947300  1
  O  O10  1  0.06612400  0.74502200  0.00330500  1
  O  O11  1  0.93458700  0.25316900  0.99790600  1
  O  O12  1  0.24611000  0.35445200  0.62776700  1
  O  O13  1  0.75762400  0.63222400  0.37355800  1
  O  O14  1  0.59715200  0.19136300  0.38250400  1
  O  O15  1  0.40475600  0.81141300  0.60483500  1
  O  O16  1  0.62760600  0.11590000  0.95011500  1
  O  O17  1  0.37452900  0.88006800  0.04949700  1
  O  O18  1  0.94304600  0.12565200  0.65383500  1
  O  O19  1  0.05345200  0.88062900  0.34458000  1
  O  O20  1  0.21033300  0.26891100  0.25814900  1
  O  O21  1  0.79022000  0.73195600  0.73717200  1
