# generated using pymatgen
data_Na3CoBAsO7
_symmetry_space_group_name_H-M   'P 1'
_cell_length_a   9.11470439
_cell_length_b   6.82530815
_cell_length_c   5.31371053
_cell_angle_alpha   90.24473253
_cell_angle_beta   88.44368951
_cell_angle_gamma   90.09131040
_symmetry_Int_Tables_number   1
_chemical_formula_structural   Na3CoBAsO7
_chemical_formula_sum   'Na6 Co2 B2 As2 O14'
_cell_volume   330.44415451
_cell_formula_units_Z   2
loop_
 _symmetry_equiv_pos_site_id
 _symmetry_equiv_pos_as_xyz
  1  'x, y, z'
loop_
 _atom_site_type_symbol
 _atom_site_label
 _atom_site_symmetry_multiplicity
 _atom_site_fract_x
 _atom_site_fract_y
 _atom_site_fract_z
 _atom_site_occupancy
  Na  Na0  1  0.07618300  0.25193700  0.76027700  1
  Na  Na1  1  0.24434400  0.99850300  0.24062200  1
  Na  Na2  1  0.24444900  0.50155900  0.24086100  1
  Na  Na3  1  0.75309000  0.50047400  0.75380100  1
  Na  Na4  1  0.75335300  0.00039400  0.75114600  1
  Na  Na5  1  0.91884400  0.74785200  0.24256700  1
  Co  Co6  1  0.33308700  0.74999500  0.77247200  1
  Co  Co7  1  0.66842200  0.24670200  0.22586300  1
  B  B8  1  0.06293700  0.75036100  0.73822500  1
  B  B9  1  0.93641300  0.25175600  0.27552300  1
  As  As10  1  0.42536600  0.24983300  0.71180100  1
  As  As11  1  0.57589400  0.74861500  0.28352600  1
  O  O12  1  0.08287000  0.25012000  0.30384000  1
  O  O13  1  0.12455500  0.74880700  0.97412200  1
  O  O14  1  0.17382600  0.75066300  0.54359700  1
  O  O15  1  0.31229400  0.05465700  0.78675200  1
  O  O16  1  0.31238300  0.44562000  0.78436400  1
  O  O17  1  0.46811400  0.24736000  0.38898300  1
  O  O18  1  0.41365500  0.74995300  0.12691700  1
  O  O19  1  0.58682000  0.24854000  0.86583200  1
  O  O20  1  0.53651500  0.74912100  0.60458400  1
  O  O21  1  0.68865400  0.55431200  0.20641100  1
  O  O22  1  0.68835000  0.94555400  0.21289800  1
  O  O23  1  0.83300200  0.25130500  0.47506400  1
  O  O24  1  0.86746600  0.25475000  0.04195300  1
  O  O25  1  0.91911600  0.75125800  0.68799900  1
