# generated using pymatgen
data_Li4Mn3Co3(SnO8)2
_symmetry_space_group_name_H-M   'P 1'
_cell_length_a   5.97526262
_cell_length_b   11.40017774
_cell_length_c   10.23359456
_cell_angle_alpha   116.37722123
_cell_angle_beta   89.99384789
_cell_angle_gamma   106.05234857
_symmetry_Int_Tables_number   1
_chemical_formula_structural   Li4Mn3Co3(SnO8)2
_chemical_formula_sum   'Li8 Mn6 Co6 Sn4 O32'
_cell_volume   594.04517381
_cell_formula_units_Z   2
loop_
 _symmetry_equiv_pos_site_id
 _symmetry_equiv_pos_as_xyz
  1  'x, y, z'
loop_
 _atom_site_type_symbol
 _atom_site_label
 _atom_site_symmetry_multiplicity
 _atom_site_fract_x
 _atom_site_fract_y
 _atom_site_fract_z
 _atom_site_occupancy
  Li  Li0  1  0.44205000  0.89685000  0.11952100  1
  Li  Li1  1  0.94308700  0.89907100  0.62136100  1
  Li  Li2  1  0.00054600  0.99412200  0.99700300  1
  Li  Li3  1  0.50007800  0.99402500  0.49720900  1
  Li  Li4  1  0.74824100  0.49255900  0.74137700  1
  Li  Li5  1  0.24822200  0.49197800  0.24074300  1
  Li  Li6  1  0.19222200  0.39596300  0.52846100  1
  Li  Li7  1  0.69346900  0.39581800  0.02868700  1
  Mn  Mn8  1  0.86535300  0.21574500  0.69374100  1
  Mn  Mn9  1  0.11211200  0.71456300  0.77256600  1
  Mn  Mn10  1  0.35365000  0.71211300  0.52443000  1
  Mn  Mn11  1  0.36561600  0.21471700  0.19344800  1
  Mn  Mn12  1  0.61447500  0.71651000  0.27369600  1
  Mn  Mn13  1  0.85610400  0.71212700  0.02329300  1
  Co  Co14  1  0.11001900  0.21606100  0.93976100  1
  Co  Co15  1  0.61132800  0.21450800  0.43939300  1
  Co  Co16  1  0.35636000  0.21313700  0.69240400  1
  Co  Co17  1  0.85371700  0.21214200  0.19286000  1
  Co  Co18  1  0.60280200  0.71620300  0.77076000  1
  Co  Co19  1  0.10577800  0.71423500  0.27082700  1
  Sn  Sn20  1  0.25046600  0.49152800  0.90700800  1
  Sn  Sn21  1  0.74423600  0.49171500  0.40899700  1
  Sn  Sn22  1  0.49779800  0.99128100  0.83269400  1
  Sn  Sn23  1  0.99509100  0.99112200  0.33328100  1
  O  O24  1  0.31028500  0.60384000  0.13733100  1
  O  O25  1  0.80135900  0.60737600  0.64150300  1
  O  O26  1  0.39117400  0.33680200  0.90610300  1
  O  O27  1  0.88764400  0.33941500  0.40983900  1
  O  O28  1  0.04058900  0.10885800  0.71972200  1
  O  O29  1  0.54020800  0.10612000  0.21764300  1
  O  O30  1  0.66873400  0.30695800  0.65787100  1
  O  O31  1  0.16587600  0.30616700  0.15655400  1
  O  O32  1  0.92641000  0.80808400  0.90823400  1
  O  O33  1  0.41626400  0.80684500  0.40665200  1
  O  O34  1  0.56333000  0.59869300  0.87072400  1
  O  O35  1  0.05700300  0.59852600  0.37126800  1
  O  O36  1  0.94168900  0.33841100  0.90564600  1
  O  O37  1  0.43871500  0.33837300  0.40523700  1
  O  O38  1  0.15835400  0.33372100  0.68148200  1
  O  O39  1  0.65906500  0.33433000  0.18282800  1
  O  O40  1  0.31235500  0.10112000  0.47359100  1
  O  O41  1  0.81170400  0.09993300  0.97410200  1
  O  O42  1  0.04884800  0.59475900  0.86618100  1
  O  O43  1  0.54571200  0.59713700  0.36931600  1
  O  O44  1  0.41682400  0.82607300  0.89764600  1
  O  O45  1  0.90616200  0.83435700  0.40473700  1
  O  O46  1  0.64433800  0.83764000  0.68448500  1
  O  O47  1  0.14069700  0.83820700  0.18332200  1
  O  O48  1  0.28049500  0.60862300  0.63148800  1
  O  O49  1  0.78777100  0.61016500  0.13485500  1
  O  O50  1  0.79829100  0.10434300  0.47758900  1
  O  O51  1  0.30015200  0.10214400  0.97767100  1
  O  O52  1  0.18495300  0.84367600  0.69173600  1
  O  O53  1  0.68230600  0.84444200  0.19306400  1
  O  O54  1  0.05803600  0.10179000  0.21367200  1
  O  O55  1  0.55938200  0.10065600  0.71252600  1
