# generated using pymatgen
data_SrVZn(PO4)2
_symmetry_space_group_name_H-M   'P 1'
_cell_length_a   5.53321927
_cell_length_b   7.04323926
_cell_length_c   9.52228340
_cell_angle_alpha   110.93407687
_cell_angle_beta   101.57921933
_cell_angle_gamma   98.14936339
_symmetry_Int_Tables_number   1
_chemical_formula_structural   SrVZn(PO4)2
_chemical_formula_sum   'Sr2 V2 Zn2 P4 O16'
_cell_volume   330.18034925
_cell_formula_units_Z   2
loop_
 _symmetry_equiv_pos_site_id
 _symmetry_equiv_pos_as_xyz
  1  'x, y, z'
loop_
 _atom_site_type_symbol
 _atom_site_label
 _atom_site_symmetry_multiplicity
 _atom_site_fract_x
 _atom_site_fract_y
 _atom_site_fract_z
 _atom_site_occupancy
  Sr  Sr0  1  0.24548700  0.79805700  0.04657800  1
  Sr  Sr1  1  0.75451300  0.20194300  0.95342200  1
  V  V2  1  0.63964000  0.85070700  0.56147900  1
  V  V3  1  0.36036000  0.14929300  0.43852100  1
  Zn  Zn4  1  0.99397600  0.37847900  0.64678500  1
  Zn  Zn5  1  0.00602400  0.62152100  0.35321500  1
  P  P6  1  0.39015300  0.42250200  0.23160500  1
  P  P7  1  0.60984700  0.57749800  0.76839500  1
  P  P8  1  0.83947500  0.02176700  0.30061700  1
  P  P9  1  0.16052500  0.97823300  0.69938300  1
  O  O10  1  0.80747300  0.55483100  0.89755300  1
  O  O11  1  0.66375000  0.47564800  0.21375700  1
  O  O12  1  0.66643000  0.79914700  0.77028200  1
  O  O13  1  0.95944400  0.11824800  0.70027100  1
  O  O14  1  0.33625000  0.52435200  0.78624300  1
  O  O15  1  0.00233300  0.75385500  0.57800100  1
  O  O16  1  0.99766700  0.24614500  0.42199900  1
  O  O17  1  0.26309800  0.99336600  0.86434400  1
  O  O18  1  0.33357000  0.20085300  0.22971800  1
  O  O19  1  0.73690200  0.00663400  0.13565600  1
  O  O20  1  0.19252700  0.44516900  0.10244700  1
  O  O21  1  0.36203000  0.58294300  0.39046600  1
  O  O22  1  0.63797000  0.41705700  0.60953400  1
  O  O23  1  0.62121500  0.95070500  0.36533500  1
  O  O24  1  0.04055600  0.88175200  0.29972900  1
  O  O25  1  0.37878500  0.04929500  0.63466500  1
