# generated using pymatgen
data_Tl3Co3O8
_symmetry_space_group_name_H-M   'P 1'
_cell_length_a   5.55733206
_cell_length_b   11.39733878
_cell_length_c   5.59875144
_cell_angle_alpha   90.04776136
_cell_angle_beta   87.36585679
_cell_angle_gamma   89.97228951
_symmetry_Int_Tables_number   1
_chemical_formula_structural   Tl3Co3O8
_chemical_formula_sum   'Tl6 Co6 O16'
_cell_volume   354.24330149
_cell_formula_units_Z   2
loop_
 _symmetry_equiv_pos_site_id
 _symmetry_equiv_pos_as_xyz
  1  'x, y, z'
loop_
 _atom_site_type_symbol
 _atom_site_label
 _atom_site_symmetry_multiplicity
 _atom_site_fract_x
 _atom_site_fract_y
 _atom_site_fract_z
 _atom_site_occupancy
  Tl  Tl0  1  0.79059500  0.50040700  0.25342100  1
  Tl  Tl1  1  0.29262200  0.50043400  0.73533300  1
  Tl  Tl2  1  0.70279900  0.17838200  0.26831000  1
  Tl  Tl3  1  0.19661600  0.82212700  0.73903700  1
  Tl  Tl4  1  0.70021200  0.82212000  0.26819400  1
  Tl  Tl5  1  0.19915200  0.17802300  0.73885500  1
  Co  Co6  1  0.69546100  0.00032300  0.80254700  1
  Co  Co7  1  0.74496500  0.67021900  0.75454300  1
  Co  Co8  1  0.74654600  0.32972700  0.75491700  1
  Co  Co9  1  0.19364100  0.00012000  0.20233700  1
  Co  Co10  1  0.25036900  0.32917700  0.24343100  1
  Co  Co11  1  0.24838500  0.67098300  0.24292900  1
  O  O12  1  0.96191700  0.27791800  0.04573400  1
  O  O13  1  0.46462700  0.71909600  0.93666900  1
  O  O14  1  0.46698600  0.28074400  0.93830000  1
  O  O15  1  0.95728300  0.72063700  0.04580800  1
  O  O16  1  0.84377400  0.99994100  0.12407400  1
  O  O17  1  0.33999400  0.99968200  0.86950600  1
  O  O18  1  0.17856000  0.49997400  0.13817400  1
  O  O19  1  0.67888300  0.50000100  0.86389600  1
  O  O20  1  0.30677100  0.14585800  0.35145200  1
  O  O21  1  0.80447100  0.85353400  0.64576900  1
  O  O22  1  0.30531900  0.85389400  0.35083400  1
  O  O23  1  0.80556100  0.14666500  0.64570700  1
  O  O24  1  0.55922900  0.36542700  0.44410900  1
  O  O25  1  0.04697400  0.63740300  0.57528000  1
  O  O26  1  0.04948900  0.36347200  0.57651900  1
  O  O27  1  0.55520000  0.63371200  0.44431300  1
