# generated using pymatgen
data_Li3FeO3
_symmetry_space_group_name_H-M   'P 1'
_cell_length_a   3.59338200
_cell_length_b   8.98810839
_cell_length_c   8.98828038
_cell_angle_alpha   90.33924180
_cell_angle_beta   89.99985006
_cell_angle_gamma   90.00005125
_symmetry_Int_Tables_number   1
_chemical_formula_structural   Li3FeO3
_chemical_formula_sum   'Li12 Fe4 O12'
_cell_volume   290.29575691
_cell_formula_units_Z   4
loop_
 _symmetry_equiv_pos_site_id
 _symmetry_equiv_pos_as_xyz
  1  'x, y, z'
loop_
 _atom_site_type_symbol
 _atom_site_label
 _atom_site_symmetry_multiplicity
 _atom_site_fract_x
 _atom_site_fract_y
 _atom_site_fract_z
 _atom_site_occupancy
  Li  Li0  1  0.00000100  0.16932800  0.17359300  1
  Li  Li1  1  0.50000100  0.33216800  0.66781100  1
  Li  Li2  1  0.50000000  0.66876900  0.33120900  1
  Li  Li3  1  0.00000100  0.82639300  0.83066300  1
  Li  Li4  1  0.50000100  0.09977000  0.35698500  1
  Li  Li5  1  0.99999900  0.14186900  0.59350300  1
  Li  Li6  1  0.50000400  0.36051600  0.10222100  1
  Li  Li7  1  0.00000100  0.40648200  0.85811100  1
  Li  Li8  1  0.00000200  0.60016400  0.14295600  1
  Li  Li9  1  0.50000400  0.64301300  0.90022600  1
  Li  Li10  1  0.00000100  0.85701900  0.39983000  1
  Li  Li11  1  0.50000100  0.89776500  0.63946800  1
  Fe  Fe12  1  0.99999200  0.38571500  0.38523700  1
  Fe  Fe13  1  0.00000400  0.61469600  0.61426200  1
  Fe  Fe14  1  0.49998300  0.11673000  0.88333900  1
  Fe  Fe15  1  0.50000300  0.88352600  0.11662700  1
  O  O16  1  0.50000000  0.09900600  0.10545700  1
  O  O17  1  0.99999900  0.39949700  0.60048700  1
  O  O18  1  0.99999900  0.60041600  0.39957100  1
  O  O19  1  0.50000000  0.89458500  0.90103700  1
  O  O20  1  0.49999900  0.10971200  0.67348100  1
  O  O21  1  0.99999900  0.18093800  0.38755400  1
  O  O22  1  0.50000000  0.32651700  0.89027400  1
  O  O23  1  0.00000200  0.38840700  0.18016500  1
  O  O24  1  0.00000200  0.61243000  0.81905400  1
  O  O25  1  0.50000100  0.67760400  0.11286100  1
  O  O26  1  0.99999900  0.81981800  0.61158200  1
  O  O27  1  0.50000100  0.88715000  0.32243600  1
