# generated using pymatgen
data_Li4V3Sn3(TeO8)2
_symmetry_space_group_name_H-M   'P 1'
_cell_length_a   6.25868757
_cell_length_b   10.96093318
_cell_length_c   10.13266374
_cell_angle_alpha   89.73637684
_cell_angle_beta   89.68139085
_cell_angle_gamma   90.25802241
_symmetry_Int_Tables_number   1
_chemical_formula_structural   Li4V3Sn3(TeO8)2
_chemical_formula_sum   'Li8 V6 Sn6 Te4 O32'
_cell_volume   695.08620103
_cell_formula_units_Z   2
loop_
 _symmetry_equiv_pos_site_id
 _symmetry_equiv_pos_as_xyz
  1  'x, y, z'
loop_
 _atom_site_type_symbol
 _atom_site_label
 _atom_site_symmetry_multiplicity
 _atom_site_fract_x
 _atom_site_fract_y
 _atom_site_fract_z
 _atom_site_occupancy
  Li  Li0  1  0.50253200  0.16835300  0.90431300  1
  Li  Li1  1  0.00256100  0.66836200  0.90428300  1
  Li  Li2  1  0.98931600  0.00295600  0.98809500  1
  Li  Li3  1  0.48926400  0.50293600  0.98806800  1
  Li  Li4  1  0.99405100  0.99958400  0.49795600  1
  Li  Li5  1  0.49388500  0.49948600  0.49795900  1
  Li  Li6  1  0.50010800  0.83323500  0.39970100  1
  Li  Li7  1  0.00007200  0.33323200  0.39967500  1
  V  V8  1  0.25070700  0.58508800  0.21234900  1
  V  V9  1  0.74756100  0.91259900  0.71469400  1
  V  V10  1  0.24742200  0.41246500  0.71464700  1
  V  V11  1  0.75058800  0.08516100  0.21240000  1
  V  V12  1  0.50276000  0.66895200  0.71222300  1
  V  V13  1  0.00289700  0.16891700  0.71225500  1
  Sn  Sn14  1  0.25079300  0.91358500  0.71347000  1
  Sn  Sn15  1  0.75072400  0.41355300  0.71351100  1
  Sn  Sn16  1  0.49944300  0.33301300  0.21485900  1
  Sn  Sn17  1  0.99949700  0.83302300  0.21488200  1
  Sn  Sn18  1  0.24907900  0.08559600  0.21289400  1
  Sn  Sn19  1  0.74906100  0.58557300  0.21289500  1
  Te  Te20  1  0.51010300  0.15582500  0.49725300  1
  Te  Te21  1  0.01011400  0.65578700  0.49721800  1
  Te  Te22  1  0.50711800  0.83200600  0.97838700  1
  Te  Te23  1  0.00700300  0.33190300  0.97855200  1
  O  O24  1  0.26465000  0.24307800  0.33055400  1
  O  O25  1  0.76471000  0.74305700  0.33058200  1
  O  O26  1  0.49759000  0.16863900  0.10450700  1
  O  O27  1  0.99760700  0.66860600  0.10452900  1
  O  O28  1  0.00075100  0.99977600  0.31758000  1
  O  O29  1  0.50077600  0.49975200  0.31754900  1
  O  O30  1  0.99436500  0.99431600  0.80673200  1
  O  O31  1  0.49430300  0.49423000  0.80664400  1
  O  O32  1  0.22622500  0.92721200  0.09772500  1
  O  O33  1  0.72623300  0.42720100  0.09774900  1
  O  O34  1  0.75153200  0.07237400  0.59588900  1
  O  O35  1  0.25143400  0.57221400  0.59583100  1
  O  O36  1  0.50480700  0.84175800  0.60860600  1
  O  O37  1  0.00472900  0.34167900  0.60856200  1
  O  O38  1  0.72769700  0.76762900  0.84456000  1
  O  O39  1  0.22766800  0.26754700  0.84454300  1
  O  O40  1  0.50193400  0.34011700  0.60184700  1
  O  O41  1  0.00189400  0.84034800  0.60184100  1
  O  O42  1  0.24960500  0.07527000  0.59511600  1
  O  O43  1  0.74947900  0.57511100  0.59504900  1
  O  O44  1  0.73203000  0.23904900  0.32636700  1
  O  O45  1  0.23193900  0.73901600  0.32637600  1
  O  O46  1  0.50288600  0.01947200  0.33610500  1
  O  O47  1  0.00283000  0.51952800  0.33628100  1
  O  O48  1  0.49919400  0.97991100  0.84426200  1
  O  O49  1  0.99914100  0.47984300  0.84417500  1
  O  O50  1  0.28076800  0.76197400  0.84721300  1
  O  O51  1  0.78069100  0.26191700  0.84723800  1
  O  O52  1  0.76955400  0.92936100  0.10534200  1
  O  O53  1  0.26948000  0.42936800  0.10540900  1
  O  O54  1  0.49354600  0.64986500  0.09920600  1
  O  O55  1  0.99358800  0.14989700  0.09916500  1
