# generated using pymatgen
data_Li2CrFe(PO4)2
_symmetry_space_group_name_H-M   'P 1'
_cell_length_a   4.77438737
_cell_length_b   10.77876385
_cell_length_c   5.98070233
_cell_angle_alpha   90.54030400
_cell_angle_beta   89.68199140
_cell_angle_gamma   91.50414206
_symmetry_Int_Tables_number   1
_chemical_formula_structural   Li2CrFe(PO4)2
_chemical_formula_sum   'Li4 Cr2 Fe2 P4 O16'
_cell_volume   307.65480688
_cell_formula_units_Z   2
loop_
 _symmetry_equiv_pos_site_id
 _symmetry_equiv_pos_as_xyz
  1  'x, y, z'
loop_
 _atom_site_type_symbol
 _atom_site_label
 _atom_site_symmetry_multiplicity
 _atom_site_fract_x
 _atom_site_fract_y
 _atom_site_fract_z
 _atom_site_occupancy
  Li  Li0  1  0.99976500  0.00017800  0.00024200  1
  Li  Li1  1  0.99976100  0.00013300  0.50016600  1
  Li  Li2  1  0.50012300  0.49994600  0.99977700  1
  Li  Li3  1  0.50032100  0.49994000  0.49975900  1
  Cr  Cr4  1  0.49058300  0.77505500  0.25207900  1
  Cr  Cr5  1  0.50921300  0.22496200  0.74804400  1
  Fe  Fe6  1  0.98473400  0.27998800  0.24727300  1
  Fe  Fe7  1  0.01405700  0.72027200  0.75243500  1
  P  P8  1  0.41307500  0.09876100  0.25248800  1
  P  P9  1  0.58638200  0.90135600  0.74777400  1
  P  P10  1  0.92125500  0.41199600  0.74790900  1
  P  P11  1  0.07940300  0.58778300  0.25171100  1
  O  O12  1  0.71574600  0.03444200  0.75426700  1
  O  O13  1  0.28383400  0.96566100  0.24624200  1
  O  O14  1  0.73561400  0.10323800  0.25067900  1
  O  O15  1  0.26392300  0.89684700  0.74974600  1
  O  O16  1  0.23973800  0.41567800  0.74924500  1
  O  O17  1  0.76075900  0.58415300  0.25047400  1
  O  O18  1  0.21104200  0.45762000  0.24913400  1
  O  O19  1  0.79066700  0.54217700  0.75075900  1
  O  O20  1  0.28215400  0.17019300  0.04939200  1
  O  O21  1  0.28456500  0.16474800  0.46506600  1
  O  O22  1  0.71500400  0.83537200  0.53526200  1
  O  O23  1  0.71769000  0.82970600  0.95063000  1
  O  O24  1  0.78932200  0.33885500  0.54131400  1
  O  O25  1  0.78456000  0.33691000  0.94953700  1
  O  O26  1  0.21584000  0.66294300  0.05012300  1
  O  O27  1  0.21086900  0.66108900  0.45847300  1
