# generated using pymatgen
data_SrMgFe(PO4)2
_symmetry_space_group_name_H-M   'P 1'
_cell_length_a   5.58894292
_cell_length_b   6.78895054
_cell_length_c   9.50498141
_cell_angle_alpha   110.21656881
_cell_angle_beta   101.64269042
_cell_angle_gamma   98.16531174
_symmetry_Int_Tables_number   1
_chemical_formula_structural   SrMgFe(PO4)2
_chemical_formula_sum   'Sr2 Mg2 Fe2 P4 O16'
_cell_volume   322.54781303
_cell_formula_units_Z   2
loop_
 _symmetry_equiv_pos_site_id
 _symmetry_equiv_pos_as_xyz
  1  'x, y, z'
loop_
 _atom_site_type_symbol
 _atom_site_label
 _atom_site_symmetry_multiplicity
 _atom_site_fract_x
 _atom_site_fract_y
 _atom_site_fract_z
 _atom_site_occupancy
  Sr  Sr0  1  0.25680000  0.79917900  0.05262800  1
  Sr  Sr1  1  0.74320000  0.20082100  0.94737200  1
  Mg  Mg2  1  0.99658700  0.40137400  0.64794400  1
  Mg  Mg3  1  0.00341300  0.59862600  0.35205600  1
  Fe  Fe4  1  0.63039500  0.84507100  0.55567000  1
  Fe  Fe5  1  0.36960500  0.15492900  0.44433000  1
  P  P6  1  0.38923300  0.42129000  0.23351300  1
  P  P7  1  0.61076700  0.57871000  0.76648700  1
  P  P8  1  0.84515500  0.02578000  0.30216700  1
  P  P9  1  0.15484500  0.97422000  0.69783300  1
  O  O10  1  0.82667100  0.55295600  0.88512300  1
  O  O11  1  0.65180000  0.47653300  0.20784400  1
  O  O12  1  0.66139400  0.80775600  0.76695800  1
  O  O13  1  0.95500000  0.11496400  0.68509000  1
  O  O14  1  0.34820000  0.52346700  0.79215600  1
  O  O15  1  0.01196700  0.73587200  0.58284000  1
  O  O16  1  0.98803300  0.26412800  0.41716000  1
  O  O17  1  0.24779400  0.99847700  0.86658900  1
  O  O18  1  0.33860600  0.19224400  0.23304200  1
  O  O19  1  0.75220600  0.00152300  0.13341100  1
  O  O20  1  0.17332900  0.44704400  0.11487700  1
  O  O21  1  0.37239100  0.58498800  0.39399800  1
  O  O22  1  0.62760900  0.41501200  0.60600200  1
  O  O23  1  0.62213700  0.95084000  0.36221700  1
  O  O24  1  0.04500000  0.88503600  0.31491000  1
  O  O25  1  0.37786300  0.04916000  0.63778300  1
