# generated using pymatgen
data_Ta2Zn2CoO8
_symmetry_space_group_name_H-M   'P 1'
_cell_length_a   7.95238357
_cell_length_b   10.10238526
_cell_length_c   7.94175011
_cell_angle_alpha   102.52770088
_cell_angle_beta   83.38587465
_cell_angle_gamma   102.77065978
_symmetry_Int_Tables_number   1
_chemical_formula_structural   Ta2Zn2CoO8
_chemical_formula_sum   'Ta8 Zn8 Co4 O32'
_cell_volume   605.91024418
_cell_formula_units_Z   4
loop_
 _symmetry_equiv_pos_site_id
 _symmetry_equiv_pos_as_xyz
  1  'x, y, z'
loop_
 _atom_site_type_symbol
 _atom_site_label
 _atom_site_symmetry_multiplicity
 _atom_site_fract_x
 _atom_site_fract_y
 _atom_site_fract_z
 _atom_site_occupancy
  Ta  Ta0  1  0.76920400  0.22750600  0.50039100  1
  Ta  Ta1  1  0.26880200  0.22766500  0.00084600  1
  Ta  Ta2  1  0.63832800  0.77152700  0.40437400  1
  Ta  Ta3  1  0.13806500  0.77152200  0.90449000  1
  Ta  Ta4  1  0.23127400  0.77116800  0.49729300  1
  Ta  Ta5  1  0.73113700  0.77143600  0.99755100  1
  Ta  Ta6  1  0.36207700  0.22739400  0.59372000  1
  Ta  Ta7  1  0.86193500  0.22710000  0.09345500  1
  Zn  Zn8  1  0.83312200  0.56368100  0.60247100  1
  Zn  Zn9  1  0.33307800  0.56388500  0.10248000  1
  Zn  Zn10  1  0.07112700  0.43583600  0.79957600  1
  Zn  Zn11  1  0.57124100  0.43561300  0.29964300  1
  Zn  Zn12  1  0.16715100  0.43496600  0.39575600  1
  Zn  Zn13  1  0.66720800  0.43519000  0.89579400  1
  Zn  Zn14  1  0.92912700  0.56322700  0.19846900  1
  Zn  Zn15  1  0.42909900  0.56305900  0.69854300  1
  Co  Co16  1  0.44481400  0.99956800  0.19608800  1
  Co  Co17  1  0.05480500  0.99913100  0.30240900  1
  Co  Co18  1  0.94543100  0.99949400  0.69458500  1
  Co  Co19  1  0.55454200  0.99939200  0.80325200  1
  O  O20  1  0.05700200  0.13745200  0.12668500  1
  O  O21  1  0.55680800  0.13669000  0.62560300  1
  O  O22  1  0.80875300  0.86183600  0.23793400  1
  O  O23  1  0.30842300  0.86199100  0.73757500  1
  O  O24  1  0.94324900  0.86200200  0.87217400  1
  O  O25  1  0.44292500  0.86137300  0.37074600  1
  O  O26  1  0.19161800  0.13697500  0.76057100  1
  O  O27  1  0.69172000  0.13683800  0.26017300  1
  O  O28  1  0.92243500  0.11522000  0.50883700  1
  O  O29  1  0.42137700  0.11484400  0.00996100  1
  O  O30  1  0.70263500  0.88381700  0.61406300  1
  O  O31  1  0.20191400  0.88244200  0.11500100  1
  O  O32  1  0.07804000  0.88333800  0.48860400  1
  O  O33  1  0.57850500  0.88414700  0.98908900  1
  O  O34  1  0.29647300  0.11661000  0.38357000  1
  O  O35  1  0.79750900  0.11513700  0.88364300  1
  O  O36  1  0.92382100  0.35348500  0.35448300  1
  O  O37  1  0.42398800  0.35332800  0.85428900  1
  O  O38  1  0.42921500  0.64590600  0.49645100  1
  O  O39  1  0.92880800  0.64558600  0.99618400  1
  O  O40  1  0.57139300  0.35319700  0.50186000  1
  O  O41  1  0.07120000  0.35314000  0.00164600  1
  O  O42  1  0.07649000  0.64537400  0.64385900  1
  O  O43  1  0.57648400  0.64541100  0.14366200  1
  O  O44  1  0.24185200  0.38571100  0.59949600  1
  O  O45  1  0.74181400  0.38552400  0.09936700  1
  O  O46  1  0.15744400  0.61294200  0.29795200  1
  O  O47  1  0.65757200  0.61337400  0.79787800  1
  O  O48  1  0.75857100  0.61341800  0.39879800  1
  O  O49  1  0.25853100  0.61340100  0.89881600  1
  O  O50  1  0.84262800  0.38545200  0.70037300  1
  O  O51  1  0.34286900  0.38581400  0.20026400  1
