# generated using pymatgen
data_SrCaV(PO4)2
_symmetry_space_group_name_H-M   'P 1'
_cell_length_a   5.74496871
_cell_length_b   6.98154288
_cell_length_c   9.63758281
_cell_angle_alpha   109.92494194
_cell_angle_beta   101.06915176
_cell_angle_gamma   98.27141263
_symmetry_Int_Tables_number   1
_chemical_formula_structural   SrCaV(PO4)2
_chemical_formula_sum   'Sr2 Ca2 V2 P4 O16'
_cell_volume   347.35449182
_cell_formula_units_Z   2
loop_
 _symmetry_equiv_pos_site_id
 _symmetry_equiv_pos_as_xyz
  1  'x, y, z'
loop_
 _atom_site_type_symbol
 _atom_site_label
 _atom_site_symmetry_multiplicity
 _atom_site_fract_x
 _atom_site_fract_y
 _atom_site_fract_z
 _atom_site_occupancy
  Sr  Sr0  1  0.25883300  0.80699900  0.05466700  1
  Sr  Sr1  1  0.74116700  0.19300100  0.94533300  1
  Ca  Ca2  1  0.99962000  0.41848900  0.66132600  1
  Ca  Ca3  1  0.00038000  0.58151100  0.33867400  1
  V  V4  1  0.65291500  0.85241500  0.56363000  1
  V  V5  1  0.34708400  0.14758500  0.43637000  1
  P  P6  1  0.39010800  0.41530500  0.22317000  1
  P  P7  1  0.60989200  0.58469500  0.77683000  1
  P  P8  1  0.83823400  0.02996500  0.29770100  1
  P  P9  1  0.16176600  0.97003500  0.70229900  1
  O  O10  1  0.83670600  0.55485600  0.87964700  1
  O  O11  1  0.62314700  0.45012000  0.16907300  1
  O  O12  1  0.66449800  0.80531400  0.77130600  1
  O  O13  1  0.96869400  0.10943500  0.70219000  1
  O  O14  1  0.37685300  0.54988000  0.83092700  1
  O  O15  1  0.00806000  0.74197400  0.59400900  1
  O  O16  1  0.99194000  0.25802600  0.40599100  1
  O  O17  1  0.27271600  0.99306300  0.86521100  1
  O  O18  1  0.33550200  0.19468600  0.22869400  1
  O  O19  1  0.72728400  0.00693700  0.13478900  1
  O  O20  1  0.16329400  0.44514400  0.12035300  1
  O  O21  1  0.41633700  0.58105500  0.38653800  1
  O  O22  1  0.58366300  0.41894500  0.61346200  1
  O  O23  1  0.63682300  0.96890700  0.37439100  1
  O  O24  1  0.03130600  0.89056500  0.29781000  1
  O  O25  1  0.36317700  0.03109300  0.62560900  1
