# generated using pymatgen
data_Li2V3TeO8
_symmetry_space_group_name_H-M   'P 1'
_cell_length_a   6.02953327
_cell_length_b   6.06822022
_cell_length_c   9.95673818
_cell_angle_alpha   89.87440174
_cell_angle_beta   90.05324239
_cell_angle_gamma   120.21342036
_symmetry_Int_Tables_number   1
_chemical_formula_structural   Li2V3TeO8
_chemical_formula_sum   'Li4 V6 Te2 O16'
_cell_volume   314.81375113
_cell_formula_units_Z   2
loop_
 _symmetry_equiv_pos_site_id
 _symmetry_equiv_pos_as_xyz
  1  'x, y, z'
loop_
 _atom_site_type_symbol
 _atom_site_label
 _atom_site_symmetry_multiplicity
 _atom_site_fract_x
 _atom_site_fract_y
 _atom_site_fract_z
 _atom_site_occupancy
  Li  Li0  1  0.33520400  0.66687800  0.90437200  1
  Li  Li1  1  0.66468400  0.33174200  0.40428900  1
  Li  Li2  1  0.00004600  0.00069500  0.99016100  1
  Li  Li3  1  0.00016200  0.00088200  0.49015300  1
  V  V4  1  0.66150000  0.83108100  0.21199900  1
  V  V5  1  0.83315700  0.65733500  0.71836300  1
  V  V6  1  0.82906800  0.17143000  0.71679600  1
  V  V7  1  0.16687900  0.82413600  0.21839200  1
  V  V8  1  0.17093500  0.34234700  0.21675200  1
  V  V9  1  0.33838000  0.16948100  0.71217800  1
  Te  Te10  1  0.34020500  0.67195800  0.49197600  1
  Te  Te11  1  0.66004300  0.33179200  0.99181500  1
  O  O12  1  0.32771900  0.66573800  0.10895400  1
  O  O13  1  0.67194100  0.33788100  0.60904400  1
  O  O14  1  0.00622900  0.00280100  0.30682900  1
  O  O15  1  0.99380100  0.99660400  0.80693600  1
  O  O16  1  0.16770400  0.85013000  0.59602300  1
  O  O17  1  0.15466300  0.31502900  0.59804000  1
  O  O18  1  0.32246100  0.15483600  0.09539500  1
  O  O19  1  0.67758900  0.83238100  0.59541300  1
  O  O20  1  0.83245900  0.68237500  0.09594700  1
  O  O21  1  0.84502200  0.15990500  0.09800500  1
  O  O22  1  0.02799700  0.52374400  0.33368600  1
  O  O23  1  0.48968700  0.96563900  0.34238700  1
  O  O24  1  0.47613100  0.50913900  0.33862100  1
  O  O25  1  0.51008600  0.47556600  0.84255900  1
  O  O26  1  0.52440700  0.03305100  0.83887100  1
  O  O27  1  0.97184000  0.49572400  0.83387900  1
