# generated using pymatgen
data_Nd4V5(Si2O11)2
_symmetry_space_group_name_H-M   'P 1'
_cell_length_a   7.33046243
_cell_length_b   7.33046243
_cell_length_c   11.15346992
_cell_angle_alpha   80.41186121
_cell_angle_beta   80.41186121
_cell_angle_gamma   45.76089619
_symmetry_Int_Tables_number   1
_chemical_formula_structural   Nd4V5(Si2O11)2
_chemical_formula_sum   'Nd4 V5 Si4 O22'
_cell_volume   422.31189515
_cell_formula_units_Z   1
loop_
 _symmetry_equiv_pos_site_id
 _symmetry_equiv_pos_as_xyz
  1  'x, y, z'
loop_
 _atom_site_type_symbol
 _atom_site_label
 _atom_site_symmetry_multiplicity
 _atom_site_fract_x
 _atom_site_fract_y
 _atom_site_fract_z
 _atom_site_occupancy
  Nd  Nd0  1  0.07324700  0.07324700  0.75093900  1
  Nd  Nd1  1  0.92675300  0.92675300  0.24906100  1
  Nd  Nd2  1  0.35641100  0.35641100  0.75574900  1
  Nd  Nd3  1  0.64358900  0.64358900  0.24425100  1
  V  V4  1  0.50000000  0.50000000  0.00000000  1
  V  V5  1  0.00000000  0.50000000  0.50000000  1
  V  V6  1  0.50000000  0.00000000  0.50000000  1
  V  V7  1  0.00000000  0.00000000  0.50000000  1
  V  V8  1  0.50000000  0.50000000  0.50000000  1
  Si  Si9  1  0.13877000  0.13877000  0.04157400  1
  Si  Si10  1  0.86123000  0.86123000  0.95842600  1
  Si  Si11  1  0.29695000  0.29695000  0.22840900  1
  Si  Si12  1  0.70305000  0.70305000  0.77159100  1
  O  O13  1  0.22539000  0.22539000  0.12626700  1
  O  O14  1  0.77461000  0.77461000  0.87373300  1
  O  O15  1  0.16510600  0.69351200  0.91131300  1
  O  O16  1  0.30648800  0.83489400  0.08868700  1
  O  O17  1  0.83489400  0.30648800  0.08868700  1
  O  O18  1  0.69351200  0.16510600  0.91131300  1
  O  O19  1  0.18504300  0.18504300  0.89856700  1
  O  O20  1  0.81495700  0.81495700  0.10143300  1
  O  O21  1  0.41376700  0.41376700  0.16465700  1
  O  O22  1  0.58623300  0.58623300  0.83534300  1
  O  O23  1  0.96613200  0.48931700  0.68933500  1
  O  O24  1  0.51068300  0.03386800  0.31066500  1
  O  O25  1  0.03386800  0.51068300  0.31066500  1
  O  O26  1  0.65017200  0.65017200  0.48520100  1
  O  O27  1  0.34982800  0.34982800  0.51479900  1
  O  O28  1  0.85786100  0.85786100  0.47262000  1
  O  O29  1  0.14213900  0.14213900  0.52738000  1
  O  O30  1  0.73560100  0.21739600  0.63110600  1
  O  O31  1  0.78260400  0.26439900  0.36889400  1
  O  O32  1  0.26439900  0.78260400  0.36889400  1
  O  O33  1  0.21739600  0.73560100  0.63110600  1
  O  O34  1  0.48931700  0.96613200  0.68933500  1
