# generated using pymatgen
data_K(MoO3)3
_symmetry_space_group_name_H-M   'P 1'
_cell_length_a   8.59770913
_cell_length_b   8.59770913
_cell_length_c   6.52112780
_cell_angle_alpha   87.98644894
_cell_angle_beta   87.98644894
_cell_angle_gamma   54.05636688
_symmetry_Int_Tables_number   1
_chemical_formula_structural   K(MoO3)3
_chemical_formula_sum   'K2 Mo6 O18'
_cell_volume   389.95801051
_cell_formula_units_Z   2
loop_
 _symmetry_equiv_pos_site_id
 _symmetry_equiv_pos_as_xyz
  1  'x, y, z'
loop_
 _atom_site_type_symbol
 _atom_site_label
 _atom_site_symmetry_multiplicity
 _atom_site_fract_x
 _atom_site_fract_y
 _atom_site_fract_z
 _atom_site_occupancy
  K  K0  1  0.70118700  0.70118700  0.15796000  1
  K  K1  1  0.29881300  0.29881300  0.84204000  1
  Mo  Mo2  1  0.79589200  0.31665700  0.73347200  1
  Mo  Mo3  1  0.68334300  0.20410800  0.26652800  1
  Mo  Mo4  1  0.11850700  0.11850700  0.36644400  1
  Mo  Mo5  1  0.88149300  0.88149300  0.63355600  1
  Mo  Mo6  1  0.31665700  0.79589200  0.73347200  1
  Mo  Mo7  1  0.20410800  0.68334300  0.26652800  1
  O  O8  1  0.15787900  0.68233200  0.58588200  1
  O  O9  1  0.31766800  0.84212100  0.41411800  1
  O  O10  1  0.84212100  0.31766800  0.41411800  1
  O  O11  1  0.68233200  0.15787900  0.58588200  1
  O  O12  1  0.09980400  0.57287900  0.19878900  1
  O  O13  1  0.42712100  0.90019600  0.80121100  1
  O  O14  1  0.90019600  0.42712100  0.80121100  1
  O  O15  1  0.57287900  0.09980400  0.19878900  1
  O  O16  1  0.74197200  0.25802800  0.00000000  1
  O  O17  1  0.25802800  0.74197200  0.00000000  1
  O  O18  1  0.78327300  0.78327300  0.51090800  1
  O  O19  1  0.21672700  0.21672700  0.48909200  1
  O  O20  1  0.85213500  0.85213500  0.89260100  1
  O  O21  1  0.14786500  0.14786500  0.10739900  1
  O  O22  1  0.46331700  0.46331700  0.29365400  1
  O  O23  1  0.53668300  0.53668300  0.70634600  1
  O  O24  1  0.96265900  0.96265900  0.30717400  1
  O  O25  1  0.03734100  0.03734100  0.69282600  1
