# generated using pymatgen
data_LaCu(WO4)2
_symmetry_space_group_name_H-M   'P 1'
_cell_length_a   7.33637900
_cell_length_b   7.55370568
_cell_length_c   7.73370724
_cell_angle_alpha   114.50603087
_cell_angle_beta   115.55345709
_cell_angle_gamma   91.52961536
_symmetry_Int_Tables_number   1
_chemical_formula_structural   LaCu(WO4)2
_chemical_formula_sum   'La2 Cu2 W4 O16'
_cell_volume   340.61006981
_cell_formula_units_Z   2
loop_
 _symmetry_equiv_pos_site_id
 _symmetry_equiv_pos_as_xyz
  1  'x, y, z'
loop_
 _atom_site_type_symbol
 _atom_site_label
 _atom_site_symmetry_multiplicity
 _atom_site_fract_x
 _atom_site_fract_y
 _atom_site_fract_z
 _atom_site_occupancy
  La  La0  1  0.18468300  0.28476600  0.46226600  1
  La  La1  1  0.81531700  0.71523400  0.53773400  1
  Cu  Cu2  1  0.77804100  0.32362200  0.04408800  1
  Cu  Cu3  1  0.22195900  0.67637800  0.95591200  1
  W  W4  1  0.72798600  0.70354400  0.96223700  1
  W  W5  1  0.35484700  0.89967900  0.71347500  1
  W  W6  1  0.27201400  0.29645600  0.03776300  1
  W  W7  1  0.64515300  0.10032100  0.28652500  1
  O  O8  1  0.53666600  0.46936800  0.73285000  1
  O  O9  1  0.46333400  0.53063200  0.26715000  1
  O  O10  1  0.05219000  0.30940000  0.09486200  1
  O  O11  1  0.94781000  0.69060000  0.90513800  1
  O  O12  1  0.20162600  0.36773300  0.81982500  1
  O  O13  1  0.79837400  0.63226700  0.18017500  1
  O  O14  1  0.82374800  0.35433200  0.44670700  1
  O  O15  1  0.17625200  0.64566800  0.55329300  1
  O  O16  1  0.61347500  0.83166800  0.74524000  1
  O  O17  1  0.38652500  0.16833200  0.25476000  1
  O  O18  1  0.47613500  0.82560700  0.00328100  1
  O  O19  1  0.52386500  0.17439300  0.99671900  1
  O  O20  1  0.14588700  0.99578600  0.80388600  1
  O  O21  1  0.85411300  0.00421400  0.19611400  1
  O  O22  1  0.29694600  0.99466100  0.52361600  1
  O  O23  1  0.70305400  0.00533900  0.47638400  1
