# generated using pymatgen
data_Y3Al2
_symmetry_space_group_name_H-M   'P 1'
_cell_length_a   8.25350400
_cell_length_b   8.25350400
_cell_length_c   7.64016300
_cell_angle_alpha   90.00000000
_cell_angle_beta   90.00000000
_cell_angle_gamma   90.00000000
_symmetry_Int_Tables_number   1
_chemical_formula_structural   Y3Al2
_chemical_formula_sum   'Y12 Al8'
_cell_volume   520.45041166
_cell_formula_units_Z   4
loop_
 _symmetry_equiv_pos_site_id
 _symmetry_equiv_pos_as_xyz
  1  'x, y, z'
loop_
 _atom_site_type_symbol
 _atom_site_label
 _atom_site_symmetry_multiplicity
 _atom_site_fract_x
 _atom_site_fract_y
 _atom_site_fract_z
 _atom_site_occupancy
  Y  Y0  1  0.50000000  0.00000000  0.25000000  1
  Y  Y1  1  0.50000000  0.00000000  0.75000000  1
  Y  Y2  1  0.00000000  0.50000000  0.25000000  1
  Y  Y3  1  0.00000000  0.50000000  0.75000000  1
  Y  Y4  1  0.34782300  0.34782300  0.00000000  1
  Y  Y5  1  0.84782300  0.15217700  0.50000000  1
  Y  Y6  1  0.15217700  0.84782300  0.50000000  1
  Y  Y7  1  0.65217700  0.65217700  0.00000000  1
  Y  Y8  1  0.79940500  0.20059500  0.00000000  1
  Y  Y9  1  0.70059500  0.70059500  0.50000000  1
  Y  Y10  1  0.29940500  0.29940500  0.50000000  1
  Y  Y11  1  0.20059500  0.79940500  0.00000000  1
  Al  Al12  1  0.11883300  0.11883300  0.19753800  1
  Al  Al13  1  0.61883300  0.38116700  0.69753800  1
  Al  Al14  1  0.38116700  0.61883300  0.69753800  1
  Al  Al15  1  0.88116700  0.88116700  0.19753800  1
  Al  Al16  1  0.38116700  0.61883300  0.30246200  1
  Al  Al17  1  0.61883300  0.38116700  0.30246200  1
  Al  Al18  1  0.11883300  0.11883300  0.80246200  1
  Al  Al19  1  0.88116700  0.88116700  0.80246200  1
