# generated using pymatgen
data_Tl2CrO4
_symmetry_space_group_name_H-M   'P 1'
_cell_length_a   5.97377100
_cell_length_b   8.09323400
_cell_length_c   11.26436700
_cell_angle_alpha   90.00000000
_cell_angle_beta   90.00000000
_cell_angle_gamma   90.00000000
_symmetry_Int_Tables_number   1
_chemical_formula_structural   Tl2CrO4
_chemical_formula_sum   'Tl8 Cr4 O16'
_cell_volume   544.59977703
_cell_formula_units_Z   4
loop_
 _symmetry_equiv_pos_site_id
 _symmetry_equiv_pos_as_xyz
  1  'x, y, z'
loop_
 _atom_site_type_symbol
 _atom_site_label
 _atom_site_symmetry_multiplicity
 _atom_site_fract_x
 _atom_site_fract_y
 _atom_site_fract_z
 _atom_site_occupancy
  Tl  Tl0  1  0.25000000  0.50290100  0.28631100  1
  Tl  Tl1  1  0.75000000  0.49709900  0.71368900  1
  Tl  Tl2  1  0.25000000  0.00290100  0.21368900  1
  Tl  Tl3  1  0.75000000  0.99709900  0.78631100  1
  Tl  Tl4  1  0.25000000  0.31927600  0.93195400  1
  Tl  Tl5  1  0.75000000  0.68072400  0.06804600  1
  Tl  Tl6  1  0.25000000  0.81927600  0.56804600  1
  Tl  Tl7  1  0.75000000  0.18072400  0.43195400  1
  Cr  Cr8  1  0.25000000  0.78921300  0.92467700  1
  Cr  Cr9  1  0.75000000  0.21078700  0.07532300  1
  Cr  Cr10  1  0.25000000  0.28921300  0.57532300  1
  Cr  Cr11  1  0.75000000  0.71078700  0.42467700  1
  O  O12  1  0.51842300  0.28850200  0.13747700  1
  O  O13  1  0.01842300  0.71149800  0.86252300  1
  O  O14  1  0.98157700  0.78850200  0.36252300  1
  O  O15  1  0.48157700  0.21149800  0.63747700  1
  O  O16  1  0.48157700  0.71149800  0.86252300  1
  O  O17  1  0.98157700  0.28850200  0.13747700  1
  O  O18  1  0.01842300  0.21149800  0.63747700  1
  O  O19  1  0.51842300  0.78850200  0.36252300  1
  O  O20  1  0.25000000  0.23804700  0.43063000  1
  O  O21  1  0.75000000  0.76195300  0.56937000  1
  O  O22  1  0.25000000  0.73804700  0.06937000  1
  O  O23  1  0.75000000  0.26195300  0.93063000  1
  O  O24  1  0.75000000  0.50602900  0.41048700  1
  O  O25  1  0.25000000  0.49397100  0.58951300  1
  O  O26  1  0.75000000  0.00602900  0.08951300  1
  O  O27  1  0.25000000  0.99397100  0.91048700  1
