# generated using pymatgen
data_CoSb(PO4)2
_symmetry_space_group_name_H-M   'P 1'
_cell_length_a   4.93630898
_cell_length_b   10.05225249
_cell_length_c   12.88010791
_cell_angle_alpha   90.81872104
_cell_angle_beta   90.56066235
_cell_angle_gamma   84.30981520
_symmetry_Int_Tables_number   1
_chemical_formula_structural   CoSb(PO4)2
_chemical_formula_sum   'Co4 Sb4 P8 O32'
_cell_volume   635.88748578
_cell_formula_units_Z   4
loop_
 _symmetry_equiv_pos_site_id
 _symmetry_equiv_pos_as_xyz
  1  'x, y, z'
loop_
 _atom_site_type_symbol
 _atom_site_label
 _atom_site_symmetry_multiplicity
 _atom_site_fract_x
 _atom_site_fract_y
 _atom_site_fract_z
 _atom_site_occupancy
  Co  Co0  1  0.40724500  0.21614100  0.85721100  1
  Co  Co1  1  0.58784800  0.77747200  0.65110900  1
  Co  Co2  1  0.40586800  0.21972300  0.40487500  1
  Co  Co3  1  0.60279500  0.78522600  0.10680700  1
  Sb  Sb4  1  0.96326500  0.29381700  0.12332800  1
  Sb  Sb5  1  0.90239800  0.29806100  0.63111500  1
  Sb  Sb6  1  0.03767800  0.70863400  0.37493600  1
  Sb  Sb7  1  0.09689700  0.69917600  0.87387700  1
  P  P8  1  0.41699100  0.10945300  0.12429000  1
  P  P9  1  0.37402300  0.09456200  0.62414300  1
  P  P10  1  0.58237600  0.89437200  0.37013500  1
  P  P11  1  0.62569300  0.90180000  0.87988800  1
  P  P12  1  0.86626100  0.40671900  0.35832000  1
  P  P13  1  0.85377800  0.40927200  0.88981400  1
  P  P14  1  0.14114900  0.59299200  0.14087800  1
  P  P15  1  0.13915900  0.59118900  0.60809800  1
  O  O16  1  0.58887700  0.04325700  0.36731000  1
  O  O17  1  0.64572400  0.05110900  0.88245200  1
  O  O18  1  0.40593500  0.96088800  0.12619700  1
  O  O19  1  0.35775600  0.94513200  0.62114200  1
  O  O20  1  0.71803500  0.14293200  0.12649000  1
  O  O21  1  0.67180300  0.12688000  0.62263600  1
  O  O22  1  0.28211000  0.85946500  0.37014900  1
  O  O23  1  0.32695700  0.87131900  0.87962100  1
  O  O24  1  0.17200100  0.37861500  0.36581500  1
  O  O25  1  0.16322500  0.38416000  0.88237900  1
  O  O26  1  0.83569100  0.61862400  0.13166200  1
  O  O27  1  0.82902200  0.61675400  0.61308800  1
  O  O28  1  0.21853100  0.43760700  0.12608500  1
  O  O29  1  0.23434000  0.44171900  0.61618200  1
  O  O30  1  0.78941500  0.56219700  0.37300900  1
  O  O31  1  0.75781900  0.55851300  0.87994800  1
  O  O32  1  0.24524100  0.18026700  0.03074600  1
  O  O33  1  0.20197000  0.16864600  0.53278500  1
  O  O34  1  0.23983200  0.18223700  0.21521100  1
  O  O35  1  0.21073700  0.16950600  0.71836900  1
  O  O36  1  0.75611500  0.81897500  0.27841500  1
  O  O37  1  0.78806500  0.82733900  0.78537100  1
  O  O38  1  0.75879100  0.82520200  0.46280900  1
  O  O39  1  0.79801300  0.82726400  0.97086200  1
  O  O40  1  0.71203300  0.33180300  0.43825800  1
  O  O41  1  0.75110900  0.35932900  0.00069100  1
  O  O42  1  0.75431100  0.36705200  0.24659900  1
  O  O43  1  0.71195400  0.32249800  0.80868000  1
  O  O44  1  0.29949900  0.66947300  0.06352900  1
  O  O45  1  0.24667900  0.64391300  0.49889300  1
  O  O46  1  0.24942600  0.63303600  0.25354400  1
  O  O47  1  0.27555900  0.67567700  0.69225200  1
