# generated using pymatgen
data_ErCu(WO4)2
_symmetry_space_group_name_H-M   'P 1'
_cell_length_a   5.98453300
_cell_length_b   5.08166100
_cell_length_c   10.98478638
_cell_angle_alpha   65.29131063
_cell_angle_beta   90.00000000
_cell_angle_gamma   90.00000000
_symmetry_Int_Tables_number   1
_chemical_formula_structural   ErCu(WO4)2
_chemical_formula_sum   'Er2 Cu2 W4 O16'
_cell_volume   303.47723038
_cell_formula_units_Z   2
loop_
 _symmetry_equiv_pos_site_id
 _symmetry_equiv_pos_as_xyz
  1  'x, y, z'
loop_
 _atom_site_type_symbol
 _atom_site_label
 _atom_site_symmetry_multiplicity
 _atom_site_fract_x
 _atom_site_fract_y
 _atom_site_fract_z
 _atom_site_occupancy
  Er  Er0  1  0.33406400  0.00000000  0.75000000  1
  Er  Er1  1  0.66593600  0.00000000  0.25000000  1
  Cu  Cu2  1  0.71613100  0.50000000  0.75000000  1
  Cu  Cu3  1  0.28386900  0.50000000  0.25000000  1
  W  W4  1  0.16901500  0.76218300  0.48896000  1
  W  W5  1  0.83098500  0.23781700  0.51104000  1
  W  W6  1  0.16901500  0.23781700  0.01104000  1
  W  W7  1  0.83098500  0.76218300  0.98896000  1
  O  O8  1  0.36099000  0.73128900  0.36348300  1
  O  O9  1  0.36099000  0.26871100  0.13651700  1
  O  O10  1  0.63901000  0.26871100  0.63651700  1
  O  O11  1  0.63901000  0.73128900  0.86348300  1
  O  O12  1  0.91037000  0.16171200  0.88929800  1
  O  O13  1  0.91037000  0.83828800  0.61070200  1
  O  O14  1  0.08963000  0.83828800  0.11070200  1
  O  O15  1  0.08963000  0.16171200  0.38929800  1
  O  O16  1  0.63433400  0.21652000  0.38779500  1
  O  O17  1  0.63433400  0.78348000  0.11220500  1
  O  O18  1  0.36566600  0.78348000  0.61220500  1
  O  O19  1  0.36566600  0.21652000  0.88779500  1
  O  O20  1  0.88542800  0.66059700  0.40276400  1
  O  O21  1  0.11457200  0.33940300  0.59723600  1
  O  O22  1  0.88542800  0.33940300  0.09723600  1
  O  O23  1  0.11457200  0.66059700  0.90276400  1
