# generated using pymatgen
data_UOF4
_symmetry_space_group_name_H-M   'P 1'
_cell_length_a   8.88267782
_cell_length_b   8.88267782
_cell_length_c   8.88267782
_cell_angle_alpha   96.26261339
_cell_angle_beta   96.26261339
_cell_angle_gamma   141.42830490
_symmetry_Int_Tables_number   1
_chemical_formula_structural   UOF4
_chemical_formula_sum   'U4 O4 F16'
_cell_volume   412.45975711
_cell_formula_units_Z   4
loop_
 _symmetry_equiv_pos_site_id
 _symmetry_equiv_pos_as_xyz
  1  'x, y, z'
loop_
 _atom_site_type_symbol
 _atom_site_label
 _atom_site_symmetry_multiplicity
 _atom_site_fract_x
 _atom_site_fract_y
 _atom_site_fract_z
 _atom_site_occupancy
  U  U0  1  0.12500000  0.95167400  0.32667400  1
  U  U1  1  0.20167400  0.87500000  0.82667400  1
  U  U2  1  0.04832600  0.37500000  0.17332600  1
  U  U3  1  0.62500000  0.79832600  0.67332600  1
  O  O4  1  0.62500000  0.64494500  0.51994500  1
  O  O5  1  0.12500000  0.10505500  0.48005500  1
  O  O6  1  0.35505500  0.87500000  0.98005500  1
  O  O7  1  0.89494500  0.37500000  0.01994500  1
  F  F8  1  0.36587400  0.60087700  0.10645100  1
  F  F9  1  0.74057800  0.63412600  0.23500300  1
  F  F10  1  0.39912300  0.50557500  0.76499700  1
  F  F11  1  0.49442500  0.25942200  0.89354900  1
  F  F12  1  0.28766400  0.57743100  0.41962700  1
  F  F13  1  0.13196300  0.71233600  0.28976800  1
  F  F14  1  0.42256900  0.84219600  0.71023200  1
  F  F15  1  0.15780400  0.86803700  0.58037300  1
  F  F16  1  0.09219600  0.17256900  0.21023200  1
  F  F17  1  0.96233600  0.88196300  0.78976800  1
  F  F18  1  0.11803700  0.90780400  0.08037300  1
  F  F19  1  0.82743100  0.03766400  0.91962700  1
  F  F20  1  0.85087700  0.11587400  0.60645100  1
  F  F21  1  0.75557500  0.14912300  0.26499700  1
  F  F22  1  0.88412600  0.49057800  0.73500300  1
  F  F23  1  0.50942200  0.24442500  0.39354900  1
