# generated using pymatgen
data_Cr4Co3(PO4)6
_symmetry_space_group_name_H-M   'P 1'
_cell_length_a   6.37225532
_cell_length_b   7.96230601
_cell_length_c   9.41149619
_cell_angle_alpha   105.20929516
_cell_angle_beta   108.31695057
_cell_angle_gamma   101.55592396
_symmetry_Int_Tables_number   1
_chemical_formula_structural   Cr4Co3(PO4)6
_chemical_formula_sum   'Cr4 Co3 P6 O24'
_cell_volume   416.08446274
_cell_formula_units_Z   1
loop_
 _symmetry_equiv_pos_site_id
 _symmetry_equiv_pos_as_xyz
  1  'x, y, z'
loop_
 _atom_site_type_symbol
 _atom_site_label
 _atom_site_symmetry_multiplicity
 _atom_site_fract_x
 _atom_site_fract_y
 _atom_site_fract_z
 _atom_site_occupancy
  Cr  Cr0  1  0.61985600  0.54303200  0.89080900  1
  Cr  Cr1  1  0.04990600  0.71708300  0.52378500  1
  Cr  Cr2  1  0.38014500  0.45696800  0.10919100  1
  Cr  Cr3  1  0.95009300  0.28291700  0.47621500  1
  Co  Co4  1  0.29668500  0.81254200  0.29594500  1
  Co  Co5  1  0.70331600  0.18745800  0.70405500  1
  Co  Co6  1  0.00000000  0.00000000  0.00000000  1
  P  P7  1  0.77824600  0.85361000  0.23401300  1
  P  P8  1  0.22175500  0.14639000  0.76598700  1
  P  P9  1  0.60905000  0.76763100  0.63408000  1
  P  P10  1  0.39094900  0.23236900  0.36591900  1
  P  P11  1  0.09399500  0.59618300  0.83317100  1
  P  P12  1  0.90600700  0.40381700  0.16683000  1
  O  O13  1  0.79030000  0.05216800  0.29580400  1
  O  O14  1  0.20969900  0.94783200  0.70419600  1
  O  O15  1  0.77835400  0.80167500  0.06077200  1
  O  O16  1  0.22164600  0.19832500  0.93922700  1
  O  O17  1  0.62902300  0.23807500  0.49146000  1
  O  O18  1  0.37097700  0.76192500  0.50854000  1
  O  O19  1  0.00951600  0.18505300  0.65588500  1
  O  O20  1  0.99048500  0.81494700  0.34411500  1
  O  O21  1  0.87968700  0.46433400  0.83885400  1
  O  O22  1  0.12031200  0.53566600  0.16114600  1
  O  O23  1  0.88279500  0.20875700  0.08454600  1
  O  O24  1  0.11720600  0.79124300  0.91545400  1
  O  O25  1  0.92883300  0.45178300  0.34490400  1
  O  O26  1  0.26878700  0.03565300  0.23806300  1
  O  O27  1  0.73121200  0.96434700  0.76193700  1
  O  O28  1  0.31464700  0.54329800  0.91891900  1
  O  O29  1  0.68535200  0.45670200  0.08108000  1
  O  O30  1  0.24897900  0.28560500  0.46407500  1
  O  O31  1  0.07116800  0.54821700  0.65509600  1
  O  O32  1  0.44793600  0.36628700  0.28344700  1
  O  O33  1  0.55206400  0.63371300  0.71655400  1
  O  O34  1  0.45211900  0.26695300  0.76923400  1
  O  O35  1  0.54788000  0.73304700  0.23076600  1
  O  O36  1  0.75102000  0.71439500  0.53592600  1
