# generated using pymatgen
data_Fe4Ni3(PO4)6
_symmetry_space_group_name_H-M   'P 1'
_cell_length_a   6.38020900
_cell_length_b   8.00470900
_cell_length_c   9.32780890
_cell_angle_alpha   104.49160157
_cell_angle_beta   108.49847658
_cell_angle_gamma   101.22832392
_symmetry_Int_Tables_number   1
_chemical_formula_structural   Fe4Ni3(PO4)6
_chemical_formula_sum   'Fe4 Ni3 P6 O24'
_cell_volume   417.45206432
_cell_formula_units_Z   1
loop_
 _symmetry_equiv_pos_site_id
 _symmetry_equiv_pos_as_xyz
  1  'x, y, z'
loop_
 _atom_site_type_symbol
 _atom_site_label
 _atom_site_symmetry_multiplicity
 _atom_site_fract_x
 _atom_site_fract_y
 _atom_site_fract_z
 _atom_site_occupancy
  Fe  Fe0  1  0.38800700  0.45208800  0.11767500  1
  Fe  Fe1  1  0.61199300  0.54791200  0.88232500  1
  Fe  Fe2  1  0.95285100  0.27591200  0.47407800  1
  Fe  Fe3  1  0.04714900  0.72408800  0.52592200  1
  Ni  Ni4  1  0.73043600  0.19818700  0.72133500  1
  Ni  Ni5  1  0.26956400  0.80181300  0.27866500  1
  Ni  Ni6  1  0.00000000  0.00000000  0.00000000  1
  P  P7  1  0.39765200  0.22523600  0.37240400  1
  P  P8  1  0.60234800  0.77476400  0.62759600  1
  P  P9  1  0.23351400  0.14698700  0.77351200  1
  P  P10  1  0.76648600  0.85301300  0.22648800  1
  P  P11  1  0.09106900  0.59596800  0.83369100  1
  P  P12  1  0.90893100  0.40403200  0.16630900  1
  O  O13  1  0.78915000  0.05146200  0.29338400  1
  O  O14  1  0.21085000  0.94853800  0.70661600  1
  O  O15  1  0.45220600  0.36474800  0.29187000  1
  O  O16  1  0.54779400  0.63525200  0.70813000  1
  O  O17  1  0.27508900  0.03681900  0.23841900  1
  O  O18  1  0.72491100  0.96318100  0.76158100  1
  O  O19  1  0.53823300  0.73598200  0.22373200  1
  O  O20  1  0.46176700  0.26401800  0.77626800  1
  O  O21  1  0.63275500  0.22956600  0.49758000  1
  O  O22  1  0.36724500  0.77043400  0.50242000  1
  O  O23  1  0.75131600  0.72719600  0.53309800  1
  O  O24  1  0.24868400  0.27280400  0.46690200  1
  O  O25  1  0.11580200  0.78826500  0.92153000  1
  O  O26  1  0.76851100  0.80586700  0.05281800  1
  O  O27  1  0.23148900  0.19413300  0.94718200  1
  O  O28  1  0.12616100  0.53276800  0.16278900  1
  O  O29  1  0.87383900  0.46723200  0.83721100  1
  O  O30  1  0.93592100  0.44798100  0.34578500  1
  O  O31  1  0.06407900  0.55201900  0.65421500  1
  O  O32  1  0.97837300  0.80699400  0.33259000  1
  O  O33  1  0.02162700  0.19300600  0.66741000  1
  O  O34  1  0.69243800  0.46349200  0.08475500  1
  O  O35  1  0.30756200  0.53650800  0.91524500  1
  O  O36  1  0.88419800  0.21173500  0.07847000  1
