# generated using pymatgen
data_CaAl4
_symmetry_space_group_name_H-M   'P 1'
_cell_length_a   6.40287376
_cell_length_b   6.40287376
_cell_length_c   6.40287376
_cell_angle_alpha   140.27192463
_cell_angle_beta   140.27192463
_cell_angle_gamma   57.44065178
_symmetry_Int_Tables_number   1
_chemical_formula_structural   CaAl4
_chemical_formula_sum   'Ca1 Al4'
_cell_volume   106.31432660
_cell_formula_units_Z   1
loop_
 _symmetry_equiv_pos_site_id
 _symmetry_equiv_pos_as_xyz
  1  'x, y, z'
loop_
 _atom_site_type_symbol
 _atom_site_label
 _atom_site_symmetry_multiplicity
 _atom_site_fract_x
 _atom_site_fract_y
 _atom_site_fract_z
 _atom_site_occupancy
  Ca  Ca0  1  0.00000000  0.00000000  0.00000000  1
  Al  Al1  1  0.75000000  0.25000000  0.50000000  1
  Al  Al2  1  0.38647100  0.38647100  0.00000000  1
  Al  Al3  1  0.61352900  0.61352900  0.00000000  1
  Al  Al4  1  0.25000000  0.75000000  0.50000000  1
