# generated using pymatgen
data_UF5
_symmetry_space_group_name_H-M   'P 1'
_cell_length_a   8.60051848
_cell_length_b   8.60051848
_cell_length_c   8.60051848
_cell_angle_alpha   95.60698431
_cell_angle_beta   95.60698431
_cell_angle_gamma   143.57082915
_symmetry_Int_Tables_number   1
_chemical_formula_structural   UF5
_chemical_formula_sum   'U4 F20'
_cell_volume   358.84712904
_cell_formula_units_Z   4
loop_
 _symmetry_equiv_pos_site_id
 _symmetry_equiv_pos_as_xyz
  1  'x, y, z'
loop_
 _atom_site_type_symbol
 _atom_site_label
 _atom_site_symmetry_multiplicity
 _atom_site_fract_x
 _atom_site_fract_y
 _atom_site_fract_z
 _atom_site_occupancy
  U  U0  1  0.03532000  0.87500000  0.66032000  1
  U  U1  1  0.62500000  0.96468000  0.83968000  1
  U  U2  1  0.12500000  0.78532000  0.16032000  1
  U  U3  1  0.21468000  0.37500000  0.33968000  1
  F  F4  1  0.17209900  0.60301700  0.27857900  1
  F  F5  1  0.32443900  0.89352000  0.72142100  1
  F  F6  1  0.39698300  0.67556100  0.56908100  1
  F  F7  1  0.10648000  0.82790100  0.43091900  1
  F  F8  1  0.48017500  0.61024900  0.20940800  1
  F  F9  1  0.72923300  0.51982500  0.13007400  1
  F  F10  1  0.38975100  0.59915900  0.86992600  1
  F  F11  1  0.40084100  0.27076700  0.79059200  1
  F  F12  1  0.76982500  0.47923300  0.63007400  1
  F  F13  1  0.84915900  0.13975100  0.36992600  1
  F  F14  1  0.86024900  0.23017500  0.70940800  1
  F  F15  1  0.52076700  0.15084100  0.29059200  1
  F  F16  1  0.85092800  0.37500000  0.97592800  1
  F  F17  1  0.12500000  0.14907200  0.52407200  1
  F  F18  1  0.62500000  0.60092800  0.47592800  1
  F  F19  1  0.39907200  0.87500000  0.02407200  1
  F  F20  1  0.14352000  0.07443900  0.22142100  1
  F  F21  1  0.07790100  0.85648000  0.93091900  1
  F  F22  1  0.92556100  0.14698300  0.06908100  1
  F  F23  1  0.85301700  0.92209900  0.77857900  1
