# generated using pymatgen
data_AgMo3(PO7)2
_symmetry_space_group_name_H-M   'P 1'
_cell_length_a   6.50796300
_cell_length_b   8.34042594
_cell_length_c   10.71220450
_cell_angle_alpha   109.39715972
_cell_angle_beta   90.00000000
_cell_angle_gamma   90.00000000
_symmetry_Int_Tables_number   1
_chemical_formula_structural   AgMo3(PO7)2
_chemical_formula_sum   'Ag2 Mo6 P4 O28'
_cell_volume   548.44611735
_cell_formula_units_Z   2
loop_
 _symmetry_equiv_pos_site_id
 _symmetry_equiv_pos_as_xyz
  1  'x, y, z'
loop_
 _atom_site_type_symbol
 _atom_site_label
 _atom_site_symmetry_multiplicity
 _atom_site_fract_x
 _atom_site_fract_y
 _atom_site_fract_z
 _atom_site_occupancy
  Ag  Ag0  1  0.25000000  0.46814700  0.72078200  1
  Ag  Ag1  1  0.75000100  0.53185400  0.27921900  1
  Mo  Mo2  1  0.75000100  0.76083100  0.00185700  1
  Mo  Mo3  1  0.25000000  0.23916800  0.99814300  1
  Mo  Mo4  1  0.75000100  0.74159300  0.67900300  1
  Mo  Mo5  1  0.75000100  0.16776400  0.62007200  1
  Mo  Mo6  1  0.25000000  0.25840700  0.32099700  1
  Mo  Mo7  1  0.25000000  0.83223600  0.37992900  1
  P  P8  1  0.25000000  0.84747800  0.06543700  1
  P  P9  1  0.75000100  0.15252100  0.93456300  1
  P  P10  1  0.75000100  0.12377300  0.29880200  1
  P  P11  1  0.25000000  0.87622600  0.70119800  1
  O  O12  1  0.25000000  0.94167700  0.58153700  1
  O  O13  1  0.75000100  0.05832300  0.41846300  1
  O  O14  1  0.25000000  0.78167100  0.18408500  1
  O  O15  1  0.75000100  0.21832800  0.81591500  1
  O  O16  1  0.53126900  0.28931800  0.62542100  1
  O  O17  1  0.03126800  0.71068300  0.37457900  1
  O  O18  1  0.46873200  0.71068300  0.37457900  1
  O  O19  1  0.96873100  0.28931800  0.62542100  1
  O  O20  1  0.06156400  0.75952400  0.69473800  1
  O  O21  1  0.56156300  0.24047500  0.30526200  1
  O  O22  1  0.93843700  0.24047500  0.30526200  1
  O  O23  1  0.43843700  0.75952400  0.69473800  1
  O  O24  1  0.75000100  0.60622200  0.07530400  1
  O  O25  1  0.25000000  0.39377700  0.92469600  1
  O  O26  1  0.75000100  0.97054400  0.17143300  1
  O  O27  1  0.25000000  0.02945500  0.82856600  1
  O  O28  1  0.44001900  0.77576800  0.97899300  1
  O  O29  1  0.94001800  0.22423200  0.02100800  1
  O  O30  1  0.55998100  0.22423200  0.02100800  1
  O  O31  1  0.05998200  0.77576800  0.97899300  1
  O  O32  1  0.25000000  0.06947000  0.38289200  1
  O  O33  1  0.25000000  0.36698900  0.19291300  1
  O  O34  1  0.75000100  0.95576700  0.88712000  1
  O  O35  1  0.25000000  0.04423300  0.11288000  1
  O  O36  1  0.75000100  0.57139100  0.53551600  1
  O  O37  1  0.25000000  0.42861000  0.46448400  1
  O  O38  1  0.75000100  0.93053000  0.61710700  1
  O  O39  1  0.75000100  0.63301100  0.80708700  1
