# generated using pymatgen
data_TmBO3
_symmetry_space_group_name_H-M   'P 1'
_cell_length_a   6.56371394
_cell_length_b   6.56371394
_cell_length_c   8.68624300
_cell_angle_alpha   90.00000000
_cell_angle_beta   90.00000000
_cell_angle_gamma   119.99999941
_symmetry_Int_Tables_number   1
_chemical_formula_structural   TmBO3
_chemical_formula_sum   'Tm6 B6 O18'
_cell_volume   324.08721585
_cell_formula_units_Z   6
loop_
 _symmetry_equiv_pos_site_id
 _symmetry_equiv_pos_as_xyz
  1  'x, y, z'
loop_
 _atom_site_type_symbol
 _atom_site_label
 _atom_site_symmetry_multiplicity
 _atom_site_fract_x
 _atom_site_fract_y
 _atom_site_fract_z
 _atom_site_occupancy
  Tm  Tm0  1  0.33333300  0.66666700  0.50000000  1
  Tm  Tm1  1  0.33333300  0.66666700  0.00000000  1
  Tm  Tm2  1  0.00000000  0.00000000  0.50000000  1
  Tm  Tm3  1  0.00000000  0.00000000  0.00000000  1
  Tm  Tm4  1  0.66666700  0.33333300  0.50000000  1
  Tm  Tm5  1  0.66666700  0.33333300  0.00000000  1
  B  B6  1  0.00000000  0.59991700  0.75000000  1
  B  B7  1  0.40008300  0.40008300  0.75000000  1
  B  B8  1  0.59991700  0.00000000  0.75000000  1
  B  B9  1  0.59991700  0.59991700  0.25000000  1
  B  B10  1  0.40008300  0.00000000  0.25000000  1
  B  B11  1  0.00000000  0.40008300  0.25000000  1
  O  O12  1  0.31271700  0.31271700  0.89721200  1
  O  O13  1  0.00000000  0.68728300  0.89721200  1
  O  O14  1  0.31271700  0.31271700  0.60278800  1
  O  O15  1  0.00000000  0.68728300  0.60278800  1
  O  O16  1  0.00000000  0.31271700  0.39721200  1
  O  O17  1  0.68728300  0.00000000  0.60278800  1
  O  O18  1  0.00000000  0.60529900  0.25000000  1
  O  O19  1  0.60529900  0.00000000  0.25000000  1
  O  O20  1  0.39470100  0.39470100  0.25000000  1
  O  O21  1  0.39470100  0.00000000  0.75000000  1
  O  O22  1  0.60529900  0.60529900  0.75000000  1
  O  O23  1  0.00000000  0.39470100  0.75000000  1
  O  O24  1  0.00000000  0.31271700  0.10278800  1
  O  O25  1  0.31271700  0.00000000  0.39721200  1
  O  O26  1  0.68728300  0.68728300  0.39721200  1
  O  O27  1  0.68728300  0.68728300  0.10278800  1
  O  O28  1  0.31271700  0.00000000  0.10278800  1
  O  O29  1  0.68728300  0.00000000  0.89721200  1
