# generated using pymatgen
data_Nb3Cr3C
_symmetry_space_group_name_H-M   'P 1'
_cell_length_a   8.17759941
_cell_length_b   8.17759941
_cell_length_c   8.17759941
_cell_angle_alpha   60.00000000
_cell_angle_beta   60.00000000
_cell_angle_gamma   60.00000000
_symmetry_Int_Tables_number   1
_chemical_formula_structural   Nb3Cr3C
_chemical_formula_sum   'Nb12 Cr12 C4'
_cell_volume   386.68960700
_cell_formula_units_Z   4
loop_
 _symmetry_equiv_pos_site_id
 _symmetry_equiv_pos_as_xyz
  1  'x, y, z'
loop_
 _atom_site_type_symbol
 _atom_site_label
 _atom_site_symmetry_multiplicity
 _atom_site_fract_x
 _atom_site_fract_y
 _atom_site_fract_z
 _atom_site_occupancy
  Nb  Nb0  1  0.55763400  0.55763400  0.94236600  1
  Nb  Nb1  1  0.94236600  0.94236600  0.55763400  1
  Nb  Nb2  1  0.69236600  0.69236600  0.30763400  1
  Nb  Nb3  1  0.30763400  0.69236600  0.69236600  1
  Nb  Nb4  1  0.69236600  0.30763400  0.30763400  1
  Nb  Nb5  1  0.30763400  0.30763400  0.69236600  1
  Nb  Nb6  1  0.55763400  0.94236600  0.55763400  1
  Nb  Nb7  1  0.30763400  0.69236600  0.30763400  1
  Nb  Nb8  1  0.94236600  0.55763400  0.94236600  1
  Nb  Nb9  1  0.94236600  0.55763400  0.55763400  1
  Nb  Nb10  1  0.69236600  0.30763400  0.69236600  1
  Nb  Nb11  1  0.55763400  0.94236600  0.94236600  1
  Cr  Cr12  1  0.12500000  0.12500000  0.62500000  1
  Cr  Cr13  1  0.23542500  0.92152500  0.92152500  1
  Cr  Cr14  1  0.92152500  0.23542500  0.92152500  1
  Cr  Cr15  1  0.32847500  0.32847500  0.32847500  1
  Cr  Cr16  1  0.32847500  0.01457500  0.32847500  1
  Cr  Cr17  1  0.32847500  0.32847500  0.01457500  1
  Cr  Cr18  1  0.01457500  0.32847500  0.32847500  1
  Cr  Cr19  1  0.92152500  0.92152500  0.92152500  1
  Cr  Cr20  1  0.12500000  0.62500000  0.12500000  1
  Cr  Cr21  1  0.62500000  0.12500000  0.12500000  1
  Cr  Cr22  1  0.12500000  0.12500000  0.12500000  1
  Cr  Cr23  1  0.92152500  0.92152500  0.23542500  1
  C  C24  1  0.62500000  0.62500000  0.12500000  1
  C  C25  1  0.12500000  0.62500000  0.62500000  1
  C  C26  1  0.62500000  0.12500000  0.62500000  1
  C  C27  1  0.62500000  0.62500000  0.62500000  1
