# generated using pymatgen
data_Ta5Ge3
_symmetry_space_group_name_H-M   'P 1'
_cell_length_a   7.64919751
_cell_length_b   7.64919751
_cell_length_c   7.64919751
_cell_angle_alpha   96.62931824
_cell_angle_beta   96.62931824
_cell_angle_gamma   140.27395514
_symmetry_Int_Tables_number   1
_chemical_formula_structural   Ta5Ge3
_chemical_formula_sum   'Ta10 Ge6'
_cell_volume   269.02376327
_cell_formula_units_Z   2
loop_
 _symmetry_equiv_pos_site_id
 _symmetry_equiv_pos_as_xyz
  1  'x, y, z'
loop_
 _atom_site_type_symbol
 _atom_site_label
 _atom_site_symmetry_multiplicity
 _atom_site_fract_x
 _atom_site_fract_y
 _atom_site_fract_z
 _atom_site_occupancy
  Ta  Ta0  1  0.42560100  0.72354100  0.14914200  1
  Ta  Ta1  1  0.57439900  0.27645900  0.85085800  1
  Ta  Ta2  1  0.72354100  0.57439900  0.29794100  1
  Ta  Ta3  1  0.27645900  0.42560100  0.70205900  1
  Ta  Ta4  1  0.77645900  0.07439900  0.85085800  1
  Ta  Ta5  1  0.92560100  0.77645900  0.70205900  1
  Ta  Ta6  1  0.07439900  0.22354100  0.29794100  1
  Ta  Ta7  1  0.22354100  0.92560100  0.14914200  1
  Ta  Ta8  1  0.25000000  0.75000000  0.50000000  1
  Ta  Ta9  1  0.75000000  0.25000000  0.50000000  1
  Ge  Ge10  1  0.33299100  0.16700900  0.50000000  1
  Ge  Ge11  1  0.83299100  0.33299100  0.16598100  1
  Ge  Ge12  1  0.16700900  0.66700900  0.83401900  1
  Ge  Ge13  1  0.66700900  0.83299100  0.50000000  1
  Ge  Ge14  1  0.75000000  0.75000000  0.00000000  1
  Ge  Ge15  1  0.25000000  0.25000000  0.00000000  1
