data_image0
_chemical_formula_structural       Ag4C8N8S8Zn2
_chemical_formula_sum              "Ag4 C8 N8 S8 Zn2"
_cell_length_a       10.5867
_cell_length_b       10.5867
_cell_length_c       7.37154
_cell_angle_alpha    82.6854
_cell_angle_beta     97.3146
_cell_angle_gamma    138.281

_space_group_name_H-M_alt    "P 1"
_space_group_IT_number       1

loop_
  _space_group_symop_operation_xyz
  'x, y, z'

loop_
  _atom_site_type_symbol
  _atom_site_label
  _atom_site_symmetry_multiplicity
  _atom_site_fract_x
  _atom_site_fract_y
  _atom_site_fract_z
  _atom_site_occupancy
  Ag  Ag1       1.0  0.68100  0.50600  0.97000  1.0000
  Ag  Ag2       1.0  0.49400  0.31900  0.47000  1.0000
  Ag  Ag3       1.0  0.09540  0.08820  0.00768  1.0000
  Ag  Ag4       1.0  0.91200  0.90500  0.50800  1.0000
  C   C1        1.0  0.46500  0.62100  0.39300  1.0000
  C   C2        1.0  0.37900  0.53500  0.89300  1.0000
  C   C3        1.0  0.76300  0.33300  0.27000  1.0000
  C   C4        1.0  0.66700  0.23700  0.77000  1.0000
  C   C5        1.0  0.12700  0.78700  0.08910  1.0000
  C   C6        1.0  0.21300  0.87300  0.58900  1.0000
  C   C7        1.0  0.82900  0.07600  0.21100  1.0000
  C   C8        1.0  0.92400  0.17100  0.71100  1.0000
  N   N1        1.0  0.35900  0.62100  0.42800  1.0000
  N   N2        1.0  0.37900  0.64100  0.92800  1.0000
  N   N3        1.0  0.92000  0.41600  0.31200  1.0000
  N   N4        1.0  0.58400  0.08010  0.81200  1.0000
  N   N5        1.0  0.23300  0.78700  0.05510  1.0000
  N   N6        1.0  0.21300  0.76700  0.55500  1.0000
  N   N7        1.0  0.67100  0.99200  0.17200  1.0000
  N   N8        1.0  0.00771  0.32900  0.67200  1.0000
  S   S1        1.0  0.98300  0.78800  0.14600  1.0000
  S   S2        1.0  0.21200  0.01730  0.64600  1.0000
  S   S3        1.0  0.54600  0.22000  0.20800  1.0000
  S   S4        1.0  0.78000  0.45400  0.70800  1.0000
  S   S5        1.0  0.60700  0.62000  0.33400  1.0000
  S   S6        1.0  0.38000  0.39300  0.83400  1.0000
  S   S7        1.0  0.04560  0.19000  0.27100  1.0000
  S   S8        1.0  0.81000  0.95400  0.77100  1.0000
  Zn  Zn1       1.0  0.13400  0.54200  0.49200  1.0000
  Zn  Zn2       1.0  0.45800  0.86600  0.99200  1.0000
