# generated using pymatgen
data_Ca5Al6O14
_symmetry_space_group_name_H-M   'P 1'
_cell_length_a   7.94461151
_cell_length_b   7.94461151
_cell_length_c   10.39685000
_cell_angle_alpha   90.00000000
_cell_angle_beta   90.00000000
_cell_angle_gamma   91.48731579
_symmetry_Int_Tables_number   1
_chemical_formula_structural   Ca5Al6O14
_chemical_formula_sum   'Ca10 Al12 O28'
_cell_volume   655.99536174
_cell_formula_units_Z   2
loop_
 _symmetry_equiv_pos_site_id
 _symmetry_equiv_pos_as_xyz
  1  'x, y, z'
loop_
 _atom_site_type_symbol
 _atom_site_label
 _atom_site_symmetry_multiplicity
 _atom_site_fract_x
 _atom_site_fract_y
 _atom_site_fract_z
 _atom_site_occupancy
  Ca  Ca0  1  0.47476400  0.47476400  0.74206700  1
  Ca  Ca1  1  0.52523600  0.52523600  0.24206700  1
  Ca  Ca2  1  0.67543700  0.95938900  0.19909000  1
  Ca  Ca3  1  0.32456300  0.04061100  0.69909000  1
  Ca  Ca4  1  0.04061100  0.32456300  0.69909000  1
  Ca  Ca5  1  0.95938900  0.67543700  0.19909000  1
  Ca  Ca6  1  0.26428500  0.94737000  0.24965900  1
  Ca  Ca7  1  0.73571500  0.05263000  0.74965900  1
  Ca  Ca8  1  0.05263000  0.73571500  0.74965900  1
  Ca  Ca9  1  0.94737000  0.26428500  0.24965900  1
  Al  Al10  1  0.64658800  0.15695700  0.47594400  1
  Al  Al11  1  0.35341200  0.84304300  0.97594400  1
  Al  Al12  1  0.84304300  0.35341200  0.97594400  1
  Al  Al13  1  0.15695700  0.64658800  0.47594400  1
  Al  Al14  1  0.00068100  0.00068100  0.96252900  1
  Al  Al15  1  0.99931900  0.99931900  0.46252900  1
  Al  Al16  1  0.70086000  0.70086000  0.94077200  1
  Al  Al17  1  0.29914000  0.29914000  0.44077200  1
  Al  Al18  1  0.50236200  0.78908600  0.50847200  1
  Al  Al19  1  0.49763800  0.21091400  0.00847200  1
  Al  Al20  1  0.21091400  0.49763800  0.00847200  1
  Al  Al21  1  0.78908600  0.50236200  0.50847200  1
  O  O22  1  0.69974500  0.69974500  0.10969500  1
  O  O23  1  0.30025500  0.30025500  0.60969500  1
  O  O24  1  0.49501300  0.24324200  0.37308200  1
  O  O25  1  0.50498700  0.75675800  0.87308200  1
  O  O26  1  0.75675800  0.50498700  0.87308200  1
  O  O27  1  0.24324200  0.49501300  0.37308200  1
  O  O28  1  0.99303500  0.99303500  0.13126000  1
  O  O29  1  0.00696500  0.00696500  0.63126000  1
  O  O30  1  0.48932000  0.80875400  0.33972400  1
  O  O31  1  0.51068000  0.19124600  0.83972400  1
  O  O32  1  0.19124600  0.51068000  0.83972400  1
  O  O33  1  0.80875400  0.48932000  0.33972400  1
  O  O34  1  0.85391700  0.85391700  0.88780100  1
  O  O35  1  0.14608300  0.14608300  0.38780100  1
  O  O36  1  0.80888700  0.06285800  0.38448700  1
  O  O37  1  0.19111300  0.93714200  0.88448700  1
  O  O38  1  0.93714200  0.19111300  0.88448700  1
  O  O39  1  0.06285800  0.80888700  0.38448700  1
  O  O40  1  0.29863500  0.75234400  0.58442300  1
  O  O41  1  0.70136500  0.24765600  0.08442300  1
  O  O42  1  0.24765600  0.70136500  0.08442300  1
  O  O43  1  0.75234400  0.29863500  0.58442300  1
  O  O44  1  0.99102300  0.56281100  0.57609600  1
  O  O45  1  0.00897700  0.43718900  0.07609600  1
  O  O46  1  0.43718900  0.00897700  0.07609600  1
  O  O47  1  0.56281100  0.99102300  0.57609600  1
  O  O48  1  0.62557800  0.62557800  0.56682400  1
  O  O49  1  0.37442200  0.37442200  0.06682400  1
