# generated using pymatgen
data_Sr5Sb3
_symmetry_space_group_name_H-M   'P 1'
_cell_length_a   8.82326200
_cell_length_b   10.10374400
_cell_length_c   13.51678400
_cell_angle_alpha   90.00000000
_cell_angle_beta   90.00000000
_cell_angle_gamma   90.00000000
_symmetry_Int_Tables_number   1
_chemical_formula_structural   Sr5Sb3
_chemical_formula_sum   'Sr20 Sb12'
_cell_volume   1204.99399636
_cell_formula_units_Z   4
loop_
 _symmetry_equiv_pos_site_id
 _symmetry_equiv_pos_as_xyz
  1  'x, y, z'
loop_
 _atom_site_type_symbol
 _atom_site_label
 _atom_site_symmetry_multiplicity
 _atom_site_fract_x
 _atom_site_fract_y
 _atom_site_fract_z
 _atom_site_occupancy
  Sr  Sr0  1  0.31336600  0.96056200  0.08369900  1
  Sr  Sr1  1  0.81336600  0.03943800  0.41630100  1
  Sr  Sr2  1  0.68663400  0.46056200  0.91630100  1
  Sr  Sr3  1  0.18663400  0.53943800  0.58369900  1
  Sr  Sr4  1  0.68663400  0.03943800  0.91630100  1
  Sr  Sr5  1  0.18663400  0.96056200  0.58369900  1
  Sr  Sr6  1  0.31336600  0.53943800  0.08369900  1
  Sr  Sr7  1  0.81336600  0.46056200  0.41630100  1
  Sr  Sr8  1  0.68147400  0.75000000  0.22443500  1
  Sr  Sr9  1  0.18147400  0.25000000  0.27556500  1
  Sr  Sr10  1  0.31852600  0.25000000  0.77556500  1
  Sr  Sr11  1  0.81852600  0.75000000  0.72443500  1
  Sr  Sr12  1  0.15605300  0.75000000  0.29797700  1
  Sr  Sr13  1  0.65605300  0.25000000  0.20202300  1
  Sr  Sr14  1  0.84394700  0.25000000  0.70202300  1
  Sr  Sr15  1  0.34394700  0.75000000  0.79797700  1
  Sr  Sr16  1  0.53558800  0.75000000  0.50372500  1
  Sr  Sr17  1  0.03558800  0.25000000  0.99627500  1
  Sr  Sr18  1  0.46441200  0.25000000  0.49627500  1
  Sr  Sr19  1  0.96441200  0.75000000  0.00372500  1
  Sb  Sb20  1  0.94323100  0.00999000  0.17191800  1
  Sb  Sb21  1  0.44323100  0.99001000  0.32808200  1
  Sb  Sb22  1  0.05676900  0.50999000  0.82808200  1
  Sb  Sb23  1  0.55676900  0.49001000  0.67191800  1
  Sb  Sb24  1  0.05676900  0.99001000  0.82808200  1
  Sb  Sb25  1  0.55676900  0.00999000  0.67191800  1
  Sb  Sb26  1  0.94323100  0.49001000  0.17191800  1
  Sb  Sb27  1  0.44323100  0.50999000  0.32808200  1
  Sb  Sb28  1  0.57627500  0.75000000  0.98640200  1
  Sb  Sb29  1  0.07627500  0.25000000  0.51359800  1
  Sb  Sb30  1  0.42372500  0.25000000  0.01359800  1
  Sb  Sb31  1  0.92372500  0.75000000  0.48640200  1
