# generated using pymatgen
data_LuCu(WO4)2
_symmetry_space_group_name_H-M   'P 1'
_cell_length_a   5.94578500
_cell_length_b   5.08129300
_cell_length_c   10.93043520
_cell_angle_alpha   64.62976274
_cell_angle_beta   90.00000000
_cell_angle_gamma   90.00000000
_symmetry_Int_Tables_number   1
_chemical_formula_structural   LuCu(WO4)2
_chemical_formula_sum   'Lu2 Cu2 W4 O16'
_cell_volume   298.38495467
_cell_formula_units_Z   2
loop_
 _symmetry_equiv_pos_site_id
 _symmetry_equiv_pos_as_xyz
  1  'x, y, z'
loop_
 _atom_site_type_symbol
 _atom_site_label
 _atom_site_symmetry_multiplicity
 _atom_site_fract_x
 _atom_site_fract_y
 _atom_site_fract_z
 _atom_site_occupancy
  Lu  Lu0  1  0.33634500  0.00000000  0.25000000  1
  Lu  Lu1  1  0.66365500  0.00000000  0.75000000  1
  Cu  Cu2  1  0.70601400  0.50000000  0.25000000  1
  Cu  Cu3  1  0.29398600  0.50000000  0.75000000  1
  W  W4  1  0.16942500  0.76131000  0.99059600  1
  W  W5  1  0.83057500  0.23869000  0.00940400  1
  W  W6  1  0.16942500  0.23869000  0.50940400  1
  W  W7  1  0.83057500  0.76131000  0.49059600  1
  O  O8  1  0.36601700  0.73282100  0.86551600  1
  O  O9  1  0.36601700  0.26717900  0.63448400  1
  O  O10  1  0.63398300  0.26717900  0.13448400  1
  O  O11  1  0.63398300  0.73282100  0.36551600  1
  O  O12  1  0.90607800  0.16449400  0.38945300  1
  O  O13  1  0.90607800  0.83550600  0.11054700  1
  O  O14  1  0.09392200  0.83550600  0.61054700  1
  O  O15  1  0.09392200  0.16449400  0.88945300  1
  O  O16  1  0.63570500  0.21853300  0.88344000  1
  O  O17  1  0.63570500  0.78146700  0.61656000  1
  O  O18  1  0.36429500  0.78146700  0.11656000  1
  O  O19  1  0.36429500  0.21853300  0.38344000  1
  O  O20  1  0.88610700  0.66506800  0.90064600  1
  O  O21  1  0.11389300  0.33493200  0.09935400  1
  O  O22  1  0.88610700  0.33493200  0.59935400  1
  O  O23  1  0.11389300  0.66506800  0.40064600  1
