# generated using pymatgen
data_SiO2
_symmetry_space_group_name_H-M   'P 1'
_cell_length_a   9.35252561
_cell_length_b   9.35252561
_cell_length_c   9.35252498
_cell_angle_alpha   94.23052908
_cell_angle_beta   94.23052908
_cell_angle_gamma   94.23052712
_symmetry_Int_Tables_number   1
_chemical_formula_structural   SiO2
_chemical_formula_sum   'Si12 O24'
_cell_volume   811.02642483
_cell_formula_units_Z   12
loop_
 _symmetry_equiv_pos_site_id
 _symmetry_equiv_pos_as_xyz
  1  'x, y, z'
loop_
 _atom_site_type_symbol
 _atom_site_label
 _atom_site_symmetry_multiplicity
 _atom_site_fract_x
 _atom_site_fract_y
 _atom_site_fract_z
 _atom_site_occupancy
  Si  Si0  1  0.10443100  0.33288100  0.87550700  1
  Si  Si1  1  0.87550700  0.10443100  0.33288100  1
  Si  Si2  1  0.33288100  0.87550700  0.10443100  1
  Si  Si3  1  0.89556900  0.12449300  0.66711900  1
  Si  Si4  1  0.66711900  0.89556900  0.12449300  1
  Si  Si5  1  0.12449300  0.66711900  0.89556900  1
  Si  Si6  1  0.89556900  0.66711900  0.12449300  1
  Si  Si7  1  0.12449300  0.89556900  0.66711900  1
  Si  Si8  1  0.66711900  0.12449300  0.89556900  1
  Si  Si9  1  0.10443100  0.87550700  0.33288100  1
  Si  Si10  1  0.33288100  0.10443100  0.87550700  1
  Si  Si11  1  0.87550700  0.33288100  0.10443100  1
  O  O12  1  0.00000000  0.26305900  0.73694100  1
  O  O13  1  0.73694100  0.00000000  0.26305900  1
  O  O14  1  0.26305900  0.73694100  0.00000000  1
  O  O15  1  0.00000000  0.73694100  0.26305900  1
  O  O16  1  0.26305900  0.00000000  0.73694100  1
  O  O17  1  0.73694100  0.26305900  0.00000000  1
  O  O18  1  0.97762400  0.68090100  0.97762400  1
  O  O19  1  0.97762400  0.97762400  0.68090100  1
  O  O20  1  0.68090100  0.97762400  0.97762400  1
  O  O21  1  0.02237600  0.02237600  0.31909900  1
  O  O22  1  0.31909900  0.02237600  0.02237600  1
  O  O23  1  0.02237600  0.31909900  0.02237600  1
  O  O24  1  0.89031000  0.25086100  0.25086100  1
  O  O25  1  0.25086100  0.25086100  0.89031000  1
  O  O26  1  0.25086100  0.89031000  0.25086100  1
  O  O27  1  0.74913900  0.10969000  0.74913900  1
  O  O28  1  0.10969000  0.74913900  0.74913900  1
  O  O29  1  0.74913900  0.74913900  0.10969000  1
  O  O30  1  0.85215700  0.50000000  0.14784300  1
  O  O31  1  0.50000000  0.14784300  0.85215700  1
  O  O32  1  0.14784300  0.85215700  0.50000000  1
  O  O33  1  0.14784300  0.50000000  0.85215700  1
  O  O34  1  0.50000000  0.85215700  0.14784300  1
  O  O35  1  0.85215700  0.14784300  0.50000000  1
