# generated using pymatgen
data_SbO2
_symmetry_space_group_name_H-M   'P 1'
_cell_length_a   6.57781896
_cell_length_b   6.57781896
_cell_length_c   5.51001782
_cell_angle_alpha   77.41637083
_cell_angle_beta   77.41637083
_cell_angle_gamma   43.96829802
_symmetry_Int_Tables_number   1
_chemical_formula_structural   SbO2
_chemical_formula_sum   'Sb4 O8'
_cell_volume   160.88255082
_cell_formula_units_Z   4
loop_
 _symmetry_equiv_pos_site_id
 _symmetry_equiv_pos_as_xyz
  1  'x, y, z'
loop_
 _atom_site_type_symbol
 _atom_site_label
 _atom_site_symmetry_multiplicity
 _atom_site_fract_x
 _atom_site_fract_y
 _atom_site_fract_z
 _atom_site_occupancy
  Sb  Sb0  1  0.28646500  0.71353500  0.75000000  1
  Sb  Sb1  1  0.71353500  0.28646500  0.25000000  1
  Sb  Sb2  1  0.00000000  0.50000000  0.50000000  1
  Sb  Sb3  1  0.50000000  0.00000000  0.00000000  1
  O  O4  1  0.32048500  0.49149100  0.46639000  1
  O  O5  1  0.50850900  0.67951500  0.03361000  1
  O  O6  1  0.67951500  0.50850900  0.53361000  1
  O  O7  1  0.49149100  0.32048500  0.96639000  1
  O  O8  1  0.77237800  0.85062000  0.68622600  1
  O  O9  1  0.14938000  0.22762200  0.81377400  1
  O  O10  1  0.22762200  0.14938000  0.31377400  1
  O  O11  1  0.85062000  0.77237800  0.18622600  1
