# generated using pymatgen
data_Na4Co7(PO4)6
_symmetry_space_group_name_H-M   'P 1'
_cell_length_a   9.01306790
_cell_length_b   9.01306790
_cell_length_c   6.54024630
_cell_angle_alpha   80.72568802
_cell_angle_beta   80.72568802
_cell_angle_gamma   107.80473266
_symmetry_Int_Tables_number   1
_chemical_formula_structural   Na4Co7(PO4)6
_chemical_formula_sum   'Na4 Co7 P6 O24'
_cell_volume   486.55911900
_cell_formula_units_Z   1
loop_
 _symmetry_equiv_pos_site_id
 _symmetry_equiv_pos_as_xyz
  1  'x, y, z'
loop_
 _atom_site_type_symbol
 _atom_site_label
 _atom_site_symmetry_multiplicity
 _atom_site_fract_x
 _atom_site_fract_y
 _atom_site_fract_z
 _atom_site_occupancy
  Na  Na0  1  0.05943300  0.05943300  0.47986800  1
  Na  Na1  1  0.67602200  0.67602200  0.55784400  1
  Na  Na2  1  0.52043400  0.29112700  0.51086500  1
  Na  Na3  1  0.29112700  0.52043400  0.51086500  1
  Co  Co4  1  0.99662200  0.63950500  0.81767100  1
  Co  Co5  1  0.63950500  0.99662200  0.81767100  1
  Co  Co6  1  0.35689000  0.98444100  0.18427400  1
  Co  Co7  1  0.98444100  0.35689000  0.18427400  1
  Co  Co8  1  0.65239200  0.33741800  0.99794700  1
  Co  Co9  1  0.33741800  0.65239200  0.99794700  1
  Co  Co10  1  0.99498800  0.99498800  0.00359500  1
  P  P11  1  0.32055100  0.32055100  0.94341900  1
  P  P12  1  0.66673300  0.66673300  0.07740500  1
  P  P13  1  0.08020900  0.71447300  0.28972200  1
  P  P14  1  0.71447300  0.08020900  0.28972200  1
  P  P15  1  0.27800600  0.90345800  0.71137800  1
  P  P16  1  0.90345800  0.27800600  0.71137800  1
  O  O17  1  0.44166300  0.44166300  0.74946000  1
  O  O18  1  0.54784900  0.54784900  0.27288800  1
  O  O19  1  0.19489300  0.19489300  0.87415200  1
  O  O20  1  0.79482700  0.79482700  0.13959700  1
  O  O21  1  0.74749800  0.57592300  0.92816300  1
  O  O22  1  0.57592300  0.74749800  0.92816300  1
  O  O23  1  0.41353900  0.23777300  0.08457600  1
  O  O24  1  0.23777300  0.41353900  0.08457600  1
  O  O25  1  0.34243200  0.01616800  0.48985900  1
  O  O26  1  0.01616800  0.34243200  0.48985900  1
  O  O27  1  0.97214200  0.64984400  0.51301900  1
  O  O28  1  0.64984400  0.97214200  0.51301900  1
  O  O29  1  0.38737400  0.96636400  0.86374100  1
  O  O30  1  0.96636400  0.38737400  0.86374100  1
  O  O31  1  0.01626800  0.60690100  0.13626400  1
  O  O32  1  0.60690100  0.01626800  0.13626400  1
  O  O33  1  0.09796300  0.88820600  0.78372000  1
  O  O34  1  0.26001000  0.71980100  0.27062000  1
  O  O35  1  0.71980100  0.26001000  0.27062000  1
  O  O36  1  0.26779100  0.72363100  0.72557400  1
  O  O37  1  0.72363100  0.26779100  0.72557400  1
  O  O38  1  0.89692300  0.10421500  0.22004200  1
  O  O39  1  0.10421500  0.89692300  0.22004200  1
  O  O40  1  0.88820600  0.09796300  0.78372000  1
