# generated using pymatgen
data_Dy4(B2O5)3
_symmetry_space_group_name_H-M   'P 1'
_cell_length_a   6.27610610
_cell_length_b   6.27610610
_cell_length_c   18.96833691
_cell_angle_alpha   83.92145950
_cell_angle_beta   83.92145950
_cell_angle_gamma   41.10861998
_symmetry_Int_Tables_number   1
_chemical_formula_structural   Dy4(B2O5)3
_chemical_formula_sum   'Dy8 B12 O30'
_cell_volume   488.09336793
_cell_formula_units_Z   2
loop_
 _symmetry_equiv_pos_site_id
 _symmetry_equiv_pos_as_xyz
  1  'x, y, z'
loop_
 _atom_site_type_symbol
 _atom_site_label
 _atom_site_symmetry_multiplicity
 _atom_site_fract_x
 _atom_site_fract_y
 _atom_site_fract_z
 _atom_site_occupancy
  Dy  Dy0  1  0.06556300  0.66816800  0.09868600  1
  Dy  Dy1  1  0.33183200  0.93443700  0.40131400  1
  Dy  Dy2  1  0.93443700  0.33183200  0.90131400  1
  Dy  Dy3  1  0.66816800  0.06556300  0.59868600  1
  Dy  Dy4  1  0.34777600  0.92686800  0.19698800  1
  Dy  Dy5  1  0.07313200  0.65222400  0.30301200  1
  Dy  Dy6  1  0.65222400  0.07313200  0.80301200  1
  Dy  Dy7  1  0.92686800  0.34777600  0.69698800  1
  B  B8  1  0.36121500  0.97802300  0.02600300  1
  B  B9  1  0.02197700  0.63878500  0.47399700  1
  B  B10  1  0.63878500  0.02197700  0.97399700  1
  B  B11  1  0.97802300  0.36121500  0.52600300  1
  B  B12  1  0.79381100  0.34068300  0.30570500  1
  B  B13  1  0.65931700  0.20618900  0.19429500  1
  B  B14  1  0.20618900  0.65931700  0.69429500  1
  B  B15  1  0.34068300  0.79381100  0.80570500  1
  B  B16  1  0.19607300  0.60868900  0.91231700  1
  B  B17  1  0.39131100  0.80392700  0.58768300  1
  B  B18  1  0.80392700  0.39131100  0.08768300  1
  B  B19  1  0.60868900  0.19607300  0.41231700  1
  O  O20  1  0.07795900  0.55983100  0.86127700  1
  O  O21  1  0.92204100  0.44016900  0.13872300  1
  O  O22  1  0.08761900  0.49552400  0.54900700  1
  O  O23  1  0.50447600  0.91238100  0.95099300  1
  O  O24  1  0.91238100  0.50447600  0.45099300  1
  O  O25  1  0.49552400  0.08761900  0.04900700  1
  O  O26  1  0.16341900  0.81015000  0.62178300  1
  O  O27  1  0.18985000  0.83658100  0.87821700  1
  O  O28  1  0.55983100  0.07795900  0.36127700  1
  O  O29  1  0.81015000  0.16341900  0.12178300  1
  O  O30  1  0.66412700  0.46602700  0.80328200  1
  O  O31  1  0.53397300  0.33587300  0.69671800  1
  O  O32  1  0.33587300  0.53397300  0.19671800  1
  O  O33  1  0.46602700  0.66412700  0.30328200  1
  O  O34  1  0.71143900  0.46029500  0.57044800  1
  O  O35  1  0.53970500  0.28856100  0.92955200  1
  O  O36  1  0.28856100  0.53970500  0.42955200  1
  O  O37  1  0.46029500  0.71143900  0.07044800  1
  O  O38  1  0.75348200  0.99135000  0.47836900  1
  O  O39  1  0.00865000  0.24651800  0.02163100  1
  O  O40  1  0.24651800  0.00865000  0.52163100  1
  O  O41  1  0.99135000  0.75348200  0.97836900  1
  O  O42  1  0.95320800  0.68557600  0.70326600  1
  O  O43  1  0.31442400  0.04679200  0.79673400  1
  O  O44  1  0.04679200  0.31442400  0.29673400  1
  O  O45  1  0.68557600  0.95320800  0.20326600  1
  O  O46  1  0.86538500  0.13461500  0.25000000  1
  O  O47  1  0.13461500  0.86538500  0.75000000  1
  O  O48  1  0.83658100  0.18985000  0.37821700  1
  O  O49  1  0.44016900  0.92204100  0.63872300  1
