# generated using pymatgen
data_SrNi2(PO4)2
_symmetry_space_group_name_H-M   'P 1'
_cell_length_a   5.51209346
_cell_length_b   6.88775992
_cell_length_c   9.26204231
_cell_angle_alpha   111.28778344
_cell_angle_beta   100.98888871
_cell_angle_gamma   98.11348967
_symmetry_Int_Tables_number   1
_chemical_formula_structural   SrNi2(PO4)2
_chemical_formula_sum   'Sr2 Ni4 P4 O16'
_cell_volume   313.02189555
_cell_formula_units_Z   2
loop_
 _symmetry_equiv_pos_site_id
 _symmetry_equiv_pos_as_xyz
  1  'x, y, z'
loop_
 _atom_site_type_symbol
 _atom_site_label
 _atom_site_symmetry_multiplicity
 _atom_site_fract_x
 _atom_site_fract_y
 _atom_site_fract_z
 _atom_site_occupancy
  Sr  Sr0  1  0.24108300  0.19950800  0.44685800  1
  Sr  Sr1  1  0.75891800  0.80049100  0.55314200  1
  Ni  Ni2  1  0.51176200  0.60374200  0.83953800  1
  Ni  Ni3  1  0.14184700  0.85624500  0.06119300  1
  Ni  Ni4  1  0.85815300  0.14375400  0.93880600  1
  Ni  Ni5  1  0.48823800  0.39625900  0.16046200  1
  P  P6  1  0.89167000  0.42873100  0.74214700  1
  P  P7  1  0.10833000  0.57126900  0.25785300  1
  P  P8  1  0.34658100  0.02646700  0.80572600  1
  P  P9  1  0.65341900  0.97353300  0.19427400  1
  O  O10  1  0.66316000  0.45364100  0.62553100  1
  O  O11  1  0.33684000  0.54635900  0.37446800  1
  O  O12  1  0.24677200  0.00977700  0.63558400  1
  O  O13  1  0.75322900  0.99022300  0.36441600  1
  O  O14  1  0.14649800  0.48269000  0.70181300  1
  O  O15  1  0.85350300  0.51731000  0.29818700  1
  O  O16  1  0.84291700  0.20072800  0.73711400  1
  O  O17  1  0.15708400  0.79927200  0.26288600  1
  O  O18  1  0.54504100  0.88034500  0.80313500  1
  O  O19  1  0.45495900  0.11965500  0.19686500  1
  O  O20  1  0.11869900  0.40420700  0.09137200  1
  O  O21  1  0.88130100  0.59579300  0.90862800  1
  O  O22  1  0.49198600  0.74484100  0.07040700  1
  O  O23  1  0.12168500  0.95363700  0.86903700  1
  O  O24  1  0.87831500  0.04636300  0.13096300  1
  O  O25  1  0.50801500  0.25515900  0.92959300  1
