# generated using pymatgen
data_Hg2Te2O7
_symmetry_space_group_name_H-M   'P 1'
_cell_length_a   7.65116321
_cell_length_b   7.65116321
_cell_length_c   13.70043869
_cell_angle_alpha   69.96666015
_cell_angle_beta   69.96666015
_cell_angle_gamma   59.12131734
_symmetry_Int_Tables_number   1
_chemical_formula_structural   Hg2Te2O7
_chemical_formula_sum   'Hg8 Te8 O28'
_cell_volume   632.71522570
_cell_formula_units_Z   4
loop_
 _symmetry_equiv_pos_site_id
 _symmetry_equiv_pos_as_xyz
  1  'x, y, z'
loop_
 _atom_site_type_symbol
 _atom_site_label
 _atom_site_symmetry_multiplicity
 _atom_site_fract_x
 _atom_site_fract_y
 _atom_site_fract_z
 _atom_site_occupancy
  Hg  Hg0  1  0.00000000  0.50000000  0.50000000  1
  Hg  Hg1  1  0.50000000  0.00000000  0.00000000  1
  Hg  Hg2  1  0.00000000  0.50000000  0.00000000  1
  Hg  Hg3  1  0.50000000  0.00000000  0.50000000  1
  Hg  Hg4  1  0.23411400  0.76588600  0.75000000  1
  Hg  Hg5  1  0.76588600  0.23411400  0.25000000  1
  Hg  Hg6  1  0.70951300  0.29048700  0.75000000  1
  Hg  Hg7  1  0.29048700  0.70951300  0.25000000  1
  Te  Te8  1  0.00000000  0.00000000  0.00000000  1
  Te  Te9  1  0.00000000  0.00000000  0.50000000  1
  Te  Te10  1  0.50000000  0.50000000  0.50000000  1
  Te  Te11  1  0.50000000  0.50000000  0.00000000  1
  Te  Te12  1  0.22182500  0.22904200  0.74292800  1
  Te  Te13  1  0.77095800  0.77817500  0.75707200  1
  Te  Te14  1  0.77817500  0.77095800  0.25707200  1
  Te  Te15  1  0.22904200  0.22182500  0.24292800  1
  O  O16  1  0.28703300  0.78904800  0.95463900  1
  O  O17  1  0.21095200  0.71296700  0.54536100  1
  O  O18  1  0.71296700  0.21095200  0.04536100  1
  O  O19  1  0.78904800  0.28703300  0.45463900  1
  O  O20  1  0.37794600  0.96085700  0.69948400  1
  O  O21  1  0.03914300  0.62205400  0.80051600  1
  O  O22  1  0.62205400  0.03914300  0.30051600  1
  O  O23  1  0.96085700  0.37794600  0.19948400  1
  O  O24  1  0.42253600  0.28531100  0.60143500  1
  O  O25  1  0.71468900  0.57746400  0.89856500  1
  O  O26  1  0.57746400  0.71468900  0.39856500  1
  O  O27  1  0.28531100  0.42253600  0.10143500  1
  O  O28  1  0.12781400  0.16821100  0.99454300  1
  O  O29  1  0.83178900  0.87218600  0.50545700  1
  O  O30  1  0.87218600  0.83178900  0.00545700  1
  O  O31  1  0.16821100  0.12781400  0.49454300  1
  O  O32  1  0.11090800  0.00244600  0.34633400  1
  O  O33  1  0.99755400  0.88909200  0.15366600  1
  O  O34  1  0.88909200  0.99755400  0.65366600  1
  O  O35  1  0.00244600  0.11090800  0.84633400  1
  O  O36  1  0.38878600  0.99222100  0.17095400  1
  O  O37  1  0.00777900  0.61121400  0.32904600  1
  O  O38  1  0.61121400  0.00777900  0.82904600  1
  O  O39  1  0.99222100  0.38878600  0.67095400  1
  O  O40  1  0.54420700  0.58055000  0.10594100  1
  O  O41  1  0.41945000  0.45579300  0.39405900  1
  O  O42  1  0.45579300  0.41945000  0.89405900  1
  O  O43  1  0.58055000  0.54420700  0.60594100  1
