# generated using pymatgen
data_KEr3F10
_symmetry_space_group_name_H-M   'P 1'
_cell_length_a   8.17171346
_cell_length_b   8.17171346
_cell_length_c   8.17171346
_cell_angle_alpha   60.00000000
_cell_angle_beta   60.00000000
_cell_angle_gamma   60.00000000
_symmetry_Int_Tables_number   1
_chemical_formula_structural   KEr3F10
_chemical_formula_sum   'K2 Er6 F20'
_cell_volume   385.85522991
_cell_formula_units_Z   2
loop_
 _symmetry_equiv_pos_site_id
 _symmetry_equiv_pos_as_xyz
  1  'x, y, z'
loop_
 _atom_site_type_symbol
 _atom_site_label
 _atom_site_symmetry_multiplicity
 _atom_site_fract_x
 _atom_site_fract_y
 _atom_site_fract_z
 _atom_site_occupancy
  K  K0  1  0.75000000  0.75000000  0.75000000  1
  K  K1  1  0.25000000  0.25000000  0.25000000  1
  Er  Er2  1  0.24053100  0.75946900  0.24053100  1
  Er  Er3  1  0.75946900  0.24053100  0.24053100  1
  Er  Er4  1  0.24053100  0.75946900  0.75946900  1
  Er  Er5  1  0.24053100  0.24053100  0.75946900  1
  Er  Er6  1  0.75946900  0.24053100  0.75946900  1
  Er  Er7  1  0.75946900  0.75946900  0.24053100  1
  F  F8  1  0.82993800  0.17006200  0.50000000  1
  F  F9  1  0.50000000  0.17006200  0.82993800  1
  F  F10  1  0.82993800  0.50000000  0.17006200  1
  F  F11  1  0.50000000  0.17006200  0.50000000  1
  F  F12  1  0.82993800  0.50000000  0.50000000  1
  F  F13  1  0.17006200  0.50000000  0.82993800  1
  F  F14  1  0.50000000  0.82993800  0.50000000  1
  F  F15  1  0.50000000  0.50000000  0.17006200  1
  F  F16  1  0.88834400  0.33496700  0.88834400  1
  F  F17  1  0.11165600  0.11165600  0.66503300  1
  F  F18  1  0.66503300  0.11165600  0.11165600  1
  F  F19  1  0.11165600  0.11165600  0.11165600  1
  F  F20  1  0.33496700  0.88834400  0.88834400  1
  F  F21  1  0.88834400  0.88834400  0.88834400  1
  F  F22  1  0.88834400  0.88834400  0.33496700  1
  F  F23  1  0.11165600  0.66503300  0.11165600  1
  F  F24  1  0.17006200  0.82993800  0.50000000  1
  F  F25  1  0.50000000  0.82993800  0.17006200  1
  F  F26  1  0.17006200  0.50000000  0.50000000  1
  F  F27  1  0.50000000  0.50000000  0.82993800  1
