# generated using pymatgen
data_NaCoPO4
_symmetry_space_group_name_H-M   'P 1'
_cell_length_a   5.07975900
_cell_length_b   6.87033400
_cell_length_c   8.97502100
_cell_angle_alpha   90.00000000
_cell_angle_beta   90.00000000
_cell_angle_gamma   90.00000000
_symmetry_Int_Tables_number   1
_chemical_formula_structural   NaCoPO4
_chemical_formula_sum   'Na4 Co4 P4 O16'
_cell_volume   313.22501059
_cell_formula_units_Z   4
loop_
 _symmetry_equiv_pos_site_id
 _symmetry_equiv_pos_as_xyz
  1  'x, y, z'
loop_
 _atom_site_type_symbol
 _atom_site_label
 _atom_site_symmetry_multiplicity
 _atom_site_fract_x
 _atom_site_fract_y
 _atom_site_fract_z
 _atom_site_occupancy
  Na  Na0  1  0.46606400  0.75000000  0.14919200  1
  Na  Na1  1  0.53393600  0.25000000  0.85080800  1
  Na  Na2  1  0.96606400  0.25000000  0.35080800  1
  Na  Na3  1  0.03393600  0.75000000  0.64919200  1
  Co  Co4  1  0.50000000  0.00000000  0.50000000  1
  Co  Co5  1  0.00000000  0.00000000  0.00000000  1
  Co  Co6  1  0.50000000  0.50000000  0.50000000  1
  Co  Co7  1  0.00000000  0.50000000  0.00000000  1
  P  P8  1  0.03933600  0.25000000  0.67644300  1
  P  P9  1  0.46066400  0.25000000  0.17644300  1
  P  P10  1  0.96066400  0.75000000  0.32355700  1
  P  P11  1  0.53933600  0.75000000  0.82355700  1
  O  O12  1  0.94971900  0.75000000  0.14775100  1
  O  O13  1  0.44971900  0.25000000  0.35224900  1
  O  O14  1  0.05028100  0.25000000  0.85224900  1
  O  O15  1  0.55028100  0.75000000  0.64775100  1
  O  O16  1  0.25129200  0.75000000  0.88374600  1
  O  O17  1  0.75129200  0.25000000  0.61625400  1
  O  O18  1  0.74870800  0.25000000  0.11625400  1
  O  O19  1  0.24870800  0.75000000  0.38374600  1
  O  O20  1  0.18483400  0.43429400  0.62196400  1
  O  O21  1  0.68483400  0.56570600  0.87803600  1
  O  O22  1  0.81516600  0.93429400  0.37803600  1
  O  O23  1  0.31516600  0.06570600  0.12196400  1
  O  O24  1  0.81516600  0.56570600  0.37803600  1
  O  O25  1  0.31516600  0.43429400  0.12196400  1
  O  O26  1  0.18483400  0.06570600  0.62196400  1
  O  O27  1  0.68483400  0.93429400  0.87803600  1
