# generated using pymatgen
data_NaAl6Fe3Si6B3O30F
_symmetry_space_group_name_H-M   'P 1'
_cell_length_a   9.56705400
_cell_length_b   9.56705400
_cell_length_c   9.56705357
_cell_angle_alpha   113.73276201
_cell_angle_beta   113.73276201
_cell_angle_gamma   113.73275706
_symmetry_Int_Tables_number   1
_chemical_formula_structural   NaAl6Fe3Si6B3O30F
_chemical_formula_sum   'Na1 Al6 Fe3 Si6 B3 O30 F1'
_cell_volume   542.38781090
_cell_formula_units_Z   1
loop_
 _symmetry_equiv_pos_site_id
 _symmetry_equiv_pos_as_xyz
  1  'x, y, z'
loop_
 _atom_site_type_symbol
 _atom_site_label
 _atom_site_symmetry_multiplicity
 _atom_site_fract_x
 _atom_site_fract_y
 _atom_site_fract_z
 _atom_site_occupancy
  Na  Na0  1  0.78164300  0.78164300  0.78164300  1
  Al  Al1  1  0.43627000  0.09548600  0.65425400  1
  Al  Al2  1  0.65425400  0.43627000  0.09548600  1
  Al  Al3  1  0.43627000  0.65425400  0.09548600  1
  Al  Al4  1  0.65425400  0.09548600  0.43627000  1
  Al  Al5  1  0.09548600  0.65425400  0.43627000  1
  Al  Al6  1  0.09548600  0.43627000  0.65425400  1
  Fe  Fe7  1  0.45093300  0.24521800  0.45093300  1
  Fe  Fe8  1  0.24521800  0.45093300  0.45093300  1
  Fe  Fe9  1  0.45093300  0.45093300  0.24521800  1
  Si  Si10  1  0.19399500  0.00343500  0.81073100  1
  Si  Si11  1  0.81073100  0.19399500  0.00343500  1
  Si  Si12  1  0.00343500  0.19399500  0.81073100  1
  Si  Si13  1  0.19399500  0.81073100  0.00343500  1
  Si  Si14  1  0.81073100  0.00343500  0.19399500  1
  Si  Si15  1  0.00343500  0.81073100  0.19399500  1
  B  B16  1  0.43509100  0.43509100  0.76765900  1
  B  B17  1  0.43509100  0.76765900  0.43509100  1
  B  B18  1  0.76765900  0.43509100  0.43509100  1
  O  O19  1  0.34917500  0.82910200  0.49882200  1
  O  O20  1  0.82910200  0.49882200  0.34917500  1
  O  O21  1  0.49882200  0.34917500  0.82910200  1
  O  O22  1  0.49882200  0.82910200  0.34917500  1
  O  O23  1  0.82910200  0.34917500  0.49882200  1
  O  O24  1  0.34917500  0.49882200  0.82910200  1
  O  O25  1  0.63874800  0.21150600  0.92473500  1
  O  O26  1  0.21150600  0.92473500  0.63874800  1
  O  O27  1  0.92473500  0.63874800  0.21150600  1
  O  O28  1  0.92473500  0.21150600  0.63874800  1
  O  O29  1  0.21150600  0.63874800  0.92473500  1
  O  O30  1  0.63874800  0.92473500  0.21150600  1
  O  O31  1  0.03097600  0.41478500  0.22992300  1
  O  O32  1  0.41478500  0.22992300  0.03097600  1
  O  O33  1  0.22992300  0.03097600  0.41478500  1
  O  O34  1  0.22992300  0.41478500  0.03097600  1
  O  O35  1  0.41478500  0.03097600  0.22992300  1
  O  O36  1  0.45432600  0.45432600  0.63762000  1
  O  O37  1  0.63762000  0.45432600  0.45432600  1
  O  O38  1  0.45432600  0.63762000  0.45432600  1
  O  O39  1  0.20811100  0.60805400  0.60805400  1
  O  O40  1  0.60805400  0.20811100  0.60805400  1
  O  O41  1  0.60805400  0.60805400  0.20811100  1
  O  O42  1  0.83356500  0.83356500  0.11329400  1
  O  O43  1  0.11329400  0.83356500  0.83356500  1
  O  O44  1  0.83356500  0.11329400  0.83356500  1
  O  O45  1  0.73853500  0.01237100  0.01237100  1
  O  O46  1  0.01237100  0.73853500  0.01237100  1
  O  O47  1  0.01237100  0.01237100  0.73853500  1
  O  O48  1  0.03097600  0.22992300  0.41478500  1
  F  F49  1  0.23028200  0.23028200  0.23028200  1
