# generated using pymatgen
data_Ba5Yb8Zn4O21
_symmetry_space_group_name_H-M   'P 1'
_cell_length_a   10.19307697
_cell_length_b   10.19307697
_cell_length_c   10.19307697
_cell_angle_alpha   94.44610268
_cell_angle_beta   94.44610268
_cell_angle_gamma   147.66737724
_symmetry_Int_Tables_number   1
_chemical_formula_structural   Ba5Yb8Zn4O21
_chemical_formula_sum   'Ba5 Yb8 Zn4 O21'
_cell_volume   544.01731102
_cell_formula_units_Z   1
loop_
 _symmetry_equiv_pos_site_id
 _symmetry_equiv_pos_as_xyz
  1  'x, y, z'
loop_
 _atom_site_type_symbol
 _atom_site_label
 _atom_site_symmetry_multiplicity
 _atom_site_fract_x
 _atom_site_fract_y
 _atom_site_fract_z
 _atom_site_occupancy
  Ba  Ba0  1  0.46691800  0.85589500  0.32281300  1
  Ba  Ba1  1  0.14410500  0.46691800  0.61102300  1
  Ba  Ba2  1  0.85589500  0.53308200  0.38897700  1
  Ba  Ba3  1  0.53308200  0.14410500  0.67718700  1
  Ba  Ba4  1  0.00000000  0.00000000  0.00000000  1
  Yb  Yb5  1  0.59150000  0.63992200  0.23142200  1
  Yb  Yb6  1  0.36007800  0.59150000  0.95157800  1
  Yb  Yb7  1  0.63992200  0.40850000  0.04842200  1
  Yb  Yb8  1  0.40850000  0.36007800  0.76857800  1
  Yb  Yb9  1  0.75021600  0.83306800  0.58328400  1
  Yb  Yb10  1  0.16693200  0.75021600  0.91714800  1
  Yb  Yb11  1  0.83306800  0.24978400  0.08285200  1
  Yb  Yb12  1  0.24978400  0.16693200  0.41671600  1
  Zn  Zn13  1  0.95777000  0.75429600  0.71206600  1
  Zn  Zn14  1  0.24570400  0.95777000  0.20347400  1
  Zn  Zn15  1  0.75429600  0.04223000  0.79652600  1
  Zn  Zn16  1  0.04223000  0.24570400  0.28793400  1
  O  O17  1  0.09466500  0.97720900  0.59280000  1
  O  O18  1  0.50186500  0.09466500  0.11745600  1
  O  O19  1  0.97720900  0.38440900  0.88254400  1
  O  O20  1  0.38440900  0.50186500  0.40720000  1
  O  O21  1  0.90533500  0.02279100  0.40720000  1
  O  O22  1  0.49813500  0.90533500  0.88254400  1
  O  O23  1  0.02279100  0.61559100  0.11745600  1
  O  O24  1  0.61559100  0.49813500  0.59280000  1
  O  O25  1  0.93731800  0.79934000  0.22148700  1
  O  O26  1  0.71583100  0.93731800  0.13797800  1
  O  O27  1  0.79934000  0.57785300  0.86202200  1
  O  O28  1  0.57785300  0.71583100  0.77851300  1
  O  O29  1  0.06268200  0.20066000  0.77851300  1
  O  O30  1  0.28416900  0.06268200  0.86202200  1
  O  O31  1  0.20066000  0.42214700  0.13797800  1
  O  O32  1  0.42214700  0.28416900  0.22148700  1
  O  O33  1  0.37260500  0.03113800  0.40374300  1
  O  O34  1  0.50000000  0.50000000  0.00000000  1
  O  O35  1  0.62739500  0.96886200  0.59625700  1
  O  O36  1  0.03113800  0.62739500  0.65853300  1
  O  O37  1  0.96886200  0.37260500  0.34146700  1
