# generated using pymatgen
data_ZnS
_symmetry_space_group_name_H-M   'P 1'
_cell_length_a   31.54954001
_cell_length_b   31.54954001
_cell_length_c   31.54953982
_cell_angle_alpha   7.01324056
_cell_angle_beta   7.01324056
_cell_angle_gamma   7.01324077
_symmetry_Int_Tables_number   1
_chemical_formula_structural   ZnS
_chemical_formula_sum   'Zn10 S10'
_cell_volume   405.95115441
_cell_formula_units_Z   10
loop_
 _symmetry_equiv_pos_site_id
 _symmetry_equiv_pos_as_xyz
  1  'x, y, z'
loop_
 _atom_site_type_symbol
 _atom_site_label
 _atom_site_symmetry_multiplicity
 _atom_site_fract_x
 _atom_site_fract_y
 _atom_site_fract_z
 _atom_site_occupancy
  Zn  Zn0  1  0.36691300  0.36691300  0.36691300  1
  Zn  Zn1  1  0.06691500  0.06691500  0.06691500  1
  Zn  Zn2  1  0.76691600  0.76691600  0.76691600  1
  Zn  Zn3  1  0.13358500  0.13358500  0.13358500  1
  Zn  Zn4  1  0.50024700  0.50024700  0.50024700  1
  Zn  Zn5  1  0.20024700  0.20024700  0.20024700  1
  Zn  Zn6  1  0.90024100  0.90024100  0.90024100  1
  Zn  Zn7  1  0.26693300  0.26693300  0.26693300  1
  Zn  Zn8  1  0.63358000  0.63358000  0.63358000  1
  Zn  Zn9  1  0.00022500  0.00022500  0.00022500  1
  S  S10  1  0.34189000  0.34189000  0.34189000  1
  S  S11  1  0.04194400  0.04194400  0.04194400  1
  S  S12  1  0.74189800  0.74189800  0.74189800  1
  S  S13  1  0.10861300  0.10861300  0.10861300  1
  S  S14  1  0.47523200  0.47523200  0.47523200  1
  S  S15  1  0.17527700  0.17527700  0.17527700  1
  S  S16  1  0.87522900  0.87522900  0.87522900  1
  S  S17  1  0.24194900  0.24194900  0.24194900  1
  S  S18  1  0.60859100  0.60859100  0.60859100  1
  S  S19  1  0.97524300  0.97524300  0.97524300  1
