data_image0
_chemical_formula_structural       Pd3Rb2S4
_chemical_formula_sum              "Pd3 Rb2 S4"
_cell_length_a       6.24113
_cell_length_b       6.2109
_cell_length_c       7.39745
_cell_angle_alpha    102.519
_cell_angle_beta     102.697
_cell_angle_gamma    118.773

_space_group_name_H-M_alt    "P 1"
_space_group_IT_number       1

loop_
  _space_group_symop_operation_xyz
  'x, y, z'

loop_
  _atom_site_type_symbol
  _atom_site_label
  _atom_site_symmetry_multiplicity
  _atom_site_fract_x
  _atom_site_fract_y
  _atom_site_fract_z
  _atom_site_occupancy
  Pd  Pd1       1.0  1.00000  0.50000  0.00000  1.0000
  Pd  Pd2       1.0  0.50000  0.50000  0.00000  1.0000
  Pd  Pd3       1.0  0.50000  0.00000  0.00000  1.0000
  Rb  Rb1       1.0  0.15900  0.15900  0.31700  1.0000
  Rb  Rb2       1.0  0.84100  0.84100  0.68300  1.0000
  S   S1        1.0  0.44600  0.78200  0.23000  1.0000
  S   S2        1.0  0.78400  0.44700  0.23000  1.0000
  S   S3        1.0  0.55400  0.21800  0.77000  1.0000
  S   S4        1.0  0.21600  0.55300  0.77000  1.0000
