# generated using pymatgen
data_Cr3BO6
_symmetry_space_group_name_H-M   'P 1'
_cell_length_a   4.47988600
_cell_length_b   8.57687800
_cell_length_c   10.10055700
_cell_angle_alpha   90.00000000
_cell_angle_beta   90.00000000
_cell_angle_gamma   90.00000000
_symmetry_Int_Tables_number   1
_chemical_formula_structural   Cr3BO6
_chemical_formula_sum   'Cr12 B4 O24'
_cell_volume   388.09810218
_cell_formula_units_Z   4
loop_
 _symmetry_equiv_pos_site_id
 _symmetry_equiv_pos_as_xyz
  1  'x, y, z'
loop_
 _atom_site_type_symbol
 _atom_site_label
 _atom_site_symmetry_multiplicity
 _atom_site_fract_x
 _atom_site_fract_y
 _atom_site_fract_z
 _atom_site_occupancy
  Cr  Cr0  1  0.47393800  0.75000000  0.90685000  1
  Cr  Cr1  1  0.97393800  0.25000000  0.59315000  1
  Cr  Cr2  1  0.52606200  0.25000000  0.09315000  1
  Cr  Cr3  1  0.02606200  0.75000000  0.40685000  1
  Cr  Cr4  1  0.50250300  0.43073700  0.36977900  1
  Cr  Cr5  1  0.00250300  0.56926300  0.13022100  1
  Cr  Cr6  1  0.49749700  0.93073700  0.63022100  1
  Cr  Cr7  1  0.99749700  0.06926300  0.86977900  1
  Cr  Cr8  1  0.49749700  0.56926300  0.63022100  1
  Cr  Cr9  1  0.99749700  0.43073700  0.86977900  1
  Cr  Cr10  1  0.50250300  0.06926300  0.36977900  1
  Cr  Cr11  1  0.00250300  0.93073700  0.13022100  1
  B  B12  1  0.08134200  0.25000000  0.27716100  1
  B  B13  1  0.91865800  0.75000000  0.72283900  1
  B  B14  1  0.41865800  0.25000000  0.77716100  1
  B  B15  1  0.58134200  0.75000000  0.22283900  1
  O  O16  1  0.78278300  0.75000000  0.58458200  1
  O  O17  1  0.28278300  0.25000000  0.91541800  1
  O  O18  1  0.21721700  0.25000000  0.41541800  1
  O  O19  1  0.71721700  0.75000000  0.08458200  1
  O  O20  1  0.76503100  0.42138400  0.03074400  1
  O  O21  1  0.26503100  0.57861600  0.46925600  1
  O  O22  1  0.23496900  0.92138400  0.96925600  1
  O  O23  1  0.73496900  0.07861600  0.53074400  1
  O  O24  1  0.25587500  0.75000000  0.22466300  1
  O  O25  1  0.24412500  0.75000000  0.72466300  1
  O  O26  1  0.75587500  0.25000000  0.27533700  1
  O  O27  1  0.74412500  0.25000000  0.77533700  1
  O  O28  1  0.72843900  0.88854500  0.28975100  1
  O  O29  1  0.22843900  0.11145500  0.21024900  1
  O  O30  1  0.27156100  0.38854500  0.71024900  1
  O  O31  1  0.77156100  0.61145500  0.78975100  1
  O  O32  1  0.27156100  0.11145500  0.71024900  1
  O  O33  1  0.77156100  0.88854500  0.78975100  1
  O  O34  1  0.72843900  0.61145500  0.28975100  1
  O  O35  1  0.22843900  0.38854500  0.21024900  1
  O  O36  1  0.26503100  0.92138400  0.46925600  1
  O  O37  1  0.76503100  0.07861600  0.03074400  1
  O  O38  1  0.73496900  0.42138400  0.53074400  1
  O  O39  1  0.23496900  0.57861600  0.96925600  1
