# generated using pymatgen
data_SrV4O9
_symmetry_space_group_name_H-M   'P 1'
_cell_length_a   8.46943600
_cell_length_b   8.46943600
_cell_length_c   5.55850700
_cell_angle_alpha   90.00000000
_cell_angle_beta   90.00000000
_cell_angle_gamma   90.00000000
_symmetry_Int_Tables_number   1
_chemical_formula_structural   SrV4O9
_chemical_formula_sum   'Sr2 V8 O18'
_cell_volume   398.71918974
_cell_formula_units_Z   2
loop_
 _symmetry_equiv_pos_site_id
 _symmetry_equiv_pos_as_xyz
  1  'x, y, z'
loop_
 _atom_site_type_symbol
 _atom_site_label
 _atom_site_symmetry_multiplicity
 _atom_site_fract_x
 _atom_site_fract_y
 _atom_site_fract_z
 _atom_site_occupancy
  Sr  Sr0  1  0.50000000  0.00000000  0.85940500  1
  Sr  Sr1  1  0.00000000  0.50000000  0.14059500  1
  V  V2  1  0.78524800  0.90973600  0.38407800  1
  V  V3  1  0.40973600  0.71475200  0.38407800  1
  V  V4  1  0.59026400  0.28524800  0.38407800  1
  V  V5  1  0.21475200  0.09026400  0.38407800  1
  V  V6  1  0.71475200  0.59026400  0.61592200  1
  V  V7  1  0.09026400  0.78524800  0.61592200  1
  V  V8  1  0.90973600  0.21475200  0.61592200  1
  V  V9  1  0.28524800  0.40973600  0.61592200  1
  O  O10  1  0.00000000  0.00000000  0.50000000  1
  O  O11  1  0.50000000  0.50000000  0.50000000  1
  O  O12  1  0.75153900  0.92732400  0.09322800  1
  O  O13  1  0.42732400  0.74846100  0.09322800  1
  O  O14  1  0.57267600  0.25153900  0.09322800  1
  O  O15  1  0.24846100  0.07267600  0.09322800  1
  O  O16  1  0.74846100  0.57267600  0.90677200  1
  O  O17  1  0.07267600  0.75153900  0.90677200  1
  O  O18  1  0.92732400  0.24846100  0.90677200  1
  O  O19  1  0.25153900  0.42732400  0.90677200  1
  O  O20  1  0.10751200  0.29177000  0.46229300  1
  O  O21  1  0.79177000  0.39248800  0.46229300  1
  O  O22  1  0.20823000  0.60751200  0.46229300  1
  O  O23  1  0.89248800  0.70823000  0.46229300  1
  O  O24  1  0.39248800  0.20823000  0.53770700  1
  O  O25  1  0.70823000  0.10751200  0.53770700  1
  O  O26  1  0.29177000  0.89248800  0.53770700  1
  O  O27  1  0.60751200  0.79177000  0.53770700  1
