# generated using pymatgen
data_Nd4Ni3O8
_symmetry_space_group_name_H-M   'P 1'
_cell_length_a   3.96274954
_cell_length_b   3.96274927
_cell_length_c   13.01573898
_cell_angle_alpha   98.75613106
_cell_angle_beta   98.75612902
_cell_angle_gamma   90.00000442
_symmetry_Int_Tables_number   1
_chemical_formula_structural   Nd4Ni3O8
_chemical_formula_sum   'Nd4 Ni3 O8'
_cell_volume   199.59844039
_cell_formula_units_Z   1
loop_
 _symmetry_equiv_pos_site_id
 _symmetry_equiv_pos_as_xyz
  1  'x, y, z'
loop_
 _atom_site_type_symbol
 _atom_site_label
 _atom_site_symmetry_multiplicity
 _atom_site_fract_x
 _atom_site_fract_y
 _atom_site_fract_z
 _atom_site_occupancy
  Nd  Nd0  1  0.70162000  0.70161900  0.40324100  1
  Nd  Nd1  1  0.29837900  0.29837900  0.59675900  1
  Nd  Nd2  1  0.56631000  0.56630900  0.13261900  1
  Nd  Nd3  1  0.43369200  0.43369200  0.86738200  1
  Ni  Ni4  1  0.87507000  0.87507200  0.75014300  1
  Ni  Ni5  1  0.12492900  0.12492900  0.24985700  1
  Ni  Ni6  1  0.00000000  0.00000000  0.00000000  1
  O  O7  1  0.25000000  0.75000000  0.50000000  1
  O  O8  1  0.74999900  0.25000100  0.50000000  1
  O  O9  1  0.87461300  0.37461300  0.74922800  1
  O  O10  1  0.37461400  0.87461300  0.74922800  1
  O  O11  1  0.12538600  0.62538500  0.25077200  1
  O  O12  1  0.62538500  0.12538500  0.25077200  1
  O  O13  1  0.00000100  0.50000000  0.00000000  1
  O  O14  1  0.50000000  0.00000000  0.00000000  1
