# generated using pymatgen
data_Nd2NiO4
_symmetry_space_group_name_H-M   'P 1'
_cell_length_a   6.66813480
_cell_length_b   6.66813480
_cell_length_c   5.68211600
_cell_angle_alpha   90.00000000
_cell_angle_beta   90.00000000
_cell_angle_gamma   132.02044260
_symmetry_Int_Tables_number   1
_chemical_formula_structural   Nd2NiO4
_chemical_formula_sum   'Nd4 Ni2 O8'
_cell_volume   187.69500947
_cell_formula_units_Z   2
loop_
 _symmetry_equiv_pos_site_id
 _symmetry_equiv_pos_as_xyz
  1  'x, y, z'
loop_
 _atom_site_type_symbol
 _atom_site_label
 _atom_site_symmetry_multiplicity
 _atom_site_fract_x
 _atom_site_fract_y
 _atom_site_fract_z
 _atom_site_occupancy
  Nd  Nd0  1  0.86304800  0.13695200  0.48262700  1
  Nd  Nd1  1  0.63695200  0.36304800  0.98262700  1
  Nd  Nd2  1  0.36304800  0.63695200  0.01737300  1
  Nd  Nd3  1  0.13695200  0.86304800  0.51737300  1
  Ni  Ni4  1  0.00000000  0.00000000  0.00000000  1
  Ni  Ni5  1  0.50000000  0.50000000  0.50000000  1
  O  O6  1  0.77054300  0.72945700  0.25000000  1
  O  O7  1  0.82026500  0.17973500  0.07084600  1
  O  O8  1  0.72945700  0.77054300  0.75000000  1
  O  O9  1  0.67973500  0.32026500  0.57084600  1
  O  O10  1  0.27054300  0.22945700  0.25000000  1
  O  O11  1  0.17973500  0.82026500  0.92915400  1
  O  O12  1  0.22945700  0.27054300  0.75000000  1
  O  O13  1  0.32026500  0.67973500  0.42915400  1
