# generated using pymatgen
data_Na2NiO2
_symmetry_space_group_name_H-M   'P 1'
_cell_length_a   2.86542000
_cell_length_b   5.30536487
_cell_length_c   8.30113000
_cell_angle_alpha   90.00000000
_cell_angle_beta   90.00000000
_cell_angle_gamma   105.66719972
_symmetry_Int_Tables_number   1
_chemical_formula_structural   Na2NiO2
_chemical_formula_sum   'Na4 Ni2 O4'
_cell_volume   121.50602594
_cell_formula_units_Z   2
loop_
 _symmetry_equiv_pos_site_id
 _symmetry_equiv_pos_as_xyz
  1  'x, y, z'
loop_
 _atom_site_type_symbol
 _atom_site_label
 _atom_site_symmetry_multiplicity
 _atom_site_fract_x
 _atom_site_fract_y
 _atom_site_fract_z
 _atom_site_occupancy
  Na  Na0  1  0.39526000  0.79052100  0.15244500  1
  Na  Na1  1  0.85143500  0.70286900  0.83078000  1
  Na  Na2  1  0.60474000  0.20948000  0.65244400  1
  Na  Na3  1  0.14856600  0.29713200  0.33077900  1
  Ni  Ni4  1  0.12204600  0.24409200  0.99838300  1
  Ni  Ni5  1  0.87795500  0.75590900  0.49838300  1
  O  O6  1  0.72231200  0.44462300  0.09353200  1
  O  O7  1  0.51983400  0.03966800  0.91016200  1
  O  O8  1  0.27768900  0.55537700  0.59353100  1
  O  O9  1  0.48016500  0.96033100  0.41016200  1
