# generated using pymatgen
data_CaCo(SiO3)2
_symmetry_space_group_name_H-M   'P 1'
_cell_length_a   5.32036314
_cell_length_b   6.71329616
_cell_length_c   6.71329658
_cell_angle_alpha   84.62683970
_cell_angle_beta   78.39627441
_cell_angle_gamma   78.39626799
_symmetry_Int_Tables_number   1
_chemical_formula_structural   CaCo(SiO3)2
_chemical_formula_sum   'Ca2 Co2 Si4 O12'
_cell_volume   229.72528330
_cell_formula_units_Z   2
loop_
 _symmetry_equiv_pos_site_id
 _symmetry_equiv_pos_as_xyz
  1  'x, y, z'
loop_
 _atom_site_type_symbol
 _atom_site_label
 _atom_site_symmetry_multiplicity
 _atom_site_fract_x
 _atom_site_fract_y
 _atom_site_fract_z
 _atom_site_occupancy
  Ca  Ca0  1  0.75000000  0.29655500  0.70344500  1
  Ca  Ca1  1  0.25000100  0.70343900  0.29656100  1
  Co  Co2  1  0.25000000  0.09384500  0.90615600  1
  Co  Co3  1  0.74999900  0.90615800  0.09384100  1
  Si  Si4  1  0.26887100  0.19461400  0.37958300  1
  Si  Si5  1  0.23112900  0.62041600  0.80538600  1
  Si  Si6  1  0.76886800  0.37958300  0.19461600  1
  Si  Si7  1  0.73113200  0.80538400  0.62041800  1
  O  O8  1  0.50454300  0.33153900  0.36841700  1
  O  O9  1  0.99545600  0.63158300  0.66846100  1
  O  O10  1  0.49546000  0.66845700  0.63158100  1
  O  O11  1  0.00454000  0.36841900  0.33154200  1
  O  O12  1  0.17686900  0.11380900  0.61053800  1
  O  O13  1  0.32313100  0.38946200  0.88619100  1
  O  O14  1  0.82313300  0.88619100  0.38946300  1
  O  O15  1  0.67686700  0.61053700  0.11380900  1
  O  O16  1  0.85364700  0.20608200  0.02845100  1
  O  O17  1  0.64635400  0.97154800  0.79391700  1
  O  O18  1  0.35365200  0.02845500  0.20607800  1
  O  O19  1  0.14634800  0.79392200  0.97154600  1
