# generated using pymatgen
data_Fe2PO5
_symmetry_space_group_name_H-M   'P 1'
_cell_length_a   7.39922607
_cell_length_b   7.39922607
_cell_length_c   7.39922607
_cell_angle_alpha   137.04326479
_cell_angle_beta   137.04326479
_cell_angle_gamma   62.37148928
_symmetry_Int_Tables_number   1
_chemical_formula_structural   Fe2PO5
_chemical_formula_sum   'Fe4 P2 O10'
_cell_volume   185.84602607
_cell_formula_units_Z   2
loop_
 _symmetry_equiv_pos_site_id
 _symmetry_equiv_pos_as_xyz
  1  'x, y, z'
loop_
 _atom_site_type_symbol
 _atom_site_label
 _atom_site_symmetry_multiplicity
 _atom_site_fract_x
 _atom_site_fract_y
 _atom_site_fract_z
 _atom_site_occupancy
  Fe  Fe0  1  0.87500000  0.62500000  0.25000000  1
  Fe  Fe1  1  0.37500000  0.62500000  0.25000000  1
  Fe  Fe2  1  0.37500000  0.12500000  0.75000000  1
  Fe  Fe3  1  0.37500000  0.62500000  0.75000000  1
  P  P4  1  0.00000000  0.00000000  0.00000000  1
  P  P5  1  0.75000000  0.25000000  0.50000000  1
  O  O6  1  0.25000000  0.75000000  0.50000000  1
  O  O7  1  0.50000000  0.50000000  0.00000000  1
  O  O8  1  0.69482600  0.93246800  0.76235900  1
  O  O9  1  0.06753200  0.82989100  0.76235900  1
  O  O10  1  0.06753200  0.30517400  0.23764100  1
  O  O11  1  0.05517400  0.31753200  0.73764100  1
  O  O12  1  0.17010900  0.93246800  0.23764100  1
  O  O13  1  0.68246800  0.94482600  0.26235900  1
  O  O14  1  0.68246800  0.42010900  0.73764100  1
  O  O15  1  0.57989100  0.31753200  0.26235900  1
