# generated using pymatgen
data_TlCo(CO)4
_symmetry_space_group_name_H-M   'P 1'
_cell_length_a   9.11919700
_cell_length_b   9.11919700
_cell_length_c   9.11919700
_cell_angle_alpha   90.00000000
_cell_angle_beta   90.00000000
_cell_angle_gamma   90.00000000
_symmetry_Int_Tables_number   1
_chemical_formula_structural   TlCo(CO)4
_chemical_formula_sum   'Tl4 Co4 C16 O16'
_cell_volume   758.35017851
_cell_formula_units_Z   4
loop_
 _symmetry_equiv_pos_site_id
 _symmetry_equiv_pos_as_xyz
  1  'x, y, z'
loop_
 _atom_site_type_symbol
 _atom_site_label
 _atom_site_symmetry_multiplicity
 _atom_site_fract_x
 _atom_site_fract_y
 _atom_site_fract_z
 _atom_site_occupancy
  Tl  Tl0  1  0.19007700  0.30992300  0.69007700  1
  Tl  Tl1  1  0.30992300  0.69007700  0.19007700  1
  Tl  Tl2  1  0.80992300  0.80992300  0.80992300  1
  Tl  Tl3  1  0.69007700  0.19007700  0.30992300  1
  Co  Co4  1  0.19789200  0.69789200  0.80210800  1
  Co  Co5  1  0.80210800  0.19789200  0.69789200  1
  Co  Co6  1  0.69789200  0.80210800  0.19789200  1
  Co  Co7  1  0.30210800  0.30210800  0.30210800  1
  C  C8  1  0.81275100  0.38481800  0.65420400  1
  C  C9  1  0.41314600  0.41314600  0.41314600  1
  C  C10  1  0.61518200  0.15420400  0.68724900  1
  C  C11  1  0.84579600  0.18724900  0.88481800  1
  C  C12  1  0.38481800  0.65420400  0.81275100  1
  C  C13  1  0.58685400  0.91314600  0.08685400  1
  C  C14  1  0.65420400  0.81275100  0.38481800  1
  C  C15  1  0.31275100  0.11518200  0.34579600  1
  C  C16  1  0.68724900  0.61518200  0.15420400  1
  C  C17  1  0.88481800  0.84579600  0.18724900  1
  C  C18  1  0.18724900  0.88481800  0.84579600  1
  C  C19  1  0.11518200  0.34579600  0.31275100  1
  C  C20  1  0.91314600  0.08685400  0.58685400  1
  C  C21  1  0.15420400  0.68724900  0.61518200  1
  C  C22  1  0.34579600  0.31275100  0.11518200  1
  C  C23  1  0.08685400  0.58685400  0.91314600  1
  O  O24  1  0.98904900  0.36851800  0.31785800  1
  O  O25  1  0.01095100  0.86851800  0.18214200  1
  O  O26  1  0.48745600  0.48745600  0.48745600  1
  O  O27  1  0.18214200  0.01095100  0.86851800  1
  O  O28  1  0.63148200  0.81785800  0.51095100  1
  O  O29  1  0.68214200  0.48904900  0.13148200  1
  O  O30  1  0.51095100  0.63148200  0.81785800  1
  O  O31  1  0.98745600  0.01254400  0.51254400  1
  O  O32  1  0.81785800  0.51095100  0.63148200  1
  O  O33  1  0.01254400  0.51254400  0.98745600  1
  O  O34  1  0.48904900  0.13148200  0.68214200  1
  O  O35  1  0.31785800  0.98904900  0.36851800  1
  O  O36  1  0.51254400  0.98745600  0.01254400  1
  O  O37  1  0.86851800  0.18214200  0.01095100  1
  O  O38  1  0.13148200  0.68214200  0.48904900  1
  O  O39  1  0.36851800  0.31785800  0.98904900  1
