# generated using pymatgen
data_FeO
_symmetry_space_group_name_H-M   'P 1'
_cell_length_a   4.34659766
_cell_length_b   5.45345042
_cell_length_c   4.34833965
_cell_angle_alpha   113.54092296
_cell_angle_beta   90.05803028
_cell_angle_gamma   66.46831396
_symmetry_Int_Tables_number   1
_chemical_formula_structural   FeO
_chemical_formula_sum   'Fe4 O4'
_cell_volume   85.08305921
_cell_formula_units_Z   4
loop_
 _symmetry_equiv_pos_site_id
 _symmetry_equiv_pos_as_xyz
  1  'x, y, z'
loop_
 _atom_site_type_symbol
 _atom_site_label
 _atom_site_symmetry_multiplicity
 _atom_site_fract_x
 _atom_site_fract_y
 _atom_site_fract_z
 _atom_site_occupancy
  Fe  Fe0  1  0.49999000  0.99995700  0.49994800  1
  Fe  Fe1  1  0.25001800  0.50002200  0.25004200  1
  Fe  Fe2  1  0.00001200  0.00005600  0.00006800  1
  Fe  Fe3  1  0.74997700  0.49996900  0.74994500  1
  O  O4  1  0.50002900  0.00002600  0.99999000  1
  O  O5  1  0.99999300  0.99996800  0.50002500  1
  O  O6  1  0.75000600  0.50003600  0.24997600  1
  O  O7  1  0.24997500  0.49996700  0.75000600  1
