# generated using pymatgen
data_V6O13
_symmetry_space_group_name_H-M   'P 1'
_cell_length_a   6.32380386
_cell_length_b   6.32380399
_cell_length_c   10.26757094
_cell_angle_alpha   79.66238590
_cell_angle_beta   100.33761474
_cell_angle_gamma   145.09179742
_symmetry_Int_Tables_number   1
_chemical_formula_structural   V6O13
_chemical_formula_sum   'V6 O13'
_cell_volume   230.77958229
_cell_formula_units_Z   1
loop_
 _symmetry_equiv_pos_site_id
 _symmetry_equiv_pos_as_xyz
  1  'x, y, z'
loop_
 _atom_site_type_symbol
 _atom_site_label
 _atom_site_symmetry_multiplicity
 _atom_site_fract_x
 _atom_site_fract_y
 _atom_site_fract_z
 _atom_site_occupancy
  V  V0  1  0.34909400  0.65090500  0.99661400  1
  V  V1  1  0.65090600  0.34909500  0.00338600  1
  V  V2  1  0.28515600  0.71484300  0.63374300  1
  V  V3  1  0.41251800  0.58748000  0.36428100  1
  V  V4  1  0.58748200  0.41252000  0.63572000  1
  V  V5  1  0.71484400  0.28515800  0.36625700  1
  O  O6  1  0.11894900  0.88104900  0.61586300  1
  O  O7  1  0.18746400  0.81253700  0.00016600  1
  O  O8  1  0.25310900  0.74689200  0.41042300  1
  O  O9  1  0.32490800  0.67509100  0.80130500  1
  O  O10  1  0.43926500  0.56073500  0.58850200  1
  O  O11  1  0.38779400  0.61220500  0.19820600  1
  O  O12  1  0.61220500  0.38779500  0.80179400  1
  O  O13  1  0.50000100  0.50000100  0.00000000  1
  O  O14  1  0.56073500  0.43926500  0.41149800  1
  O  O15  1  0.88105000  0.11895200  0.38413700  1
  O  O16  1  0.74689000  0.25310800  0.58957700  1
  O  O17  1  0.81253600  0.18746300  0.99983400  1
  O  O18  1  0.67509300  0.32490900  0.19869500  1
