# generated using pymatgen
data_Ca2MnAlO5
_symmetry_space_group_name_H-M   'P 1'
_cell_length_a   5.35092627
_cell_length_b   5.61678950
_cell_length_c   8.37289785
_cell_angle_alpha   109.59584796
_cell_angle_beta   108.63501439
_cell_angle_gamma   90.00000147
_symmetry_Int_Tables_number   1
_chemical_formula_structural   Ca2MnAlO5
_chemical_formula_sum   'Ca4 Mn2 Al2 O10'
_cell_volume   223.01907493
_cell_formula_units_Z   2
loop_
 _symmetry_equiv_pos_site_id
 _symmetry_equiv_pos_as_xyz
  1  'x, y, z'
loop_
 _atom_site_type_symbol
 _atom_site_label
 _atom_site_symmetry_multiplicity
 _atom_site_fract_x
 _atom_site_fract_y
 _atom_site_fract_z
 _atom_site_occupancy
  Ca  Ca0  1  0.12211800  0.64169300  0.22333200  1
  Ca  Ca1  1  0.39874100  0.91835400  0.77666700  1
  Ca  Ca2  1  0.89878600  0.35830700  0.77666800  1
  Ca  Ca3  1  0.62207400  0.08164600  0.22333300  1
  Mn  Mn4  1  0.49899900  0.50000000  0.00000000  1
  Mn  Mn5  1  0.99898200  0.00000000  0.00000000  1
  Al  Al6  1  0.28719300  0.32323500  0.50001100  1
  Al  Al7  1  0.78718200  0.67676500  0.49998900  1
  O  O8  1  0.61963400  0.39539900  0.50000500  1
  O  O9  1  0.11963000  0.60460100  0.49999500  1
  O  O10  1  0.61445800  0.72176000  0.29716600  1
  O  O11  1  0.31729300  0.27824000  0.70283500  1
  O  O12  1  0.11447800  0.07542500  0.29719000  1
  O  O13  1  0.81728700  0.92457500  0.70281000  1
  O  O14  1  0.23627000  0.73923700  0.97087500  1
  O  O15  1  0.26539600  0.26076300  0.02912500  1
  O  O16  1  0.76542600  0.26839200  0.02917400  1
  O  O17  1  0.73625300  0.73160800  0.97082600  1
