# generated using pymatgen
data_VFeO4
_symmetry_space_group_name_H-M   'P 1'
_cell_length_a   5.08200341
_cell_length_b   5.08200383
_cell_length_c   6.26695300
_cell_angle_alpha   89.99653514
_cell_angle_beta   90.00346986
_cell_angle_gamma   112.09731662
_symmetry_Int_Tables_number   1
_chemical_formula_structural   VFeO4
_chemical_formula_sum   'V2 Fe2 O8'
_cell_volume   149.96623189
_cell_formula_units_Z   2
loop_
 _symmetry_equiv_pos_site_id
 _symmetry_equiv_pos_as_xyz
  1  'x, y, z'
loop_
 _atom_site_type_symbol
 _atom_site_label
 _atom_site_symmetry_multiplicity
 _atom_site_fract_x
 _atom_site_fract_y
 _atom_site_fract_z
 _atom_site_occupancy
  V  V0  1  0.64444000  0.35556000  0.25000900  1
  V  V1  1  0.35556400  0.64443700  0.74999100  1
  Fe  Fe2  1  0.00000500  0.99999900  0.99999900  1
  Fe  Fe3  1  0.99999900  0.99999700  0.50000300  1
  O  O4  1  0.74025500  0.78915300  0.74999900  1
  O  O5  1  0.25974300  0.21084900  0.25000100  1
  O  O6  1  0.78915300  0.74025800  0.25000100  1
  O  O7  1  0.21084700  0.25974600  0.74999900  1
  O  O8  1  0.23552900  0.76447200  0.96620500  1
  O  O9  1  0.76446900  0.23553100  0.46619800  1
  O  O10  1  0.23553000  0.76447200  0.53380200  1
  O  O11  1  0.76447000  0.23553000  0.03379500  1
