# generated using pymatgen
data_Sr3Cr2O8
_symmetry_space_group_name_H-M   'P 1'
_cell_length_a   7.51258014
_cell_length_b   7.53655525
_cell_length_c   7.51960281
_cell_angle_alpha   44.25770149
_cell_angle_beta   43.98139562
_cell_angle_gamma   44.28168682
_symmetry_Int_Tables_number   1
_chemical_formula_structural   Sr3Cr2O8
_chemical_formula_sum   'Sr3 Cr2 O8'
_cell_volume   187.83481255
_cell_formula_units_Z   1
loop_
 _symmetry_equiv_pos_site_id
 _symmetry_equiv_pos_as_xyz
  1  'x, y, z'
loop_
 _atom_site_type_symbol
 _atom_site_label
 _atom_site_symmetry_multiplicity
 _atom_site_fract_x
 _atom_site_fract_y
 _atom_site_fract_z
 _atom_site_occupancy
  Sr  Sr0  1  0.79558900  0.79888600  0.79680600  1
  Sr  Sr1  1  0.20436300  0.20112100  0.20323700  1
  Sr  Sr2  1  0.99984200  0.99996200  0.00020400  1
  Cr  Cr3  1  0.59359500  0.59476900  0.59390900  1
  Cr  Cr4  1  0.40628100  0.40525600  0.40618900  1
  O  O5  1  0.27368200  0.26361400  0.76758700  1
  O  O6  1  0.26951700  0.76558200  0.26737100  1
  O  O7  1  0.76803700  0.26489500  0.27227900  1
  O  O8  1  0.23192300  0.73492100  0.72778000  1
  O  O9  1  0.72629200  0.73651400  0.23245200  1
  O  O10  1  0.31670400  0.33075000  0.31903800  1
  O  O11  1  0.68388400  0.66932900  0.68031400  1
  O  O12  1  0.73029300  0.23440000  0.73283300  1
