# generated using pymatgen
data_Na4FeO3
_symmetry_space_group_name_H-M   'P 1'
_cell_length_a   6.23089062
_cell_length_b   6.23089062
_cell_length_c   8.35257610
_cell_angle_alpha   68.77606864
_cell_angle_beta   68.77606864
_cell_angle_gamma   55.85570450
_symmetry_Int_Tables_number   1
_chemical_formula_structural   Na4FeO3
_chemical_formula_sum   'Na8 Fe2 O6'
_cell_volume   244.82064128
_cell_formula_units_Z   2
loop_
 _symmetry_equiv_pos_site_id
 _symmetry_equiv_pos_as_xyz
  1  'x, y, z'
loop_
 _atom_site_type_symbol
 _atom_site_label
 _atom_site_symmetry_multiplicity
 _atom_site_fract_x
 _atom_site_fract_y
 _atom_site_fract_z
 _atom_site_occupancy
  Na  Na0  1  0.72407000  0.05513200  0.94808800  1
  Na  Na1  1  0.27146200  0.95334300  0.03381700  1
  Na  Na2  1  0.45231800  0.13487800  0.62952600  1
  Na  Na3  1  0.89845200  0.48782400  0.85003100  1
  Na  Na4  1  0.48782400  0.89845200  0.35003100  1
  Na  Na5  1  0.13487800  0.45231800  0.12952600  1
  Na  Na6  1  0.95334300  0.27146200  0.53381700  1
  Na  Na7  1  0.05513200  0.72407000  0.44808800  1
  Fe  Fe8  1  0.37201200  0.66816200  0.74511000  1
  Fe  Fe9  1  0.66816200  0.37201200  0.24511000  1
  O  O10  1  0.12008600  0.00719900  0.79309900  1
  O  O11  1  0.68448200  0.68237900  0.61034300  1
  O  O12  1  0.68237900  0.68448200  0.11034300  1
  O  O13  1  0.00719900  0.12008600  0.29309900  1
  O  O14  1  0.36332800  0.34127100  0.34108600  1
  O  O15  1  0.34127100  0.36332800  0.84108600  1
