# generated using pymatgen
data_Ca3Mn2O7
_symmetry_space_group_name_H-M   'P 1'
_cell_length_a   10.04668432
_cell_length_b   10.04668432
_cell_length_c   10.04668432
_cell_angle_alpha   158.27827407
_cell_angle_beta   158.27827407
_cell_angle_gamma   30.90895835
_symmetry_Int_Tables_number   1
_chemical_formula_structural   Ca3Mn2O7
_chemical_formula_sum   'Ca3 Mn2 O7'
_cell_volume   138.80648703
_cell_formula_units_Z   1
loop_
 _symmetry_equiv_pos_site_id
 _symmetry_equiv_pos_as_xyz
  1  'x, y, z'
loop_
 _atom_site_type_symbol
 _atom_site_label
 _atom_site_symmetry_multiplicity
 _atom_site_fract_x
 _atom_site_fract_y
 _atom_site_fract_z
 _atom_site_occupancy
  Ca  Ca0  1  0.50000000  0.50000000  0.00000000  1
  Ca  Ca1  1  0.68373800  0.68373800  0.00000000  1
  Ca  Ca2  1  0.31626200  0.31626200  0.00000000  1
  Mn  Mn3  1  0.89988700  0.89988700  0.00000000  1
  Mn  Mn4  1  0.10011300  0.10011300  0.00000000  1
  O  O5  1  0.00000000  0.00000000  0.00000000  1
  O  O6  1  0.80191100  0.80191100  0.00000000  1
  O  O7  1  0.19808900  0.19808900  0.00000000  1
  O  O8  1  0.90217800  0.40217800  0.50000000  1
  O  O9  1  0.40217800  0.90217800  0.50000000  1
  O  O10  1  0.09782200  0.59782200  0.50000000  1
  O  O11  1  0.59782200  0.09782200  0.50000000  1
