# generated using pymatgen
data_Na2FeO4
_symmetry_space_group_name_H-M   'P 1'
_cell_length_a   5.52357501
_cell_length_b   5.52357469
_cell_length_c   7.22498100
_cell_angle_alpha   90.00000000
_cell_angle_beta   90.00000000
_cell_angle_gamma   115.56100111
_symmetry_Int_Tables_number   1
_chemical_formula_structural   Na2FeO4
_chemical_formula_sum   'Na4 Fe2 O8'
_cell_volume   198.85870091
_cell_formula_units_Z   2
loop_
 _symmetry_equiv_pos_site_id
 _symmetry_equiv_pos_as_xyz
  1  'x, y, z'
loop_
 _atom_site_type_symbol
 _atom_site_label
 _atom_site_symmetry_multiplicity
 _atom_site_fract_x
 _atom_site_fract_y
 _atom_site_fract_z
 _atom_site_occupancy
  Na  Na0  1  0.50000000  0.50000000  0.00000000  1
  Na  Na1  1  0.50000000  0.50000000  0.50000000  1
  Na  Na2  1  0.81854400  0.18145600  0.25000000  1
  Na  Na3  1  0.18145600  0.81854400  0.75000000  1
  Fe  Fe4  1  0.85288100  0.14711900  0.75000000  1
  Fe  Fe5  1  0.14711900  0.85288100  0.25000000  1
  O  O6  1  0.75016600  0.24983400  0.93588700  1
  O  O7  1  0.24983400  0.75016600  0.43588700  1
  O  O8  1  0.24983400  0.75016600  0.06411300  1
  O  O9  1  0.75016600  0.24983400  0.56411300  1
  O  O10  1  0.18807600  0.27269500  0.75000000  1
  O  O11  1  0.81192400  0.72730500  0.25000000  1
  O  O12  1  0.72730500  0.81192400  0.75000000  1
  O  O13  1  0.27269500  0.18807600  0.25000000  1
