# generated using pymatgen
data_FePO4
_symmetry_space_group_name_H-M   'P 1'
_cell_length_a   5.20019304
_cell_length_b   5.20019304
_cell_length_c   11.54867400
_cell_angle_alpha   90.00000000
_cell_angle_beta   90.00000000
_cell_angle_gamma   119.99998779
_symmetry_Int_Tables_number   1
_chemical_formula_structural   FePO4
_chemical_formula_sum   'Fe3 P3 O12'
_cell_volume   270.45918725
_cell_formula_units_Z   3
loop_
 _symmetry_equiv_pos_site_id
 _symmetry_equiv_pos_as_xyz
  1  'x, y, z'
loop_
 _atom_site_type_symbol
 _atom_site_label
 _atom_site_symmetry_multiplicity
 _atom_site_fract_x
 _atom_site_fract_y
 _atom_site_fract_z
 _atom_site_occupancy
  Fe  Fe0  1  0.53398200  0.53398200  0.00000000  1
  Fe  Fe1  1  0.00000000  0.46601800  0.66666700  1
  Fe  Fe2  1  0.46601800  0.00000000  0.33333300  1
  P  P3  1  0.53397500  0.53397500  0.50000000  1
  P  P4  1  0.00000000  0.46602500  0.16666700  1
  P  P5  1  0.46602500  0.00000000  0.83333300  1
  O  O6  1  0.25046900  0.41660300  0.11995600  1
  O  O7  1  0.58339700  0.83386700  0.45329000  1
  O  O8  1  0.16613300  0.74953100  0.78662300  1
  O  O9  1  0.83386700  0.58339700  0.54671000  1
  O  O10  1  0.74953100  0.16613300  0.21337700  1
  O  O11  1  0.41660300  0.25046900  0.88004400  1
  O  O12  1  0.41910500  0.30329800  0.40081400  1
  O  O13  1  0.69670200  0.11580700  0.73414700  1
  O  O14  1  0.88419300  0.58089500  0.06748000  1
  O  O15  1  0.11580700  0.69670200  0.26585300  1
  O  O16  1  0.58089500  0.88419300  0.93252000  1
  O  O17  1  0.30329800  0.41910500  0.59918600  1
