# generated using pymatgen
data_Pr5Ge4
_symmetry_space_group_name_H-M   'P 1'
_cell_length_a   8.01725100
_cell_length_b   8.11065600
_cell_length_c   15.35813500
_cell_angle_alpha   90.00000000
_cell_angle_beta   90.00000000
_cell_angle_gamma   90.00000000
_symmetry_Int_Tables_number   1
_chemical_formula_structural   Pr5Ge4
_chemical_formula_sum   'Pr20 Ge16'
_cell_volume   998.66526134
_cell_formula_units_Z   4
loop_
 _symmetry_equiv_pos_site_id
 _symmetry_equiv_pos_as_xyz
  1  'x, y, z'
loop_
 _atom_site_type_symbol
 _atom_site_label
 _atom_site_symmetry_multiplicity
 _atom_site_fract_x
 _atom_site_fract_y
 _atom_site_fract_z
 _atom_site_occupancy
  Pr  Pr0  1  0.38029800  0.16005800  0.11433100  1
  Pr  Pr1  1  0.88029800  0.33994200  0.38566900  1
  Pr  Pr2  1  0.11970200  0.66005800  0.88566900  1
  Pr  Pr3  1  0.61970200  0.83994200  0.61433100  1
  Pr  Pr4  1  0.38029800  0.16005800  0.38566900  1
  Pr  Pr5  1  0.88029800  0.33994200  0.11433100  1
  Pr  Pr6  1  0.11970200  0.66005800  0.61433100  1
  Pr  Pr7  1  0.61970200  0.83994200  0.88566900  1
  Pr  Pr8  1  0.02464700  0.82099800  0.39723300  1
  Pr  Pr9  1  0.52464700  0.67900200  0.10276700  1
  Pr  Pr10  1  0.47535300  0.32099800  0.60276700  1
  Pr  Pr11  1  0.97535300  0.17900200  0.89723300  1
  Pr  Pr12  1  0.97535300  0.17900200  0.60276700  1
  Pr  Pr13  1  0.47535300  0.32099800  0.89723300  1
  Pr  Pr14  1  0.52464700  0.67900200  0.39723300  1
  Pr  Pr15  1  0.02464700  0.82099800  0.10276700  1
  Pr  Pr16  1  0.28505800  0.99725200  0.75000000  1
  Pr  Pr17  1  0.78505800  0.50274800  0.75000000  1
  Pr  Pr18  1  0.21494200  0.49725200  0.25000000  1
  Pr  Pr19  1  0.71494200  0.00274800  0.25000000  1
  Ge  Ge20  1  0.77757400  0.53193500  0.54504200  1
  Ge  Ge21  1  0.27757400  0.96806500  0.95495800  1
  Ge  Ge22  1  0.72242600  0.03193500  0.45495800  1
  Ge  Ge23  1  0.22242600  0.46806500  0.04504200  1
  Ge  Ge24  1  0.22242600  0.46806500  0.45495800  1
  Ge  Ge25  1  0.72242600  0.03193500  0.04504200  1
  Ge  Ge26  1  0.27757400  0.96806500  0.54504200  1
  Ge  Ge27  1  0.77757400  0.53193500  0.95495800  1
  Ge  Ge28  1  0.91044700  0.89139200  0.75000000  1
  Ge  Ge29  1  0.41044700  0.60860800  0.75000000  1
  Ge  Ge30  1  0.58955300  0.39139200  0.25000000  1
  Ge  Ge31  1  0.08955300  0.10860800  0.25000000  1
  Ge  Ge32  1  0.17532400  0.36767600  0.75000000  1
  Ge  Ge33  1  0.67532400  0.13232400  0.75000000  1
  Ge  Ge34  1  0.32467600  0.86767600  0.25000000  1
  Ge  Ge35  1  0.82467600  0.63232400  0.25000000  1
