# generated using pymatgen
data_Ca2MnO4
_symmetry_space_group_name_H-M   'P 1'
_cell_length_a   5.25115100
_cell_length_b   5.25117900
_cell_length_c   12.75596970
_cell_angle_alpha   78.11736939
_cell_angle_beta   78.11734048
_cell_angle_gamma   89.99893063
_symmetry_Int_Tables_number   1
_chemical_formula_structural   Ca2MnO4
_chemical_formula_sum   'Ca8 Mn4 O16'
_cell_volume   336.49927427
_cell_formula_units_Z   4
loop_
 _symmetry_equiv_pos_site_id
 _symmetry_equiv_pos_as_xyz
  1  'x, y, z'
loop_
 _atom_site_type_symbol
 _atom_site_label
 _atom_site_symmetry_multiplicity
 _atom_site_fract_x
 _atom_site_fract_y
 _atom_site_fract_z
 _atom_site_occupancy
  Ca  Ca0  1  0.44954100  0.69943400  0.10102300  1
  Ca  Ca1  1  0.30060500  0.55048700  0.39897600  1
  Ca  Ca2  1  0.80048300  0.05047900  0.39897600  1
  Ca  Ca3  1  0.94942100  0.19943800  0.10102500  1
  Ca  Ca4  1  0.19943900  0.94954300  0.60102800  1
  Ca  Ca5  1  0.05050300  0.80062200  0.89897400  1
  Ca  Ca6  1  0.55055800  0.30055800  0.89897200  1
  Ca  Ca7  1  0.69952400  0.44951600  0.60102800  1
  Mn  Mn8  1  0.12509300  0.37497800  0.75000000  1
  Mn  Mn9  1  0.87515700  0.62475600  0.24999100  1
  Mn  Mn10  1  0.62486700  0.87504300  0.75000100  1
  Mn  Mn11  1  0.37478600  0.12486300  0.25000300  1
  O  O12  1  0.54402500  0.79419800  0.91165000  1
  O  O13  1  0.20591000  0.45605500  0.58836000  1
  O  O14  1  0.70586100  0.95598100  0.58835300  1
  O  O15  1  0.04414100  0.29423600  0.91164400  1
  O  O16  1  0.29403500  0.04406000  0.41164900  1
  O  O17  1  0.95595100  0.70585300  0.08835000  1
  O  O18  1  0.45587000  0.20581300  0.08834900  1
  O  O19  1  0.79417100  0.54399700  0.41164800  1
  O  O20  1  0.07716400  0.32706900  0.24997700  1
  O  O21  1  0.67285100  0.92273900  0.25002300  1
  O  O22  1  0.57720200  0.42271100  0.24999500  1
  O  O23  1  0.17285300  0.82702100  0.25000400  1
  O  O24  1  0.42282400  0.57729700  0.74999800  1
  O  O25  1  0.82718800  0.17296700  0.75000200  1
  O  O26  1  0.92281500  0.67295200  0.75002200  1
  O  O27  1  0.32716300  0.07733400  0.74998000  1
