# generated using pymatgen
data_LiV2O5
_symmetry_space_group_name_H-M   'P 1'
_cell_length_a   3.66346400
_cell_length_b   5.34257745
_cell_length_c   11.43070200
_cell_angle_alpha   90.00000000
_cell_angle_beta   90.00000000
_cell_angle_gamma   110.05094164
_symmetry_Int_Tables_number   1
_chemical_formula_structural   LiV2O5
_chemical_formula_sum   'Li2 V4 O10'
_cell_volume   210.16516821
_cell_formula_units_Z   2
loop_
 _symmetry_equiv_pos_site_id
 _symmetry_equiv_pos_as_xyz
  1  'x, y, z'
loop_
 _atom_site_type_symbol
 _atom_site_label
 _atom_site_symmetry_multiplicity
 _atom_site_fract_x
 _atom_site_fract_y
 _atom_site_fract_z
 _atom_site_occupancy
  Li  Li0  1  0.90119000  0.80237800  0.75000000  1
  Li  Li1  1  0.09881000  0.19762000  0.25000000  1
  V  V2  1  0.20580300  0.41160700  0.60161300  1
  V  V3  1  0.20580300  0.41160700  0.89838700  1
  V  V4  1  0.79419800  0.58839400  0.10161300  1
  V  V5  1  0.79419800  0.58839400  0.39838700  1
  O  O6  1  0.95478700  0.90957200  0.12634900  1
  O  O7  1  0.71498400  0.42996700  0.25000000  1
  O  O8  1  0.28501600  0.57003100  0.75000000  1
  O  O9  1  0.23989400  0.47978800  0.07098500  1
  O  O10  1  0.04521400  0.09042900  0.62634900  1
  O  O11  1  0.95478700  0.90957200  0.37365200  1
  O  O12  1  0.76010700  0.52021300  0.92901500  1
  O  O13  1  0.76010700  0.52021300  0.57098500  1
  O  O14  1  0.23989400  0.47978800  0.42901500  1
  O  O15  1  0.04521400  0.09042900  0.87365100  1
