# generated using pymatgen
data_UMnO4
_symmetry_space_group_name_H-M   'P 1'
_cell_length_a   5.94870239
_cell_length_b   5.94870217
_cell_length_c   5.94870207
_cell_angle_alpha   107.85227487
_cell_angle_beta   109.63052164
_cell_angle_gamma   110.94568828
_symmetry_Int_Tables_number   1
_chemical_formula_structural   UMnO4
_chemical_formula_sum   'U2 Mn2 O8'
_cell_volume   161.92972490
_cell_formula_units_Z   2
loop_
 _symmetry_equiv_pos_site_id
 _symmetry_equiv_pos_as_xyz
  1  'x, y, z'
loop_
 _atom_site_type_symbol
 _atom_site_label
 _atom_site_symmetry_multiplicity
 _atom_site_fract_x
 _atom_site_fract_y
 _atom_site_fract_z
 _atom_site_occupancy
  U  U0  1  0.01744400  0.25000100  0.26744400  1
  U  U1  1  0.98255500  0.75000000  0.73255500  1
  Mn  Mn2  1  0.50000000  0.00000000  0.49999900  1
  Mn  Mn3  1  0.50000000  0.50000100  0.00000000  1
  O  O4  1  0.81323600  0.48616300  0.29939700  1
  O  O5  1  0.18676500  0.51383700  0.70060300  1
  O  O6  1  0.81323600  0.01383800  0.82707300  1
  O  O7  1  0.18676600  0.98616300  0.17292800  1
  O  O8  1  0.31278500  0.54336100  0.26942400  1
  O  O9  1  0.27393700  0.04336000  0.73057700  1
  O  O10  1  0.68721600  0.45663900  0.73057600  1
  O  O11  1  0.72606400  0.95664000  0.26942500  1
