# generated using pymatgen
data_W3O8
_symmetry_space_group_name_H-M   'P 1'
_cell_length_a   6.25335405
_cell_length_b   6.25335405
_cell_length_c   3.85849400
_cell_angle_alpha   90.00000000
_cell_angle_beta   90.00000000
_cell_angle_gamma   117.36362267
_symmetry_Int_Tables_number   1
_chemical_formula_structural   W3O8
_chemical_formula_sum   'W3 O8'
_cell_volume   134.00140410
_cell_formula_units_Z   1
loop_
 _symmetry_equiv_pos_site_id
 _symmetry_equiv_pos_as_xyz
  1  'x, y, z'
loop_
 _atom_site_type_symbol
 _atom_site_label
 _atom_site_symmetry_multiplicity
 _atom_site_fract_x
 _atom_site_fract_y
 _atom_site_fract_z
 _atom_site_occupancy
  W  W0  1  0.31581600  0.68418400  0.50000000  1
  W  W1  1  0.68418400  0.31581600  0.50000000  1
  W  W2  1  0.00000000  0.00000000  0.50000000  1
  O  O3  1  0.31091100  0.68908900  0.00000000  1
  O  O4  1  0.68908900  0.31091100  0.00000000  1
  O  O5  1  0.50000000  0.50000000  0.50000000  1
  O  O6  1  0.00000000  0.00000000  0.00000000  1
  O  O7  1  0.96599700  0.66310700  0.50000000  1
  O  O8  1  0.33689300  0.03400300  0.50000000  1
  O  O9  1  0.03400300  0.33689300  0.50000000  1
  O  O10  1  0.66310700  0.96599700  0.50000000  1
