# generated using pymatgen
data_K2SrNi(NO2)6
_symmetry_space_group_name_H-M   'P 1'
_cell_length_a   7.57463692
_cell_length_b   7.57460789
_cell_length_c   25.12154597
_cell_angle_alpha   98.66900702
_cell_angle_beta   90.00003727
_cell_angle_gamma   120.00017724
_symmetry_Int_Tables_number   1
_chemical_formula_structural   K2SrNi(NO2)6
_chemical_formula_sum   'K8 Sr4 Ni4 N24 O48'
_cell_volume   1229.18944752
_cell_formula_units_Z   4
loop_
 _symmetry_equiv_pos_site_id
 _symmetry_equiv_pos_as_xyz
  1  'x, y, z'
loop_
 _atom_site_type_symbol
 _atom_site_label
 _atom_site_symmetry_multiplicity
 _atom_site_fract_x
 _atom_site_fract_y
 _atom_site_fract_z
 _atom_site_occupancy
  K  K0  1  0.31249100  0.62498200  0.93747400  1
  K  K1  1  0.56249600  0.12499100  0.68749100  1
  K  K2  1  0.06250500  0.12500900  0.18751200  1
  K  K3  1  0.81250900  0.62501700  0.43752300  1
  K  K4  1  0.93749000  0.87498000  0.81247400  1
  K  K5  1  0.18750100  0.37500300  0.56250400  1
  K  K6  1  0.68749900  0.37499800  0.06249900  1
  K  K7  1  0.43750800  0.87501700  0.31252500  1
  Sr  Sr8  1  0.62498700  0.24997400  0.87496300  1
  Sr  Sr9  1  0.87500000  0.74999800  0.62499700  1
  Sr  Sr10  1  0.37500300  0.75000200  0.12500400  1
  Sr  Sr11  1  0.12501300  0.25002300  0.37503500  1
  Ni  Ni12  1  0.24989800  0.49990800  0.74992100  1
  Ni  Ni13  1  0.50008500  0.00010000  0.50010500  1
  Ni  Ni14  1  0.99993700  0.99994100  0.99991200  1
  Ni  Ni15  1  0.75006200  0.50009600  0.25008200  1
  N  N16  1  0.00169000  0.40065800  0.79966300  1
  N  N17  1  0.25170900  0.90069700  0.54964700  1
  N  N18  1  0.75168500  0.90066300  0.04967100  1
  N  N19  1  0.50168100  0.40067900  0.29966200  1
  N  N20  1  0.85100100  0.70201400  0.95033900  1
  N  N21  1  0.10100500  0.20201400  0.70033300  1
  N  N22  1  0.60102300  0.20205200  0.20034500  1
  N  N23  1  0.35104300  0.70204300  0.45033400  1
  N  N24  1  0.85100900  0.09933700  0.95034000  1
  N  N25  1  0.10100600  0.59932300  0.70033500  1
  N  N26  1  0.60102900  0.59932000  0.20034500  1
  N  N27  1  0.35099900  0.09929000  0.45033400  1
  N  N28  1  0.39900300  0.40070000  0.79966300  1
  N  N29  1  0.64895500  0.90066200  0.54964700  1
  N  N30  1  0.14900800  0.90069900  0.04967100  1
  N  N31  1  0.89898800  0.40066900  0.29966200  1
  N  N32  1  0.39896400  0.79796600  0.79966400  1
  N  N33  1  0.64899200  0.29794300  0.54964900  1
  N  N34  1  0.14897700  0.29798600  0.04967200  1
  N  N35  1  0.89899700  0.79798200  0.29966300  1
  N  N36  1  0.24832700  0.09932600  0.95034100  1
  N  N37  1  0.49831500  0.59932400  0.70033500  1
  N  N38  1  0.99829700  0.59931800  0.20034600  1
  N  N39  1  0.74829800  0.09933500  0.45033500  1
  O  O40  1  0.52062100  0.52055600  0.84021400  1
  O  O41  1  0.77060100  0.02055400  0.59019400  1
  O  O42  1  0.27064200  0.02056600  0.09022300  1
  O  O43  1  0.02063800  0.52057000  0.34021000  1
  O  O44  1  0.88012200  0.28091300  0.96004800  1
  O  O45  1  0.13011700  0.78090400  0.71004200  1
  O  O46  1  0.63011500  0.78090700  0.21004200  1
  O  O47  1  0.38009600  0.28088900  0.46002500  1
  O  O48  1  0.57087600  0.94076400  0.78996900  1
  O  O49  1  0.82085300  0.44070700  0.53993900  1
  O  O50  1  0.32088500  0.44078200  0.03997600  1
  O  O51  1  0.07086800  0.94074500  0.28995700  1
  O  O52  1  0.31966600  0.84028700  0.84021600  1
  O  O53  1  0.56964400  0.34024600  0.59019400  1
  O  O54  1  0.06966300  0.34030500  0.09022400  1
  O  O55  1  0.81964700  0.84028600  0.34021000  1
  O  O56  1  0.72936300  0.97943300  0.90979100  1
  O  O57  1  0.97937400  0.47944400  0.65978500  1
  O  O58  1  0.47938400  0.47943600  0.15979800  1
  O  O59  1  0.22938200  0.97943700  0.40978400  1
  O  O60  1  0.40080200  0.07993500  0.96004900  1
  O  O61  1  0.65080000  0.57993700  0.71004200  1
  O  O62  1  0.15080400  0.57993800  0.21004200  1
  O  O63  1  0.90080300  0.07993600  0.46002600  1
  O  O64  1  0.36989900  0.21909900  0.78996800  1
  O  O65  1  0.61986300  0.71909500  0.53993900  1
  O  O66  1  0.11990700  0.71910000  0.03997500  1
  O  O67  1  0.86988600  0.21909600  0.28995700  1
  O  O68  1  0.99993700  0.31959100  0.84021400  1
  O  O69  1  0.24995200  0.81958600  0.59019400  1
  O  O70  1  0.74992700  0.81957800  0.09022200  1
  O  O71  1  0.49993100  0.31956700  0.34020900  1
  O  O72  1  0.84919100  0.42006200  0.78996800  1
  O  O73  1  0.09922000  0.92006400  0.53993900  1
  O  O74  1  0.59918200  0.92005900  0.03997500  1
  O  O75  1  0.34919900  0.42006100  0.28995700  1
  O  O76  1  0.25007500  0.18043100  0.90979200  1
  O  O77  1  0.50007400  0.68041600  0.65978500  1
  O  O78  1  0.00005500  0.68041800  0.15979800  1
  O  O79  1  0.75005800  0.18040300  0.40978400  1
  O  O80  1  0.67912900  0.55925700  0.96004800  1
  O  O81  1  0.92913000  0.05925200  0.71004200  1
  O  O82  1  0.42912700  0.05924900  0.21004100  1
  O  O83  1  0.17912900  0.55923400  0.46002500  1
  O  O84  1  0.93035000  0.65970900  0.90979000  1
  O  O85  1  0.18033600  0.15970600  0.65978500  1
  O  O86  1  0.68035400  0.15973200  0.15979600  1
  O  O87  1  0.43033900  0.65971700  0.40978300  1
