# generated using pymatgen
data_Sr2FeO3F
_symmetry_space_group_name_H-M   'P 1'
_cell_length_a   5.55761300
_cell_length_b   5.55761300
_cell_length_c   26.48225200
_cell_angle_alpha   90.00000000
_cell_angle_beta   90.00000000
_cell_angle_gamma   90.00000000
_symmetry_Int_Tables_number   1
_chemical_formula_structural   Sr2FeO3F
_chemical_formula_sum   'Sr16 Fe8 O24 F8'
_cell_volume   817.95896625
_cell_formula_units_Z   8
loop_
 _symmetry_equiv_pos_site_id
 _symmetry_equiv_pos_as_xyz
  1  'x, y, z'
loop_
 _atom_site_type_symbol
 _atom_site_label
 _atom_site_symmetry_multiplicity
 _atom_site_fract_x
 _atom_site_fract_y
 _atom_site_fract_z
 _atom_site_occupancy
  Sr  Sr0  1  0.75000100  0.25000100  0.55218200  1
  Sr  Sr1  1  0.25000100  0.75000100  0.55218200  1
  Sr  Sr2  1  0.75000100  0.25000100  0.05218200  1
  Sr  Sr3  1  0.75000100  0.75000100  0.44781800  1
  Sr  Sr4  1  0.25000100  0.25000100  0.44781800  1
  Sr  Sr5  1  0.25000100  0.25000100  0.94781800  1
  Sr  Sr6  1  0.75000100  0.75000100  0.94781800  1
  Sr  Sr7  1  0.25000100  0.75000100  0.05218200  1
  Sr  Sr8  1  0.25000100  0.75000100  0.18807400  1
  Sr  Sr9  1  0.75000100  0.75000100  0.81192700  1
  Sr  Sr10  1  0.25000100  0.25000100  0.81192700  1
  Sr  Sr11  1  0.25000100  0.25000100  0.31192600  1
  Sr  Sr12  1  0.75000100  0.75000100  0.31192600  1
  Sr  Sr13  1  0.75000100  0.25000100  0.18807400  1
  Sr  Sr14  1  0.25000100  0.75000100  0.68807300  1
  Sr  Sr15  1  0.75000100  0.25000100  0.68807300  1
  Fe  Fe16  1  0.25000100  0.25000100  0.61396500  1
  Fe  Fe17  1  0.75000100  0.75000100  0.61396500  1
  Fe  Fe18  1  0.75000100  0.75000100  0.11396500  1
  Fe  Fe19  1  0.75000100  0.25000100  0.38603500  1
  Fe  Fe20  1  0.25000100  0.75000100  0.38603500  1
  Fe  Fe21  1  0.75000100  0.25000100  0.88603500  1
  Fe  Fe22  1  0.25000100  0.75000100  0.88603500  1
  Fe  Fe23  1  0.25000100  0.25000100  0.11396500  1
  O  O24  1  0.00000000  0.50000000  0.62690200  1
  O  O25  1  0.50000000  0.00000000  0.37309900  1
  O  O26  1  0.00000000  0.50000000  0.87309800  1
  O  O27  1  0.50000000  0.00000000  0.12690100  1
  O  O28  1  0.50000000  0.00000000  0.62690200  1
  O  O29  1  0.00000000  0.50000000  0.37309900  1
  O  O30  1  0.50000000  0.00000000  0.87309800  1
  O  O31  1  0.00000000  0.50000000  0.12690100  1
  O  O32  1  0.50000000  0.50000000  0.62690200  1
  O  O33  1  0.50000000  0.50000000  0.37309900  1
  O  O34  1  0.50000000  0.50000000  0.87309800  1
  O  O35  1  0.50000000  0.50000000  0.12690100  1
  O  O36  1  0.00000000  0.00000000  0.62690200  1
  O  O37  1  0.00000000  0.00000000  0.37309900  1
  O  O38  1  0.00000000  0.00000000  0.87309800  1
  O  O39  1  0.00000000  0.00000000  0.12690100  1
  O  O40  1  0.25000100  0.25000100  0.54107200  1
  O  O41  1  0.75000100  0.75000100  0.54107200  1
  O  O42  1  0.75000100  0.75000100  0.04107200  1
  O  O43  1  0.25000100  0.25000100  0.04107200  1
  O  O44  1  0.25000100  0.75000100  0.45892800  1
  O  O45  1  0.75000100  0.25000100  0.95892800  1
  O  O46  1  0.25000100  0.75000100  0.95892800  1
  O  O47  1  0.75000100  0.25000100  0.45892800  1
  F  F48  1  0.25000100  0.25000100  0.71732800  1
  F  F49  1  0.75000100  0.75000100  0.71732800  1
  F  F50  1  0.75000100  0.75000100  0.21732800  1
  F  F51  1  0.75000100  0.25000100  0.28267200  1
  F  F52  1  0.25000100  0.75000100  0.28267200  1
  F  F53  1  0.75000100  0.25000100  0.78267200  1
  F  F54  1  0.25000100  0.75000100  0.78267200  1
  F  F55  1  0.25000100  0.25000100  0.21732800  1
