# generated using pymatgen
data_Ti2CrO5
_symmetry_space_group_name_H-M   'P 1'
_cell_length_a   5.20013300
_cell_length_b   10.30967975
_cell_length_c   7.06797688
_cell_angle_alpha   109.20859023
_cell_angle_beta   89.99997188
_cell_angle_gamma   89.99990205
_symmetry_Int_Tables_number   1
_chemical_formula_structural   Ti2CrO5
_chemical_formula_sum   'Ti8 Cr4 O20'
_cell_volume   357.83035427
_cell_formula_units_Z   4
loop_
 _symmetry_equiv_pos_site_id
 _symmetry_equiv_pos_as_xyz
  1  'x, y, z'
loop_
 _atom_site_type_symbol
 _atom_site_label
 _atom_site_symmetry_multiplicity
 _atom_site_fract_x
 _atom_site_fract_y
 _atom_site_fract_z
 _atom_site_occupancy
  Ti  Ti0  1  0.48303400  0.13426700  0.22042900  1
  Ti  Ti1  1  0.98303400  0.63427000  0.22043100  1
  Ti  Ti2  1  0.98303300  0.36573100  0.27957100  1
  Ti  Ti3  1  0.48303200  0.86573400  0.27957200  1
  Ti  Ti4  1  0.51696700  0.13426600  0.72043100  1
  Ti  Ti5  1  0.01696700  0.63427000  0.72043100  1
  Ti  Ti6  1  0.01696600  0.36572900  0.77957000  1
  Ti  Ti7  1  0.51696800  0.86573500  0.77957200  1
  Cr  Cr8  1  0.49997600  0.50000200  0.99999700  1
  Cr  Cr9  1  0.50002200  0.49999100  0.49999500  1
  Cr  Cr10  1  0.00002000  0.99999800  0.99999800  1
  Cr  Cr11  1  0.99998900  0.00000300  0.49998600  1
  O  O12  1  0.79211300  0.00000200  0.75000100  1
  O  O13  1  0.29211700  0.50000100  0.74999800  1
  O  O14  1  0.20789100  0.99999800  0.25000000  1
  O  O15  1  0.70788200  0.49999900  0.25000200  1
  O  O16  1  0.85438700  0.41664300  0.55700400  1
  O  O17  1  0.35437800  0.91665000  0.55700600  1
  O  O18  1  0.35437600  0.08335100  0.94299700  1
  O  O19  1  0.85437900  0.58335500  0.94299900  1
  O  O20  1  0.64561600  0.08335300  0.44299400  1
  O  O21  1  0.14561700  0.58335500  0.44299900  1
  O  O22  1  0.14561500  0.41664600  0.05700400  1
  O  O23  1  0.64562200  0.91665000  0.05700700  1
  O  O24  1  0.18744100  0.20419500  0.67048000  1
  O  O25  1  0.68744800  0.70420300  0.67048000  1
  O  O26  1  0.68744800  0.29579700  0.82951900  1
  O  O27  1  0.18744200  0.79580500  0.82952600  1
  O  O28  1  0.31255200  0.29579700  0.32952200  1
  O  O29  1  0.81255900  0.79580500  0.32952600  1
  O  O30  1  0.81255800  0.20419400  0.17047500  1
  O  O31  1  0.31255200  0.70420400  0.17048200  1
