# generated using pymatgen
data_Na2Zn3S4
_symmetry_space_group_name_H-M   'P 1'
_cell_length_a   8.72099499
_cell_length_b   8.72099499
_cell_length_c   8.72099499
_cell_angle_alpha   141.08358228
_cell_angle_beta   108.60454627
_cell_angle_gamma   84.42793317
_symmetry_Int_Tables_number   1
_chemical_formula_structural   Na2Zn3S4
_chemical_formula_sum   'Na4 Zn6 S8'
_cell_volume   381.95569662
_cell_formula_units_Z   2
loop_
 _symmetry_equiv_pos_site_id
 _symmetry_equiv_pos_as_xyz
  1  'x, y, z'
loop_
 _atom_site_type_symbol
 _atom_site_label
 _atom_site_symmetry_multiplicity
 _atom_site_fract_x
 _atom_site_fract_y
 _atom_site_fract_z
 _atom_site_occupancy
  Na  Na0  1  0.62594700  0.73984600  0.36579300  1
  Na  Na1  1  0.37405300  0.26015400  0.63420700  1
  Na  Na2  1  0.12594700  0.76015400  0.88610000  1
  Na  Na3  1  0.87405300  0.23984600  0.11390000  1
  Zn  Zn4  1  0.75000000  0.25000000  0.50000000  1
  Zn  Zn5  1  0.25000000  0.75000000  0.50000000  1
  Zn  Zn6  1  0.96740700  0.75000000  0.21740700  1
  Zn  Zn7  1  0.53259300  0.75000000  0.78259300  1
  Zn  Zn8  1  0.03259300  0.25000000  0.78259300  1
  Zn  Zn9  1  0.46740700  0.25000000  0.21740700  1
  S  S10  1  0.00705300  0.86548200  0.59463800  1
  S  S11  1  0.27084400  0.41241500  0.40536200  1
  S  S12  1  0.22915600  0.63451800  0.14157100  1
  S  S13  1  0.49294700  0.08758500  0.85842900  1
  S  S14  1  0.99294700  0.13451800  0.40536200  1
  S  S15  1  0.72915600  0.58758500  0.59463800  1
  S  S16  1  0.77084400  0.36548200  0.85842900  1
  S  S17  1  0.50705300  0.91241500  0.14157100  1
