# generated using pymatgen
data_Sr3Fe2O5
_symmetry_space_group_name_H-M   'P 1'
_cell_length_a   3.53196550
_cell_length_b   4.02231910
_cell_length_c   10.93926243
_cell_angle_alpha   100.59295878
_cell_angle_beta   99.29039169
_cell_angle_gamma   89.99999998
_symmetry_Int_Tables_number   1
_chemical_formula_structural   Sr3Fe2O5
_chemical_formula_sum   'Sr3 Fe2 O5'
_cell_volume   150.68783860
_cell_formula_units_Z   1
loop_
 _symmetry_equiv_pos_site_id
 _symmetry_equiv_pos_as_xyz
  1  'x, y, z'
loop_
 _atom_site_type_symbol
 _atom_site_label
 _atom_site_symmetry_multiplicity
 _atom_site_fract_x
 _atom_site_fract_y
 _atom_site_fract_z
 _atom_site_occupancy
  Sr  Sr0  1  0.31167000  0.31165300  0.62329900  1
  Sr  Sr1  1  0.68833200  0.68834700  0.37670200  1
  Sr  Sr2  1  0.50000100  0.50000000  0.00000000  1
  Fe  Fe3  1  0.09684400  0.09691500  0.19384900  1
  Fe  Fe4  1  0.90314900  0.90308500  0.80615000  1
  O  O5  1  0.19317800  0.19310800  0.38641000  1
  O  O6  1  0.80682100  0.80689000  0.61358900  1
  O  O7  1  0.09617100  0.59614900  0.19237200  1
  O  O8  1  0.90383300  0.40385200  0.80762800  1
  O  O9  1  0.00000400  0.99999900  0.99999900  1
