# generated using pymatgen
data_Zn2Mo3O8
_symmetry_space_group_name_H-M   'P 1'
_cell_length_a   6.28729818
_cell_length_b   6.28729818
_cell_length_c   9.55770800
_cell_angle_alpha   90.00000000
_cell_angle_beta   90.00000000
_cell_angle_gamma   120.00000192
_symmetry_Int_Tables_number   1
_chemical_formula_structural   Zn2Mo3O8
_chemical_formula_sum   'Zn4 Mo6 O16'
_cell_volume   327.19939876
_cell_formula_units_Z   2
loop_
 _symmetry_equiv_pos_site_id
 _symmetry_equiv_pos_as_xyz
  1  'x, y, z'
loop_
 _atom_site_type_symbol
 _atom_site_label
 _atom_site_symmetry_multiplicity
 _atom_site_fract_x
 _atom_site_fract_y
 _atom_site_fract_z
 _atom_site_occupancy
  Zn  Zn0  1  0.33333300  0.66666700  0.78770300  1
  Zn  Zn1  1  0.66666700  0.33333300  0.28770300  1
  Zn  Zn2  1  0.66666700  0.33333300  0.90512400  1
  Zn  Zn3  1  0.33333300  0.66666700  0.40512400  1
  Mo  Mo4  1  0.16402000  0.32803900  0.07864700  1
  Mo  Mo5  1  0.32803900  0.16402000  0.57864700  1
  Mo  Mo6  1  0.16402000  0.83598000  0.07864700  1
  Mo  Mo7  1  0.83598000  0.16402000  0.57864700  1
  Mo  Mo8  1  0.83598000  0.67196100  0.57864700  1
  Mo  Mo9  1  0.67196100  0.83598000  0.07864700  1
  O  O10  1  0.00000000  0.00000000  0.46667700  1
  O  O11  1  0.00000000  0.00000000  0.96667700  1
  O  O12  1  0.66666700  0.33333300  0.69580500  1
  O  O13  1  0.33333300  0.66666700  0.19580500  1
  O  O14  1  0.51826000  0.03652000  0.45390000  1
  O  O15  1  0.48174000  0.51826000  0.95390000  1
  O  O16  1  0.03652000  0.51826000  0.95390000  1
  O  O17  1  0.96348000  0.48174000  0.45390000  1
  O  O18  1  0.51826000  0.48174000  0.45390000  1
  O  O19  1  0.48174000  0.96348000  0.95390000  1
  O  O20  1  0.83301100  0.16698900  0.17484000  1
  O  O21  1  0.66602200  0.83301100  0.67484000  1
  O  O22  1  0.16698900  0.33397800  0.67484000  1
  O  O23  1  0.16698900  0.83301100  0.67484000  1
  O  O24  1  0.33397800  0.16698900  0.17484000  1
  O  O25  1  0.83301100  0.66602200  0.17484000  1
