# generated using pymatgen
data_Na5Nd(WO4)4
_symmetry_space_group_name_H-M   'P 1'
_cell_length_a   10.14003036
_cell_length_b   10.14003036
_cell_length_c   10.14003036
_cell_angle_alpha   108.93094832
_cell_angle_beta   108.93094832
_cell_angle_gamma   110.55725440
_symmetry_Int_Tables_number   1
_chemical_formula_structural   Na5Nd(WO4)4
_chemical_formula_sum   'Na10 Nd2 W8 O32'
_cell_volume   802.37719643
_cell_formula_units_Z   2
loop_
 _symmetry_equiv_pos_site_id
 _symmetry_equiv_pos_as_xyz
  1  'x, y, z'
loop_
 _atom_site_type_symbol
 _atom_site_label
 _atom_site_symmetry_multiplicity
 _atom_site_fract_x
 _atom_site_fract_y
 _atom_site_fract_z
 _atom_site_occupancy
  Na  Na0  1  0.23799800  0.65388100  0.82605300  1
  Na  Na1  1  0.66194500  0.98799800  0.08411700  1
  Na  Na2  1  0.50000000  0.50000000  0.00000000  1
  Na  Na3  1  0.75000000  0.25000000  0.50000000  1
  Na  Na4  1  0.58805500  0.76200200  0.41588300  1
  Na  Na5  1  0.01200200  0.09611900  0.67394700  1
  Na  Na6  1  0.42217200  0.33805500  0.32605300  1
  Na  Na7  1  0.34611900  0.17217200  0.58411700  1
  Na  Na8  1  0.90388100  0.57782800  0.91588300  1
  Na  Na9  1  0.82782800  0.41194500  0.17394700  1
  Nd  Nd10  1  0.00000000  0.00000000  0.00000000  1
  Nd  Nd11  1  0.25000000  0.75000000  0.50000000  1
  W  W12  1  0.88912000  0.66724100  0.58703500  1
  W  W13  1  0.91724100  0.83020700  0.27812100  1
  W  W14  1  0.55208500  0.63912000  0.72187900  1
  W  W15  1  0.08020700  0.30208500  0.41296500  1
  W  W16  1  0.36088000  0.08275900  0.91296500  1
  W  W17  1  0.33275900  0.91979300  0.22187900  1
  W  W18  1  0.69791500  0.11088000  0.77812100  1
  W  W19  1  0.16979300  0.44791500  0.08703500  1
  O  O20  1  0.38097800  0.50236700  0.17616900  1
  O  O21  1  0.75236700  0.07619800  0.62138900  1
  O  O22  1  0.45480900  0.13097800  0.37861100  1
  O  O23  1  0.32619800  0.20480900  0.82383100  1
  O  O24  1  0.86902200  0.24763300  0.32383100  1
  O  O25  1  0.49763300  0.67380200  0.87861100  1
  O  O26  1  0.79519100  0.61902200  0.12138900  1
  O  O27  1  0.92380200  0.54519100  0.67616900  1
  O  O28  1  0.10325300  0.50495900  0.23547100  1
  O  O29  1  0.75495900  0.01948700  0.90170600  1
  O  O30  1  0.11778200  0.85325300  0.09829400  1
  O  O31  1  0.26948700  0.86778200  0.76452900  1
  O  O32  1  0.14674700  0.24504100  0.26452900  1
  O  O33  1  0.49504100  0.73051300  0.59829400  1
  O  O34  1  0.13221800  0.89674700  0.40170600  1
  O  O35  1  0.98051300  0.88221800  0.73547100  1
  O  O36  1  0.14283700  0.54276400  0.96615300  1
  O  O37  1  0.79276400  0.32661200  0.89992800  1
  O  O38  1  0.42668400  0.89283700  0.10007200  1
  O  O39  1  0.57661200  0.17668400  0.03384700  1
  O  O40  1  0.96695400  0.64322800  0.44628200  1
  O  O41  1  0.89322800  0.94694600  0.17627500  1
  O  O42  1  0.77067100  0.71695400  0.82372500  1
  O  O43  1  0.19694600  0.52067100  0.55371800  1
  O  O44  1  0.28304600  0.10677200  0.05371800  1
  O  O45  1  0.35677200  0.80305400  0.32372500  1
  O  O46  1  0.47932900  0.03304600  0.67627500  1
  O  O47  1  0.05305400  0.22932900  0.94628200  1
  O  O48  1  0.67338800  0.57331600  0.46615300  1
  O  O49  1  0.82331600  0.85716300  0.39992800  1
  O  O50  1  0.45723600  0.42338800  0.60007200  1
  O  O51  1  0.10716300  0.20723600  0.53384700  1
