# generated using pymatgen
data_La7Mo7O30
_symmetry_space_group_name_H-M   'P 1'
_cell_length_a   10.22988668
_cell_length_b   10.22988668
_cell_length_c   10.22988679
_cell_angle_alpha   115.04563296
_cell_angle_beta   115.04563296
_cell_angle_gamma   115.04563146
_symmetry_Int_Tables_number   1
_chemical_formula_structural   La7Mo7O30
_chemical_formula_sum   'La7 Mo7 O30'
_cell_volume   596.65141377
_cell_formula_units_Z   1
loop_
 _symmetry_equiv_pos_site_id
 _symmetry_equiv_pos_as_xyz
  1  'x, y, z'
loop_
 _atom_site_type_symbol
 _atom_site_label
 _atom_site_symmetry_multiplicity
 _atom_site_fract_x
 _atom_site_fract_y
 _atom_site_fract_z
 _atom_site_occupancy
  La  La0  1  0.89110100  0.66043400  0.46675200  1
  La  La1  1  0.46675200  0.89110100  0.66043400  1
  La  La2  1  0.33956600  0.53324800  0.10889900  1
  La  La3  1  0.10889900  0.33956600  0.53324800  1
  La  La4  1  0.53324800  0.10889900  0.33956600  1
  La  La5  1  0.66043400  0.46675200  0.89110100  1
  La  La6  1  0.00000000  0.00000000  0.00000000  1
  Mo  Mo7  1  0.83757600  0.01259200  0.63303100  1
  Mo  Mo8  1  0.63303100  0.83757600  0.01259200  1
  Mo  Mo9  1  0.01259200  0.63303100  0.83757600  1
  Mo  Mo10  1  0.16242400  0.98740800  0.36696900  1
  Mo  Mo11  1  0.36696900  0.16242400  0.98740800  1
  Mo  Mo12  1  0.98740800  0.36696900  0.16242400  1
  Mo  Mo13  1  0.50000000  0.50000000  0.50000000  1
  O  O14  1  0.80888800  0.62879600  0.65924800  1
  O  O15  1  0.65924800  0.80888800  0.62879600  1
  O  O16  1  0.62879600  0.65924800  0.80888800  1
  O  O17  1  0.19111200  0.37120400  0.34075200  1
  O  O18  1  0.34075200  0.19111200  0.37120400  1
  O  O19  1  0.37120400  0.34075200  0.19111200  1
  O  O20  1  0.62199800  0.97525600  0.48437100  1
  O  O21  1  0.48437100  0.62199800  0.97525600  1
  O  O22  1  0.97525600  0.48437100  0.62199800  1
  O  O23  1  0.37800200  0.02474400  0.51562900  1
  O  O24  1  0.51562900  0.37800200  0.02474400  1
  O  O25  1  0.02474400  0.51562900  0.37800200  1
  O  O26  1  0.07040100  0.01016100  0.78131300  1
  O  O27  1  0.78131300  0.07040100  0.01016100  1
  O  O28  1  0.22507700  0.60541400  0.27305700  1
  O  O29  1  0.60541400  0.27305700  0.22507700  1
  O  O30  1  0.27305700  0.22507700  0.60541400  1
  O  O31  1  0.77492300  0.39458600  0.72694300  1
  O  O32  1  0.39458600  0.72694300  0.77492300  1
  O  O33  1  0.72694300  0.77492300  0.39458600  1
  O  O34  1  0.76137300  0.29546500  0.95644900  1
  O  O35  1  0.29546500  0.95644900  0.76137300  1
  O  O36  1  0.95644900  0.76137300  0.29546500  1
  O  O37  1  0.23862700  0.70453500  0.04355100  1
  O  O38  1  0.70453500  0.04355100  0.23862700  1
  O  O39  1  0.04355100  0.23862700  0.70453500  1
  O  O40  1  0.98983900  0.21868700  0.92959900  1
  O  O41  1  0.21868700  0.92959900  0.98983900  1
  O  O42  1  0.92959900  0.98983900  0.21868700  1
  O  O43  1  0.01016100  0.78131300  0.07040100  1
