# generated using pymatgen
data_BaYCo2O5
_symmetry_space_group_name_H-M   'P 1'
_cell_length_a   3.90787500
_cell_length_b   3.90787500
_cell_length_c   7.69164100
_cell_angle_alpha   90.00000000
_cell_angle_beta   90.00000000
_cell_angle_gamma   90.00000000
_symmetry_Int_Tables_number   1
_chemical_formula_structural   BaYCo2O5
_chemical_formula_sum   'Ba1 Y1 Co2 O5'
_cell_volume   117.46279566
_cell_formula_units_Z   1
loop_
 _symmetry_equiv_pos_site_id
 _symmetry_equiv_pos_as_xyz
  1  'x, y, z'
loop_
 _atom_site_type_symbol
 _atom_site_label
 _atom_site_symmetry_multiplicity
 _atom_site_fract_x
 _atom_site_fract_y
 _atom_site_fract_z
 _atom_site_occupancy
  Ba  Ba0  1  0.00000000  0.00000000  0.00000000  1
  Y  Y1  1  0.00000000  0.00000000  0.50000000  1
  Co  Co2  1  0.50000000  0.50000000  0.26078300  1
  Co  Co3  1  0.50000000  0.50000000  0.73921700  1
  O  O4  1  0.50000000  0.50000000  0.00000000  1
  O  O5  1  0.50000000  0.00000000  0.68353900  1
  O  O6  1  0.50000000  0.00000000  0.31646100  1
  O  O7  1  0.00000000  0.50000000  0.31646100  1
  O  O8  1  0.00000000  0.50000000  0.68353900  1
