# generated using pymatgen
data_CaMn(SiO3)2
_symmetry_space_group_name_H-M   'P 1'
_cell_length_a   5.36339181
_cell_length_b   10.05725202
_cell_length_c   9.26504263
_cell_angle_alpha   90.00000163
_cell_angle_beta   89.99999640
_cell_angle_gamma   105.26072401
_symmetry_Int_Tables_number   1
_chemical_formula_structural   CaMn(SiO3)2
_chemical_formula_sum   'Ca4 Mn4 Si8 O24'
_cell_volume   482.14281461
_cell_formula_units_Z   4
loop_
 _symmetry_equiv_pos_site_id
 _symmetry_equiv_pos_as_xyz
  1  'x, y, z'
loop_
 _atom_site_type_symbol
 _atom_site_label
 _atom_site_symmetry_multiplicity
 _atom_site_fract_x
 _atom_site_fract_y
 _atom_site_fract_z
 _atom_site_occupancy
  Ca  Ca0  1  0.25000000  0.50000000  0.20093300  1
  Ca  Ca1  1  0.75000000  0.00000000  0.70093300  1
  Ca  Ca2  1  0.75000000  0.50000000  0.79906700  1
  Ca  Ca3  1  0.25000000  0.00000000  0.29906700  1
  Mn  Mn4  1  0.75000000  0.00000000  0.09565000  1
  Mn  Mn5  1  0.75000000  0.50000000  0.40435000  1
  Mn  Mn6  1  0.25000000  0.50000000  0.59565000  1
  Mn  Mn7  1  0.25000000  0.00000000  0.90435000  1
  Si  Si8  1  0.54722300  0.28756600  0.09134400  1
  Si  Si9  1  0.04722300  0.78756600  0.59134400  1
  Si  Si10  1  0.04722300  0.28756600  0.90865600  1
  Si  Si11  1  0.54722300  0.78756600  0.40865600  1
  Si  Si12  1  0.45277700  0.71243400  0.90865600  1
  Si  Si13  1  0.95277700  0.21243400  0.40865600  1
  Si  Si14  1  0.95277700  0.71243400  0.09134400  1
  Si  Si15  1  0.45277700  0.21243400  0.59134400  1
  O  O16  1  0.53436100  0.87962600  0.90719200  1
  O  O17  1  0.03436100  0.37962600  0.40719200  1
  O  O18  1  0.03436100  0.87962600  0.09280800  1
  O  O19  1  0.53436100  0.37962600  0.59280800  1
  O  O20  1  0.96563900  0.12037400  0.90719200  1
  O  O21  1  0.46563900  0.62037400  0.40719200  1
  O  O22  1  0.46563900  0.12037400  0.09280800  1
  O  O23  1  0.96563900  0.62037400  0.59280800  1
  O  O24  1  0.96519400  0.63551400  0.24187300  1
  O  O25  1  0.46519400  0.13551400  0.74187300  1
  O  O26  1  0.53480600  0.36448600  0.24187300  1
  O  O27  1  0.03480600  0.86448600  0.74187300  1
  O  O28  1  0.03480600  0.36448600  0.75812700  1
  O  O29  1  0.53480600  0.86448600  0.25812700  1
  O  O30  1  0.46519400  0.63551400  0.75812700  1
  O  O31  1  0.96519400  0.13551400  0.25812700  1
  O  O32  1  0.84305100  0.34763900  0.01668700  1
  O  O33  1  0.34305100  0.84763900  0.51668700  1
  O  O34  1  0.34305100  0.34763900  0.98331300  1
  O  O35  1  0.84305100  0.84763900  0.48331300  1
  O  O36  1  0.65694900  0.65236100  0.01668700  1
  O  O37  1  0.15694900  0.15236100  0.51668700  1
  O  O38  1  0.15694900  0.65236100  0.98331300  1
  O  O39  1  0.65694900  0.15236100  0.48331300  1
