# generated using pymatgen
data_MnTe2O5
_symmetry_space_group_name_H-M   'P 1'
_cell_length_a   8.94670800
_cell_length_b   8.94670800
_cell_length_c   13.14340500
_cell_angle_alpha   90.00000000
_cell_angle_beta   90.00000000
_cell_angle_gamma   90.00000000
_symmetry_Int_Tables_number   1
_chemical_formula_structural   MnTe2O5
_chemical_formula_sum   'Mn8 Te16 O40'
_cell_volume   1052.04524265
_cell_formula_units_Z   8
loop_
 _symmetry_equiv_pos_site_id
 _symmetry_equiv_pos_as_xyz
  1  'x, y, z'
loop_
 _atom_site_type_symbol
 _atom_site_label
 _atom_site_symmetry_multiplicity
 _atom_site_fract_x
 _atom_site_fract_y
 _atom_site_fract_z
 _atom_site_occupancy
  Mn  Mn0  1  0.25000000  0.25000000  0.00000000  1
  Mn  Mn1  1  0.25000000  0.25000000  0.50000000  1
  Mn  Mn2  1  0.75000000  0.75000000  0.00000000  1
  Mn  Mn3  1  0.75000000  0.75000000  0.50000000  1
  Mn  Mn4  1  0.25000000  0.25000000  0.25000000  1
  Mn  Mn5  1  0.25000000  0.25000000  0.75000000  1
  Mn  Mn6  1  0.75000000  0.75000000  0.75000000  1
  Mn  Mn7  1  0.75000000  0.75000000  0.25000000  1
  Te  Te8  1  0.03554400  0.93636400  0.61639700  1
  Te  Te9  1  0.56363600  0.03554400  0.11639700  1
  Te  Te10  1  0.46445600  0.93636400  0.38360300  1
  Te  Te11  1  0.46445600  0.56363600  0.61639700  1
  Te  Te12  1  0.93636400  0.46445600  0.11639700  1
  Te  Te13  1  0.56363600  0.46445600  0.88360300  1
  Te  Te14  1  0.93636400  0.03554400  0.88360300  1
  Te  Te15  1  0.03554400  0.56363600  0.38360300  1
  Te  Te16  1  0.96445600  0.43636300  0.61639700  1
  Te  Te17  1  0.06363600  0.96445600  0.11639700  1
  Te  Te18  1  0.43636300  0.53554400  0.11639700  1
  Te  Te19  1  0.96445600  0.06363600  0.38360300  1
  Te  Te20  1  0.53554400  0.43636300  0.38360300  1
  Te  Te21  1  0.53554400  0.06363600  0.61639700  1
  Te  Te22  1  0.43636300  0.96445600  0.88360300  1
  Te  Te23  1  0.06363600  0.53554400  0.88360300  1
  O  O24  1  0.05237300  0.05237300  0.75000000  1
  O  O25  1  0.44762800  0.05237300  0.25000000  1
  O  O26  1  0.05237300  0.44762800  0.25000000  1
  O  O27  1  0.44762800  0.44762800  0.75000000  1
  O  O28  1  0.94762700  0.94762700  0.25000000  1
  O  O29  1  0.55237300  0.94762700  0.75000000  1
  O  O30  1  0.94762700  0.55237300  0.75000000  1
  O  O31  1  0.55237300  0.55237300  0.25000000  1
  O  O32  1  0.87481500  0.52013700  0.95186800  1
  O  O33  1  0.62518500  0.97986300  0.95186800  1
  O  O34  1  0.52013700  0.87481500  0.54813200  1
  O  O35  1  0.52013700  0.62518500  0.45186800  1
  O  O36  1  0.97986300  0.87481500  0.45186800  1
  O  O37  1  0.62518500  0.52013700  0.04813200  1
  O  O38  1  0.87481500  0.97986300  0.04813200  1
  O  O39  1  0.60400400  0.67197600  0.86684600  1
  O  O40  1  0.12518500  0.47986300  0.04813200  1
  O  O41  1  0.37481400  0.02013700  0.04813200  1
  O  O42  1  0.47986300  0.12518500  0.45186800  1
  O  O43  1  0.47986300  0.37481400  0.54813200  1
  O  O44  1  0.02013700  0.12518500  0.54813200  1
  O  O45  1  0.37481400  0.47986300  0.95186800  1
  O  O46  1  0.12518500  0.02013700  0.95186800  1
  O  O47  1  0.02013700  0.37481400  0.45186800  1
  O  O48  1  0.17197700  0.10400400  0.36684600  1
  O  O49  1  0.39599500  0.17197700  0.86684600  1
  O  O50  1  0.10400400  0.32802400  0.86684600  1
  O  O51  1  0.17197700  0.39599500  0.63315400  1
  O  O52  1  0.32802400  0.10400400  0.63315400  1
  O  O53  1  0.32802400  0.39599500  0.36684600  1
  O  O54  1  0.10400400  0.17197700  0.13315400  1
  O  O55  1  0.39599500  0.32802400  0.13315400  1
  O  O56  1  0.82802400  0.89599600  0.63315400  1
  O  O57  1  0.60400400  0.82802400  0.13315400  1
  O  O58  1  0.89599600  0.67197600  0.13315400  1
  O  O59  1  0.82802400  0.60400400  0.36684600  1
  O  O60  1  0.67197600  0.89599600  0.36684600  1
  O  O61  1  0.67197600  0.60400400  0.63315400  1
  O  O62  1  0.89599600  0.82802400  0.86684600  1
  O  O63  1  0.97986300  0.62518500  0.54813200  1
