# generated using pymatgen
data_FeSb2C6(OF2)6
_symmetry_space_group_name_H-M   'P 1'
_cell_length_a   8.37742100
_cell_length_b   8.37742100
_cell_length_c   12.64294100
_cell_angle_alpha   90.00000000
_cell_angle_beta   90.00000000
_cell_angle_gamma   90.00000000
_symmetry_Int_Tables_number   1
_chemical_formula_structural   FeSb2C6(OF2)6
_chemical_formula_sum   'Fe2 Sb4 C12 O12 F24'
_cell_volume   887.29655106
_cell_formula_units_Z   2
loop_
 _symmetry_equiv_pos_site_id
 _symmetry_equiv_pos_as_xyz
  1  'x, y, z'
loop_
 _atom_site_type_symbol
 _atom_site_label
 _atom_site_symmetry_multiplicity
 _atom_site_fract_x
 _atom_site_fract_y
 _atom_site_fract_z
 _atom_site_occupancy
  Fe  Fe0  1  0.50000000  0.50000000  0.50000000  1
  Fe  Fe1  1  0.00000000  0.00000000  0.00000000  1
  Sb  Sb2  1  0.50000000  0.00000000  0.75000000  1
  Sb  Sb3  1  0.00000000  0.50000000  0.75000000  1
  Sb  Sb4  1  0.50000000  0.00000000  0.25000000  1
  Sb  Sb5  1  0.00000000  0.50000000  0.25000000  1
  C  C6  1  0.11893200  0.80995900  0.00000000  1
  C  C7  1  0.38106800  0.30995900  0.50000000  1
  C  C8  1  0.00000000  0.00000000  0.14802900  1
  C  C9  1  0.50000000  0.50000000  0.35197100  1
  C  C10  1  0.00000000  0.00000000  0.85197100  1
  C  C11  1  0.50000000  0.50000000  0.64802900  1
  C  C12  1  0.61893200  0.69004100  0.50000000  1
  C  C13  1  0.80995900  0.88106800  0.00000000  1
  C  C14  1  0.30995900  0.61893200  0.50000000  1
  C  C15  1  0.69004100  0.38106800  0.50000000  1
  C  C16  1  0.19004100  0.11893200  0.00000000  1
  C  C17  1  0.88106800  0.19004100  0.00000000  1
  O  O18  1  0.69014400  0.80537400  0.50000000  1
  O  O19  1  0.50000000  0.50000000  0.73791300  1
  O  O20  1  0.00000000  0.00000000  0.76208700  1
  O  O21  1  0.50000000  0.50000000  0.26208700  1
  O  O22  1  0.00000000  0.00000000  0.23791300  1
  O  O23  1  0.30985600  0.19462600  0.50000000  1
  O  O24  1  0.30537400  0.19014400  0.00000000  1
  O  O25  1  0.80985600  0.30537400  0.00000000  1
  O  O26  1  0.19014400  0.69462600  0.00000000  1
  O  O27  1  0.80537400  0.30985600  0.50000000  1
  O  O28  1  0.19462600  0.69014400  0.50000000  1
  O  O29  1  0.69462600  0.80985600  0.00000000  1
  F  F30  1  0.33840700  0.16159300  0.75000000  1
  F  F31  1  0.16159300  0.66159300  0.25000000  1
  F  F32  1  0.83840700  0.33840700  0.75000000  1
  F  F33  1  0.39245000  0.87970000  0.35843400  1
  F  F34  1  0.16159300  0.66159300  0.75000000  1
  F  F35  1  0.66159300  0.83840700  0.75000000  1
  F  F36  1  0.62030000  0.10755000  0.14156600  1
  F  F37  1  0.89245000  0.62030000  0.14156600  1
  F  F38  1  0.10755000  0.37970000  0.14156600  1
  F  F39  1  0.12030000  0.39245000  0.35843400  1
  F  F40  1  0.87970000  0.60755000  0.35843400  1
  F  F41  1  0.37970000  0.89245000  0.14156600  1
  F  F42  1  0.60755000  0.12030000  0.35843400  1
  F  F43  1  0.83840700  0.33840700  0.25000000  1
  F  F44  1  0.37970000  0.89245000  0.85843400  1
  F  F45  1  0.10755000  0.37970000  0.85843400  1
  F  F46  1  0.89245000  0.62030000  0.85843400  1
  F  F47  1  0.87970000  0.60755000  0.64156600  1
  F  F48  1  0.12030000  0.39245000  0.64156600  1
  F  F49  1  0.62030000  0.10755000  0.85843400  1
  F  F50  1  0.39245000  0.87970000  0.64156600  1
  F  F51  1  0.60755000  0.12030000  0.64156600  1
  F  F52  1  0.33840700  0.16159300  0.25000000  1
  F  F53  1  0.66159300  0.83840700  0.25000000  1
