# generated using pymatgen
data_V4Ag2O11
_symmetry_space_group_name_H-M   'P 1'
_cell_length_a   3.61100379
_cell_length_b   7.98057293
_cell_length_c   8.12519215
_cell_angle_alpha   73.29600036
_cell_angle_beta   77.16110779
_cell_angle_gamma   76.92436537
_symmetry_Int_Tables_number   1
_chemical_formula_structural   V4Ag2O11
_chemical_formula_sum   'V4 Ag2 O11'
_cell_volume   215.33270560
_cell_formula_units_Z   1
loop_
 _symmetry_equiv_pos_site_id
 _symmetry_equiv_pos_as_xyz
  1  'x, y, z'
loop_
 _atom_site_type_symbol
 _atom_site_label
 _atom_site_symmetry_multiplicity
 _atom_site_fract_x
 _atom_site_fract_y
 _atom_site_fract_z
 _atom_site_occupancy
  V  V0  1  0.63432100  0.15507100  0.57628500  1
  V  V1  1  0.36567800  0.84492800  0.42371400  1
  V  V2  1  0.85418300  0.13883900  0.15279200  1
  V  V3  1  0.14581500  0.86116200  0.84720800  1
  Ag  Ag4  1  0.88054500  0.50692600  0.73198300  1
  Ag  Ag5  1  0.11945400  0.49307300  0.26801800  1
  O  O6  1  0.50138700  0.31672200  0.68050700  1
  O  O7  1  0.49861500  0.68327900  0.31949300  1
  O  O8  1  0.68462600  0.27651800  0.35423100  1
  O  O9  1  0.31537500  0.72348200  0.64576900  1
  O  O10  1  0.82325900  0.33662100  0.01686200  1
  O  O11  1  0.17674300  0.66338000  0.98313700  1
  O  O12  1  0.00000000  0.00000000  0.00000000  1
  O  O13  1  0.34911100  0.08207400  0.21970600  1
  O  O14  1  0.83515500  0.91958600  0.41010400  1
  O  O15  1  0.16484600  0.08041400  0.58989500  1
  O  O16  1  0.65089000  0.91792700  0.78029300  1
