# generated using pymatgen
data_BaCr10O15
_symmetry_space_group_name_H-M   'P 1'
_cell_length_a   7.85596602
_cell_length_b   7.85596602
_cell_length_c   9.62839200
_cell_angle_alpha   90.00000000
_cell_angle_beta   90.00000000
_cell_angle_gamma   96.60183767
_symmetry_Int_Tables_number   1
_chemical_formula_structural   BaCr10O15
_chemical_formula_sum   'Ba2 Cr20 O30'
_cell_volume   590.28750964
_cell_formula_units_Z   2
loop_
 _symmetry_equiv_pos_site_id
 _symmetry_equiv_pos_as_xyz
  1  'x, y, z'
loop_
 _atom_site_type_symbol
 _atom_site_label
 _atom_site_symmetry_multiplicity
 _atom_site_fract_x
 _atom_site_fract_y
 _atom_site_fract_z
 _atom_site_occupancy
  Ba  Ba0  1  0.00000000  0.00000000  0.50000000  1
  Ba  Ba1  1  0.50000000  0.50000000  0.00000000  1
  Cr  Cr2  1  0.41820700  0.90661700  0.11474400  1
  Cr  Cr3  1  0.08179300  0.59338300  0.61474400  1
  Cr  Cr4  1  0.40661700  0.91820700  0.38525600  1
  Cr  Cr5  1  0.09338300  0.58179300  0.88525600  1
  Cr  Cr6  1  0.58179300  0.09338300  0.88525600  1
  Cr  Cr7  1  0.91820700  0.40661700  0.38525600  1
  Cr  Cr8  1  0.59338300  0.08179300  0.61474400  1
  Cr  Cr9  1  0.90661700  0.41820700  0.11474400  1
  Cr  Cr10  1  0.78850000  0.04288100  0.14329100  1
  Cr  Cr11  1  0.71150000  0.45711900  0.64329100  1
  Cr  Cr12  1  0.54288100  0.28850000  0.35670900  1
  Cr  Cr13  1  0.95711900  0.21150000  0.85670900  1
  Cr  Cr14  1  0.21150000  0.95711900  0.85670900  1
  Cr  Cr15  1  0.28850000  0.54288100  0.35670900  1
  Cr  Cr16  1  0.45711900  0.71150000  0.64329100  1
  Cr  Cr17  1  0.04288100  0.78850000  0.14329100  1
  Cr  Cr18  1  0.81669200  0.81669200  0.86526200  1
  Cr  Cr19  1  0.68330800  0.68330800  0.36526200  1
  Cr  Cr20  1  0.31669200  0.31669200  0.63473800  1
  Cr  Cr21  1  0.18330800  0.18330800  0.13473800  1
  O  O22  1  0.50000000  0.50000000  0.50000000  1
  O  O23  1  0.00000000  0.00000000  0.00000000  1
  O  O24  1  0.14490400  0.14490400  0.73979300  1
  O  O25  1  0.35509600  0.35509600  0.23979300  1
  O  O26  1  0.64490400  0.64490400  0.76020700  1
  O  O27  1  0.85509600  0.85509600  0.26020700  1
  O  O28  1  0.22250700  0.95874000  0.24032100  1
  O  O29  1  0.27749300  0.54126000  0.74032100  1
  O  O30  1  0.45874000  0.72250700  0.25967900  1
  O  O31  1  0.04126000  0.77749300  0.75967900  1
  O  O32  1  0.77749300  0.04126000  0.75967900  1
  O  O33  1  0.72250700  0.45874000  0.25967900  1
  O  O34  1  0.54126000  0.27749300  0.74032100  1
  O  O35  1  0.95874000  0.22250700  0.24032100  1
  O  O36  1  0.56469000  0.06469000  0.25000000  1
  O  O37  1  0.93531000  0.43531000  0.75000000  1
  O  O38  1  0.43531000  0.93531000  0.75000000  1
  O  O39  1  0.06469000  0.56469000  0.25000000  1
  O  O40  1  0.36474100  0.10364400  0.99456300  1
  O  O41  1  0.13525900  0.39635600  0.49456300  1
  O  O42  1  0.60364400  0.86474100  0.50543700  1
  O  O43  1  0.89635600  0.63525900  0.00543700  1
  O  O44  1  0.75619800  0.24380200  0.00000000  1
  O  O45  1  0.74380200  0.25619800  0.50000000  1
  O  O46  1  0.24380200  0.75619800  0.00000000  1
  O  O47  1  0.25619800  0.74380200  0.50000000  1
  O  O48  1  0.10364400  0.36474100  0.99456300  1
  O  O49  1  0.39635600  0.13525900  0.49456300  1
  O  O50  1  0.86474100  0.60364400  0.50543700  1
  O  O51  1  0.63525900  0.89635600  0.00543700  1
