data_image0
_chemical_formula_structural       FeP4Si4
_chemical_formula_sum              "Fe1 P4 Si4"
_cell_length_a       4.8797
_cell_length_b       5.54106
_cell_length_c       6.07195
_cell_angle_alpha    85.4083
_cell_angle_beta     68.4263
_cell_angle_gamma    70.4886

_space_group_name_H-M_alt    "P 1"
_space_group_IT_number       1

loop_
  _space_group_symop_operation_xyz
  'x, y, z'

loop_
  _atom_site_type_symbol
  _atom_site_label
  _atom_site_symmetry_multiplicity
  _atom_site_fract_x
  _atom_site_fract_y
  _atom_site_fract_z
  _atom_site_occupancy
  Fe  Fe1       1.0  0.00000  0.00112  0.00034  1.0000
  P   P1        1.0  0.63600  0.39900  0.11600  1.0000
  P   P2        1.0  0.15600  0.01050  0.30800  1.0000
  P   P3        1.0  0.76200  0.64100  0.56500  1.0000
  P   P4        1.0  0.32900  0.21800  0.77000  1.0000
  Si  Si1       1.0  0.68000  0.77800  0.21700  1.0000
  Si  Si2       1.0  0.23900  0.33900  0.43100  1.0000
  Si  Si3       1.0  0.84700  0.97200  0.69800  1.0000
  Si  Si4       1.0  0.34300  0.60000  0.88600  1.0000
