data_image0
_chemical_formula_structural       Al4C4Th
_chemical_formula_sum              "Al4 C4 Th1"
_cell_length_a       3.33853
_cell_length_b       6.05939
_cell_length_c       6.05939
_cell_angle_alpha    94.3524
_cell_angle_beta     74.0091
_cell_angle_gamma    105.991

_space_group_name_H-M_alt    "P 1"
_space_group_IT_number       1

loop_
  _space_group_symop_operation_xyz
  'x, y, z'

loop_
  _atom_site_type_symbol
  _atom_site_label
  _atom_site_symmetry_multiplicity
  _atom_site_fract_x
  _atom_site_fract_y
  _atom_site_fract_z
  _atom_site_occupancy
  Al  Al1       1.0  0.64100  0.46200  0.18000  1.0000
  Al  Al2       1.0  0.17900  0.82000  0.46200  1.0000
  Al  Al3       1.0  0.82100  0.18000  0.53800  1.0000
  Al  Al4       1.0  0.35900  0.53800  0.82000  1.0000
  C   C1        1.0  0.24800  0.65900  0.16300  1.0000
  C   C2        1.0  0.41100  0.16300  0.34100  1.0000
  C   C3        1.0  0.58900  0.83700  0.65900  1.0000
  C   C4        1.0  0.75200  0.34100  0.83700  1.0000
  Th  Th1       1.0  0.00000  0.00000  0.00000  1.0000
