# generated using pymatgen
data_Na2ZnS2
_symmetry_space_group_name_H-M   'P 1'
_cell_length_a   6.75563400
_cell_length_b   7.16493600
_cell_length_c   18.67559500
_cell_angle_alpha   90.00000000
_cell_angle_beta   90.00000000
_cell_angle_gamma   90.00000000
_symmetry_Int_Tables_number   1
_chemical_formula_structural   Na2ZnS2
_chemical_formula_sum   'Na16 Zn8 S16'
_cell_volume   903.96762223
_cell_formula_units_Z   8
loop_
 _symmetry_equiv_pos_site_id
 _symmetry_equiv_pos_as_xyz
  1  'x, y, z'
loop_
 _atom_site_type_symbol
 _atom_site_label
 _atom_site_symmetry_multiplicity
 _atom_site_fract_x
 _atom_site_fract_y
 _atom_site_fract_z
 _atom_site_occupancy
  Na  Na0  1  0.98932400  0.68570000  0.06849700  1
  Na  Na1  1  0.01067600  0.81430000  0.56849700  1
  Na  Na2  1  0.51067600  0.18570000  0.93150300  1
  Na  Na3  1  0.48932400  0.31430000  0.43150300  1
  Na  Na4  1  0.01067600  0.31430000  0.93150300  1
  Na  Na5  1  0.98932400  0.18570000  0.43150300  1
  Na  Na6  1  0.48932400  0.81430000  0.06849700  1
  Na  Na7  1  0.51067600  0.68570000  0.56849700  1
  Na  Na8  1  0.67791700  0.54405300  0.20060000  1
  Na  Na9  1  0.32208300  0.95594700  0.70060000  1
  Na  Na10  1  0.82208300  0.04405300  0.79940000  1
  Na  Na11  1  0.17791700  0.45594700  0.29940000  1
  Na  Na12  1  0.32208300  0.45594700  0.79940000  1
  Na  Na13  1  0.67791700  0.04405300  0.29940000  1
  Na  Na14  1  0.17791700  0.95594700  0.20060000  1
  Na  Na15  1  0.82208300  0.54405300  0.70060000  1
  Zn  Zn16  1  0.13352500  0.87856000  0.92108900  1
  Zn  Zn17  1  0.86647500  0.62144000  0.42108900  1
  Zn  Zn18  1  0.36647500  0.37856000  0.07891100  1
  Zn  Zn19  1  0.63352500  0.12144000  0.57891100  1
  Zn  Zn20  1  0.86647500  0.12144000  0.07891100  1
  Zn  Zn21  1  0.13352500  0.37856000  0.57891100  1
  Zn  Zn22  1  0.63352500  0.62144000  0.92108900  1
  Zn  Zn23  1  0.36647500  0.87856000  0.42108900  1
  S  S24  1  0.20787100  0.10519400  0.04790900  1
  S  S25  1  0.79212900  0.39480600  0.54790900  1
  S  S26  1  0.29212900  0.60519400  0.95209100  1
  S  S27  1  0.70787100  0.89480600  0.45209100  1
  S  S28  1  0.79212900  0.89480600  0.95209100  1
  S  S29  1  0.20787100  0.60519400  0.45209100  1
  S  S30  1  0.70787100  0.39480600  0.04790900  1
  S  S31  1  0.29212900  0.10519400  0.54790900  1
  S  S32  1  0.27529600  0.57767400  0.16619300  1
  S  S33  1  0.72470400  0.92232600  0.66619300  1
  S  S34  1  0.22470400  0.07767400  0.83380700  1
  S  S35  1  0.77529600  0.42232600  0.33380700  1
  S  S36  1  0.72470400  0.42232600  0.83380700  1
  S  S37  1  0.27529600  0.07767400  0.33380700  1
  S  S38  1  0.77529600  0.92232600  0.16619300  1
  S  S39  1  0.22470400  0.57767400  0.66619300  1
