# generated using pymatgen
data_V2Pb3O8
_symmetry_space_group_name_H-M   'P 1'
_cell_length_a   5.76958774
_cell_length_b   5.76958774
_cell_length_c   7.59407859
_cell_angle_alpha   68.70589838
_cell_angle_beta   68.70589838
_cell_angle_gamma   68.03185343
_symmetry_Int_Tables_number   1
_chemical_formula_structural   V2Pb3O8
_chemical_formula_sum   'V2 Pb3 O8'
_cell_volume   210.73941715
_cell_formula_units_Z   1
loop_
 _symmetry_equiv_pos_site_id
 _symmetry_equiv_pos_as_xyz
  1  'x, y, z'
loop_
 _atom_site_type_symbol
 _atom_site_label
 _atom_site_symmetry_multiplicity
 _atom_site_fract_x
 _atom_site_fract_y
 _atom_site_fract_z
 _atom_site_occupancy
  V  V0  1  0.40566100  0.40181400  0.80010800  1
  V  V1  1  0.59818600  0.59433900  0.19989200  1
  Pb  Pb2  1  0.83412300  0.70465500  0.62303000  1
  Pb  Pb3  1  0.29534500  0.16587700  0.37697000  1
  Pb  Pb4  1  0.01352500  0.98647500  0.00000000  1
  O  O5  1  0.31685800  0.22327400  0.04131400  1
  O  O6  1  0.77672600  0.68314200  0.95868600  1
  O  O7  1  0.23984800  0.34815200  0.67274600  1
  O  O8  1  0.65184800  0.76015200  0.32725400  1
  O  O9  1  0.33844500  0.73657500  0.76895800  1
  O  O10  1  0.69865000  0.25612000  0.28827400  1
  O  O11  1  0.74388000  0.30135000  0.71172600  1
  O  O12  1  0.26342500  0.66155500  0.23104200  1
