# generated using pymatgen
data_YbCrSb3
_symmetry_space_group_name_H-M   'P 1'
_cell_length_a   6.02671000
_cell_length_b   6.22352500
_cell_length_c   13.14951300
_cell_angle_alpha   90.00000000
_cell_angle_beta   90.00000000
_cell_angle_gamma   90.00000000
_symmetry_Int_Tables_number   1
_chemical_formula_structural   YbCrSb3
_chemical_formula_sum   'Yb4 Cr4 Sb12'
_cell_volume   493.20378554
_cell_formula_units_Z   4
loop_
 _symmetry_equiv_pos_site_id
 _symmetry_equiv_pos_as_xyz
  1  'x, y, z'
loop_
 _atom_site_type_symbol
 _atom_site_label
 _atom_site_symmetry_multiplicity
 _atom_site_fract_x
 _atom_site_fract_y
 _atom_site_fract_z
 _atom_site_occupancy
  Yb  Yb0  1  0.25000000  0.50176100  0.30842600  1
  Yb  Yb1  1  0.75000000  0.49823900  0.69157400  1
  Yb  Yb2  1  0.25000000  0.00176100  0.69157400  1
  Yb  Yb3  1  0.75000000  0.99823900  0.30842600  1
  Cr  Cr4  1  0.50000000  0.75000000  0.90403400  1
  Cr  Cr5  1  0.00000000  0.25000000  0.09596600  1
  Cr  Cr6  1  0.50000000  0.25000000  0.09596600  1
  Cr  Cr7  1  0.00000000  0.75000000  0.90403400  1
  Sb  Sb8  1  0.00000000  0.75000000  0.50203500  1
  Sb  Sb9  1  0.50000000  0.25000000  0.49796500  1
  Sb  Sb10  1  0.00000000  0.25000000  0.49796500  1
  Sb  Sb11  1  0.50000000  0.75000000  0.50203500  1
  Sb  Sb12  1  0.75000000  0.89276000  0.06384500  1
  Sb  Sb13  1  0.25000000  0.10724000  0.93615500  1
  Sb  Sb14  1  0.75000000  0.39276000  0.93615500  1
  Sb  Sb15  1  0.25000000  0.60724000  0.06384500  1
  Sb  Sb16  1  0.75000000  0.50404000  0.21590100  1
  Sb  Sb17  1  0.25000000  0.49596000  0.78409900  1
  Sb  Sb18  1  0.75000000  0.00404000  0.78409900  1
  Sb  Sb19  1  0.25000000  0.99596000  0.21590100  1
