# generated using pymatgen
data_InP3
_symmetry_space_group_name_H-M   'P 1'
_cell_length_a   5.50761397
_cell_length_b   5.50761397
_cell_length_c   5.50761300
_cell_angle_alpha   86.14094129
_cell_angle_beta   86.14094129
_cell_angle_gamma   86.14093882
_symmetry_Int_Tables_number   1
_chemical_formula_structural   InP3
_chemical_formula_sum   'In2 P6'
_cell_volume   165.97916335
_cell_formula_units_Z   2
loop_
 _symmetry_equiv_pos_site_id
 _symmetry_equiv_pos_as_xyz
  1  'x, y, z'
loop_
 _atom_site_type_symbol
 _atom_site_label
 _atom_site_symmetry_multiplicity
 _atom_site_fract_x
 _atom_site_fract_y
 _atom_site_fract_z
 _atom_site_occupancy
  In  In0  1  0.27437200  0.27437200  0.27437200  1
  In  In1  1  0.72562800  0.72562800  0.72562800  1
  P  P2  1  0.24267700  0.79813400  0.79813400  1
  P  P3  1  0.79813400  0.79813400  0.24267700  1
  P  P4  1  0.79813400  0.24267700  0.79813400  1
  P  P5  1  0.20186600  0.75732300  0.20186600  1
  P  P6  1  0.75732300  0.20186600  0.20186600  1
  P  P7  1  0.20186600  0.20186600  0.75732300  1
