# generated using pymatgen
data_USe2
_symmetry_space_group_name_H-M   'P 1'
_cell_length_a   4.14405300
_cell_length_b   7.49801300
_cell_length_c   9.07604700
_cell_angle_alpha   90.00000000
_cell_angle_beta   90.00000000
_cell_angle_gamma   90.00000000
_symmetry_Int_Tables_number   1
_chemical_formula_structural   USe2
_chemical_formula_sum   'U4 Se8'
_cell_volume   282.01241420
_cell_formula_units_Z   4
loop_
 _symmetry_equiv_pos_site_id
 _symmetry_equiv_pos_as_xyz
  1  'x, y, z'
loop_
 _atom_site_type_symbol
 _atom_site_label
 _atom_site_symmetry_multiplicity
 _atom_site_fract_x
 _atom_site_fract_y
 _atom_site_fract_z
 _atom_site_occupancy
  U  U0  1  0.25000000  0.75341300  0.13003300  1
  U  U1  1  0.75000000  0.24658700  0.86996700  1
  U  U2  1  0.25000000  0.25341300  0.36996700  1
  U  U3  1  0.75000000  0.74658700  0.63003300  1
  Se  Se4  1  0.25000000  0.03180000  0.66491000  1
  Se  Se5  1  0.75000000  0.96820000  0.33509000  1
  Se  Se6  1  0.25000000  0.53180000  0.83509000  1
  Se  Se7  1  0.75000000  0.46820000  0.16491000  1
  Se  Se8  1  0.25000000  0.64043500  0.43107300  1
  Se  Se9  1  0.75000000  0.35956500  0.56892700  1
  Se  Se10  1  0.25000000  0.14043500  0.06892700  1
  Se  Se11  1  0.75000000  0.85956500  0.93107300  1
