# generated using pymatgen
data_CaIn4Pd
_symmetry_space_group_name_H-M   'P 1'
_cell_length_a   8.75471031
_cell_length_b   8.75471031
_cell_length_c   7.64444700
_cell_angle_alpha   90.00000000
_cell_angle_beta   90.00000000
_cell_angle_gamma   150.08098267
_symmetry_Int_Tables_number   1
_chemical_formula_structural   CaIn4Pd
_chemical_formula_sum   'Ca2 In8 Pd2'
_cell_volume   292.23666440
_cell_formula_units_Z   2
loop_
 _symmetry_equiv_pos_site_id
 _symmetry_equiv_pos_as_xyz
  1  'x, y, z'
loop_
 _atom_site_type_symbol
 _atom_site_label
 _atom_site_symmetry_multiplicity
 _atom_site_fract_x
 _atom_site_fract_y
 _atom_site_fract_z
 _atom_site_occupancy
  Ca  Ca0  1  0.12754200  0.87245800  0.75000000  1
  Ca  Ca1  1  0.87245800  0.12754200  0.25000000  1
  In  In2  1  0.31728500  0.68271500  0.95030200  1
  In  In3  1  0.68271500  0.31728500  0.04969800  1
  In  In4  1  0.68271500  0.31728500  0.45030200  1
  In  In5  1  0.31728500  0.68271500  0.54969800  1
  In  In6  1  0.93424400  0.06575600  0.75000000  1
  In  In7  1  0.06575600  0.93424400  0.25000000  1
  In  In8  1  0.50000000  0.50000000  0.00000000  1
  In  In9  1  0.50000000  0.50000000  0.50000000  1
  Pd  Pd10  1  0.77253800  0.22746200  0.75000000  1
  Pd  Pd11  1  0.22746200  0.77253800  0.25000000  1
