# generated using pymatgen
data_Yb5Si4
_symmetry_space_group_name_H-M   'P 1'
_cell_length_a   7.51486400
_cell_length_b   7.80974700
_cell_length_c   15.47795200
_cell_angle_alpha   90.00000000
_cell_angle_beta   90.00000000
_cell_angle_gamma   90.00000000
_symmetry_Int_Tables_number   1
_chemical_formula_structural   Yb5Si4
_chemical_formula_sum   'Yb20 Si16'
_cell_volume   908.38841280
_cell_formula_units_Z   4
loop_
 _symmetry_equiv_pos_site_id
 _symmetry_equiv_pos_as_xyz
  1  'x, y, z'
loop_
 _atom_site_type_symbol
 _atom_site_label
 _atom_site_symmetry_multiplicity
 _atom_site_fract_x
 _atom_site_fract_y
 _atom_site_fract_z
 _atom_site_occupancy
  Yb  Yb0  1  0.31651400  0.18134000  0.12252400  1
  Yb  Yb1  1  0.81651400  0.31866000  0.37747600  1
  Yb  Yb2  1  0.18348600  0.68134000  0.87747600  1
  Yb  Yb3  1  0.68348600  0.81866000  0.62252400  1
  Yb  Yb4  1  0.31651400  0.18134000  0.37747600  1
  Yb  Yb5  1  0.81651400  0.31866000  0.12252400  1
  Yb  Yb6  1  0.18348600  0.68134000  0.62252400  1
  Yb  Yb7  1  0.68348600  0.81866000  0.87747600  1
  Yb  Yb8  1  0.96662300  0.82068700  0.40112700  1
  Yb  Yb9  1  0.46662300  0.67931300  0.09887300  1
  Yb  Yb10  1  0.53337700  0.32068700  0.59887300  1
  Yb  Yb11  1  0.03337700  0.17931300  0.90112700  1
  Yb  Yb12  1  0.03337700  0.17931300  0.59887300  1
  Yb  Yb13  1  0.53337700  0.32068700  0.90112700  1
  Yb  Yb14  1  0.46662300  0.67931300  0.40112700  1
  Yb  Yb15  1  0.96662300  0.82068700  0.09887300  1
  Yb  Yb16  1  0.35967200  0.00862600  0.75000000  1
  Yb  Yb17  1  0.85967200  0.49137400  0.75000000  1
  Yb  Yb18  1  0.14032800  0.50862600  0.25000000  1
  Yb  Yb19  1  0.64032800  0.99137400  0.25000000  1
  Si  Si20  1  0.86358100  0.52385900  0.53726300  1
  Si  Si21  1  0.36358100  0.97614100  0.96273700  1
  Si  Si22  1  0.63641900  0.02385900  0.46273700  1
  Si  Si23  1  0.13641900  0.47614100  0.03726300  1
  Si  Si24  1  0.13641900  0.47614100  0.46273700  1
  Si  Si25  1  0.63641900  0.02385900  0.03726300  1
  Si  Si26  1  0.36358100  0.97614100  0.53726300  1
  Si  Si27  1  0.86358100  0.52385900  0.96273700  1
  Si  Si28  1  0.97335300  0.90455100  0.75000000  1
  Si  Si29  1  0.47335300  0.59544900  0.75000000  1
  Si  Si30  1  0.52664700  0.40455100  0.25000000  1
  Si  Si31  1  0.02664700  0.09544900  0.25000000  1
  Si  Si32  1  0.25246800  0.37952000  0.75000000  1
  Si  Si33  1  0.75246800  0.12048000  0.75000000  1
  Si  Si34  1  0.24753200  0.87952000  0.25000000  1
  Si  Si35  1  0.74753200  0.62048000  0.25000000  1
