# generated using pymatgen
data_Li9Mn2Co5O16
_symmetry_space_group_name_H-M   'P 1'
_cell_length_a   5.12187037
_cell_length_b   7.79287881
_cell_length_c   7.79287780
_cell_angle_alpha   96.64226990
_cell_angle_beta   76.51498980
_cell_angle_gamma   76.51499694
_symmetry_Int_Tables_number   1
_chemical_formula_structural   Li9Mn2Co5O16
_chemical_formula_sum   'Li9 Mn2 Co5 O16'
_cell_volume   289.33693251
_cell_formula_units_Z   1
loop_
 _symmetry_equiv_pos_site_id
 _symmetry_equiv_pos_as_xyz
  1  'x, y, z'
loop_
 _atom_site_type_symbol
 _atom_site_label
 _atom_site_symmetry_multiplicity
 _atom_site_fract_x
 _atom_site_fract_y
 _atom_site_fract_z
 _atom_site_occupancy
  Li  Li0  1  0.99907200  0.11512900  0.37333400  1
  Li  Li1  1  0.00092800  0.62666600  0.88487100  1
  Li  Li2  1  0.51470200  0.99027500  0.49027500  1
  Li  Li3  1  0.48529800  0.50972500  0.00972500  1
  Li  Li4  1  0.99907200  0.87333400  0.61512900  1
  Li  Li5  1  0.00092800  0.38487100  0.12666600  1
  Li  Li6  1  0.50000000  0.75000000  0.75000000  1
  Li  Li7  1  0.50000000  0.25000000  0.25000000  1
  Li  Li8  1  0.00000000  0.75000000  0.25000000  1
  Mn  Mn9  1  0.00000000  0.99482000  0.00518000  1
  Mn  Mn10  1  0.00000000  0.50518000  0.49482000  1
  Co  Co11  1  0.50000000  0.87055300  0.12944700  1
  Co  Co12  1  0.50000000  0.37491500  0.62508500  1
  Co  Co13  1  0.00000000  0.25000000  0.75000000  1
  Co  Co14  1  0.50000000  0.62944700  0.37055300  1
  Co  Co15  1  0.50000000  0.12508500  0.87491500  1
  O  O16  1  0.76592400  0.00497100  0.23344600  1
  O  O17  1  0.76582400  0.48963700  0.73496900  1
  O  O18  1  0.27852800  0.86587900  0.36587900  1
  O  O19  1  0.26540600  0.36488000  0.86488000  1
  O  O20  1  0.76592400  0.73344600  0.50497100  1
  O  O21  1  0.76582400  0.23496900  0.98963700  1
  O  O22  1  0.24807800  0.60787500  0.60446300  1
  O  O23  1  0.24807800  0.10446300  0.10787500  1
  O  O24  1  0.23417600  0.26503100  0.51036300  1
  O  O25  1  0.23407600  0.76655400  0.99502900  1
  O  O26  1  0.73459400  0.13512000  0.63512000  1
  O  O27  1  0.72147200  0.63412100  0.13412100  1
  O  O28  1  0.23417600  0.01036300  0.76503100  1
  O  O29  1  0.23407600  0.49502900  0.26655400  1
  O  O30  1  0.75192200  0.89212500  0.89553700  1
  O  O31  1  0.75192200  0.39553700  0.39212500  1
