# generated using pymatgen
data_NdSnPt
_symmetry_space_group_name_H-M   'P 1'
_cell_length_a   4.64940600
_cell_length_b   7.48278500
_cell_length_c   8.12886500
_cell_angle_alpha   90.00000000
_cell_angle_beta   90.00000000
_cell_angle_gamma   90.00000000
_symmetry_Int_Tables_number   1
_chemical_formula_structural   NdSnPt
_chemical_formula_sum   'Nd4 Sn4 Pt4'
_cell_volume   282.80732229
_cell_formula_units_Z   4
loop_
 _symmetry_equiv_pos_site_id
 _symmetry_equiv_pos_as_xyz
  1  'x, y, z'
loop_
 _atom_site_type_symbol
 _atom_site_label
 _atom_site_symmetry_multiplicity
 _atom_site_fract_x
 _atom_site_fract_y
 _atom_site_fract_z
 _atom_site_occupancy
  Nd  Nd0  1  0.75000000  0.48812200  0.80463100  1
  Nd  Nd1  1  0.25000000  0.01187800  0.30463100  1
  Nd  Nd2  1  0.75000000  0.98812200  0.69536900  1
  Nd  Nd3  1  0.25000000  0.51187800  0.19536900  1
  Sn  Sn4  1  0.25000000  0.67711200  0.58397700  1
  Sn  Sn5  1  0.25000000  0.17711200  0.91602300  1
  Sn  Sn6  1  0.75000000  0.32288800  0.41602300  1
  Sn  Sn7  1  0.75000000  0.82288800  0.08397700  1
  Pt  Pt8  1  0.25000000  0.78929600  0.90895600  1
  Pt  Pt9  1  0.25000000  0.28929600  0.59104400  1
  Pt  Pt10  1  0.75000000  0.71070400  0.40895600  1
  Pt  Pt11  1  0.75000000  0.21070400  0.09104400  1
