# generated using pymatgen
data_VAsRh
_symmetry_space_group_name_H-M   'P 1'
_cell_length_a   3.90790300
_cell_length_b   6.15626900
_cell_length_c   7.30143500
_cell_angle_alpha   90.00000000
_cell_angle_beta   90.00000000
_cell_angle_gamma   90.00000000
_symmetry_Int_Tables_number   1
_chemical_formula_structural   VAsRh
_chemical_formula_sum   'V4 As4 Rh4'
_cell_volume   175.65866866
_cell_formula_units_Z   4
loop_
 _symmetry_equiv_pos_site_id
 _symmetry_equiv_pos_as_xyz
  1  'x, y, z'
loop_
 _atom_site_type_symbol
 _atom_site_label
 _atom_site_symmetry_multiplicity
 _atom_site_fract_x
 _atom_site_fract_y
 _atom_site_fract_z
 _atom_site_occupancy
  V  V0  1  0.25000000  0.53050100  0.32159400  1
  V  V1  1  0.25000000  0.03050100  0.17840600  1
  V  V2  1  0.75000000  0.46949900  0.67840600  1
  V  V3  1  0.75000000  0.96949900  0.82159400  1
  As  As4  1  0.25000000  0.24223100  0.88140300  1
  As  As5  1  0.25000000  0.74223100  0.61859700  1
  As  As6  1  0.75000000  0.75776900  0.11859700  1
  As  As7  1  0.75000000  0.25776900  0.38140300  1
  Rh  Rh8  1  0.25000000  0.64551200  0.93668600  1
  Rh  Rh9  1  0.25000000  0.14551200  0.56331400  1
  Rh  Rh10  1  0.75000000  0.35448800  0.06331400  1
  Rh  Rh11  1  0.75000000  0.85448800  0.43668600  1
