# generated using pymatgen
data_CdInS2
_symmetry_space_group_name_H-M   'P 1'
_cell_length_a   3.86949614
_cell_length_b   3.86949614
_cell_length_c   6.81052900
_cell_angle_alpha   90.00000000
_cell_angle_beta   90.00000000
_cell_angle_gamma   120.00000243
_symmetry_Int_Tables_number   1
_chemical_formula_structural   CdInS2
_chemical_formula_sum   'Cd1 In1 S2'
_cell_volume   88.31211861
_cell_formula_units_Z   1
loop_
 _symmetry_equiv_pos_site_id
 _symmetry_equiv_pos_as_xyz
  1  'x, y, z'
loop_
 _atom_site_type_symbol
 _atom_site_label
 _atom_site_symmetry_multiplicity
 _atom_site_fract_x
 _atom_site_fract_y
 _atom_site_fract_z
 _atom_site_occupancy
  Cd  Cd0  1  0.00000000  0.00000000  0.00000000  1
  In  In1  1  0.00000000  0.00000000  0.50000000  1
  S  S2  1  0.66666700  0.33333300  0.75504900  1
  S  S3  1  0.33333300  0.66666700  0.24495100  1
