# generated using pymatgen
data_U3Co2Ge7
_symmetry_space_group_name_H-M   'P 1'
_cell_length_a   12.62934826
_cell_length_b   12.62934826
_cell_length_c   4.17751800
_cell_angle_alpha   90.00000000
_cell_angle_beta   90.00000000
_cell_angle_gamma   161.10919695
_symmetry_Int_Tables_number   1
_chemical_formula_structural   U3Co2Ge7
_chemical_formula_sum   'U3 Co2 Ge7'
_cell_volume   215.73015017
_cell_formula_units_Z   1
loop_
 _symmetry_equiv_pos_site_id
 _symmetry_equiv_pos_as_xyz
  1  'x, y, z'
loop_
 _atom_site_type_symbol
 _atom_site_label
 _atom_site_symmetry_multiplicity
 _atom_site_fract_x
 _atom_site_fract_y
 _atom_site_fract_z
 _atom_site_occupancy
  U  U0  1  0.18581300  0.81418700  0.00000000  1
  U  U1  1  0.81418700  0.18581300  0.00000000  1
  U  U2  1  0.50000000  0.50000000  0.50000000  1
  Co  Co3  1  0.37229600  0.62770400  0.50000000  1
  Co  Co4  1  0.62770400  0.37229600  0.50000000  1
  Ge  Ge5  1  0.27971100  0.72028900  0.50000000  1
  Ge  Ge6  1  0.00000000  0.00000000  0.00000000  1
  Ge  Ge7  1  0.58803200  0.41196800  0.00000000  1
  Ge  Ge8  1  0.41196800  0.58803200  0.00000000  1
  Ge  Ge9  1  0.91289200  0.08710800  0.50000000  1
  Ge  Ge10  1  0.08710800  0.91289200  0.50000000  1
  Ge  Ge11  1  0.72028900  0.27971100  0.50000000  1
