# generated using pymatgen
data_Na2Gd2Ti3O10
_symmetry_space_group_name_H-M   'P 1'
_cell_length_a   14.56176322
_cell_length_b   14.56176322
_cell_length_c   14.56176322
_cell_angle_alpha   164.88020675
_cell_angle_beta   164.88020675
_cell_angle_gamma   21.44559472
_symmetry_Int_Tables_number   1
_chemical_formula_structural   Na2Gd2Ti3O10
_chemical_formula_sum   'Na2 Gd2 Ti3 O10'
_cell_volume   210.04691895
_cell_formula_units_Z   1
loop_
 _symmetry_equiv_pos_site_id
 _symmetry_equiv_pos_as_xyz
  1  'x, y, z'
loop_
 _atom_site_type_symbol
 _atom_site_label
 _atom_site_symmetry_multiplicity
 _atom_site_fract_x
 _atom_site_fract_y
 _atom_site_fract_z
 _atom_site_occupancy
  Na  Na0  1  0.71206500  0.71206500  0.00000000  1
  Na  Na1  1  0.28793500  0.28793500  0.00000000  1
  Gd  Gd2  1  0.57582800  0.57582800  0.00000000  1
  Gd  Gd3  1  0.42417200  0.42417200  0.00000000  1
  Ti  Ti4  1  0.85404300  0.85404300  0.00000000  1
  Ti  Ti5  1  0.14595700  0.14595700  0.00000000  1
  Ti  Ti6  1  0.00000000  0.00000000  0.00000000  1
  O  O7  1  0.36928500  0.86928500  0.50000000  1
  O  O8  1  0.86928500  0.36928500  0.50000000  1
  O  O9  1  0.63071500  0.13071500  0.50000000  1
  O  O10  1  0.13071500  0.63071500  0.50000000  1
  O  O11  1  0.79231200  0.79231200  0.00000000  1
  O  O12  1  0.20768800  0.20768800  0.00000000  1
  O  O13  1  0.50000000  0.00000000  0.50000000  1
  O  O14  1  0.06759200  0.06759200  0.00000000  1
  O  O15  1  0.93240800  0.93240800  0.00000000  1
  O  O16  1  0.00000000  0.50000000  0.50000000  1
