# generated using pymatgen
data_Fe(SbS2)2
_symmetry_space_group_name_H-M   'P 1'
_cell_length_a   3.63153800
_cell_length_b   11.29513500
_cell_length_c   13.73866200
_cell_angle_alpha   90.00000000
_cell_angle_beta   90.00000000
_cell_angle_gamma   90.00000000
_symmetry_Int_Tables_number   1
_chemical_formula_structural   Fe(SbS2)2
_chemical_formula_sum   'Fe4 Sb8 S16'
_cell_volume   563.54221940
_cell_formula_units_Z   4
loop_
 _symmetry_equiv_pos_site_id
 _symmetry_equiv_pos_as_xyz
  1  'x, y, z'
loop_
 _atom_site_type_symbol
 _atom_site_label
 _atom_site_symmetry_multiplicity
 _atom_site_fract_x
 _atom_site_fract_y
 _atom_site_fract_z
 _atom_site_occupancy
  Fe  Fe0  1  0.25000000  0.83027200  0.83745200  1
  Fe  Fe1  1  0.25000000  0.33027200  0.66254800  1
  Fe  Fe2  1  0.75000000  0.16972800  0.16254800  1
  Fe  Fe3  1  0.75000000  0.66972800  0.33745200  1
  Sb  Sb4  1  0.25000000  0.64885700  0.57498700  1
  Sb  Sb5  1  0.25000000  0.14885700  0.92501300  1
  Sb  Sb6  1  0.75000000  0.35114300  0.42501300  1
  Sb  Sb7  1  0.75000000  0.85114300  0.07498700  1
  Sb  Sb8  1  0.75000000  0.53399200  0.88869900  1
  Sb  Sb9  1  0.75000000  0.03399200  0.61130100  1
  Sb  Sb10  1  0.25000000  0.46600800  0.11130100  1
  Sb  Sb11  1  0.25000000  0.96600800  0.38869900  1
  S  S12  1  0.75000000  0.71551400  0.78141800  1
  S  S13  1  0.75000000  0.21551400  0.71858200  1
  S  S14  1  0.25000000  0.28448600  0.21858200  1
  S  S15  1  0.25000000  0.78448600  0.28141800  1
  S  S16  1  0.25000000  0.90406000  0.68723000  1
  S  S17  1  0.25000000  0.40406000  0.81277000  1
  S  S18  1  0.75000000  0.09594000  0.31277000  1
  S  S19  1  0.75000000  0.59594000  0.18723000  1
  S  S20  1  0.25000000  0.73323700  0.98245000  1
  S  S21  1  0.25000000  0.23323700  0.51755000  1
  S  S22  1  0.75000000  0.26676300  0.01755000  1
  S  S23  1  0.75000000  0.76676300  0.48245000  1
  S  S24  1  0.75000000  0.93862600  0.89811900  1
  S  S25  1  0.75000000  0.43862600  0.60188100  1
  S  S26  1  0.25000000  0.06137400  0.10188100  1
  S  S27  1  0.25000000  0.56137400  0.39811900  1
