# generated using pymatgen
data_Ca2PdWO6
_symmetry_space_group_name_H-M   'P 1'
_cell_length_a   5.81129029
_cell_length_b   5.81129029
_cell_length_c   5.81129029
_cell_angle_alpha   121.99511741
_cell_angle_beta   116.65168328
_cell_angle_gamma   91.23697070
_symmetry_Int_Tables_number   1
_chemical_formula_structural   Ca2PdWO6
_chemical_formula_sum   'Ca2 Pd1 W1 O6'
_cell_volume   139.78490739
_cell_formula_units_Z   1
loop_
 _symmetry_equiv_pos_site_id
 _symmetry_equiv_pos_as_xyz
  1  'x, y, z'
loop_
 _atom_site_type_symbol
 _atom_site_label
 _atom_site_symmetry_multiplicity
 _atom_site_fract_x
 _atom_site_fract_y
 _atom_site_fract_z
 _atom_site_occupancy
  Ca  Ca0  1  0.82736500  0.25151700  0.57584800  1
  Ca  Ca1  1  0.32433100  0.74848300  0.57584800  1
  Pd  Pd2  1  0.48397500  0.50000000  0.98397500  1
  W  W3  1  0.97466700  0.00000000  0.97466700  1
  O  O4  1  0.19480100  0.23749700  0.95730400  1
  O  O5  1  0.71980800  0.76250300  0.95730400  1
  O  O6  1  0.18007700  0.74324900  0.92332600  1
  O  O7  1  0.18007700  0.25675100  0.43682900  1
  O  O8  1  0.72245100  0.77721200  0.49966300  1
  O  O9  1  0.72245100  0.22278800  0.94523900  1
