data_image0
_chemical_formula_structural       As2Ge2Te5
_chemical_formula_sum              "As2 Ge2 Te5"
_cell_length_a       4.16507
_cell_length_b       4.16506
_cell_length_c       16.7649
_cell_angle_alpha    90
_cell_angle_beta     90.0007
_cell_angle_gamma    120

_space_group_name_H-M_alt    "P 1"
_space_group_IT_number       1

loop_
  _space_group_symop_operation_xyz
  'x, y, z'

loop_
  _atom_site_type_symbol
  _atom_site_label
  _atom_site_symmetry_multiplicity
  _atom_site_fract_x
  _atom_site_fract_y
  _atom_site_fract_z
  _atom_site_occupancy
  As  As1       1.0  0.00003  0.00001  0.32100  1.0000
  As  As2       1.0  0.00000  0.00000  0.67900  1.0000
  Ge  Ge1       1.0  0.33300  0.66700  0.10600  1.0000
  Ge  Ge2       1.0  0.66700  0.33300  0.89400  1.0000
  Te  Te1       1.0  0.00000  0.00000  0.00000  1.0000
  Te  Te2       1.0  0.66700  0.33300  0.21000  1.0000
  Te  Te3       1.0  0.33300  0.66700  0.41400  1.0000
  Te  Te4       1.0  0.66700  0.33300  0.58600  1.0000
  Te  Te5       1.0  0.33300  0.66700  0.79000  1.0000
