# generated using pymatgen
data_TlTe
_symmetry_space_group_name_H-M   'P 1'
_cell_length_a   9.81701080
_cell_length_b   9.81701080
_cell_length_c   9.81701080
_cell_angle_alpha   95.94264610
_cell_angle_beta   95.94264610
_cell_angle_gamma   142.46057248
_symmetry_Int_Tables_number   1
_chemical_formula_structural   TlTe
_chemical_formula_sum   'Tl8 Te8'
_cell_volume   545.80978356
_cell_formula_units_Z   8
loop_
 _symmetry_equiv_pos_site_id
 _symmetry_equiv_pos_as_xyz
  1  'x, y, z'
loop_
 _atom_site_type_symbol
 _atom_site_label
 _atom_site_symmetry_multiplicity
 _atom_site_fract_x
 _atom_site_fract_y
 _atom_site_fract_z
 _atom_site_occupancy
  Tl  Tl0  1  0.42063900  0.72809200  0.14873100  1
  Tl  Tl1  1  0.57936100  0.27190800  0.85126900  1
  Tl  Tl2  1  0.27190800  0.42063900  0.69254700  1
  Tl  Tl3  1  0.72809200  0.57936100  0.30745300  1
  Tl  Tl4  1  0.07936100  0.22809200  0.30745300  1
  Tl  Tl5  1  0.77190800  0.07936100  0.85126900  1
  Tl  Tl6  1  0.22809200  0.92063900  0.14873100  1
  Tl  Tl7  1  0.92063900  0.77190800  0.69254700  1
  Te  Te8  1  0.75000000  0.75000000  0.00000000  1
  Te  Te9  1  0.25000000  0.25000000  0.00000000  1
  Te  Te10  1  0.50000000  0.00000000  0.50000000  1
  Te  Te11  1  0.00000000  0.50000000  0.50000000  1
  Te  Te12  1  0.16267700  0.66267700  0.82535400  1
  Te  Te13  1  0.33732300  0.16267700  0.50000000  1
  Te  Te14  1  0.66267700  0.83732300  0.50000000  1
  Te  Te15  1  0.83732300  0.33732300  0.17464600  1
