# generated using pymatgen
data_Na5Fe2P2(CO7)2
_symmetry_space_group_name_H-M   'P 1'
_cell_length_a   8.44033300
_cell_length_b   8.44007926
_cell_length_c   9.01939973
_cell_angle_alpha   89.96394456
_cell_angle_beta   90.71793440
_cell_angle_gamma   103.19506722
_symmetry_Int_Tables_number   1
_chemical_formula_structural   Na5Fe2P2(CO7)2
_chemical_formula_sum   'Na10 Fe4 P4 C4 O28'
_cell_volume   625.50160488
_cell_formula_units_Z   2
loop_
 _symmetry_equiv_pos_site_id
 _symmetry_equiv_pos_as_xyz
  1  'x, y, z'
loop_
 _atom_site_type_symbol
 _atom_site_label
 _atom_site_symmetry_multiplicity
 _atom_site_fract_x
 _atom_site_fract_y
 _atom_site_fract_z
 _atom_site_occupancy
  Na  Na0  1  0.75779200  0.49274600  0.07914700  1
  Na  Na1  1  0.24373800  0.97883700  0.08355900  1
  Na  Na2  1  0.87721700  0.86134200  0.26431000  1
  Na  Na3  1  0.61117000  0.11775800  0.26691200  1
  Na  Na4  1  0.38010900  0.38435700  0.26003900  1
  Na  Na5  1  0.38883000  0.88224200  0.73308800  1
  Na  Na6  1  0.61989100  0.61564300  0.73996100  1
  Na  Na7  1  0.12278300  0.13865800  0.73569000  1
  Na  Na8  1  0.24220800  0.50725400  0.92085300  1
  Na  Na9  1  0.75626200  0.02116300  0.91644100  1
  Fe  Fe10  1  0.98252900  0.23992600  0.35593800  1
  Fe  Fe11  1  0.47809400  0.73325000  0.34203800  1
  Fe  Fe12  1  0.01747100  0.76007400  0.64406200  1
  Fe  Fe13  1  0.52190600  0.26675000  0.65796200  1
  P  P14  1  0.77200200  0.52218200  0.42013600  1
  P  P15  1  0.26801400  0.02351700  0.41795100  1
  P  P16  1  0.73198600  0.97648300  0.58204900  1
  P  P17  1  0.22799800  0.47781800  0.57986400  1
  C  C18  1  0.51658200  0.76085300  0.05247300  1
  C  C19  1  0.01065000  0.25186500  0.07362100  1
  C  C20  1  0.98935000  0.74813500  0.92637900  1
  C  C21  1  0.48341800  0.23914700  0.94752700  1
  O  O22  1  0.97153600  0.74334000  0.06624900  1
  O  O23  1  0.47282300  0.22602800  0.09015400  1
  O  O24  1  0.40990000  0.64392200  0.11321900  1
  O  O25  1  0.89022900  0.14806500  0.13703500  1
  O  O26  1  0.61239100  0.86684600  0.13846200  1
  O  O27  1  0.10857400  0.35005800  0.16434500  1
  O  O28  1  0.83247700  0.39047000  0.32785900  1
  O  O29  1  0.33228400  0.90324900  0.31909200  1
  O  O30  1  0.65517500  0.58534400  0.31220000  1
  O  O31  1  0.12971500  0.07664500  0.32681200  1
  O  O32  1  0.30587500  0.54628900  0.43517900  1
  O  O33  1  0.80274600  0.05549400  0.43245000  1
  O  O34  1  0.91803800  0.67053100  0.45704400  1
  O  O35  1  0.40783800  0.17366000  0.45193500  1
  O  O36  1  0.59216200  0.82634000  0.54806500  1
  O  O37  1  0.08196200  0.32946900  0.54295600  1
  O  O38  1  0.19725400  0.94450600  0.56755000  1
  O  O39  1  0.69412500  0.45371100  0.56482100  1
  O  O40  1  0.87028500  0.92335500  0.67318800  1
  O  O41  1  0.16752300  0.60953000  0.67214100  1
  O  O42  1  0.34482500  0.41465600  0.68780000  1
  O  O43  1  0.66771600  0.09675100  0.68090800  1
  O  O44  1  0.89142600  0.64994200  0.83565500  1
  O  O45  1  0.38760900  0.13315400  0.86153800  1
  O  O46  1  0.59010000  0.35607800  0.88678100  1
  O  O47  1  0.10977100  0.85193500  0.86296500  1
  O  O48  1  0.52717700  0.77397200  0.90984600  1
  O  O49  1  0.02846400  0.25666000  0.93375100  1
