# generated using pymatgen
data_Na3Ni2P2(CO7)2
_symmetry_space_group_name_H-M   'P 1'
_cell_length_a   6.58976200
_cell_length_b   8.87797300
_cell_length_c   10.36161872
_cell_angle_alpha   88.69738658
_cell_angle_beta   90.00000000
_cell_angle_gamma   90.00000000
_symmetry_Int_Tables_number   1
_chemical_formula_structural   Na3Ni2P2(CO7)2
_chemical_formula_sum   'Na6 Ni4 P4 C4 O28'
_cell_volume   606.03667816
_cell_formula_units_Z   2
loop_
 _symmetry_equiv_pos_site_id
 _symmetry_equiv_pos_as_xyz
  1  'x, y, z'
loop_
 _atom_site_type_symbol
 _atom_site_label
 _atom_site_symmetry_multiplicity
 _atom_site_fract_x
 _atom_site_fract_y
 _atom_site_fract_z
 _atom_site_occupancy
  Na  Na0  1  0.52882200  0.74414200  0.62769100  1
  Na  Na1  1  0.98816500  0.74703700  0.12608400  1
  Na  Na2  1  0.50933300  0.74906800  0.12929000  1
  Na  Na3  1  0.02882200  0.25585800  0.37230900  1
  Na  Na4  1  0.48816500  0.25296300  0.87391600  1
  Na  Na5  1  0.00933300  0.25093200  0.87071000  1
  Ni  Ni6  1  0.24696900  0.65171100  0.36234900  1
  Ni  Ni7  1  0.24358800  0.65636400  0.85675900  1
  Ni  Ni8  1  0.74696900  0.34828900  0.63765100  1
  Ni  Ni9  1  0.74358800  0.34363600  0.14324100  1
  P  P10  1  0.74702200  0.57530600  0.38799300  1
  P  P11  1  0.74788800  0.57718100  0.89454800  1
  P  P12  1  0.24702200  0.42469400  0.61200700  1
  P  P13  1  0.24788800  0.42281900  0.10545200  1
  C  C14  1  0.25238600  0.92785000  0.39330400  1
  C  C15  1  0.25210300  0.92987100  0.89307000  1
  C  C16  1  0.75238600  0.07215000  0.60669600  1
  C  C17  1  0.75210300  0.07012900  0.10693000  1
  O  O18  1  0.75085800  0.93349500  0.58875200  1
  O  O19  1  0.75031300  0.93094900  0.08891800  1
  O  O20  1  0.24674700  0.86919400  0.27918200  1
  O  O21  1  0.25532600  0.87036700  0.78039300  1
  O  O22  1  0.25907800  0.82872700  0.48736600  1
  O  O23  1  0.24971600  0.82909900  0.98752900  1
  O  O24  1  0.93530500  0.66980700  0.34768200  1
  O  O25  1  0.55960500  0.66925300  0.34740200  1
  O  O26  1  0.93581900  0.67547500  0.86612600  1
  O  O27  1  0.56119000  0.67360500  0.85517100  1
  O  O28  1  0.25747800  0.57716200  0.68210200  1
  O  O29  1  0.24962800  0.57297800  0.17834600  1
  O  O30  1  0.74107200  0.53971900  0.53511300  1
  O  O31  1  0.74143300  0.54077400  0.04408000  1
  O  O32  1  0.24107200  0.46028100  0.46488700  1
  O  O33  1  0.24143300  0.45922600  0.95592000  1
  O  O34  1  0.75747800  0.42283800  0.31789800  1
  O  O35  1  0.74962800  0.42702200  0.82165400  1
  O  O36  1  0.43530500  0.33019300  0.65231800  1
  O  O37  1  0.05960500  0.33074700  0.65259800  1
  O  O38  1  0.43581900  0.32452500  0.13387400  1
  O  O39  1  0.06119000  0.32639500  0.14482900  1
  O  O40  1  0.75907800  0.17127300  0.51263400  1
  O  O41  1  0.74971600  0.17090100  0.01247100  1
  O  O42  1  0.74674700  0.13080600  0.72081800  1
  O  O43  1  0.75532600  0.12963300  0.21960700  1
  O  O44  1  0.25085800  0.06650500  0.41124800  1
  O  O45  1  0.25031300  0.06905100  0.91108200  1
