# generated using pymatgen
data_Na5Fe2P2(CO7)2
_symmetry_space_group_name_H-M   'P 1'
_cell_length_a   10.40524817
_cell_length_b   8.46357791
_cell_length_c   8.49036258
_cell_angle_alpha   76.85363404
_cell_angle_beta   71.28635830
_cell_angle_gamma   107.52191191
_symmetry_Int_Tables_number   1
_chemical_formula_structural   Na5Fe2P2(CO7)2
_chemical_formula_sum   'Na10 Fe4 P4 C4 O28'
_cell_volume   630.36423578
_cell_formula_units_Z   2
loop_
 _symmetry_equiv_pos_site_id
 _symmetry_equiv_pos_as_xyz
  1  'x, y, z'
loop_
 _atom_site_type_symbol
 _atom_site_label
 _atom_site_symmetry_multiplicity
 _atom_site_fract_x
 _atom_site_fract_y
 _atom_site_fract_z
 _atom_site_occupancy
  Na  Na0  1  0.91493800  0.70916800  0.55005200  1
  Na  Na1  1  0.92137300  0.21127000  0.05879600  1
  Na  Na2  1  0.72813700  0.75886100  0.26648300  1
  Na  Na3  1  0.73574700  0.49613000  0.00236200  1
  Na  Na4  1  0.74140000  0.23496100  0.75852900  1
  Na  Na5  1  0.27186300  0.74113900  0.23351700  1
  Na  Na6  1  0.25860000  0.26503900  0.74147100  1
  Na  Na7  1  0.26425300  0.00387000  0.49763800  1
  Na  Na8  1  0.07862700  0.28873000  0.44120400  1
  Na  Na9  1  0.08506200  0.79083200  0.94994800  1
  Fe  Fe10  1  0.64773700  0.30031900  0.44405400  1
  Fe  Fe11  1  0.65340300  0.81539100  0.92609500  1
  Fe  Fe12  1  0.35226300  0.19968100  0.05594600  1
  Fe  Fe13  1  0.34659700  0.68460900  0.57390500  1
  P  P14  1  0.58078500  0.55444800  0.68992100  1
  P  P15  1  0.57906100  0.06428900  0.18485300  1
  P  P16  1  0.42093900  0.43571100  0.31514700  1
  P  P17  1  0.41921400  0.94555200  0.81007900  1
  C  C18  1  0.92848000  0.48228400  0.27849900  1
  C  C19  1  0.94453500  0.98121000  0.77198400  1
  C  C20  1  0.07152000  0.01771600  0.22150100  1
  C  C21  1  0.05546500  0.51879000  0.72801600  1
  O  O22  1  0.93262200  0.92702000  0.29615900  1
  O  O23  1  0.91207600  0.44161100  0.80787500  1
  O  O24  1  0.86624900  0.33348400  0.41601500  1
  O  O25  1  0.87860200  0.83407800  0.91179700  1
  O  O26  1  0.83594700  0.52866400  0.22322300  1
  O  O27  1  0.86297600  0.04558800  0.71512800  1
  O  O28  1  0.68533000  0.99370000  0.07850300  1
  O  O29  1  0.67699100  0.65387100  0.77138500  1
  O  O30  1  0.67720800  0.47290000  0.57969400  1
  O  O31  1  0.67012100  0.18766000  0.25784000  1
  O  O32  1  0.56645800  0.58384400  0.16908500  1
  O  O33  1  0.56709000  0.09627200  0.66118000  1
  O  O34  1  0.54257200  0.18757100  0.05092400  1
  O  O35  1  0.54447500  0.67803600  0.56415200  1
  O  O36  1  0.45552500  0.82196400  0.93584800  1
  O  O37  1  0.45742800  0.31242900  0.44907600  1
  O  O38  1  0.43354200  0.91615600  0.33091500  1
  O  O39  1  0.43291000  0.40372800  0.83882000  1
  O  O40  1  0.32300900  0.84612900  0.72861500  1
  O  O41  1  0.31467000  0.50630000  0.42149700  1
  O  O42  1  0.32987900  0.31234000  0.24216000  1
  O  O43  1  0.32279200  0.02710000  0.92030600  1
  O  O44  1  0.16405300  0.97133600  0.27677800  1
  O  O45  1  0.13702400  0.45441200  0.78487200  1
  O  O46  1  0.13375100  0.16651600  0.08398500  1
  O  O47  1  0.12139800  0.66592200  0.58820300  1
  O  O48  1  0.06737800  0.57298000  0.20384100  1
  O  O49  1  0.08792400  0.05838900  0.69212500  1
