# generated using pymatgen
data_GeRh
_symmetry_space_group_name_H-M   'P 1'
_cell_length_a   4.92586600
_cell_length_b   4.92586600
_cell_length_c   4.92586600
_cell_angle_alpha   90.00000000
_cell_angle_beta   90.00000000
_cell_angle_gamma   90.00000000
_symmetry_Int_Tables_number   1
_chemical_formula_structural   GeRh
_chemical_formula_sum   'Ge4 Rh4'
_cell_volume   119.52198032
_cell_formula_units_Z   4
loop_
 _symmetry_equiv_pos_site_id
 _symmetry_equiv_pos_as_xyz
  1  'x, y, z'
loop_
 _atom_site_type_symbol
 _atom_site_label
 _atom_site_symmetry_multiplicity
 _atom_site_fract_x
 _atom_site_fract_y
 _atom_site_fract_z
 _atom_site_occupancy
  Ge  Ge0  1  0.16298400  0.33701600  0.66298400  1
  Ge  Ge1  1  0.33701600  0.66298400  0.16298400  1
  Ge  Ge2  1  0.66298400  0.16298400  0.33701600  1
  Ge  Ge3  1  0.83701600  0.83701600  0.83701600  1
  Rh  Rh4  1  0.87340800  0.62659200  0.37340800  1
  Rh  Rh5  1  0.62659200  0.37340800  0.87340800  1
  Rh  Rh6  1  0.37340800  0.87340800  0.62659200  1
  Rh  Rh7  1  0.12659200  0.12659200  0.12659200  1
