# generated using pymatgen
data_Na5Co2P(CO4)4
_symmetry_space_group_name_H-M   'P 1'
_cell_length_a   9.94579479
_cell_length_b   9.94112542
_cell_length_c   9.94579479
_cell_angle_alpha   59.60690533
_cell_angle_beta   90.65230185
_cell_angle_gamma   120.39309467
_symmetry_Int_Tables_number   1
_chemical_formula_structural   Na5Co2P(CO4)4
_chemical_formula_sum   'Na10 Co4 P2 C8 O32'
_cell_volume   690.99714603
_cell_formula_units_Z   2
loop_
 _symmetry_equiv_pos_site_id
 _symmetry_equiv_pos_as_xyz
  1  'x, y, z'
loop_
 _atom_site_type_symbol
 _atom_site_label
 _atom_site_symmetry_multiplicity
 _atom_site_fract_x
 _atom_site_fract_y
 _atom_site_fract_z
 _atom_site_occupancy
  Na  Na0  1  0.67399700  0.32424300  0.09434800  1
  Na  Na1  1  0.34806000  0.26671500  0.32707900  1
  Na  Na2  1  0.90565200  0.82424300  0.32600300  1
  Na  Na3  1  0.90620600  0.23328500  0.91865500  1
  Na  Na4  1  0.08134500  0.73328500  0.09379400  1
  Na  Na5  1  0.08141000  0.17575700  0.65024500  1
  Na  Na6  1  0.67292100  0.76671500  0.65194000  1
  Na  Na7  1  0.33797500  0.25000000  0.91202500  1
  Na  Na8  1  0.34975500  0.67575700  0.91859000  1
  Na  Na9  1  0.08797500  0.75000000  0.66202500  1
  Co  Co10  1  0.49995200  0.99648100  0.00322300  1
  Co  Co11  1  0.50347200  0.00351900  0.49970300  1
  Co  Co12  1  0.50029700  0.50351900  0.49652800  1
  Co  Co13  1  0.99677700  0.49648100  0.50004800  1
  P  P14  1  0.12932000  0.25000000  0.12068000  1
  P  P15  1  0.87932000  0.75000000  0.87068000  1
  C  C16  1  0.71370900  0.07048800  0.71688000  1
  C  C17  1  0.71263200  0.42951200  0.35677900  1
  C  C18  1  0.35068100  0.06683500  0.71637600  1
  C  C19  1  0.71678800  0.43316500  0.71615500  1
  C  C20  1  0.64322100  0.92951200  0.28736800  1
  C  C21  1  0.28312000  0.57048800  0.28629100  1
  C  C22  1  0.28384500  0.93316500  0.28321200  1
  C  C23  1  0.28362400  0.56683500  0.64931900  1
  O  O24  1  0.65020900  0.05029200  0.14184500  1
  O  O25  1  0.85807300  0.20750300  0.60689600  1
  O  O26  1  0.68560100  0.29249700  0.34943000  1
  O  O27  1  0.39963100  0.05219300  0.30733700  1
  O  O28  1  0.85815500  0.55029200  0.34979100  1
  O  O29  1  0.32071700  0.37829000  0.05858500  1
  O  O30  1  0.06312600  0.12171000  0.05757300  1
  O  O31  1  0.59761800  0.45362200  0.36345400  1
  O  O32  1  0.68292400  0.04637800  0.85600500  1
  O  O33  1  0.35016800  0.04036700  0.60074100  1
  O  O34  1  0.85889200  0.45963300  0.69019900  1
  O  O35  1  0.06646800  0.37930600  0.05605600  1
  O  O36  1  0.06463800  0.12069400  0.31283700  1
  O  O37  1  0.65057000  0.79249700  0.31439900  1
  O  O38  1  0.39310400  0.70750300  0.14192700  1
  O  O39  1  0.69266300  0.55219300  0.60036900  1
  O  O40  1  0.30786300  0.44970800  0.40008200  1
  O  O41  1  0.34641100  0.20585800  0.69120600  1
  O  O42  1  0.60293600  0.29414200  0.85944700  1
  O  O43  1  0.94242700  0.62171000  0.93687400  1
  O  O44  1  0.94141500  0.87829000  0.67928300  1
  O  O45  1  0.14399500  0.54637800  0.31707600  1
  O  O46  1  0.63654600  0.95362200  0.40238200  1
  O  O47  1  0.30980100  0.95963300  0.14110800  1
  O  O48  1  0.39925900  0.54036700  0.64983200  1
  O  O49  1  0.94394400  0.87930600  0.93353200  1
  O  O50  1  0.68716300  0.62069400  0.93536200  1
  O  O51  1  0.14047000  0.44780700  0.65256100  1
  O  O52  1  0.59991800  0.94970800  0.69213700  1
  O  O53  1  0.30879400  0.70585800  0.65358900  1
  O  O54  1  0.14055300  0.79414200  0.39706400  1
  O  O55  1  0.34743900  0.94780700  0.85953000  1
