# generated using pymatgen
data_NaMnSb
_symmetry_space_group_name_H-M   'P 1'
_cell_length_a   4.42757500
_cell_length_b   4.42757500
_cell_length_c   7.49278600
_cell_angle_alpha   90.00000000
_cell_angle_beta   90.00000000
_cell_angle_gamma   90.00000000
_symmetry_Int_Tables_number   1
_chemical_formula_structural   NaMnSb
_chemical_formula_sum   'Na2 Mn2 Sb2'
_cell_volume   146.88423378
_cell_formula_units_Z   2
loop_
 _symmetry_equiv_pos_site_id
 _symmetry_equiv_pos_as_xyz
  1  'x, y, z'
loop_
 _atom_site_type_symbol
 _atom_site_label
 _atom_site_symmetry_multiplicity
 _atom_site_fract_x
 _atom_site_fract_y
 _atom_site_fract_z
 _atom_site_occupancy
  Na  Na0  1  0.50000000  0.00000000  0.65136600  1
  Na  Na1  1  0.00000000  0.50000000  0.34863400  1
  Mn  Mn2  1  0.50000000  0.50000000  0.00000000  1
  Mn  Mn3  1  0.00000000  0.00000000  0.00000000  1
  Sb  Sb4  1  0.50000000  0.00000000  0.21737300  1
  Sb  Sb5  1  0.00000000  0.50000000  0.78262700  1
