data_image0
_chemical_formula_structural       Cu2Na2S4Zr
_chemical_formula_sum              "Cu2 Na2 S4 Zr1"
_cell_length_a       3.72944
_cell_length_b       7.05801
_cell_length_c       7.10041
_cell_angle_alpha    111.531
_cell_angle_beta     105.226
_cell_angle_gamma    90

_space_group_name_H-M_alt    "P 1"
_space_group_IT_number       1

loop_
  _space_group_symop_operation_xyz
  'x, y, z'

loop_
  _atom_site_type_symbol
  _atom_site_label
  _atom_site_symmetry_multiplicity
  _atom_site_fract_x
  _atom_site_fract_y
  _atom_site_fract_z
  _atom_site_occupancy
  Cu  Cu1       1.0  0.67900  0.98600  0.35700  1.0000
  Cu  Cu2       1.0  0.32100  0.01380  0.64300  1.0000
  Na  Na1       1.0  0.13800  0.56000  0.27700  1.0000
  Na  Na2       1.0  0.86200  0.44000  0.72300  1.0000
  S   S1        1.0  0.51000  0.74900  0.01920  1.0000
  S   S2        1.0  0.20500  0.20300  0.40900  1.0000
  S   S3        1.0  0.79500  0.79700  0.59100  1.0000
  S   S4        1.0  0.49000  0.25100  0.98100  1.0000
  Zr  Zr1       1.0  0.00000  0.00000  0.00000  1.0000
