# generated using pymatgen
data_La2NiIrO6
_symmetry_space_group_name_H-M   'P 1'
_cell_length_a   5.78024811
_cell_length_b   9.66621870
_cell_length_c   9.69993251
_cell_angle_alpha   69.95806392
_cell_angle_beta   89.98524853
_cell_angle_gamma   89.97874182
_symmetry_Int_Tables_number   1
_chemical_formula_structural   La2NiIrO6
_chemical_formula_sum   'La8 Ni4 Ir4 O24'
_cell_volume   509.14533086
_cell_formula_units_Z   4
loop_
 _symmetry_equiv_pos_site_id
 _symmetry_equiv_pos_as_xyz
  1  'x, y, z'
loop_
 _atom_site_type_symbol
 _atom_site_label
 _atom_site_symmetry_multiplicity
 _atom_site_fract_x
 _atom_site_fract_y
 _atom_site_fract_z
 _atom_site_occupancy
  La  La0  1  0.55736600  0.86919500  0.38209300  1
  La  La1  1  0.55802700  0.36792000  0.88245500  1
  La  La2  1  0.05777300  0.63199000  0.61728700  1
  La  La3  1  0.05713700  0.13056900  0.11765700  1
  La  La4  1  0.94257000  0.36799000  0.38324200  1
  La  La5  1  0.94247200  0.86942000  0.88187600  1
  La  La6  1  0.44227700  0.13071600  0.61844700  1
  La  La7  1  0.44232600  0.63226200  0.11695400  1
  Ni  Ni8  1  0.00004200  0.49995900  0.00005400  1
  Ni  Ni9  1  0.49967100  0.49992700  0.49986500  1
  Ni  Ni10  1  0.00003500  0.00002100  0.49991000  1
  Ni  Ni11  1  0.50001900  0.00009500  0.00004700  1
  Ir  Ir12  1  0.99959600  0.74911400  0.25026900  1
  Ir  Ir13  1  0.00037800  0.25085300  0.74976800  1
  Ir  Ir14  1  0.49962300  0.25084000  0.24978100  1
  Ir  Ir15  1  0.50038800  0.74916300  0.75022600  1
  O  O16  1  0.52464200  0.91859800  0.82936700  1
  O  O17  1  0.52571800  0.42058700  0.32767600  1
  O  O18  1  0.02460000  0.08104400  0.67077600  1
  O  O19  1  0.02585800  0.57934600  0.17227200  1
  O  O20  1  0.47525200  0.08119100  0.17088200  1
  O  O21  1  0.47434800  0.57970000  0.67195400  1
  O  O22  1  0.97532800  0.91887200  0.32913000  1
  O  O23  1  0.97424800  0.42065000  0.82795700  1
  O  O24  1  0.79269200  0.82303500  0.62866100  1
  O  O25  1  0.79390600  0.32175400  0.12848700  1
  O  O26  1  0.29395200  0.67827100  0.37128000  1
  O  O27  1  0.29312300  0.17695000  0.87118800  1
  O  O28  1  0.20739300  0.17693200  0.37154800  1
  O  O29  1  0.20607100  0.67822000  0.87135600  1
  O  O30  1  0.70564600  0.32178800  0.62870600  1
  O  O31  1  0.70729500  0.82307300  0.12878900  1
  O  O32  1  0.20006800  0.37518900  0.57619000  1
  O  O33  1  0.19993000  0.87399600  0.07773000  1
  O  O34  1  0.69991000  0.12621300  0.42222000  1
  O  O35  1  0.69983700  0.62517200  0.92361500  1
  O  O36  1  0.80030200  0.62493200  0.42357900  1
  O  O37  1  0.79973700  0.12583300  0.92251900  1
  O  O38  1  0.29994800  0.87380600  0.57770200  1
  O  O39  1  0.30049600  0.37481500  0.07648600  1
