# generated using pymatgen
data_PrGe
_symmetry_space_group_name_H-M   'P 1'
_cell_length_a   4.09444300
_cell_length_b   6.04418400
_cell_length_c   8.39902400
_cell_angle_alpha   90.00000000
_cell_angle_beta   90.00000000
_cell_angle_gamma   90.00000000
_symmetry_Int_Tables_number   1
_chemical_formula_structural   PrGe
_chemical_formula_sum   'Pr4 Ge4'
_cell_volume   207.85540808
_cell_formula_units_Z   4
loop_
 _symmetry_equiv_pos_site_id
 _symmetry_equiv_pos_as_xyz
  1  'x, y, z'
loop_
 _atom_site_type_symbol
 _atom_site_label
 _atom_site_symmetry_multiplicity
 _atom_site_fract_x
 _atom_site_fract_y
 _atom_site_fract_z
 _atom_site_occupancy
  Pr  Pr0  1  0.25000000  0.38303100  0.68111400  1
  Pr  Pr1  1  0.75000000  0.61696900  0.31888600  1
  Pr  Pr2  1  0.75000000  0.88303100  0.81888600  1
  Pr  Pr3  1  0.25000000  0.11696900  0.18111400  1
  Ge  Ge4  1  0.25000000  0.86394100  0.53851600  1
  Ge  Ge5  1  0.75000000  0.13605900  0.46148400  1
  Ge  Ge6  1  0.75000000  0.36394100  0.96148400  1
  Ge  Ge7  1  0.25000000  0.63605900  0.03851600  1
