# generated using pymatgen
data_Na2MnPCO7
_symmetry_space_group_name_H-M   'P 1'
_cell_length_a   6.72773700
_cell_length_b   10.21482785
_cell_length_c   10.43208508
_cell_angle_alpha   119.28659328
_cell_angle_beta   90.11740824
_cell_angle_gamma   90.23214921
_symmetry_Int_Tables_number   1
_chemical_formula_structural   Na2MnPCO7
_chemical_formula_sum   'Na8 Mn4 P4 C4 O28'
_cell_volume   625.27486310
_cell_formula_units_Z   4
loop_
 _symmetry_equiv_pos_site_id
 _symmetry_equiv_pos_as_xyz
  1  'x, y, z'
loop_
 _atom_site_type_symbol
 _atom_site_label
 _atom_site_symmetry_multiplicity
 _atom_site_fract_x
 _atom_site_fract_y
 _atom_site_fract_z
 _atom_site_occupancy
  Na  Na0  1  0.46388300  0.98942200  0.24814600  1
  Na  Na1  1  0.00828100  0.50495500  0.74669700  1
  Na  Na2  1  0.49486300  0.50019300  0.74243000  1
  Na  Na3  1  0.50473700  0.50837500  0.26252100  1
  Na  Na4  1  0.99456300  0.50771600  0.26222300  1
  Na  Na5  1  0.50573300  0.99163600  0.74344000  1
  Na  Na6  1  0.99440000  0.99096800  0.74329900  1
  Na  Na7  1  0.76709600  0.15174700  0.08329400  1
  Mn  Mn8  1  0.75798700  0.71883000  0.07094200  1
  Mn  Mn9  1  0.75545300  0.20869500  0.56031200  1
  Mn  Mn10  1  0.24878100  0.78854800  0.43243000  1
  Mn  Mn11  1  0.25171600  0.28399600  0.93260600  1
  P  P12  1  0.25146300  0.64085900  0.06014200  1
  P  P13  1  0.25169900  0.14685800  0.56880900  1
  P  P14  1  0.74782500  0.85630600  0.43456600  1
  P  P15  1  0.75102700  0.35911800  0.93853100  1
  C  C16  1  0.74761400  0.82976700  0.90115800  1
  C  C17  1  0.74542700  0.32257200  0.39467400  1
  C  C18  1  0.24959400  0.67270200  0.59692300  1
  C  C19  1  0.25315500  0.17490200  0.09937500  1
  O  O20  1  0.25242700  0.60334500  0.66727600  1
  O  O21  1  0.25940900  0.11159800  0.17421900  1
  O  O22  1  0.74661800  0.89908300  0.04680900  1
  O  O23  1  0.75645800  0.39371000  0.54016600  1
  O  O24  1  0.74914200  0.68547100  0.83849400  1
  O  O25  1  0.73240700  0.17840200  0.33494500  1
  O  O26  1  0.06184800  0.71093100  0.03784600  1
  O  O27  1  0.43908700  0.72338800  0.05150000  1
  O  O28  1  0.06391000  0.22978200  0.56323600  1
  O  O29  1  0.43981100  0.22895500  0.55969000  1
  O  O30  1  0.25606300  0.98079000  0.43750800  1
  O  O31  1  0.73755400  0.86601600  0.29240500  1
  O  O32  1  0.25984300  0.47291800  0.92807900  1
  O  O33  1  0.75037500  0.36647600  0.79415000  1
  O  O34  1  0.24788900  0.63564500  0.20690500  1
  O  O35  1  0.75181900  0.52582400  0.07303600  1
  O  O36  1  0.25263700  0.13546800  0.71299000  1
  O  O37  1  0.75130500  0.02291700  0.57093900  1
  O  O38  1  0.56234900  0.77661000  0.45227400  1
  O  O39  1  0.93604700  0.77613000  0.44508300  1
  O  O40  1  0.56904600  0.27494400  0.95438500  1
  O  O41  1  0.93420400  0.27579700  0.95313600  1
  O  O42  1  0.24799500  0.81847200  0.65416400  1
  O  O43  1  0.24957800  0.32141000  0.15082900  1
  O  O44  1  0.24812000  0.60280200  0.45057100  1
  O  O45  1  0.24872100  0.10045100  0.95224600  1
  O  O46  1  0.74843700  0.90891700  0.83783800  1
  O  O47  1  0.74950400  0.39135800  0.32097600  1
