# generated using pymatgen
data_InFeO3
_symmetry_space_group_name_H-M   'P 1'
_cell_length_a   3.39754900
_cell_length_b   3.39754811
_cell_length_c   12.36035700
_cell_angle_alpha   90.00000000
_cell_angle_beta   90.00000000
_cell_angle_gamma   119.99999898
_symmetry_Int_Tables_number   1
_chemical_formula_structural   InFeO3
_chemical_formula_sum   'In2 Fe2 O6'
_cell_volume   123.56429457
_cell_formula_units_Z   2
loop_
 _symmetry_equiv_pos_site_id
 _symmetry_equiv_pos_as_xyz
  1  'x, y, z'
loop_
 _atom_site_type_symbol
 _atom_site_label
 _atom_site_symmetry_multiplicity
 _atom_site_fract_x
 _atom_site_fract_y
 _atom_site_fract_z
 _atom_site_occupancy
  In  In0  1  0.00000000  0.00000000  0.50000000  1
  In  In1  1  0.00000000  0.00000000  0.00000000  1
  Fe  Fe2  1  0.33333400  0.66666700  0.75000000  1
  Fe  Fe3  1  0.66666800  0.33333400  0.25000000  1
  O  O4  1  0.00000000  0.00000000  0.75000000  1
  O  O5  1  0.00000000  0.00000000  0.25000000  1
  O  O6  1  0.66666800  0.33333400  0.41423400  1
  O  O7  1  0.33333400  0.66666700  0.91423300  1
  O  O8  1  0.66666800  0.33333400  0.08576700  1
  O  O9  1  0.33333400  0.66666700  0.58576700  1
