# generated using pymatgen
data_FeSn2(CN)6
_symmetry_space_group_name_H-M   'P 1'
_cell_length_a   7.24406944
_cell_length_b   7.24406944
_cell_length_c   5.56480700
_cell_angle_alpha   90.00000000
_cell_angle_beta   90.00000000
_cell_angle_gamma   119.99999488
_symmetry_Int_Tables_number   1
_chemical_formula_structural   FeSn2(CN)6
_chemical_formula_sum   'Fe1 Sn2 C6 N6'
_cell_volume   252.89833501
_cell_formula_units_Z   1
loop_
 _symmetry_equiv_pos_site_id
 _symmetry_equiv_pos_as_xyz
  1  'x, y, z'
loop_
 _atom_site_type_symbol
 _atom_site_label
 _atom_site_symmetry_multiplicity
 _atom_site_fract_x
 _atom_site_fract_y
 _atom_site_fract_z
 _atom_site_occupancy
  Fe  Fe0  1  0.00000000  0.00000000  0.00000000  1
  Sn  Sn1  1  0.66666700  0.33333300  0.44372300  1
  Sn  Sn2  1  0.33333300  0.66666700  0.55627700  1
  C  C3  1  0.24212000  0.16198500  0.80914000  1
  C  C4  1  0.83801500  0.08013500  0.80914000  1
  C  C5  1  0.91986500  0.75788000  0.80914000  1
  C  C6  1  0.08013500  0.24212000  0.19086000  1
  C  C7  1  0.75788000  0.83801500  0.19086000  1
  C  C8  1  0.16198500  0.91986500  0.19086000  1
  N  N9  1  0.73008100  0.12731500  0.69543700  1
  N  N10  1  0.39723400  0.26991900  0.69543700  1
  N  N11  1  0.87268500  0.60276600  0.69543700  1
  N  N12  1  0.26991900  0.87268500  0.30456300  1
  N  N13  1  0.12731500  0.39723400  0.30456300  1
  N  N14  1  0.60276600  0.73008100  0.30456300  1
