# generated using pymatgen
data_Na3Mn2P2(CO7)2
_symmetry_space_group_name_H-M   'P 1'
_cell_length_a   8.31963800
_cell_length_b   8.45468125
_cell_length_c   10.28692789
_cell_angle_alpha   108.40612630
_cell_angle_beta   106.45383357
_cell_angle_gamma   103.24811850
_symmetry_Int_Tables_number   1
_chemical_formula_structural   Na3Mn2P2(CO7)2
_chemical_formula_sum   'Na6 Mn4 P4 C4 O28'
_cell_volume   616.77241477
_cell_formula_units_Z   2
loop_
 _symmetry_equiv_pos_site_id
 _symmetry_equiv_pos_as_xyz
  1  'x, y, z'
loop_
 _atom_site_type_symbol
 _atom_site_label
 _atom_site_symmetry_multiplicity
 _atom_site_fract_x
 _atom_site_fract_y
 _atom_site_fract_z
 _atom_site_occupancy
  Na  Na0  1  0.76535800  0.76792400  0.76652900  1
  Na  Na1  1  0.27092200  0.23174500  0.75073800  1
  Na  Na2  1  0.99586700  0.50830200  0.76287800  1
  Na  Na3  1  0.00413300  0.49169800  0.23712200  1
  Na  Na4  1  0.72907800  0.76825500  0.24926200  1
  Na  Na5  1  0.23464200  0.23207600  0.23347100  1
  Mn  Mn6  1  0.79807700  0.06114900  0.65245500  1
  Mn  Mn7  1  0.30788800  0.56160700  0.65054900  1
  Mn  Mn8  1  0.69211200  0.43839300  0.34945100  1
  Mn  Mn9  1  0.20192300  0.93885100  0.34754500  1
  P  P10  1  0.05532600  0.80006400  0.57196900  1
  P  P11  1  0.55238100  0.31442300  0.57549600  1
  P  P12  1  0.44761900  0.68557700  0.42450400  1
  P  P13  1  0.94467400  0.19993600  0.42803100  1
  C  C14  1  0.97267700  0.21886100  0.92064600  1
  C  C15  1  0.46718200  0.72200800  0.92023900  1
  C  C16  1  0.53281800  0.27799200  0.07976100  1
  C  C17  1  0.02732300  0.78113900  0.07935400  1
  O  O18  1  0.94205800  0.70219600  0.94211800  1
  O  O19  1  0.44844800  0.20315100  0.94479500  1
  O  O20  1  0.31778100  0.57967500  0.85196900  1
  O  O21  1  0.82525900  0.07880500  0.85630600  1
  O  O22  1  0.01940700  0.26688100  0.82213400  1
  O  O23  1  0.51233900  0.76879100  0.82025400  1
  O  O24  1  0.15594600  0.70680800  0.65861100  1
  O  O25  1  0.97666500  0.90359600  0.67234200  1
  O  O26  1  0.66817900  0.24807500  0.67363400  1
  O  O27  1  0.46815700  0.42390000  0.67317300  1
  O  O28  1  0.59391200  0.83191300  0.57035700  1
  O  O29  1  0.67990200  0.44884500  0.53842300  1
  O  O30  1  0.18135200  0.92877600  0.53292500  1
  O  O31  1  0.09366200  0.34384800  0.57917900  1
  O  O32  1  0.90633800  0.65615200  0.42082100  1
  O  O33  1  0.32009800  0.55115500  0.46157700  1
  O  O34  1  0.81864800  0.07122400  0.46707500  1
  O  O35  1  0.40608800  0.16808700  0.42964300  1
  O  O36  1  0.33182100  0.75192500  0.32636600  1
  O  O37  1  0.53184300  0.57610000  0.32682700  1
  O  O38  1  0.84405400  0.29319200  0.34138900  1
  O  O39  1  0.02333500  0.09640400  0.32765800  1
  O  O40  1  0.48766100  0.23120900  0.17974600  1
  O  O41  1  0.98059300  0.73311900  0.17786600  1
  O  O42  1  0.68221900  0.42032500  0.14803100  1
  O  O43  1  0.17474100  0.92119500  0.14369400  1
  O  O44  1  0.05794200  0.29780400  0.05788200  1
  O  O45  1  0.55155200  0.79684900  0.05520500  1
