# generated using pymatgen
data_USiPd
_symmetry_space_group_name_H-M   'P 1'
_cell_length_a   4.18652700
_cell_length_b   7.06619000
_cell_length_c   7.51624000
_cell_angle_alpha   90.00000000
_cell_angle_beta   90.00000000
_cell_angle_gamma   90.00000000
_symmetry_Int_Tables_number   1
_chemical_formula_structural   USiPd
_chemical_formula_sum   'U4 Si4 Pd4'
_cell_volume   222.35138876
_cell_formula_units_Z   4
loop_
 _symmetry_equiv_pos_site_id
 _symmetry_equiv_pos_as_xyz
  1  'x, y, z'
loop_
 _atom_site_type_symbol
 _atom_site_label
 _atom_site_symmetry_multiplicity
 _atom_site_fract_x
 _atom_site_fract_y
 _atom_site_fract_z
 _atom_site_occupancy
  U  U0  1  0.25000000  0.50598600  0.67347800  1
  U  U1  1  0.75000000  0.49401400  0.32652200  1
  U  U2  1  0.25000000  0.00598600  0.82652200  1
  U  U3  1  0.75000000  0.99401400  0.17347800  1
  Si  Si4  1  0.25000000  0.28972600  0.11337400  1
  Si  Si5  1  0.75000000  0.71027400  0.88662600  1
  Si  Si6  1  0.25000000  0.78972600  0.38662600  1
  Si  Si7  1  0.75000000  0.21027400  0.61337400  1
  Pd  Pd8  1  0.75000000  0.83948600  0.56969300  1
  Pd  Pd9  1  0.25000000  0.16051400  0.43030700  1
  Pd  Pd10  1  0.75000000  0.33948600  0.93030700  1
  Pd  Pd11  1  0.25000000  0.66051400  0.06969300  1
