# generated using pymatgen
data_NdGe2
_symmetry_space_group_name_H-M   'P 1'
_cell_length_a   8.31324949
_cell_length_b   8.31324949
_cell_length_c   8.31324949
_cell_angle_alpha   150.23460349
_cell_angle_beta   150.23460349
_cell_angle_gamma   42.59713946
_symmetry_Int_Tables_number   1
_chemical_formula_structural   NdGe2
_chemical_formula_sum   'Nd2 Ge4'
_cell_volume   141.24635348
_cell_formula_units_Z   2
loop_
 _symmetry_equiv_pos_site_id
 _symmetry_equiv_pos_as_xyz
  1  'x, y, z'
loop_
 _atom_site_type_symbol
 _atom_site_label
 _atom_site_symmetry_multiplicity
 _atom_site_fract_x
 _atom_site_fract_y
 _atom_site_fract_z
 _atom_site_occupancy
  Nd  Nd0  1  0.75000000  0.25000000  0.50000000  1
  Nd  Nd1  1  0.00000000  0.00000000  0.00000000  1
  Ge  Ge2  1  0.16734300  0.66734300  0.50000000  1
  Ge  Ge3  1  0.58265700  0.58265700  0.00000000  1
  Ge  Ge4  1  0.33265700  0.83265700  0.50000000  1
  Ge  Ge5  1  0.41734300  0.41734300  0.00000000  1
