# generated using pymatgen
data_Na2MnPCO7
_symmetry_space_group_name_H-M   'P 1'
_cell_length_a   8.51862400
_cell_length_b   8.53347757
_cell_length_c   10.24600757
_cell_angle_alpha   107.05462317
_cell_angle_beta   107.82898989
_cell_angle_gamma   104.91640504
_symmetry_Int_Tables_number   1
_chemical_formula_structural   Na2MnPCO7
_chemical_formula_sum   'Na8 Mn4 P4 C4 O28'
_cell_volume   626.60045335
_cell_formula_units_Z   4
loop_
 _symmetry_equiv_pos_site_id
 _symmetry_equiv_pos_as_xyz
  1  'x, y, z'
loop_
 _atom_site_type_symbol
 _atom_site_label
 _atom_site_symmetry_multiplicity
 _atom_site_fract_x
 _atom_site_fract_y
 _atom_site_fract_z
 _atom_site_occupancy
  Na  Na0  1  0.24293200  0.23870100  0.24038100  1
  Na  Na1  1  0.76069800  0.74195400  0.25492800  1
  Na  Na2  1  0.49059200  0.01114700  0.25615800  1
  Na  Na3  1  0.98625500  0.49305700  0.23860400  1
  Na  Na4  1  0.51397200  0.00662500  0.75384900  1
  Na  Na5  1  0.22828600  0.24781300  0.74534800  1
  Na  Na6  1  0.76681000  0.76508300  0.75975100  1
  Na  Na7  1  0.43151300  0.69608700  0.91259000  1
  Mn  Mn8  1  0.93799800  0.18933200  0.35743100  1
  Mn  Mn9  1  0.44526800  0.69353900  0.35076300  1
  Mn  Mn10  1  0.56535500  0.31088200  0.65041400  1
  Mn  Mn11  1  0.06009600  0.80083300  0.65041800  1
  P  P12  1  0.18791200  0.94349200  0.42363800  1
  P  P13  1  0.69348700  0.43957000  0.42113400  1
  P  P14  1  0.31891400  0.56615800  0.57854000  1
  P  P15  1  0.80789100  0.05604100  0.58049500  1
  C  C16  1  0.76644000  0.01731400  0.07244400  1
  C  C17  1  0.28041600  0.52737500  0.07522800  1
  C  C18  1  0.72366100  0.47674500  0.92604200  1
  C  C19  1  0.22534500  0.97633900  0.92597300  1
  O  O20  1  0.30332000  0.05364100  0.06601600  1
  O  O21  1  0.79292300  0.55095200  0.06649800  1
  O  O22  1  0.42419800  0.67906700  0.14879800  1
  O  O23  1  0.91257500  0.16378900  0.14888400  1
  O  O24  1  0.70081500  0.95425200  0.15388900  1
  O  O25  1  0.22468300  0.47582700  0.16737400  1
  O  O26  1  0.27171900  0.84578600  0.33104600  1
  O  O27  1  0.07790200  0.02592100  0.33255300  1
  O  O28  1  0.77780200  0.33079000  0.33380100  1
  O  O29  1  0.58962900  0.51500800  0.32134200  1
  O  O30  1  0.16969100  0.42354300  0.42753700  1
  O  O31  1  0.55679500  0.30770600  0.45383500  1
  O  O32  1  0.05549500  0.80538600  0.45441600  1
  O  O33  1  0.66559900  0.91004700  0.42294700  1
  O  O34  1  0.33180400  0.09006200  0.57671300  1
  O  O35  1  0.45833900  0.69299700  0.54396800  1
  O  O36  1  0.94169500  0.18737900  0.54568000  1
  O  O37  1  0.83574500  0.58768200  0.57277100  1
  O  O38  1  0.25447600  0.68599200  0.67647300  1
  O  O39  1  0.41852600  0.48523600  0.67676500  1
  O  O40  1  0.71594600  0.15065600  0.66459400  1
  O  O41  1  0.91433600  0.97625300  0.67283300  1
  O  O42  1  0.77618000  0.53450900  0.83684700  1
  O  O43  1  0.27823700  0.02718000  0.83229000  1
  O  O44  1  0.58018000  0.32554600  0.85158200  1
  O  O45  1  0.08146900  0.82874400  0.85610200  1
  O  O46  1  0.69565200  0.94390800  0.93053600  1
  O  O47  1  0.21631300  0.45204300  0.93650800  1
