# generated using pymatgen
data_VIn2O5
_symmetry_space_group_name_H-M   'P 1'
_cell_length_a   3.56929000
_cell_length_b   7.32687300
_cell_length_c   14.98459900
_cell_angle_alpha   90.00000000
_cell_angle_beta   90.00000000
_cell_angle_gamma   90.00000000
_symmetry_Int_Tables_number   1
_chemical_formula_structural   VIn2O5
_chemical_formula_sum   'V4 In8 O20'
_cell_volume   391.87325509
_cell_formula_units_Z   4
loop_
 _symmetry_equiv_pos_site_id
 _symmetry_equiv_pos_as_xyz
  1  'x, y, z'
loop_
 _atom_site_type_symbol
 _atom_site_label
 _atom_site_symmetry_multiplicity
 _atom_site_fract_x
 _atom_site_fract_y
 _atom_site_fract_z
 _atom_site_occupancy
  V  V0  1  0.24999900  0.60447300  0.07482900  1
  V  V1  1  0.75000100  0.39552700  0.92517100  1
  V  V2  1  0.24999900  0.10447400  0.42517000  1
  V  V3  1  0.75000100  0.89552700  0.57482900  1
  In  In4  1  0.24999900  0.60355900  0.41819600  1
  In  In5  1  0.75000100  0.89644000  0.91819600  1
  In  In6  1  0.24999900  0.10355900  0.08180400  1
  In  In7  1  0.75000100  0.39644100  0.58180400  1
  In  In8  1  0.24999900  0.67420500  0.76064600  1
  In  In9  1  0.75000100  0.32579600  0.23935300  1
  In  In10  1  0.24999900  0.17420400  0.73935300  1
  In  In11  1  0.75000100  0.82579600  0.26064600  1
  O  O12  1  0.24999900  0.43526200  0.95865200  1
  O  O13  1  0.75000100  0.56473700  0.04134800  1
  O  O14  1  0.24999900  0.93526300  0.54134800  1
  O  O15  1  0.75000100  0.06473800  0.45865200  1
  O  O16  1  0.24999900  0.73257700  0.17628200  1
  O  O17  1  0.75000100  0.26742300  0.82371800  1
  O  O18  1  0.24999900  0.23257700  0.32371800  1
  O  O19  1  0.75000100  0.76742200  0.67628200  1
  O  O20  1  0.24999900  0.36952600  0.15148700  1
  O  O21  1  0.75000100  0.63047500  0.84851400  1
  O  O22  1  0.24999900  0.86952600  0.34851300  1
  O  O23  1  0.75000100  0.13047500  0.65148700  1
  O  O24  1  0.75000100  0.05847100  0.17574400  1
  O  O25  1  0.24999900  0.94152900  0.82425600  1
  O  O26  1  0.75000100  0.55847100  0.32425600  1
  O  O27  1  0.24999900  0.44153000  0.67574400  1
  O  O28  1  0.24999900  0.84530000  0.00453700  1
  O  O29  1  0.24999900  0.34530000  0.49546300  1
  O  O30  1  0.75000100  0.15470000  0.99546300  1
  O  O31  1  0.75000100  0.65470100  0.50453600  1
