# generated using pymatgen
data_MnV4FeO12
_symmetry_space_group_name_H-M   'P 1'
_cell_length_a   6.91693875
_cell_length_b   6.91693875
_cell_length_c   5.93936137
_cell_angle_alpha   74.62847389
_cell_angle_beta   74.62847389
_cell_angle_gamma   84.14026764
_symmetry_Int_Tables_number   1
_chemical_formula_structural   MnV4FeO12
_chemical_formula_sum   'Mn1 V4 Fe1 O12'
_cell_volume   264.04125795
_cell_formula_units_Z   1
loop_
 _symmetry_equiv_pos_site_id
 _symmetry_equiv_pos_as_xyz
  1  'x, y, z'
loop_
 _atom_site_type_symbol
 _atom_site_label
 _atom_site_symmetry_multiplicity
 _atom_site_fract_x
 _atom_site_fract_y
 _atom_site_fract_z
 _atom_site_occupancy
  Mn  Mn0  1  0.08878900  0.91121100  0.50000000  1
  V  V1  1  0.79115600  0.61213200  0.01544900  1
  V  V2  1  0.61351100  0.79187400  0.51260200  1
  V  V3  1  0.38786800  0.20884400  0.98455100  1
  V  V4  1  0.20812600  0.38648900  0.48739800  1
  Fe  Fe5  1  0.91153200  0.08846800  0.00000000  1
  O  O6  1  0.95987900  0.80158600  0.90123600  1
  O  O7  1  0.90358000  0.38327000  0.04061100  1
  O  O8  1  0.80320600  0.95913000  0.39105400  1
  O  O9  1  0.63998400  0.64488800  0.80360200  1
  O  O10  1  0.61673000  0.09642000  0.95938900  1
  O  O11  1  0.64052300  0.63714600  0.30505300  1
  O  O12  1  0.35511200  0.36001600  0.19639800  1
  O  O13  1  0.38715900  0.90929100  0.53965300  1
  O  O14  1  0.36285400  0.35947700  0.69494700  1
  O  O15  1  0.19841400  0.04012100  0.09876400  1
  O  O16  1  0.09070900  0.61284100  0.46034700  1
  O  O17  1  0.04087000  0.19679400  0.60894600  1
