# generated using pymatgen
data_V2Pb3O8
_symmetry_space_group_name_H-M   'P 1'
_cell_length_a   7.54608979
_cell_length_b   7.54608979
_cell_length_c   7.54609002
_cell_angle_alpha   45.30973057
_cell_angle_beta   45.30973057
_cell_angle_gamma   45.30973414
_symmetry_Int_Tables_number   1
_chemical_formula_structural   V2Pb3O8
_chemical_formula_sum   'V2 Pb3 O8'
_cell_volume   197.79660515
_cell_formula_units_Z   1
loop_
 _symmetry_equiv_pos_site_id
 _symmetry_equiv_pos_as_xyz
  1  'x, y, z'
loop_
 _atom_site_type_symbol
 _atom_site_label
 _atom_site_symmetry_multiplicity
 _atom_site_fract_x
 _atom_site_fract_y
 _atom_site_fract_z
 _atom_site_occupancy
  V  V0  1  0.59552300  0.59552300  0.59552300  1
  V  V1  1  0.40447700  0.40447700  0.40447700  1
  Pb  Pb2  1  0.79910800  0.79910800  0.79910800  1
  Pb  Pb3  1  0.20089200  0.20089200  0.20089200  1
  Pb  Pb4  1  0.00000000  0.00000000  0.00000000  1
  O  O5  1  0.68040900  0.68040900  0.68040900  1
  O  O6  1  0.31959100  0.31959100  0.31959100  1
  O  O7  1  0.73188800  0.73188800  0.23782800  1
  O  O8  1  0.23782800  0.73188800  0.73188800  1
  O  O9  1  0.73188800  0.23782800  0.73188800  1
  O  O10  1  0.76217200  0.26811200  0.26811200  1
  O  O11  1  0.26811200  0.26811200  0.76217200  1
  O  O12  1  0.26811200  0.76217200  0.26811200  1
