# generated using pymatgen
data_CrO2
_symmetry_space_group_name_H-M   'P 1'
_cell_length_a   2.98596400
_cell_length_b   4.44805101
_cell_length_c   4.52923501
_cell_angle_alpha   89.99377082
_cell_angle_beta   90.00026083
_cell_angle_gamma   90.00021819
_symmetry_Int_Tables_number   1
_chemical_formula_structural   CrO2
_chemical_formula_sum   'Cr2 O4'
_cell_volume   60.15603161
_cell_formula_units_Z   2
loop_
 _symmetry_equiv_pos_site_id
 _symmetry_equiv_pos_as_xyz
  1  'x, y, z'
loop_
 _atom_site_type_symbol
 _atom_site_label
 _atom_site_symmetry_multiplicity
 _atom_site_fract_x
 _atom_site_fract_y
 _atom_site_fract_z
 _atom_site_occupancy
  Cr  Cr0  1  0.50000000  0.50000000  0.50000000  1
  Cr  Cr1  1  0.00000000  0.00000000  0.00000000  1
  O  O2  1  0.49999900  0.79296900  0.18981700  1
  O  O3  1  0.50000100  0.20703100  0.81018300  1
  O  O4  1  0.99999300  0.70700400  0.68977900  1
  O  O5  1  0.00000700  0.29299600  0.31022100  1
