# generated using pymatgen
data_In3Ni2
_symmetry_space_group_name_H-M   'P 1'
_cell_length_a   4.44692473
_cell_length_b   4.44692473
_cell_length_c   5.32017700
_cell_angle_alpha   90.00000000
_cell_angle_beta   90.00000000
_cell_angle_gamma   120.00001092
_symmetry_Int_Tables_number   1
_chemical_formula_structural   In3Ni2
_chemical_formula_sum   'In3 Ni2'
_cell_volume   91.11213491
_cell_formula_units_Z   1
loop_
 _symmetry_equiv_pos_site_id
 _symmetry_equiv_pos_as_xyz
  1  'x, y, z'
loop_
 _atom_site_type_symbol
 _atom_site_label
 _atom_site_symmetry_multiplicity
 _atom_site_fract_x
 _atom_site_fract_y
 _atom_site_fract_z
 _atom_site_occupancy
  In  In0  1  0.00000000  0.00000000  0.00000000  1
  In  In1  1  0.66666700  0.33333300  0.35462800  1
  In  In2  1  0.33333300  0.66666700  0.64537200  1
  Ni  Ni3  1  0.66666700  0.33333300  0.86018000  1
  Ni  Ni4  1  0.33333300  0.66666700  0.13982000  1
