# generated using pymatgen
data_Ce3Al
_symmetry_space_group_name_H-M   'P 1'
_cell_length_a   6.71115190
_cell_length_b   6.71115190
_cell_length_c   5.27843600
_cell_angle_alpha   90.00000000
_cell_angle_beta   90.00000000
_cell_angle_gamma   119.99999897
_symmetry_Int_Tables_number   1
_chemical_formula_structural   Ce3Al
_chemical_formula_sum   'Ce6 Al2'
_cell_volume   205.88752516
_cell_formula_units_Z   2
loop_
 _symmetry_equiv_pos_site_id
 _symmetry_equiv_pos_as_xyz
  1  'x, y, z'
loop_
 _atom_site_type_symbol
 _atom_site_label
 _atom_site_symmetry_multiplicity
 _atom_site_fract_x
 _atom_site_fract_y
 _atom_site_fract_z
 _atom_site_occupancy
  Ce  Ce0  1  0.81628300  0.63256700  0.25000000  1
  Ce  Ce1  1  0.18371700  0.81628300  0.75000000  1
  Ce  Ce2  1  0.63256700  0.81628300  0.75000000  1
  Ce  Ce3  1  0.36743300  0.18371700  0.25000000  1
  Ce  Ce4  1  0.81628300  0.18371700  0.25000000  1
  Ce  Ce5  1  0.18371700  0.36743300  0.75000000  1
  Al  Al6  1  0.33333300  0.66666700  0.25000000  1
  Al  Al7  1  0.66666700  0.33333300  0.75000000  1
