# generated using pymatgen
data_KO2
_symmetry_space_group_name_H-M   'P 1'
_cell_length_a   5.22542607
_cell_length_b   5.22542607
_cell_length_c   7.62629948
_cell_angle_alpha   56.99032418
_cell_angle_beta   56.99032418
_cell_angle_gamma   47.25358078
_symmetry_Int_Tables_number   1
_chemical_formula_structural   KO2
_chemical_formula_sum   'K2 O4'
_cell_volume   122.94957604
_cell_formula_units_Z   2
loop_
 _symmetry_equiv_pos_site_id
 _symmetry_equiv_pos_as_xyz
  1  'x, y, z'
loop_
 _atom_site_type_symbol
 _atom_site_label
 _atom_site_symmetry_multiplicity
 _atom_site_fract_x
 _atom_site_fract_y
 _atom_site_fract_z
 _atom_site_occupancy
  K  K0  1  0.50000000  0.00000000  0.50000000  1
  K  K1  1  0.00000000  0.50000000  0.00000000  1
  O  O2  1  0.07847300  0.81960300  0.55295300  1
  O  O3  1  0.18039700  0.92152700  0.94704700  1
  O  O4  1  0.81960300  0.07847300  0.05295300  1
  O  O5  1  0.92152700  0.18039700  0.44704700  1
