# generated using pymatgen
data_LaGe
_symmetry_space_group_name_H-M   'P 1'
_cell_length_a   4.14114100
_cell_length_b   6.12078600
_cell_length_c   8.53301800
_cell_angle_alpha   90.00000000
_cell_angle_beta   90.00000000
_cell_angle_gamma   90.00000000
_symmetry_Int_Tables_number   1
_chemical_formula_structural   LaGe
_chemical_formula_sum   'La4 Ge4'
_cell_volume   216.28673028
_cell_formula_units_Z   4
loop_
 _symmetry_equiv_pos_site_id
 _symmetry_equiv_pos_as_xyz
  1  'x, y, z'
loop_
 _atom_site_type_symbol
 _atom_site_label
 _atom_site_symmetry_multiplicity
 _atom_site_fract_x
 _atom_site_fract_y
 _atom_site_fract_z
 _atom_site_occupancy
  La  La0  1  0.25000000  0.11755000  0.18145000  1
  La  La1  1  0.75000000  0.88245000  0.81855000  1
  La  La2  1  0.75000000  0.61755000  0.31855000  1
  La  La3  1  0.25000000  0.38245000  0.68145000  1
  Ge  Ge4  1  0.25000000  0.63331900  0.03718200  1
  Ge  Ge5  1  0.75000000  0.36668100  0.96281800  1
  Ge  Ge6  1  0.75000000  0.13331900  0.46281800  1
  Ge  Ge7  1  0.25000000  0.86668100  0.53718200  1
