# generated using pymatgen
data_Na2FePCO7
_symmetry_space_group_name_H-M   'P 1'
_cell_length_a   8.33779100
_cell_length_b   8.37172765
_cell_length_c   8.95920149
_cell_angle_alpha   89.74123152
_cell_angle_beta   89.04643342
_cell_angle_gamma   77.41961284
_symmetry_Int_Tables_number   1
_chemical_formula_structural   Na2FePCO7
_chemical_formula_sum   'Na8 Fe4 P4 C4 O28'
_cell_volume   610.26863562
_cell_formula_units_Z   4
loop_
 _symmetry_equiv_pos_site_id
 _symmetry_equiv_pos_as_xyz
  1  'x, y, z'
loop_
 _atom_site_type_symbol
 _atom_site_label
 _atom_site_symmetry_multiplicity
 _atom_site_fract_x
 _atom_site_fract_y
 _atom_site_fract_z
 _atom_site_occupancy
  Na  Na0  1  0.74706100  0.50891300  0.91857600  1
  Na  Na1  1  0.25005500  0.01537200  0.91895400  1
  Na  Na2  1  0.88220700  0.13642900  0.73193500  1
  Na  Na3  1  0.61237300  0.86755700  0.73168100  1
  Na  Na4  1  0.61838600  0.36812800  0.26396500  1
  Na  Na5  1  0.11955600  0.86995200  0.26323300  1
  Na  Na6  1  0.24516800  0.48636500  0.07097800  1
  Na  Na7  1  0.74916100  0.98209000  0.08951800  1
  Fe  Fe8  1  0.99399900  0.75590500  0.65446300  1
  Fe  Fe9  1  0.47216200  0.27769600  0.65782100  1
  Fe  Fe10  1  0.02497700  0.24110400  0.34403200  1
  Fe  Fe11  1  0.52141800  0.73757700  0.34453300  1
  P  P12  1  0.76917100  0.47899300  0.57592400  1
  P  P13  1  0.27047200  0.98030500  0.57571400  1
  P  P14  1  0.73133400  0.02248300  0.42689000  1
  P  P15  1  0.23136300  0.52257500  0.42128400  1
  C  C16  1  0.51779100  0.23539900  0.93710900  1
  C  C17  1  0.00743500  0.74582400  0.93531000  1
  C  C18  1  0.98367000  0.25341400  0.06517800  1
  C  C19  1  0.48929700  0.75913600  0.06491800  1
  O  O20  1  0.96674300  0.26363900  0.92463100  1
  O  O21  1  0.48180400  0.77920600  0.92433200  1
  O  O22  1  0.40046500  0.34407300  0.87495600  1
  O  O23  1  0.89087900  0.85522700  0.87030500  1
  O  O24  1  0.61164500  0.13381200  0.84357500  1
  O  O25  1  0.10136600  0.64324700  0.84439700  1
  O  O26  1  0.82713800  0.61043200  0.67091200  1
  O  O27  1  0.34297100  0.09771500  0.67508400  1
  O  O28  1  0.65382500  0.40649100  0.68223900  1
  O  O29  1  0.14098200  0.92200800  0.67781800  1
  O  O30  1  0.30552700  0.44335800  0.56667000  1
  O  O31  1  0.81125800  0.93957400  0.57141900  1
  O  O32  1  0.91538300  0.33671300  0.53035600  1
  O  O33  1  0.41307100  0.83429000  0.53089200  1
  O  O34  1  0.59331900  0.17117900  0.47414700  1
  O  O35  1  0.09080600  0.67342700  0.46202500  1
  O  O36  1  0.18921500  0.05980400  0.43211400  1
  O  O37  1  0.68270900  0.55386200  0.43298100  1
  O  O38  1  0.85899700  0.08329400  0.32527300  1
  O  O39  1  0.16514900  0.40191500  0.32081500  1
  O  O40  1  0.35936100  0.58309800  0.31980000  1
  O  O41  1  0.66388100  0.90060100  0.32904100  1
  O  O42  1  0.89010300  0.35453500  0.15818300  1
  O  O43  1  0.38982600  0.85441400  0.15816500  1
  O  O44  1  0.60076200  0.64396100  0.12742600  1
  O  O45  1  0.09936700  0.14254800  0.12785100  1
  O  O46  1  0.53828400  0.22896500  0.07698100  1
  O  O47  1  0.02564700  0.74093100  0.07559900  1
