# generated using pymatgen
data_Mn6OF11
_symmetry_space_group_name_H-M   'P 1'
_cell_length_a   5.23403664
_cell_length_b   5.23403664
_cell_length_c   15.71340500
_cell_angle_alpha   90.00000000
_cell_angle_beta   90.00000000
_cell_angle_gamma   91.34333044
_symmetry_Int_Tables_number   1
_chemical_formula_structural   Mn6OF11
_chemical_formula_sum   'Mn12 O2 F22'
_cell_volume   430.35261391
_cell_formula_units_Z   2
loop_
 _symmetry_equiv_pos_site_id
 _symmetry_equiv_pos_as_xyz
  1  'x, y, z'
loop_
 _atom_site_type_symbol
 _atom_site_label
 _atom_site_symmetry_multiplicity
 _atom_site_fract_x
 _atom_site_fract_y
 _atom_site_fract_z
 _atom_site_occupancy
  Mn  Mn0  1  0.00000000  0.00000000  0.00328700  1
  Mn  Mn1  1  0.00000000  0.50000000  0.17364100  1
  Mn  Mn2  1  0.00000000  0.00000000  0.33802000  1
  Mn  Mn3  1  0.00000000  0.50000000  0.49952300  1
  Mn  Mn4  1  0.00000000  0.00000000  0.66757800  1
  Mn  Mn5  1  0.00000000  0.50000000  0.83508300  1
  Mn  Mn6  1  0.50000000  0.00000000  0.17364100  1
  Mn  Mn7  1  0.50000000  0.50000000  0.00240400  1
  Mn  Mn8  1  0.50000000  0.50000000  0.66639900  1
  Mn  Mn9  1  0.50000000  0.00000000  0.49952300  1
  Mn  Mn10  1  0.50000000  0.50000000  0.32239800  1
  Mn  Mn11  1  0.50000000  0.00000000  0.83508300  1
  O  O12  1  0.30457200  0.69542800  0.24746800  1
  O  O13  1  0.69542800  0.30457200  0.24746800  1
  F  F14  1  0.19968500  0.19968500  0.24417500  1
  F  F15  1  0.23094000  0.76906000  0.08783900  1
  F  F16  1  0.23625600  0.23625600  0.57872200  1
  F  F17  1  0.23463200  0.76536800  0.41874700  1
  F  F18  1  0.23591800  0.23591800  0.91559900  1
  F  F19  1  0.23759600  0.76240400  0.75178300  1
  F  F20  1  0.26676300  0.26676300  0.08429000  1
  F  F21  1  0.26255800  0.73744200  0.58440900  1
  F  F22  1  0.26342500  0.73657500  0.91929600  1
  F  F23  1  0.26164300  0.26164300  0.74831800  1
  F  F24  1  0.27186900  0.27186900  0.41106400  1
  F  F25  1  0.73657500  0.26342500  0.91929600  1
  F  F26  1  0.73744200  0.26255800  0.58440900  1
  F  F27  1  0.73323700  0.73323700  0.08429000  1
  F  F28  1  0.72813100  0.72813100  0.41106400  1
  F  F29  1  0.73835700  0.73835700  0.74831800  1
  F  F30  1  0.76536800  0.23463200  0.41874700  1
  F  F31  1  0.76906000  0.23094000  0.08783900  1
  F  F32  1  0.76240400  0.23759600  0.75178300  1
  F  F33  1  0.76374400  0.76374400  0.57872200  1
  F  F34  1  0.76408200  0.76408200  0.91559900  1
  F  F35  1  0.80031500  0.80031500  0.24417500  1
