# generated using pymatgen
data_Hf3(NbGe2)2
_symmetry_space_group_name_H-M   'P 1'
_cell_length_a   6.90153000
_cell_length_b   7.01497700
_cell_length_c   13.33442800
_cell_angle_alpha   90.00000000
_cell_angle_beta   90.00000000
_cell_angle_gamma   90.00000000
_symmetry_Int_Tables_number   1
_chemical_formula_structural   Hf3(NbGe2)2
_chemical_formula_sum   'Hf12 Nb8 Ge16'
_cell_volume   645.57398680
_cell_formula_units_Z   4
loop_
 _symmetry_equiv_pos_site_id
 _symmetry_equiv_pos_as_xyz
  1  'x, y, z'
loop_
 _atom_site_type_symbol
 _atom_site_label
 _atom_site_symmetry_multiplicity
 _atom_site_fract_x
 _atom_site_fract_y
 _atom_site_fract_z
 _atom_site_occupancy
  Hf  Hf0  1  0.98720400  0.82636900  0.59274200  1
  Hf  Hf1  1  0.16981200  0.50592100  0.25000000  1
  Hf  Hf2  1  0.48720400  0.67363100  0.90725800  1
  Hf  Hf3  1  0.51279600  0.32636900  0.09274200  1
  Hf  Hf4  1  0.66981200  0.99407900  0.25000000  1
  Hf  Hf5  1  0.83018800  0.49407900  0.75000000  1
  Hf  Hf6  1  0.33018800  0.00592100  0.75000000  1
  Hf  Hf7  1  0.48720400  0.67363100  0.59274200  1
  Hf  Hf8  1  0.98720400  0.82636900  0.90725800  1
  Hf  Hf9  1  0.51279600  0.32636900  0.40725800  1
  Hf  Hf10  1  0.01279600  0.17363100  0.09274200  1
  Hf  Hf11  1  0.01279600  0.17363100  0.40725800  1
  Nb  Nb12  1  0.65722700  0.17118300  0.62289200  1
  Nb  Nb13  1  0.15722700  0.32881700  0.62289200  1
  Nb  Nb14  1  0.34277300  0.82881700  0.12289200  1
  Nb  Nb15  1  0.84277300  0.67118300  0.12289200  1
  Nb  Nb16  1  0.65722700  0.17118300  0.87710800  1
  Nb  Nb17  1  0.15722700  0.32881700  0.87710800  1
  Nb  Nb18  1  0.34277300  0.82881700  0.37710800  1
  Nb  Nb19  1  0.84277300  0.67118300  0.37710800  1
  Ge  Ge20  1  0.95400600  0.11522400  0.75000000  1
  Ge  Ge21  1  0.81628100  0.46445700  0.96171100  1
  Ge  Ge22  1  0.80921900  0.35456100  0.25000000  1
  Ge  Ge23  1  0.69078100  0.85456100  0.75000000  1
  Ge  Ge24  1  0.54599400  0.61522400  0.25000000  1
  Ge  Ge25  1  0.68371900  0.96445700  0.46171100  1
  Ge  Ge26  1  0.31628100  0.03554300  0.96171100  1
  Ge  Ge27  1  0.81628100  0.46445700  0.53828900  1
  Ge  Ge28  1  0.04599400  0.88477600  0.25000000  1
  Ge  Ge29  1  0.18371900  0.53554300  0.03828900  1
  Ge  Ge30  1  0.31628100  0.03554300  0.53828900  1
  Ge  Ge31  1  0.19078100  0.64543900  0.75000000  1
  Ge  Ge32  1  0.68371900  0.96445700  0.03828900  1
  Ge  Ge33  1  0.30921900  0.14543900  0.25000000  1
  Ge  Ge34  1  0.45400600  0.38477600  0.75000000  1
  Ge  Ge35  1  0.18371900  0.53554300  0.46171100  1
