# generated using pymatgen
data_Na3TiP3NO9
_symmetry_space_group_name_H-M   'P 1'
_cell_length_a   9.62969700
_cell_length_b   9.62969700
_cell_length_c   9.62969700
_cell_angle_alpha   90.00000000
_cell_angle_beta   90.00000000
_cell_angle_gamma   90.00000000
_symmetry_Int_Tables_number   1
_chemical_formula_structural   Na3TiP3NO9
_chemical_formula_sum   'Na12 Ti4 P12 N4 O36'
_cell_volume   892.97205181
_cell_formula_units_Z   4
loop_
 _symmetry_equiv_pos_site_id
 _symmetry_equiv_pos_as_xyz
  1  'x, y, z'
loop_
 _atom_site_type_symbol
 _atom_site_label
 _atom_site_symmetry_multiplicity
 _atom_site_fract_x
 _atom_site_fract_y
 _atom_site_fract_z
 _atom_site_occupancy
  Na  Na0  1  0.74131200  0.74131200  0.74131200  1
  Na  Na1  1  0.64242900  0.85757100  0.14242900  1
  Na  Na2  1  0.35757100  0.35757100  0.35757100  1
  Na  Na3  1  0.94442100  0.94442100  0.94442100  1
  Na  Na4  1  0.55557900  0.05557900  0.44442100  1
  Na  Na5  1  0.44442100  0.55557900  0.05557900  1
  Na  Na6  1  0.05557900  0.44442100  0.55557900  1
  Na  Na7  1  0.25868800  0.24131200  0.75868800  1
  Na  Na8  1  0.14242900  0.64242900  0.85757100  1
  Na  Na9  1  0.24131200  0.75868800  0.25868800  1
  Na  Na10  1  0.75868800  0.25868800  0.24131200  1
  Na  Na11  1  0.85757100  0.14242900  0.64242900  1
  Ti  Ti12  1  0.33117700  0.83117700  0.66882300  1
  Ti  Ti13  1  0.83117700  0.66882300  0.33117700  1
  Ti  Ti14  1  0.16882300  0.16882300  0.16882300  1
  Ti  Ti15  1  0.66882300  0.33117700  0.83117700  1
  P  P16  1  0.58300600  0.00403100  0.83635600  1
  P  P17  1  0.83635600  0.58300600  0.00403100  1
  P  P18  1  0.66364400  0.41699400  0.50403100  1
  P  P19  1  0.08300600  0.49596900  0.16364400  1
  P  P20  1  0.16364400  0.08300600  0.49596900  1
  P  P21  1  0.91699400  0.99596900  0.33635600  1
  P  P22  1  0.41699400  0.50403100  0.66364400  1
  P  P23  1  0.33635600  0.91699400  0.99596900  1
  P  P24  1  0.50403100  0.66364400  0.41699400  1
  P  P25  1  0.99596900  0.33635600  0.91699400  1
  P  P26  1  0.00403100  0.83635600  0.58300600  1
  P  P27  1  0.49596900  0.16364400  0.08300600  1
  N  N28  1  0.05072600  0.94927400  0.44927400  1
  N  N29  1  0.55072600  0.55072600  0.55072600  1
  N  N30  1  0.94927400  0.44927400  0.05072600  1
  N  N31  1  0.44927400  0.05072600  0.94927400  1
  O  O32  1  0.12431500  0.36310700  0.24276500  1
  O  O33  1  0.80003500  0.06231200  0.41836400  1
  O  O34  1  0.08163600  0.19996500  0.56231200  1
  O  O35  1  0.19996500  0.56231200  0.08163600  1
  O  O36  1  0.58163600  0.30003500  0.43768800  1
  O  O37  1  0.91836400  0.69996500  0.93768800  1
  O  O38  1  0.69996500  0.93768800  0.91836400  1
  O  O39  1  0.93768800  0.91836400  0.69996500  1
  O  O40  1  0.36310700  0.24276500  0.12431500  1
  O  O41  1  0.86310700  0.25723500  0.87568500  1
  O  O42  1  0.63689300  0.74276500  0.37568500  1
  O  O43  1  0.25723500  0.87568500  0.86310700  1
  O  O44  1  0.47803300  0.40080300  0.77066500  1
  O  O45  1  0.87568500  0.86310700  0.25723500  1
  O  O46  1  0.24276500  0.12431500  0.36310700  1
  O  O47  1  0.30003500  0.43768800  0.58163600  1
  O  O48  1  0.74276500  0.37568500  0.63689300  1
  O  O49  1  0.75723500  0.62431500  0.13689300  1
  O  O50  1  0.62431500  0.13689300  0.75723500  1
  O  O51  1  0.13689300  0.75723500  0.62431500  1
  O  O52  1  0.59919700  0.27066500  0.02196700  1
  O  O53  1  0.09919700  0.22933500  0.97803300  1
  O  O54  1  0.40080300  0.77066500  0.47803300  1
  O  O55  1  0.22933500  0.97803300  0.09919700  1
  O  O56  1  0.56231200  0.08163600  0.19996500  1
  O  O57  1  0.41836400  0.80003500  0.06231200  1
  O  O58  1  0.43768800  0.58163600  0.30003500  1
  O  O59  1  0.06231200  0.41836400  0.80003500  1
  O  O60  1  0.90080300  0.72933500  0.52196700  1
  O  O61  1  0.52196700  0.90080300  0.72933500  1
  O  O62  1  0.72933500  0.52196700  0.90080300  1
  O  O63  1  0.77066500  0.47803300  0.40080300  1
  O  O64  1  0.02196700  0.59919700  0.27066500  1
  O  O65  1  0.27066500  0.02196700  0.59919700  1
  O  O66  1  0.97803300  0.09919700  0.22933500  1
  O  O67  1  0.37568500  0.63689300  0.74276500  1
