# generated using pymatgen
data_Nb3InSe12
_symmetry_space_group_name_H-M   'P 1'
_cell_length_a   9.22478600
_cell_length_b   9.22478600
_cell_length_c   19.65151300
_cell_angle_alpha   90.00000000
_cell_angle_beta   90.00000000
_cell_angle_gamma   90.00000000
_symmetry_Int_Tables_number   1
_chemical_formula_structural   Nb3InSe12
_chemical_formula_sum   'Nb12 In4 Se48'
_cell_volume   1672.27844933
_cell_formula_units_Z   4
loop_
 _symmetry_equiv_pos_site_id
 _symmetry_equiv_pos_as_xyz
  1  'x, y, z'
loop_
 _atom_site_type_symbol
 _atom_site_label
 _atom_site_symmetry_multiplicity
 _atom_site_fract_x
 _atom_site_fract_y
 _atom_site_fract_z
 _atom_site_occupancy
  Nb  Nb0  1  0.50000000  0.00000000  0.75000000  1
  Nb  Nb1  1  0.00000000  0.50000000  0.75000000  1
  Nb  Nb2  1  0.50000000  0.00000000  0.25000000  1
  Nb  Nb3  1  0.00000000  0.50000000  0.25000000  1
  Nb  Nb4  1  0.00000000  0.50000000  0.59229200  1
  Nb  Nb5  1  0.50000000  0.00000000  0.59229200  1
  Nb  Nb6  1  0.50000000  0.00000000  0.90770800  1
  Nb  Nb7  1  0.00000000  0.50000000  0.90770800  1
  Nb  Nb8  1  0.00000000  0.50000000  0.40770800  1
  Nb  Nb9  1  0.50000000  0.00000000  0.40770800  1
  Nb  Nb10  1  0.50000000  0.00000000  0.09229200  1
  Nb  Nb11  1  0.00000000  0.50000000  0.09229200  1
  In  In12  1  0.50000000  0.50000000  0.66418600  1
  In  In13  1  0.00000000  0.00000000  0.83581400  1
  In  In14  1  0.50000000  0.50000000  0.33581400  1
  In  In15  1  0.00000000  0.00000000  0.16418600  1
  Se  Se16  1  0.93119500  0.27620000  0.67063000  1
  Se  Se17  1  0.06880500  0.72380000  0.67063000  1
  Se  Se18  1  0.77620000  0.43119500  0.82937000  1
  Se  Se19  1  0.27620000  0.06880500  0.67063000  1
  Se  Se20  1  0.72380000  0.93119500  0.67063000  1
  Se  Se21  1  0.56880500  0.77620000  0.82937000  1
  Se  Se22  1  0.43119500  0.22380000  0.82937000  1
  Se  Se23  1  0.22380000  0.56880500  0.82937000  1
  Se  Se24  1  0.06880500  0.72380000  0.32937000  1
  Se  Se25  1  0.93119500  0.27620000  0.32937000  1
  Se  Se26  1  0.22380000  0.56880500  0.17063000  1
  Se  Se27  1  0.72380000  0.93119500  0.32937000  1
  Se  Se28  1  0.27620000  0.06880500  0.32937000  1
  Se  Se29  1  0.43119500  0.22380000  0.17063000  1
  Se  Se30  1  0.56880500  0.77620000  0.17063000  1
  Se  Se31  1  0.19497500  0.61815400  0.50000000  1
  Se  Se32  1  0.77620000  0.43119500  0.17063000  1
  Se  Se33  1  0.70597400  0.11875100  0.16599800  1
  Se  Se34  1  0.29402600  0.88124900  0.16599800  1
  Se  Se35  1  0.61875100  0.20597400  0.33400200  1
  Se  Se36  1  0.38124900  0.79402600  0.33400200  1
  Se  Se37  1  0.88124900  0.70597400  0.16599800  1
  Se  Se38  1  0.79402600  0.61875100  0.33400200  1
  Se  Se39  1  0.20597400  0.38124900  0.33400200  1
  Se  Se40  1  0.88124900  0.70597400  0.83400200  1
  Se  Se41  1  0.29402600  0.88124900  0.83400200  1
  Se  Se42  1  0.70597400  0.11875100  0.83400200  1
  Se  Se43  1  0.38124900  0.79402600  0.66599800  1
  Se  Se44  1  0.61875100  0.20597400  0.66599800  1
  Se  Se45  1  0.11875100  0.29402600  0.83400200  1
  Se  Se46  1  0.20597400  0.38124900  0.66599800  1
  Se  Se47  1  0.79402600  0.61875100  0.66599800  1
  Se  Se48  1  0.21421200  0.45638900  0.00000000  1
  Se  Se49  1  0.54361100  0.21421200  0.00000000  1
  Se  Se50  1  0.45638900  0.78578800  0.00000000  1
  Se  Se51  1  0.71421200  0.04361100  0.50000000  1
  Se  Se52  1  0.28578800  0.95638900  0.50000000  1
  Se  Se53  1  0.78578800  0.54361100  0.00000000  1
  Se  Se54  1  0.95638900  0.71421200  0.50000000  1
  Se  Se55  1  0.04361100  0.28578800  0.50000000  1
  Se  Se56  1  0.88184600  0.30502500  0.00000000  1
  Se  Se57  1  0.69497500  0.88184600  0.00000000  1
  Se  Se58  1  0.30502500  0.11815400  0.00000000  1
  Se  Se59  1  0.38184600  0.19497500  0.50000000  1
  Se  Se60  1  0.61815400  0.80502500  0.50000000  1
  Se  Se61  1  0.11815400  0.69497500  0.00000000  1
  Se  Se62  1  0.80502500  0.38184600  0.50000000  1
  Se  Se63  1  0.11875100  0.29402600  0.16599800  1
