# generated using pymatgen
data_Na2W2O7
_symmetry_space_group_name_H-M   'P 1'
_cell_length_a   7.09118737
_cell_length_b   7.09118737
_cell_length_c   15.04439300
_cell_angle_alpha   90.00000000
_cell_angle_beta   90.00000000
_cell_angle_gamma   117.24639593
_symmetry_Int_Tables_number   1
_chemical_formula_structural   Na2W2O7
_chemical_formula_sum   'Na8 W8 O28'
_cell_volume   672.56892126
_cell_formula_units_Z   4
loop_
 _symmetry_equiv_pos_site_id
 _symmetry_equiv_pos_as_xyz
  1  'x, y, z'
loop_
 _atom_site_type_symbol
 _atom_site_label
 _atom_site_symmetry_multiplicity
 _atom_site_fract_x
 _atom_site_fract_y
 _atom_site_fract_z
 _atom_site_occupancy
  Na  Na0  1  0.66934900  0.33065100  0.34605300  1
  Na  Na1  1  0.25029300  0.25029300  0.00000000  1
  Na  Na2  1  0.33065100  0.66934900  0.65394700  1
  Na  Na3  1  0.74970700  0.74970700  0.00000000  1
  Na  Na4  1  0.24970700  0.24970700  0.50000000  1
  Na  Na5  1  0.75029300  0.75029300  0.50000000  1
  Na  Na6  1  0.16934900  0.83065100  0.15394700  1
  Na  Na7  1  0.83065100  0.16934900  0.84605300  1
  W  W8  1  0.16231100  0.33768900  0.25000000  1
  W  W9  1  0.74608200  0.25391800  0.58633600  1
  W  W10  1  0.33768900  0.16231100  0.75000000  1
  W  W11  1  0.83768900  0.66231100  0.75000000  1
  W  W12  1  0.75391800  0.24608200  0.08633600  1
  W  W13  1  0.25391800  0.74608200  0.41366400  1
  W  W14  1  0.24608200  0.75391800  0.91366400  1
  W  W15  1  0.66231100  0.83768900  0.25000000  1
  O  O16  1  0.12367200  0.87632800  0.46918200  1
  O  O17  1  0.86028700  0.13971300  0.00226900  1
  O  O18  1  0.19682500  0.20806600  0.83884800  1
  O  O19  1  0.37632800  0.62367200  0.96918200  1
  O  O20  1  0.69682500  0.70806600  0.66115200  1
  O  O21  1  0.79193400  0.80317500  0.83884800  1
  O  O22  1  0.93511000  0.47160000  0.65661300  1
  O  O23  1  0.80317500  0.79193400  0.16115200  1
  O  O24  1  0.43511000  0.97160000  0.84338700  1
  O  O25  1  0.29193400  0.30317500  0.66115200  1
  O  O26  1  0.87666700  0.12333300  0.28151100  1
  O  O27  1  0.63971300  0.36028700  0.50226900  1
  O  O28  1  0.12333300  0.87666700  0.71848900  1
  O  O29  1  0.62367200  0.37632800  0.03081800  1
  O  O30  1  0.37666700  0.62333300  0.21848900  1
  O  O31  1  0.13971300  0.86028700  0.99773100  1
  O  O32  1  0.52840000  0.06489000  0.65661300  1
  O  O33  1  0.02840000  0.56489000  0.84338700  1
  O  O34  1  0.47160000  0.93511000  0.34338700  1
  O  O35  1  0.36028700  0.63971300  0.49773100  1
  O  O36  1  0.62333300  0.37666700  0.78151100  1
  O  O37  1  0.06489000  0.52840000  0.34338700  1
  O  O38  1  0.20806600  0.19682500  0.16115200  1
  O  O39  1  0.97160000  0.43511000  0.15661300  1
  O  O40  1  0.56489000  0.02840000  0.15661300  1
  O  O41  1  0.30317500  0.29193400  0.33884800  1
  O  O42  1  0.87632800  0.12367200  0.53081800  1
  O  O43  1  0.70806600  0.69682500  0.33884800  1
