# generated using pymatgen
data_Mn3(Ni10P3)2
_symmetry_space_group_name_H-M   'P 1'
_cell_length_a   7.75772365
_cell_length_b   7.75772365
_cell_length_c   7.75772365
_cell_angle_alpha   60.00000000
_cell_angle_beta   60.00000000
_cell_angle_gamma   60.00000000
_symmetry_Int_Tables_number   1
_chemical_formula_structural   Mn3(Ni10P3)2
_chemical_formula_sum   'Mn3 Ni20 P6'
_cell_volume   330.13222343
_cell_formula_units_Z   1
loop_
 _symmetry_equiv_pos_site_id
 _symmetry_equiv_pos_as_xyz
  1  'x, y, z'
loop_
 _atom_site_type_symbol
 _atom_site_label
 _atom_site_symmetry_multiplicity
 _atom_site_fract_x
 _atom_site_fract_y
 _atom_site_fract_z
 _atom_site_occupancy
  Mn  Mn0  1  0.75000000  0.75000000  0.75000000  1
  Mn  Mn1  1  0.25000000  0.25000000  0.25000000  1
  Mn  Mn2  1  0.00000000  0.00000000  0.00000000  1
  Ni  Ni3  1  0.37957400  0.37957400  0.86127900  1
  Ni  Ni4  1  0.62042600  0.62042600  0.62042600  1
  Ni  Ni5  1  0.00000000  0.34775600  0.00000000  1
  Ni  Ni6  1  0.34775600  0.00000000  0.00000000  1
  Ni  Ni7  1  0.00000000  0.34775600  0.65224400  1
  Ni  Ni8  1  0.86127900  0.37957400  0.37957400  1
  Ni  Ni9  1  0.34775600  0.00000000  0.65224400  1
  Ni  Ni10  1  0.00000000  0.00000000  0.34775600  1
  Ni  Ni11  1  0.65224400  0.34775600  0.00000000  1
  Ni  Ni12  1  0.00000000  0.65224400  0.34775600  1
  Ni  Ni13  1  0.00000000  0.00000000  0.65224400  1
  Ni  Ni14  1  0.34775600  0.65224400  0.00000000  1
  Ni  Ni15  1  0.65224400  0.00000000  0.00000000  1
  Ni  Ni16  1  0.00000000  0.65224400  0.00000000  1
  Ni  Ni17  1  0.37957400  0.86127900  0.37957400  1
  Ni  Ni18  1  0.62042600  0.62042600  0.13872100  1
  Ni  Ni19  1  0.62042600  0.13872100  0.62042600  1
  Ni  Ni20  1  0.13872100  0.62042600  0.62042600  1
  Ni  Ni21  1  0.37957400  0.37957400  0.37957400  1
  Ni  Ni22  1  0.65224400  0.00000000  0.34775600  1
  P  P23  1  0.73592200  0.26407800  0.73592200  1
  P  P24  1  0.26407800  0.73592200  0.26407800  1
  P  P25  1  0.26407800  0.73592200  0.73592200  1
  P  P26  1  0.26407800  0.26407800  0.73592200  1
  P  P27  1  0.73592200  0.73592200  0.26407800  1
  P  P28  1  0.73592200  0.26407800  0.26407800  1
