# generated using pymatgen
data_K5Pb24
_symmetry_space_group_name_H-M   'P 1'
_cell_length_a   10.88835380
_cell_length_b   10.88835380
_cell_length_c   10.88835380
_cell_angle_alpha   109.47122063
_cell_angle_beta   109.47122063
_cell_angle_gamma   109.47122063
_symmetry_Int_Tables_number   1
_chemical_formula_structural   K5Pb24
_chemical_formula_sum   'K5 Pb24'
_cell_volume   993.72171956
_cell_formula_units_Z   1
loop_
 _symmetry_equiv_pos_site_id
 _symmetry_equiv_pos_as_xyz
  1  'x, y, z'
loop_
 _atom_site_type_symbol
 _atom_site_label
 _atom_site_symmetry_multiplicity
 _atom_site_fract_x
 _atom_site_fract_y
 _atom_site_fract_z
 _atom_site_occupancy
  K  K0  1  0.00000000  0.36352300  0.00000000  1
  K  K1  1  0.36352300  0.00000000  0.00000000  1
  K  K2  1  0.00000000  0.00000000  0.36352300  1
  K  K3  1  0.63647700  0.63647700  0.63647700  1
  K  K4  1  0.00000000  0.00000000  0.00000000  1
  Pb  Pb5  1  0.80958800  0.19882000  0.19882000  1
  Pb  Pb6  1  0.00000000  0.61076800  0.80118000  1
  Pb  Pb7  1  0.00000000  0.80118000  0.61076800  1
  Pb  Pb8  1  0.61076800  0.80118000  0.00000000  1
  Pb  Pb9  1  0.38923200  0.38923200  0.19041200  1
  Pb  Pb10  1  0.19041200  0.38923200  0.38923200  1
  Pb  Pb11  1  0.19882000  0.80958800  0.19882000  1
  Pb  Pb12  1  0.72232600  0.40151800  0.40151800  1
  Pb  Pb13  1  0.67919200  0.67919200  0.27767400  1
  Pb  Pb14  1  0.59848200  0.32080800  0.00000000  1
  Pb  Pb15  1  0.00000000  0.59848200  0.32080800  1
  Pb  Pb16  1  0.00000000  0.32080800  0.59848200  1
  Pb  Pb17  1  0.59848200  0.00000000  0.32080800  1
  Pb  Pb18  1  0.67919200  0.27767400  0.67919200  1
  Pb  Pb19  1  0.32080800  0.59848200  0.00000000  1
  Pb  Pb20  1  0.32080800  0.00000000  0.59848200  1
  Pb  Pb21  1  0.40151800  0.72232600  0.40151800  1
  Pb  Pb22  1  0.40151800  0.40151800  0.72232600  1
  Pb  Pb23  1  0.27767400  0.67919200  0.67919200  1
  Pb  Pb24  1  0.19882000  0.19882000  0.80958800  1
  Pb  Pb25  1  0.80118000  0.61076800  0.00000000  1
  Pb  Pb26  1  0.61076800  0.00000000  0.80118000  1
  Pb  Pb27  1  0.80118000  0.00000000  0.61076800  1
  Pb  Pb28  1  0.38923200  0.19041200  0.38923200  1
