# generated using pymatgen
data_Sm5Ga3
_symmetry_space_group_name_H-M   'P 1'
_cell_length_a   7.77158400
_cell_length_b   7.77158400
_cell_length_c   14.55653000
_cell_angle_alpha   90.00000000
_cell_angle_beta   90.00000000
_cell_angle_gamma   90.00000000
_symmetry_Int_Tables_number   1
_chemical_formula_structural   Sm5Ga3
_chemical_formula_sum   'Sm20 Ga12'
_cell_volume   879.17828079
_cell_formula_units_Z   4
loop_
 _symmetry_equiv_pos_site_id
 _symmetry_equiv_pos_as_xyz
  1  'x, y, z'
loop_
 _atom_site_type_symbol
 _atom_site_label
 _atom_site_symmetry_multiplicity
 _atom_site_fract_x
 _atom_site_fract_y
 _atom_site_fract_z
 _atom_site_occupancy
  Sm  Sm0  1  0.34385800  0.31425900  0.89661100  1
  Sm  Sm1  1  0.84385800  0.18574100  0.60338900  1
  Sm  Sm2  1  0.81425900  0.15614200  0.89661100  1
  Sm  Sm3  1  0.18574100  0.84385800  0.89661100  1
  Sm  Sm4  1  0.50000000  0.00000000  0.22112800  1
  Sm  Sm5  1  0.00000000  0.50000000  0.27887200  1
  Sm  Sm6  1  0.00000000  0.50000000  0.77887200  1
  Sm  Sm7  1  0.50000000  0.00000000  0.72112800  1
  Sm  Sm8  1  0.65614200  0.68574100  0.89661100  1
  Sm  Sm9  1  0.31425900  0.34385800  0.60338900  1
  Sm  Sm10  1  0.68574100  0.65614200  0.60338900  1
  Sm  Sm11  1  0.15614200  0.81425900  0.60338900  1
  Sm  Sm12  1  0.31425900  0.65614200  0.10338900  1
  Sm  Sm13  1  0.68574100  0.34385800  0.10338900  1
  Sm  Sm14  1  0.65614200  0.31425900  0.39661100  1
  Sm  Sm15  1  0.15614200  0.18574100  0.10338900  1
  Sm  Sm16  1  0.84385800  0.81425900  0.10338900  1
  Sm  Sm17  1  0.18574100  0.15614200  0.39661100  1
  Sm  Sm18  1  0.81425900  0.84385800  0.39661100  1
  Sm  Sm19  1  0.34385800  0.68574100  0.39661100  1
  Ga  Ga20  1  0.87945000  0.87945000  0.75000000  1
  Ga  Ga21  1  0.62055000  0.37945000  0.75000000  1
  Ga  Ga22  1  0.37945000  0.62055000  0.75000000  1
  Ga  Ga23  1  0.12055000  0.12055000  0.75000000  1
  Ga  Ga24  1  0.62055000  0.62055000  0.25000000  1
  Ga  Ga25  1  0.87945000  0.12055000  0.25000000  1
  Ga  Ga26  1  0.12055000  0.87945000  0.25000000  1
  Ga  Ga27  1  0.37945000  0.37945000  0.25000000  1
  Ga  Ga28  1  0.00000000  0.50000000  0.99259400  1
  Ga  Ga29  1  0.50000000  0.00000000  0.50740600  1
  Ga  Ga30  1  0.50000000  0.00000000  0.00740600  1
  Ga  Ga31  1  0.00000000  0.50000000  0.49259400  1
