# generated using pymatgen
data_Mo5PbO8
_symmetry_space_group_name_H-M   'P 1'
_cell_length_a   9.91999500
_cell_length_b   8.47897800
_cell_length_c   10.74420523
_cell_angle_alpha   70.68003342
_cell_angle_beta   90.00000000
_cell_angle_gamma   90.00000000
_symmetry_Int_Tables_number   1
_chemical_formula_structural   Mo5PbO8
_chemical_formula_sum   'Mo20 Pb4 O32'
_cell_volume   852.81854999
_cell_formula_units_Z   4
loop_
 _symmetry_equiv_pos_site_id
 _symmetry_equiv_pos_as_xyz
  1  'x, y, z'
loop_
 _atom_site_type_symbol
 _atom_site_label
 _atom_site_symmetry_multiplicity
 _atom_site_fract_x
 _atom_site_fract_y
 _atom_site_fract_z
 _atom_site_occupancy
  Mo  Mo0  1  0.35878500  0.60485400  0.01489000  1
  Mo  Mo1  1  0.85878500  0.39514600  0.48511000  1
  Mo  Mo2  1  0.64121500  0.39514600  0.98511000  1
  Mo  Mo3  1  0.14121500  0.60485400  0.51489000  1
  Mo  Mo4  1  0.36965800  0.41372800  0.79866000  1
  Mo  Mo5  1  0.86965800  0.58627200  0.70134000  1
  Mo  Mo6  1  0.63034200  0.58627200  0.20134000  1
  Mo  Mo7  1  0.13034200  0.41372800  0.29866000  1
  Mo  Mo8  1  0.36403200  0.79026200  0.21993200  1
  Mo  Mo9  1  0.86403200  0.20973800  0.28006800  1
  Mo  Mo10  1  0.63596800  0.20973800  0.78006800  1
  Mo  Mo11  1  0.13596800  0.79026200  0.71993200  1
  Mo  Mo12  1  0.37917400  0.20199200  0.12142000  1
  Mo  Mo13  1  0.87917400  0.79800800  0.37858000  1
  Mo  Mo14  1  0.62082600  0.79800800  0.87858000  1
  Mo  Mo15  1  0.12082600  0.20199200  0.62142000  1
  Mo  Mo16  1  0.34519900  0.00675600  0.89659900  1
  Mo  Mo17  1  0.84519900  0.99324400  0.60340100  1
  Mo  Mo18  1  0.65480100  0.99324400  0.10340100  1
  Mo  Mo19  1  0.15480100  0.00675600  0.39659900  1
  Pb  Pb20  1  0.96162400  0.69245600  0.03132600  1
  Pb  Pb21  1  0.46162400  0.30754400  0.46867400  1
  Pb  Pb22  1  0.03837600  0.30754400  0.96867400  1
  Pb  Pb23  1  0.53837600  0.69245600  0.53132600  1
  O  O24  1  0.23627700  0.61658000  0.17192900  1
  O  O25  1  0.73627700  0.38342000  0.32807100  1
  O  O26  1  0.76372300  0.38342000  0.82807100  1
  O  O27  1  0.26372300  0.61658000  0.67192900  1
  O  O28  1  0.50869200  0.40474600  0.64794200  1
  O  O29  1  0.00869200  0.59525400  0.85205800  1
  O  O30  1  0.49130800  0.59525400  0.35205800  1
  O  O31  1  0.99130800  0.40474600  0.14794200  1
  O  O32  1  0.27990300  0.00704000  0.07259800  1
  O  O33  1  0.77990300  0.99296000  0.42740200  1
  O  O34  1  0.72009700  0.99296000  0.92740200  1
  O  O35  1  0.22009700  0.00704000  0.57259800  1
  O  O36  1  0.24573100  0.21027700  0.78033700  1
  O  O37  1  0.74573100  0.78972300  0.71966300  1
  O  O38  1  0.75426900  0.78972300  0.21966300  1
  O  O39  1  0.25426900  0.21027700  0.28033700  1
  O  O40  1  0.24212000  0.80885600  0.88484300  1
  O  O41  1  0.74212000  0.19114400  0.61515700  1
  O  O42  1  0.75788000  0.19114400  0.11515700  1
  O  O43  1  0.25788000  0.80885600  0.38484300  1
  O  O44  1  0.49964300  0.01073500  0.77772900  1
  O  O45  1  0.99964300  0.98926500  0.72227100  1
  O  O46  1  0.50035700  0.98926500  0.22227100  1
  O  O47  1  0.00035700  0.01073500  0.27772900  1
  O  O48  1  0.23563100  0.39819600  0.47998900  1
  O  O49  1  0.73563100  0.60180400  0.02001100  1
  O  O50  1  0.76436900  0.60180400  0.52001100  1
  O  O51  1  0.26436900  0.39819600  0.97998900  1
  O  O52  1  0.00187300  0.41582100  0.63548000  1
  O  O53  1  0.50187300  0.58417900  0.86452000  1
  O  O54  1  0.99812700  0.58417900  0.36452000  1
  O  O55  1  0.49812700  0.41582100  0.13548000  1
