# generated using pymatgen
data_Na2CePCO7
_symmetry_space_group_name_H-M   'P 1'
_cell_length_a   7.17522900
_cell_length_b   5.23449400
_cell_length_c   9.50673859
_cell_angle_alpha   89.67219731
_cell_angle_beta   90.00000000
_cell_angle_gamma   90.00000000
_symmetry_Int_Tables_number   1
_chemical_formula_structural   Na2CePCO7
_chemical_formula_sum   'Na4 Ce2 P2 C2 O14'
_cell_volume   357.05483379
_cell_formula_units_Z   2
loop_
 _symmetry_equiv_pos_site_id
 _symmetry_equiv_pos_as_xyz
  1  'x, y, z'
loop_
 _atom_site_type_symbol
 _atom_site_label
 _atom_site_symmetry_multiplicity
 _atom_site_fract_x
 _atom_site_fract_y
 _atom_site_fract_z
 _atom_site_occupancy
  Na  Na0  1  0.00712300  0.23188000  0.79860200  1
  Na  Na1  1  0.49287700  0.23188000  0.79860200  1
  Na  Na2  1  0.50712300  0.76812000  0.20139800  1
  Na  Na3  1  0.99287700  0.76812000  0.20139800  1
  Ce  Ce4  1  0.75000000  0.76938500  0.61154700  1
  Ce  Ce5  1  0.25000000  0.23061500  0.38845300  1
  P  P6  1  0.25000000  0.71140400  0.59143600  1
  P  P7  1  0.75000000  0.28859600  0.40856400  1
  C  C8  1  0.75000000  0.73277100  0.91566800  1
  C  C9  1  0.25000000  0.26722900  0.08433200  1
  O  O10  1  0.25000000  0.29060700  0.95190200  1
  O  O11  1  0.75000000  0.95525600  0.85088400  1
  O  O12  1  0.75000000  0.53233700  0.83101000  1
  O  O13  1  0.07368600  0.84669300  0.64764300  1
  O  O14  1  0.42631400  0.84669300  0.64764300  1
  O  O15  1  0.75000000  0.26822000  0.57441700  1
  O  O16  1  0.25000000  0.42019200  0.62571800  1
  O  O17  1  0.75000000  0.57980800  0.37428200  1
  O  O18  1  0.25000000  0.73178000  0.42558300  1
  O  O19  1  0.57368600  0.15330700  0.35235700  1
  O  O20  1  0.92631400  0.15330700  0.35235700  1
  O  O21  1  0.25000000  0.46766300  0.16899000  1
  O  O22  1  0.25000000  0.04474400  0.14911600  1
  O  O23  1  0.75000000  0.70939300  0.04809800  1
