# generated using pymatgen
data_Ca5Cr3O12
_symmetry_space_group_name_H-M   'P 1'
_cell_length_a   6.80110200
_cell_length_b   10.41697300
_cell_length_c   16.22068600
_cell_angle_alpha   90.00000000
_cell_angle_beta   90.00000000
_cell_angle_gamma   90.00000000
_symmetry_Int_Tables_number   1
_chemical_formula_structural   Ca5Cr3O12
_chemical_formula_sum   'Ca20 Cr12 O48'
_cell_volume   1149.18525254
_cell_formula_units_Z   4
loop_
 _symmetry_equiv_pos_site_id
 _symmetry_equiv_pos_as_xyz
  1  'x, y, z'
loop_
 _atom_site_type_symbol
 _atom_site_label
 _atom_site_symmetry_multiplicity
 _atom_site_fract_x
 _atom_site_fract_y
 _atom_site_fract_z
 _atom_site_occupancy
  Ca  Ca0  1  0.03891200  0.67680500  0.25000000  1
  Ca  Ca1  1  0.53891200  0.82319500  0.25000000  1
  Ca  Ca2  1  0.96108800  0.32319500  0.75000000  1
  Ca  Ca3  1  0.46108800  0.17680500  0.75000000  1
  Ca  Ca4  1  0.62535200  0.43338800  0.90747600  1
  Ca  Ca5  1  0.12535200  0.06661200  0.59252400  1
  Ca  Ca6  1  0.37464800  0.56661200  0.40747600  1
  Ca  Ca7  1  0.87464800  0.93338800  0.09252400  1
  Ca  Ca8  1  0.37464800  0.56661200  0.09252400  1
  Ca  Ca9  1  0.87464800  0.93338800  0.40747600  1
  Ca  Ca10  1  0.62535200  0.43338800  0.59252400  1
  Ca  Ca11  1  0.12535200  0.06661200  0.90747600  1
  Ca  Ca12  1  0.68064200  0.83359800  0.89363300  1
  Ca  Ca13  1  0.18064200  0.66640200  0.60636700  1
  Ca  Ca14  1  0.31935800  0.16640200  0.39363300  1
  Ca  Ca15  1  0.81935800  0.33359800  0.10636700  1
  Ca  Ca16  1  0.31935800  0.16640200  0.10636700  1
  Ca  Ca17  1  0.81935800  0.33359800  0.39363300  1
  Ca  Ca18  1  0.68064200  0.83359800  0.60636700  1
  Ca  Ca19  1  0.18064200  0.66640200  0.89363300  1
  Cr  Cr20  1  0.36113800  0.87034500  0.07150200  1
  Cr  Cr21  1  0.86113800  0.62965500  0.42849800  1
  Cr  Cr22  1  0.63886200  0.12965500  0.57150200  1
  Cr  Cr23  1  0.13886200  0.37034500  0.92849800  1
  Cr  Cr24  1  0.63886200  0.12965500  0.92849800  1
  Cr  Cr25  1  0.13886200  0.37034500  0.57150200  1
  Cr  Cr26  1  0.36113800  0.87034500  0.42849800  1
  Cr  Cr27  1  0.86113800  0.62965500  0.07150200  1
  Cr  Cr28  1  0.52526200  0.42160400  0.25000000  1
  Cr  Cr29  1  0.02526200  0.07839600  0.25000000  1
  Cr  Cr30  1  0.47473800  0.57839600  0.75000000  1
  Cr  Cr31  1  0.97473800  0.92160400  0.75000000  1
  O  O32  1  0.77571000  0.41261300  0.25000000  1
  O  O33  1  0.27571000  0.08738700  0.25000000  1
  O  O34  1  0.22429000  0.58738700  0.75000000  1
  O  O35  1  0.72429000  0.91261300  0.75000000  1
  O  O36  1  0.42120100  0.57292800  0.25000000  1
  O  O37  1  0.92120100  0.92707200  0.25000000  1
  O  O38  1  0.57879900  0.42707200  0.75000000  1
  O  O39  1  0.07879900  0.07292800  0.75000000  1
  O  O40  1  0.18747800  0.98581800  0.03877100  1
  O  O41  1  0.68747800  0.51418200  0.46122900  1
  O  O42  1  0.81252200  0.01418200  0.53877100  1
  O  O43  1  0.31252200  0.48581800  0.96122900  1
  O  O44  1  0.81252200  0.01418200  0.96122900  1
  O  O45  1  0.31252200  0.48581800  0.53877100  1
  O  O46  1  0.18747800  0.98581800  0.46122900  1
  O  O47  1  0.68747800  0.51418200  0.03877100  1
  O  O48  1  0.27266700  0.77180800  0.15238000  1
  O  O49  1  0.77266700  0.72819200  0.34762000  1
  O  O50  1  0.72733300  0.22819200  0.65238000  1
  O  O51  1  0.22733300  0.27180800  0.84762000  1
  O  O52  1  0.72733300  0.22819200  0.84762000  1
  O  O53  1  0.22733300  0.27180800  0.65238000  1
  O  O54  1  0.27266700  0.77180800  0.34762000  1
  O  O55  1  0.77266700  0.72819200  0.15238000  1
  O  O56  1  0.54120000  0.96548300  0.12000000  1
  O  O57  1  0.04120000  0.53451700  0.38000000  1
  O  O58  1  0.45880000  0.03451700  0.62000000  1
  O  O59  1  0.95880000  0.46548300  0.88000000  1
  O  O60  1  0.45880000  0.03451700  0.88000000  1
  O  O61  1  0.95880000  0.46548300  0.62000000  1
  O  O62  1  0.54120000  0.96548300  0.38000000  1
  O  O63  1  0.04120000  0.53451700  0.12000000  1
  O  O64  1  0.42650900  0.76782900  0.99040300  1
  O  O65  1  0.92650900  0.73217100  0.50959700  1
  O  O66  1  0.57349100  0.23217100  0.49040300  1
  O  O67  1  0.07349100  0.26782900  0.00959700  1
  O  O68  1  0.57349100  0.23217100  0.00959700  1
  O  O69  1  0.07349100  0.26782900  0.49040300  1
  O  O70  1  0.42650900  0.76782900  0.50959700  1
  O  O71  1  0.92650900  0.73217100  0.99040300  1
  O  O72  1  0.45642500  0.35459500  0.34322500  1
  O  O73  1  0.95642500  0.14540500  0.15677500  1
  O  O74  1  0.54357500  0.64540500  0.84322500  1
  O  O75  1  0.04357500  0.85459500  0.65677500  1
  O  O76  1  0.54357500  0.64540500  0.65677500  1
  O  O77  1  0.04357500  0.85459500  0.84322500  1
  O  O78  1  0.45642500  0.35459500  0.15677500  1
  O  O79  1  0.95642500  0.14540500  0.34322500  1
