# generated using pymatgen
data_Na5CoO4
_symmetry_space_group_name_H-M   'P 1'
_cell_length_a   6.01030200
_cell_length_b   10.46042300
_cell_length_c   18.01309100
_cell_angle_alpha   90.00000000
_cell_angle_beta   90.00000000
_cell_angle_gamma   90.00000000
_symmetry_Int_Tables_number   1
_chemical_formula_structural   Na5CoO4
_chemical_formula_sum   'Na40 Co8 O32'
_cell_volume   1132.48845811
_cell_formula_units_Z   8
loop_
 _symmetry_equiv_pos_site_id
 _symmetry_equiv_pos_as_xyz
  1  'x, y, z'
loop_
 _atom_site_type_symbol
 _atom_site_label
 _atom_site_symmetry_multiplicity
 _atom_site_fract_x
 _atom_site_fract_y
 _atom_site_fract_z
 _atom_site_occupancy
  Na  Na0  1  0.09987300  0.42435900  0.75259900  1
  Na  Na1  1  0.42083000  0.30020600  0.64069300  1
  Na  Na2  1  0.57917100  0.19979300  0.14069300  1
  Na  Na3  1  0.07917100  0.80020700  0.35930700  1
  Na  Na4  1  0.07917100  0.30020600  0.14069300  1
  Na  Na5  1  0.57917100  0.69979300  0.35930700  1
  Na  Na6  1  0.42083000  0.80020700  0.85930700  1
  Na  Na7  1  0.92083000  0.19979300  0.64069300  1
  Na  Na8  1  0.89871800  0.82567900  0.17188500  1
  Na  Na9  1  0.39871800  0.17432000  0.32811500  1
  Na  Na10  1  0.60128300  0.32568000  0.82811500  1
  Na  Na11  1  0.10128200  0.67432100  0.67188500  1
  Na  Na12  1  0.10128200  0.17432000  0.82811500  1
  Na  Na13  1  0.60128300  0.82567900  0.67188500  1
  Na  Na14  1  0.39871800  0.67432100  0.17188500  1
  Na  Na15  1  0.89871800  0.32568000  0.32811500  1
  Na  Na16  1  0.91485900  0.16007500  0.00211500  1
  Na  Na17  1  0.41485900  0.83992500  0.49788500  1
  Na  Na18  1  0.58514200  0.66007400  0.99788500  1
  Na  Na19  1  0.08514200  0.33992600  0.50211500  1
  Na  Na20  1  0.08514200  0.83992500  0.99788500  1
  Na  Na21  1  0.58514200  0.16007500  0.50211500  1
  Na  Na22  1  0.41485900  0.33992600  0.00211500  1
  Na  Na23  1  0.91485900  0.66007400  0.49788500  1
  Na  Na24  1  0.92192600  0.93839200  0.56521300  1
  Na  Na25  1  0.40012800  0.92435900  0.24740100  1
  Na  Na26  1  0.59987300  0.57564000  0.74740100  1
  Na  Na27  1  0.92083000  0.69979300  0.85930700  1
  Na  Na28  1  0.09987300  0.92435900  0.74740100  1
  Na  Na29  1  0.59987300  0.07564100  0.75259900  1
  Na  Na30  1  0.40012800  0.42435900  0.25259900  1
  Na  Na31  1  0.90012800  0.57564000  0.24740100  1
  Na  Na32  1  0.92192600  0.43839100  0.93478700  1
  Na  Na33  1  0.42192600  0.56160800  0.56521300  1
  Na  Na34  1  0.57807500  0.93839200  0.06521300  1
  Na  Na35  1  0.07807400  0.06160900  0.43478700  1
  Na  Na36  1  0.07807400  0.56160800  0.06521300  1
  Na  Na37  1  0.57807500  0.43839100  0.43478700  1
  Na  Na38  1  0.42192600  0.06160900  0.93478700  1
  Na  Na39  1  0.90012800  0.07564100  0.25259900  1
  Co  Co40  1  0.82620900  0.45953500  0.62273600  1
  Co  Co41  1  0.32620900  0.54046600  0.87726400  1
  Co  Co42  1  0.67379200  0.95953400  0.37726400  1
  Co  Co43  1  0.17379100  0.04046600  0.12273600  1
  Co  Co44  1  0.17379100  0.54046600  0.37726400  1
  Co  Co45  1  0.67379200  0.45953500  0.12273600  1
  Co  Co46  1  0.32620900  0.04046600  0.62273600  1
  Co  Co47  1  0.82620900  0.95953400  0.87726400  1
  O  O48  1  0.86186200  0.04307000  0.12091100  1
  O  O49  1  0.36186300  0.95693000  0.37908900  1
  O  O50  1  0.63813700  0.54307000  0.87908900  1
  O  O51  1  0.13813700  0.45692900  0.62091100  1
  O  O52  1  0.13813700  0.95693000  0.87908900  1
  O  O53  1  0.63813700  0.04307000  0.62091100  1
  O  O54  1  0.36186300  0.45692900  0.12091100  1
  O  O55  1  0.86186200  0.54307000  0.37908900  1
  O  O56  1  0.80927500  0.36608100  0.04684800  1
  O  O57  1  0.30927500  0.63391900  0.45315200  1
  O  O58  1  0.69072400  0.86608200  0.95315200  1
  O  O59  1  0.19072400  0.13391800  0.54684800  1
  O  O60  1  0.19072400  0.63391900  0.95315200  1
  O  O61  1  0.69072400  0.36608100  0.54684800  1
  O  O62  1  0.30927500  0.13391800  0.04684800  1
  O  O63  1  0.80927500  0.86608200  0.45315200  1
  O  O64  1  0.73545900  0.37145300  0.71097000  1
  O  O65  1  0.23545800  0.62854700  0.78903000  1
  O  O66  1  0.76454000  0.87145300  0.28903000  1
  O  O67  1  0.26454000  0.12854600  0.21097000  1
  O  O68  1  0.26454000  0.62854700  0.28903000  1
  O  O69  1  0.76454000  0.37145300  0.21097000  1
  O  O70  1  0.23545800  0.12854600  0.71097000  1
  O  O71  1  0.73545900  0.87145300  0.78903000  1
  O  O72  1  0.74132400  0.13544500  0.87532900  1
  O  O73  1  0.24132300  0.86455500  0.62467100  1
  O  O74  1  0.75867700  0.63544500  0.12467100  1
  O  O75  1  0.25867700  0.36455500  0.37532900  1
  O  O76  1  0.25867700  0.86455500  0.12467100  1
  O  O77  1  0.75867700  0.13544500  0.37532900  1
  O  O78  1  0.24132300  0.36455500  0.87532900  1
  O  O79  1  0.74132400  0.63544500  0.62467100  1
