# generated using pymatgen
data_Mn6O5F7
_symmetry_space_group_name_H-M   'P 1'
_cell_length_a   5.30105700
_cell_length_b   5.36043611
_cell_length_c   14.86352376
_cell_angle_alpha   93.38253932
_cell_angle_beta   92.50213450
_cell_angle_gamma   93.74787594
_symmetry_Int_Tables_number   1
_chemical_formula_structural   Mn6O5F7
_chemical_formula_sum   'Mn12 O10 F14'
_cell_volume   420.24515617
_cell_formula_units_Z   2
loop_
 _symmetry_equiv_pos_site_id
 _symmetry_equiv_pos_as_xyz
  1  'x, y, z'
loop_
 _atom_site_type_symbol
 _atom_site_label
 _atom_site_symmetry_multiplicity
 _atom_site_fract_x
 _atom_site_fract_y
 _atom_site_fract_z
 _atom_site_occupancy
  Mn  Mn0  1  0.09909600  0.01367900  0.00216200  1
  Mn  Mn1  1  0.55457600  0.04942500  0.16521600  1
  Mn  Mn2  1  0.92839000  0.01111600  0.32458400  1
  Mn  Mn3  1  0.38975200  0.10708300  0.49148400  1
  Mn  Mn4  1  0.98457800  0.88854700  0.67012900  1
  Mn  Mn5  1  0.49393300  0.03984600  0.82873200  1
  Mn  Mn6  1  0.88071300  0.53938600  0.16955100  1
  Mn  Mn7  1  0.45036700  0.54486100  0.00392800  1
  Mn  Mn8  1  0.52610900  0.44898400  0.66949900  1
  Mn  Mn9  1  0.98331100  0.46551400  0.50271800  1
  Mn  Mn10  1  0.44992400  0.49327900  0.31962200  1
  Mn  Mn11  1  0.02374800  0.37296600  0.83367100  1
  O  O12  1  0.75914800  0.25268500  0.25570700  1
  O  O13  1  0.14123100  0.26124600  0.40758400  1
  O  O14  1  0.17905100  0.13598300  0.75107800  1
  O  O15  1  0.59323800  0.37799500  0.10110100  1
  O  O16  1  0.27246800  0.35992700  0.57043900  1
  O  O17  1  0.30044500  0.24540100  0.92860200  1
  O  O18  1  0.69232100  0.31987900  0.77215400  1
  O  O19  1  0.80572700  0.61400400  0.60109500  1
  O  O20  1  0.69309900  0.77110400  0.24330300  1
  O  O21  1  0.36046500  0.85898400  0.06942800  1
  F  F22  1  0.08655000  0.36004500  0.08554900  1
  F  F23  1  0.70190400  0.11682000  0.58489700  1
  F  F24  1  0.81536700  0.07381200  0.92127700  1
  F  F25  1  0.26075700  0.14790500  0.24373200  1
  F  F26  1  0.65534300  0.36409000  0.43338800  1
  F  F27  1  0.87805300  0.57786700  0.92883300  1
  F  F28  1  0.48942800  0.85469700  0.40784500  1
  F  F29  1  0.22656400  0.62735300  0.73481600  1
  F  F30  1  0.98570700  0.76801500  0.41426000  1
  F  F31  1  0.86474400  0.86759200  0.08571700  1
  F  F32  1  0.72056400  0.81803200  0.75406200  1
  F  F33  1  0.23363600  0.86123200  0.57756500  1
  F  F34  1  0.35275600  0.73270000  0.89961100  1
  F  F35  1  0.16693800  0.65794600  0.24665800  1
