# generated using pymatgen
data_Nd6Fe13Sn
_symmetry_space_group_name_H-M   'P 1'
_cell_length_a   13.06307124
_cell_length_b   13.06307124
_cell_length_c   13.06307124
_cell_angle_alpha   144.02544714
_cell_angle_beta   144.02544714
_cell_angle_gamma   51.78924171
_symmetry_Int_Tables_number   1
_chemical_formula_structural   Nd6Fe13Sn
_chemical_formula_sum   'Nd12 Fe26 Sn2'
_cell_volume   764.91926441
_cell_formula_units_Z   2
loop_
 _symmetry_equiv_pos_site_id
 _symmetry_equiv_pos_as_xyz
  1  'x, y, z'
loop_
 _atom_site_type_symbol
 _atom_site_label
 _atom_site_symmetry_multiplicity
 _atom_site_fract_x
 _atom_site_fract_y
 _atom_site_fract_z
 _atom_site_occupancy
  Nd  Nd0  1  0.47952300  0.65130000  0.50000000  1
  Nd  Nd1  1  0.39565100  0.39565100  0.00000000  1
  Nd  Nd2  1  0.89565100  0.89565100  0.00000000  1
  Nd  Nd3  1  0.60434900  0.60434900  0.00000000  1
  Nd  Nd4  1  0.52047700  0.34870000  0.50000000  1
  Nd  Nd5  1  0.10434900  0.10434900  0.00000000  1
  Nd  Nd6  1  0.15130000  0.97952300  0.50000000  1
  Nd  Nd7  1  0.97952300  0.47952300  0.82822300  1
  Nd  Nd8  1  0.65130000  0.15130000  0.17177700  1
  Nd  Nd9  1  0.34870000  0.84870000  0.82822300  1
  Nd  Nd10  1  0.02047700  0.52047700  0.17177700  1
  Nd  Nd11  1  0.84870000  0.02047700  0.50000000  1
  Fe  Fe12  1  0.20643800  0.47988700  0.50000000  1
  Fe  Fe13  1  0.02011300  0.29356200  0.50000000  1
  Fe  Fe14  1  0.00000000  0.50000000  0.50000000  1
  Fe  Fe15  1  0.50000000  0.00000000  0.50000000  1
  Fe  Fe16  1  0.43360600  0.70957100  0.14317700  1
  Fe  Fe17  1  0.20957100  0.93360600  0.14317700  1
  Fe  Fe18  1  0.79042900  0.06639400  0.85682300  1
  Fe  Fe19  1  0.06639400  0.20957100  0.27596600  1
  Fe  Fe20  1  0.93360600  0.79042900  0.72403400  1
  Fe  Fe21  1  0.70957100  0.56639400  0.27596600  1
  Fe  Fe22  1  0.29042900  0.43360600  0.72403400  1
  Fe  Fe23  1  0.56639400  0.29042900  0.85682300  1
  Fe  Fe24  1  0.73727500  0.87946200  0.50000000  1
  Fe  Fe25  1  0.79356200  0.52011300  0.50000000  1
  Fe  Fe26  1  0.23727500  0.73727500  0.85781300  1
  Fe  Fe27  1  0.76272500  0.26272500  0.14218700  1
  Fe  Fe28  1  0.12053800  0.62053800  0.85781300  1
  Fe  Fe29  1  0.26272500  0.12053800  0.50000000  1
  Fe  Fe30  1  0.62053800  0.76272500  0.50000000  1
  Fe  Fe31  1  0.37946200  0.23727500  0.50000000  1
  Fe  Fe32  1  0.87946200  0.37946200  0.14218700  1
  Fe  Fe33  1  0.47988700  0.97988700  0.27345000  1
  Fe  Fe34  1  0.70643800  0.20643800  0.72655000  1
  Fe  Fe35  1  0.29356200  0.79356200  0.27345000  1
  Fe  Fe36  1  0.52011300  0.02011300  0.72655000  1
  Fe  Fe37  1  0.97988700  0.70643800  0.50000000  1
  Sn  Sn38  1  0.75000000  0.75000000  0.00000000  1
  Sn  Sn39  1  0.25000000  0.25000000  0.00000000  1
