# generated using pymatgen
data_Na(FeO2)2
_symmetry_space_group_name_H-M   'P 1'
_cell_length_a   5.14689200
_cell_length_b   5.97645300
_cell_length_c   13.01440192
_cell_angle_alpha   62.78620953
_cell_angle_beta   90.00000000
_cell_angle_gamma   90.00000000
_symmetry_Int_Tables_number   1
_chemical_formula_structural   Na(FeO2)2
_chemical_formula_sum   'Na4 Fe8 O16'
_cell_volume   356.01161061
_cell_formula_units_Z   4
loop_
 _symmetry_equiv_pos_site_id
 _symmetry_equiv_pos_as_xyz
  1  'x, y, z'
loop_
 _atom_site_type_symbol
 _atom_site_label
 _atom_site_symmetry_multiplicity
 _atom_site_fract_x
 _atom_site_fract_y
 _atom_site_fract_z
 _atom_site_occupancy
  Na  Na0  1  0.96999900  0.50000000  0.25000000  1
  Na  Na1  1  0.64504700  0.00000000  0.75000000  1
  Na  Na2  1  0.35495300  0.00000000  0.25000000  1
  Na  Na3  1  0.03000100  0.50000000  0.75000000  1
  Fe  Fe4  1  0.99906500  0.23992300  0.00833100  1
  Fe  Fe5  1  0.00093500  0.76007700  0.99166900  1
  Fe  Fe6  1  0.99906500  0.76007700  0.49166900  1
  Fe  Fe7  1  0.00093500  0.23992300  0.50833100  1
  Fe  Fe8  1  0.50000000  0.50000000  0.00000000  1
  Fe  Fe9  1  0.50000000  0.00000000  0.00000000  1
  Fe  Fe10  1  0.50000000  0.50000000  0.50000000  1
  Fe  Fe11  1  0.50000000  0.00000000  0.50000000  1
  O  O12  1  0.82601400  0.41330200  0.59206800  1
  O  O13  1  0.83518500  0.09745300  0.90745700  1
  O  O14  1  0.83518500  0.90254700  0.59254300  1
  O  O15  1  0.82601400  0.58669800  0.90793200  1
  O  O16  1  0.65801700  0.16922400  0.09034200  1
  O  O17  1  0.65801700  0.83077600  0.40965800  1
  O  O18  1  0.67598700  0.65940400  0.08756600  1
  O  O19  1  0.67598700  0.34059600  0.41243400  1
  O  O20  1  0.32401300  0.65940400  0.58756600  1
  O  O21  1  0.32401300  0.34059600  0.91243400  1
  O  O22  1  0.34198300  0.16922400  0.59034200  1
  O  O23  1  0.34198300  0.83077600  0.90965800  1
  O  O24  1  0.17398600  0.58669800  0.40793200  1
  O  O25  1  0.16481500  0.09745300  0.40745700  1
  O  O26  1  0.16481500  0.90254700  0.09254300  1
  O  O27  1  0.17398600  0.41330200  0.09206800  1
