# generated using pymatgen
data_MnFeCo(PO4)3
_symmetry_space_group_name_H-M   'P 1'
_cell_length_a   5.96499300
_cell_length_b   9.89561700
_cell_length_c   14.57989517
_cell_angle_alpha   89.94316751
_cell_angle_beta   90.00000000
_cell_angle_gamma   90.00000000
_symmetry_Int_Tables_number   1
_chemical_formula_structural   MnFeCo(PO4)3
_chemical_formula_sum   'Mn4 Fe4 Co4 P12 O48'
_cell_volume   860.61122080
_cell_formula_units_Z   4
loop_
 _symmetry_equiv_pos_site_id
 _symmetry_equiv_pos_as_xyz
  1  'x, y, z'
loop_
 _atom_site_type_symbol
 _atom_site_label
 _atom_site_symmetry_multiplicity
 _atom_site_fract_x
 _atom_site_fract_y
 _atom_site_fract_z
 _atom_site_occupancy
  Mn  Mn0  1  0.00000000  0.21470900  0.14594800  1
  Mn  Mn1  1  0.00000000  0.21482400  0.81268800  1
  Mn  Mn2  1  0.50000000  0.28328800  0.97942700  1
  Mn  Mn3  1  0.50000000  0.28320200  0.64629300  1
  Fe  Fe4  1  0.00000000  0.22406000  0.48696200  1
  Fe  Fe5  1  0.50000000  0.27798000  0.31953700  1
  Fe  Fe6  1  0.00000000  0.72350600  0.34633800  1
  Fe  Fe7  1  0.00000000  0.72673500  0.01083700  1
  Co  Co8  1  0.00000000  0.72156600  0.68331300  1
  Co  Co9  1  0.50000000  0.77394900  0.84480600  1
  Co  Co10  1  0.50000000  0.77818300  0.51595000  1
  Co  Co11  1  0.50000000  0.78100900  0.18458100  1
  P  P12  1  0.50000000  0.09753800  0.80553000  1
  P  P13  1  0.50000000  0.09644000  0.13821800  1
  P  P14  1  0.50000000  0.09836900  0.47240800  1
  P  P15  1  0.00000000  0.40048900  0.30505900  1
  P  P16  1  0.00000000  0.40314100  0.63890400  1
  P  P17  1  0.00000000  0.39954500  0.97198700  1
  P  P18  1  0.50000000  0.59983000  0.36362200  1
  P  P19  1  0.50000000  0.60181600  0.03027400  1
  P  P20  1  0.50000000  0.59782400  0.69224600  1
  P  P21  1  0.00000000  0.90342000  0.19349600  1
  P  P22  1  0.00000000  0.90197300  0.86023000  1
  P  P23  1  0.00000000  0.90080000  0.52918200  1
  O  O24  1  0.00000000  0.05338900  0.21927200  1
  O  O25  1  0.00000000  0.05380400  0.88432800  1
  O  O26  1  0.00000000  0.05125300  0.55248400  1
  O  O27  1  0.50000000  0.11983900  0.57737500  1
  O  O28  1  0.50000000  0.11852700  0.90983600  1
  O  O29  1  0.50000000  0.11786500  0.24220900  1
  O  O30  1  0.29830700  0.16905600  0.09001200  1
  O  O31  1  0.70169300  0.16905600  0.09001200  1
  O  O32  1  0.29887300  0.16827600  0.75644600  1
  O  O33  1  0.70112700  0.16827600  0.75644600  1
  O  O34  1  0.29857900  0.17238700  0.42474100  1
  O  O35  1  0.70142100  0.17238700  0.42474100  1
  O  O36  1  0.79541100  0.32902300  0.25889500  1
  O  O37  1  0.20458900  0.32902300  0.25889500  1
  O  O38  1  0.80096700  0.32785600  0.58950500  1
  O  O39  1  0.19903300  0.32785600  0.58950500  1
  O  O40  1  0.79848900  0.32796500  0.92341100  1
  O  O41  1  0.20151100  0.32796500  0.92341100  1
  O  O42  1  0.00000000  0.37985600  0.40948100  1
  O  O43  1  0.00000000  0.37849000  0.07666500  1
  O  O44  1  0.00000000  0.38001300  0.74303800  1
  O  O45  1  0.50000000  0.44911000  0.38662700  1
  O  O46  1  0.50000000  0.44905100  0.04877800  1
  O  O47  1  0.50000000  0.44676800  0.71853900  1
  O  O48  1  0.00000000  0.55296600  0.28412900  1
  O  O49  1  0.00000000  0.55320600  0.61564300  1
  O  O50  1  0.00000000  0.55171300  0.95195300  1
  O  O51  1  0.50000000  0.62008600  0.25931200  1
  O  O52  1  0.50000000  0.61376800  0.58849700  1
  O  O53  1  0.50000000  0.62729400  0.92506500  1
  O  O54  1  0.29728200  0.67337100  0.07773300  1
  O  O55  1  0.70271800  0.67337100  0.07773300  1
  O  O56  1  0.29847700  0.67481200  0.41161800  1
  O  O57  1  0.70152300  0.67481200  0.41161800  1
  O  O58  1  0.29702500  0.67278200  0.74078400  1
  O  O59  1  0.70297500  0.67278200  0.74078400  1
  O  O60  1  0.79704800  0.82555300  0.57705800  1
  O  O61  1  0.20295200  0.82555300  0.57705800  1
  O  O62  1  0.79849200  0.82794900  0.24236400  1
  O  O63  1  0.20150800  0.82794900  0.24236400  1
  O  O64  1  0.80019600  0.82850300  0.90975300  1
  O  O65  1  0.19980400  0.82850300  0.90975300  1
  O  O66  1  0.00000000  0.88347100  0.09025700  1
  O  O67  1  0.00000000  0.88044500  0.42537200  1
  O  O68  1  0.00000000  0.88432000  0.75584300  1
  O  O69  1  0.50000000  0.94352600  0.78598600  1
  O  O70  1  0.50000000  0.94459000  0.11416000  1
  O  O71  1  0.50000000  0.94742200  0.45070000  1
