# generated using pymatgen
data_DyMnSi
_symmetry_space_group_name_H-M   'P 1'
_cell_length_a   4.09981900
_cell_length_b   6.98746700
_cell_length_c   7.55017900
_cell_angle_alpha   90.00000000
_cell_angle_beta   90.00000000
_cell_angle_gamma   90.00000000
_symmetry_Int_Tables_number   1
_chemical_formula_structural   DyMnSi
_chemical_formula_sum   'Dy4 Mn4 Si4'
_cell_volume   216.29262014
_cell_formula_units_Z   4
loop_
 _symmetry_equiv_pos_site_id
 _symmetry_equiv_pos_as_xyz
  1  'x, y, z'
loop_
 _atom_site_type_symbol
 _atom_site_label
 _atom_site_symmetry_multiplicity
 _atom_site_fract_x
 _atom_site_fract_y
 _atom_site_fract_z
 _atom_site_occupancy
  Dy  Dy0  1  0.25000000  0.00758300  0.81401800  1
  Dy  Dy1  1  0.75000000  0.99241700  0.18598200  1
  Dy  Dy2  1  0.25000000  0.50758300  0.68598200  1
  Dy  Dy3  1  0.75000000  0.49241700  0.31401800  1
  Mn  Mn4  1  0.75000000  0.86218900  0.55878100  1
  Mn  Mn5  1  0.25000000  0.13781100  0.44121900  1
  Mn  Mn6  1  0.75000000  0.36218900  0.94121900  1
  Mn  Mn7  1  0.25000000  0.63781100  0.05878100  1
  Si  Si8  1  0.25000000  0.28905000  0.11007500  1
  Si  Si9  1  0.75000000  0.71095000  0.88992500  1
  Si  Si10  1  0.25000000  0.78905000  0.38992500  1
  Si  Si11  1  0.75000000  0.21095000  0.61007500  1
