# generated using pymatgen
data_SiSe2
_symmetry_space_group_name_H-M   'P 1'
_cell_length_a   7.03583053
_cell_length_b   7.03583053
_cell_length_c   7.03583053
_cell_angle_alpha   100.20558128
_cell_angle_beta   100.20558128
_cell_angle_gamma   130.21358566
_symmetry_Int_Tables_number   1
_chemical_formula_structural   SiSe2
_chemical_formula_sum   'Si2 Se4'
_cell_volume   241.26188759
_cell_formula_units_Z   2
loop_
 _symmetry_equiv_pos_site_id
 _symmetry_equiv_pos_as_xyz
  1  'x, y, z'
loop_
 _atom_site_type_symbol
 _atom_site_label
 _atom_site_symmetry_multiplicity
 _atom_site_fract_x
 _atom_site_fract_y
 _atom_site_fract_z
 _atom_site_occupancy
  Si  Si0  1  0.75000000  0.25000000  0.50000000  1
  Si  Si1  1  0.25000000  0.75000000  0.50000000  1
  Se  Se2  1  0.13789300  0.36210700  0.50000000  1
  Se  Se3  1  0.63789300  0.13789300  0.77578700  1
  Se  Se4  1  0.86210700  0.63789300  0.50000000  1
  Se  Se5  1  0.36210700  0.86210700  0.22421300  1
