# generated using pymatgen
data_Na2FeO3
_symmetry_space_group_name_H-M   'P 1'
_cell_length_a   5.66203347
_cell_length_b   9.55393401
_cell_length_c   5.66207921
_cell_angle_alpha   79.02966171
_cell_angle_beta   69.03914872
_cell_angle_gamma   100.97030682
_symmetry_Int_Tables_number   1
_chemical_formula_structural   Na2FeO3
_chemical_formula_sum   'Na8 Fe4 O12'
_cell_volume   269.41038452
_cell_formula_units_Z   4
loop_
 _symmetry_equiv_pos_site_id
 _symmetry_equiv_pos_as_xyz
  1  'x, y, z'
loop_
 _atom_site_type_symbol
 _atom_site_label
 _atom_site_symmetry_multiplicity
 _atom_site_fract_x
 _atom_site_fract_y
 _atom_site_fract_z
 _atom_site_occupancy
  Na  Na0  1  0.99373100  0.98734300  0.50626400  1
  Na  Na1  1  0.25636700  0.51266700  0.74363200  1
  Na  Na2  1  0.74363000  0.48732300  0.25636700  1
  Na  Na3  1  0.50626600  0.01264000  0.99373500  1
  Na  Na4  1  0.42115400  0.84230500  0.57884400  1
  Na  Na5  1  0.82892900  0.65765200  0.67107300  1
  Na  Na6  1  0.67106500  0.34233400  0.82893300  1
  Na  Na7  1  0.57883600  0.15766800  0.42115500  1
  Fe  Fe8  1  0.33539000  0.67072000  0.16460900  1
  Fe  Fe9  1  0.08535600  0.17072100  0.91464300  1
  Fe  Fe10  1  0.91467000  0.82930500  0.08533300  1
  Fe  Fe11  1  0.16458400  0.32927800  0.33542200  1
  O  O12  1  0.05801700  0.49999500  0.44198300  1
  O  O13  1  0.44196000  0.49998200  0.05804900  1
  O  O14  1  0.19196600  0.99999200  0.80802600  1
  O  O15  1  0.80805000  0.00002500  0.19195300  1
  O  O16  1  0.17596800  0.80852400  0.30248100  1
  O  O17  1  0.63261400  0.80853900  0.88893500  1
  O  O18  1  0.07398600  0.69145500  0.94757200  1
  O  O19  1  0.61751200  0.69149000  0.36093800  1
  O  O20  1  0.36098700  0.30853400  0.61745900  1
  O  O21  1  0.94755400  0.30856600  0.07400400  1
  O  O22  1  0.88893900  0.19145900  0.63260400  1
  O  O23  1  0.30246900  0.19148300  0.17598600  1
