# generated using pymatgen
data_KIn5S8
_symmetry_space_group_name_H-M   'P 1'
_cell_length_a   9.83857920
_cell_length_b   9.83857920
_cell_length_c   9.35456229
_cell_angle_alpha   77.34779994
_cell_angle_beta   77.34779994
_cell_angle_gamma   22.96333104
_symmetry_Int_Tables_number   1
_chemical_formula_structural   KIn5S8
_chemical_formula_sum   'K1 In5 S8'
_cell_volume   344.33651800
_cell_formula_units_Z   1
loop_
 _symmetry_equiv_pos_site_id
 _symmetry_equiv_pos_as_xyz
  1  'x, y, z'
loop_
 _atom_site_type_symbol
 _atom_site_label
 _atom_site_symmetry_multiplicity
 _atom_site_fract_x
 _atom_site_fract_y
 _atom_site_fract_z
 _atom_site_occupancy
  K  K0  1  0.50000000  0.50000000  0.50000000  1
  In  In1  1  0.28694000  0.28694000  0.33826200  1
  In  In2  1  0.35522100  0.35522100  0.90804700  1
  In  In3  1  0.64477900  0.64477900  0.09195300  1
  In  In4  1  0.71306000  0.71306000  0.66173800  1
  In  In5  1  0.00000000  0.00000000  0.00000000  1
  S  S6  1  0.16475400  0.16475400  0.52418400  1
  S  S7  1  0.06882700  0.06882700  0.21744500  1
  S  S8  1  0.93117300  0.93117300  0.78255500  1
  S  S9  1  0.41458400  0.41458400  0.12438200  1
  S  S10  1  0.58541600  0.58541600  0.87561800  1
  S  S11  1  0.23749400  0.23749400  0.84730400  1
  S  S12  1  0.76250600  0.76250600  0.15269600  1
  S  S13  1  0.83524600  0.83524600  0.47581600  1
