# generated using pymatgen
data_BaYbCo4O7
_symmetry_space_group_name_H-M   'P 1'
_cell_length_a   6.32436410
_cell_length_b   6.32436410
_cell_length_c   10.24361500
_cell_angle_alpha   90.00000000
_cell_angle_beta   90.00000000
_cell_angle_gamma   120.00000103
_symmetry_Int_Tables_number   1
_chemical_formula_structural   BaYbCo4O7
_chemical_formula_sum   'Ba2 Yb2 Co8 O14'
_cell_volume   354.82777166
_cell_formula_units_Z   2
loop_
 _symmetry_equiv_pos_site_id
 _symmetry_equiv_pos_as_xyz
  1  'x, y, z'
loop_
 _atom_site_type_symbol
 _atom_site_label
 _atom_site_symmetry_multiplicity
 _atom_site_fract_x
 _atom_site_fract_y
 _atom_site_fract_z
 _atom_site_occupancy
  Ba  Ba0  1  0.33333300  0.66666700  0.98126400  1
  Ba  Ba1  1  0.66666700  0.33333300  0.48126400  1
  Yb  Yb2  1  0.33333300  0.66666700  0.36215700  1
  Yb  Yb3  1  0.66666700  0.33333300  0.86215700  1
  Co  Co4  1  0.84927700  0.67272200  0.17835300  1
  Co  Co5  1  0.32727800  0.17655400  0.17835300  1
  Co  Co6  1  0.82344600  0.15072300  0.17835300  1
  Co  Co7  1  0.67272200  0.84927700  0.67835300  1
  Co  Co8  1  0.17655400  0.32727800  0.67835300  1
  Co  Co9  1  0.15072300  0.82344600  0.67835300  1
  Co  Co10  1  0.00000000  0.00000000  0.97549300  1
  Co  Co11  1  0.00000000  0.00000000  0.47549300  1
  O  O12  1  0.89000000  0.66780100  0.99321300  1
  O  O13  1  0.33219900  0.22219900  0.99321300  1
  O  O14  1  0.77780100  0.11000000  0.99321300  1
  O  O15  1  0.66780100  0.89000000  0.49321300  1
  O  O16  1  0.22219900  0.33219900  0.49321300  1
  O  O17  1  0.11000000  0.77780100  0.49321300  1
  O  O18  1  0.00000000  0.00000000  0.76034700  1
  O  O19  1  0.00000000  0.00000000  0.26034700  1
  O  O20  1  0.49309600  0.01487900  0.23558000  1
  O  O21  1  0.98512100  0.47821800  0.23558000  1
  O  O22  1  0.52178200  0.50690400  0.23558000  1
  O  O23  1  0.01487900  0.49309600  0.73558000  1
  O  O24  1  0.50690400  0.52178200  0.73558000  1
  O  O25  1  0.47821800  0.98512100  0.73558000  1
