# generated using pymatgen
data_Mn2V3Sn(PO4)6
_symmetry_space_group_name_H-M   'P 1'
_cell_length_a   8.71487334
_cell_length_b   8.71487334
_cell_length_c   8.71487412
_cell_angle_alpha   59.74041824
_cell_angle_beta   59.74041824
_cell_angle_gamma   59.74042180
_symmetry_Int_Tables_number   1
_chemical_formula_structural   Mn2V3Sn(PO4)6
_chemical_formula_sum   'Mn2 V3 Sn1 P6 O24'
_cell_volume   465.26522327
_cell_formula_units_Z   1
loop_
 _symmetry_equiv_pos_site_id
 _symmetry_equiv_pos_as_xyz
  1  'x, y, z'
loop_
 _atom_site_type_symbol
 _atom_site_label
 _atom_site_symmetry_multiplicity
 _atom_site_fract_x
 _atom_site_fract_y
 _atom_site_fract_z
 _atom_site_occupancy
  Mn  Mn0  1  0.00329800  0.00329800  0.00329800  1
  Mn  Mn1  1  0.49932400  0.49932400  0.49932400  1
  V  V2  1  0.35534600  0.35534600  0.35534600  1
  V  V3  1  0.14450000  0.14450000  0.14450000  1
  V  V4  1  0.64334100  0.64334100  0.64334100  1
  Sn  Sn5  1  0.85512300  0.85512300  0.85512300  1
  P  P6  1  0.45331200  0.74797300  0.04410200  1
  P  P7  1  0.74797300  0.04410200  0.45331200  1
  P  P8  1  0.04410200  0.45331200  0.74797300  1
  P  P9  1  0.95839600  0.53950000  0.25284000  1
  P  P10  1  0.25284000  0.95839600  0.53950000  1
  P  P11  1  0.53950000  0.25284000  0.95839600  1
  O  O12  1  0.69352700  0.88247400  0.49556900  1
  O  O13  1  0.88247400  0.49556900  0.69352700  1
  O  O14  1  0.49556900  0.69352700  0.88247400  1
  O  O15  1  0.26233500  0.91347600  0.06117600  1
  O  O16  1  0.60953900  0.80498000  0.01660200  1
  O  O17  1  0.43617500  0.58414800  0.23688400  1
  O  O18  1  0.91347600  0.06117600  0.26233500  1
  O  O19  1  0.58414800  0.23688400  0.43617500  1
  O  O20  1  0.99451200  0.38438000  0.19233100  1
  O  O21  1  0.23688400  0.43617500  0.58414800  1
  O  O22  1  0.94357400  0.73592300  0.08773300  1
  O  O23  1  0.19233100  0.99451200  0.38438000  1
  O  O24  1  0.80498000  0.01660200  0.60953900  1
  O  O25  1  0.06117600  0.26233500  0.91347600  1
  O  O26  1  0.76360100  0.56039400  0.41411300  1
  O  O27  1  0.01660200  0.60953900  0.80498000  1
  O  O28  1  0.41411300  0.76360100  0.56039400  1
  O  O29  1  0.08773300  0.94357400  0.73592300  1
  O  O30  1  0.56039400  0.41411300  0.76360100  1
  O  O31  1  0.38438000  0.19233100  0.99451200  1
  O  O32  1  0.73592300  0.08773300  0.94357400  1
  O  O33  1  0.50324200  0.30985300  0.11640100  1
  O  O34  1  0.11640100  0.50324200  0.30985300  1
  O  O35  1  0.30985300  0.11640100  0.50324200  1
