# generated using pymatgen
data_Ta4FeP
_symmetry_space_group_name_H-M   'P 1'
_cell_length_a   6.10750900
_cell_length_b   6.10750900
_cell_length_c   5.09586200
_cell_angle_alpha   90.00000000
_cell_angle_beta   90.00000000
_cell_angle_gamma   90.00000000
_symmetry_Int_Tables_number   1
_chemical_formula_structural   Ta4FeP
_chemical_formula_sum   'Ta8 Fe2 P2'
_cell_volume   190.08414325
_cell_formula_units_Z   2
loop_
 _symmetry_equiv_pos_site_id
 _symmetry_equiv_pos_as_xyz
  1  'x, y, z'
loop_
 _atom_site_type_symbol
 _atom_site_label
 _atom_site_symmetry_multiplicity
 _atom_site_fract_x
 _atom_site_fract_y
 _atom_site_fract_z
 _atom_site_occupancy
  Ta  Ta0  1  0.33042000  0.15747900  0.50000000  1
  Ta  Ta1  1  0.66958000  0.84252100  0.50000000  1
  Ta  Ta2  1  0.15747900  0.66958000  0.50000000  1
  Ta  Ta3  1  0.84252100  0.33042000  0.50000000  1
  Ta  Ta4  1  0.33042000  0.84252100  0.00000000  1
  Ta  Ta5  1  0.84252100  0.66958000  0.00000000  1
  Ta  Ta6  1  0.15747900  0.33042000  0.00000000  1
  Ta  Ta7  1  0.66958000  0.15747900  0.00000000  1
  Fe  Fe8  1  0.00000000  0.00000000  0.75000000  1
  Fe  Fe9  1  0.00000000  0.00000000  0.25000000  1
  P  P10  1  0.50000000  0.50000000  0.75000000  1
  P  P11  1  0.50000000  0.50000000  0.25000000  1
