# generated using pymatgen
data_PbWO4
_symmetry_space_group_name_H-M   'P 1'
_cell_length_a   7.28151691
_cell_length_b   7.28151691
_cell_length_c   7.28151691
_cell_angle_alpha   135.04302243
_cell_angle_beta   135.04302243
_cell_angle_gamma   65.46335970
_symmetry_Int_Tables_number   1
_chemical_formula_structural   PbWO4
_chemical_formula_sum   'Pb2 W2 O8'
_cell_volume   189.89897756
_cell_formula_units_Z   2
loop_
 _symmetry_equiv_pos_site_id
 _symmetry_equiv_pos_as_xyz
  1  'x, y, z'
loop_
 _atom_site_type_symbol
 _atom_site_label
 _atom_site_symmetry_multiplicity
 _atom_site_fract_x
 _atom_site_fract_y
 _atom_site_fract_z
 _atom_site_occupancy
  Pb  Pb0  1  0.50000000  0.50000000  0.00000000  1
  Pb  Pb1  1  0.25000000  0.75000000  0.50000000  1
  W  W2  1  0.00000000  0.00000000  0.00000000  1
  W  W3  1  0.75000000  0.25000000  0.50000000  1
  O  O4  1  0.68262100  0.05786100  0.90496000  1
  O  O5  1  0.52766100  0.93262100  0.12476000  1
  O  O6  1  0.80786100  0.40290200  0.87524000  1
  O  O7  1  0.15290200  0.77766100  0.09504000  1
  O  O8  1  0.59709800  0.47233900  0.40496000  1
  O  O9  1  0.94213900  0.84709800  0.62476000  1
  O  O10  1  0.22233900  0.31737900  0.37524000  1
  O  O11  1  0.06737900  0.19213900  0.59504000  1
