# generated using pymatgen
data_Co2C
_symmetry_space_group_name_H-M   'P 1'
_cell_length_a   2.87476100
_cell_length_b   4.36288600
_cell_length_c   4.37850200
_cell_angle_alpha   90.00000000
_cell_angle_beta   90.00000000
_cell_angle_gamma   90.00000000
_symmetry_Int_Tables_number   1
_chemical_formula_structural   Co2C
_chemical_formula_sum   'Co4 C2'
_cell_volume   54.91628650
_cell_formula_units_Z   2
loop_
 _symmetry_equiv_pos_site_id
 _symmetry_equiv_pos_as_xyz
  1  'x, y, z'
loop_
 _atom_site_type_symbol
 _atom_site_label
 _atom_site_symmetry_multiplicity
 _atom_site_fract_x
 _atom_site_fract_y
 _atom_site_fract_z
 _atom_site_occupancy
  Co  Co0  1  0.00000000  0.74092900  0.65136000  1
  Co  Co1  1  0.00000000  0.25907100  0.34864000  1
  Co  Co2  1  0.50000000  0.24092900  0.84864000  1
  Co  Co3  1  0.50000000  0.75907100  0.15136000  1
  C  C4  1  0.00000000  0.00000000  0.00000000  1
  C  C5  1  0.50000000  0.50000000  0.50000000  1
