# generated using pymatgen
data_FeSb6(Pb2S7)2
_symmetry_space_group_name_H-M   'P 1'
_cell_length_a   19.48387400
_cell_length_b   4.04394300
_cell_length_c   15.97091499
_cell_angle_alpha   87.76982601
_cell_angle_beta   90.00000000
_cell_angle_gamma   90.00000000
_symmetry_Int_Tables_number   1
_chemical_formula_structural   FeSb6(Pb2S7)2
_chemical_formula_sum   'Fe2 Sb12 Pb8 S28'
_cell_volume   1257.42201521
_cell_formula_units_Z   2
loop_
 _symmetry_equiv_pos_site_id
 _symmetry_equiv_pos_as_xyz
  1  'x, y, z'
loop_
 _atom_site_type_symbol
 _atom_site_label
 _atom_site_symmetry_multiplicity
 _atom_site_fract_x
 _atom_site_fract_y
 _atom_site_fract_z
 _atom_site_occupancy
  Fe  Fe0  1  0.00000000  0.00000000  0.00000000  1
  Fe  Fe1  1  0.50000000  0.00000000  0.50000000  1
  Sb  Sb2  1  0.44012900  0.59250200  0.31714500  1
  Sb  Sb3  1  0.44629100  0.37348400  0.89613700  1
  Sb  Sb4  1  0.94629100  0.62651600  0.60386300  1
  Sb  Sb5  1  0.94012900  0.40749800  0.18285500  1
  Sb  Sb6  1  0.05987100  0.59250200  0.81714500  1
  Sb  Sb7  1  0.05370900  0.37348400  0.39613700  1
  Sb  Sb8  1  0.55987100  0.40749800  0.68285500  1
  Sb  Sb9  1  0.55370900  0.62651600  0.10386300  1
  Sb  Sb10  1  0.66052200  0.62778700  0.87247800  1
  Sb  Sb11  1  0.16052200  0.37221300  0.62752200  1
  Sb  Sb12  1  0.33947800  0.37221300  0.12752200  1
  Sb  Sb13  1  0.83947800  0.62778700  0.37247800  1
  Pb  Pb14  1  0.86316000  0.03749200  0.81740600  1
  Pb  Pb15  1  0.36316000  0.96250800  0.68259400  1
  Pb  Pb16  1  0.13684000  0.96250800  0.18259400  1
  Pb  Pb17  1  0.63684000  0.03749200  0.31740600  1
  Pb  Pb18  1  0.75758100  0.06473500  0.57495900  1
  Pb  Pb19  1  0.25758100  0.93526500  0.92504100  1
  Pb  Pb20  1  0.24241900  0.93526500  0.42504100  1
  Pb  Pb21  1  0.74241900  0.06473500  0.07495900  1
  S  S22  1  0.79854800  0.10680200  0.27976200  1
  S  S23  1  0.50708800  0.03172700  0.21509700  1
  S  S24  1  0.00708800  0.96827300  0.28490300  1
  S  S25  1  0.49291200  0.96827300  0.78490300  1
  S  S26  1  0.99291200  0.03172700  0.71509700  1
  S  S27  1  0.89577100  0.06276900  0.49991700  1
  S  S28  1  0.39577100  0.93723100  0.00008300  1
  S  S29  1  0.10422900  0.93723100  0.50008300  1
  S  S30  1  0.60422900  0.06276900  0.99991700  1
  S  S31  1  0.72998700  0.58404600  0.44996300  1
  S  S32  1  0.60063600  0.98447100  0.58221400  1
  S  S33  1  0.10063600  0.01552900  0.91778600  1
  S  S34  1  0.39936400  0.01552900  0.41778600  1
  S  S35  1  0.89936400  0.98447100  0.08221400  1
  S  S36  1  0.95597300  0.52556000  0.90705100  1
  S  S37  1  0.45597300  0.47444000  0.59294900  1
  S  S38  1  0.04402700  0.47444000  0.09294900  1
  S  S39  1  0.54402700  0.52556000  0.40705100  1
  S  S40  1  0.83815400  0.55757300  0.68426400  1
  S  S41  1  0.33815400  0.44242700  0.81573600  1
  S  S42  1  0.16184600  0.44242700  0.31573600  1
  S  S43  1  0.66184600  0.55757300  0.18426400  1
  S  S44  1  0.70145200  0.10680200  0.77976200  1
  S  S45  1  0.20145200  0.89319800  0.72023800  1
  S  S46  1  0.29854800  0.89319800  0.22023800  1
  S  S47  1  0.27001300  0.41595400  0.55003700  1
  S  S48  1  0.77001300  0.58404600  0.94996300  1
  S  S49  1  0.22998700  0.41595400  0.05003700  1
