# generated using pymatgen
data_SrAl2
_symmetry_space_group_name_H-M   'P 1'
_cell_length_a   6.09253969
_cell_length_b   6.09253969
_cell_length_c   6.09253969
_cell_angle_alpha   133.57981676
_cell_angle_beta   99.12645937
_cell_angle_gamma   98.74409699
_symmetry_Int_Tables_number   1
_chemical_formula_structural   SrAl2
_chemical_formula_sum   'Sr2 Al4'
_cell_volume   150.56559613
_cell_formula_units_Z   2
loop_
 _symmetry_equiv_pos_site_id
 _symmetry_equiv_pos_as_xyz
  1  'x, y, z'
loop_
 _atom_site_type_symbol
 _atom_site_label
 _atom_site_symmetry_multiplicity
 _atom_site_fract_x
 _atom_site_fract_y
 _atom_site_fract_z
 _atom_site_occupancy
  Sr  Sr0  1  0.19992800  0.44992800  0.75000000  1
  Sr  Sr1  1  0.80007200  0.55007200  0.25000000  1
  Al  Al2  1  0.77062800  0.83894600  0.93168200  1
  Al  Al3  1  0.22937200  0.16105400  0.06831800  1
  Al  Al4  1  0.59273600  0.16105400  0.43168200  1
  Al  Al5  1  0.40726400  0.83894600  0.56831800  1
