# generated using pymatgen
data_MnFeCo(PO4)3
_symmetry_space_group_name_H-M   'P 1'
_cell_length_a   5.98821400
_cell_length_b   9.88604200
_cell_length_c   14.61202251
_cell_angle_alpha   89.70819145
_cell_angle_beta   90.00000000
_cell_angle_gamma   90.00000000
_symmetry_Int_Tables_number   1
_chemical_formula_structural   MnFeCo(PO4)3
_chemical_formula_sum   'Mn4 Fe4 Co4 P12 O48'
_cell_volume   865.01664306
_cell_formula_units_Z   4
loop_
 _symmetry_equiv_pos_site_id
 _symmetry_equiv_pos_as_xyz
  1  'x, y, z'
loop_
 _atom_site_type_symbol
 _atom_site_label
 _atom_site_symmetry_multiplicity
 _atom_site_fract_x
 _atom_site_fract_y
 _atom_site_fract_z
 _atom_site_occupancy
  Mn  Mn0  1  0.00000000  0.21218800  0.47818500  1
  Mn  Mn1  1  0.00000000  0.21614400  0.81170100  1
  Mn  Mn2  1  0.00000000  0.21726000  0.14578600  1
  Mn  Mn3  1  0.50000000  0.28632000  0.31157100  1
  Fe  Fe4  1  0.50000000  0.27681100  0.65354100  1
  Fe  Fe5  1  0.50000000  0.27923500  0.98644000  1
  Fe  Fe6  1  0.00000000  0.72319300  0.34778900  1
  Fe  Fe7  1  0.00000000  0.72857800  0.00987000  1
  Co  Co8  1  0.00000000  0.72601500  0.67707700  1
  Co  Co9  1  0.50000000  0.77864100  0.18398300  1
  Co  Co10  1  0.50000000  0.77690400  0.51364400  1
  Co  Co11  1  0.50000000  0.76972800  0.84115200  1
  P  P12  1  0.50000000  0.09760500  0.47203300  1
  P  P13  1  0.50000000  0.09484200  0.80585400  1
  P  P14  1  0.50000000  0.09794100  0.13862300  1
  P  P15  1  0.00000000  0.39982400  0.30537100  1
  P  P16  1  0.00000000  0.40031900  0.63934800  1
  P  P17  1  0.00000000  0.39996300  0.97175400  1
  P  P18  1  0.50000000  0.60440200  0.03046000  1
  P  P19  1  0.50000000  0.59878700  0.36276700  1
  P  P20  1  0.50000000  0.59945500  0.69562700  1
  P  P21  1  0.00000000  0.90037100  0.52948900  1
  P  P22  1  0.00000000  0.89993400  0.86027400  1
  P  P23  1  0.00000000  0.90306600  0.19334300  1
  O  O24  1  0.00000000  0.05415800  0.21806300  1
  O  O25  1  0.00000000  0.05266900  0.55190400  1
  O  O26  1  0.00000000  0.05281700  0.88048600  1
  O  O27  1  0.50000000  0.12111600  0.24246100  1
  O  O28  1  0.50000000  0.11934000  0.57506600  1
  O  O29  1  0.50000000  0.12000700  0.90839700  1
  O  O30  1  0.29863200  0.16788600  0.42292400  1
  O  O31  1  0.70136800  0.16788600  0.42292400  1
  O  O32  1  0.30147200  0.17290600  0.08891300  1
  O  O33  1  0.69852800  0.17290600  0.08891300  1
  O  O34  1  0.30152600  0.16865500  0.75499400  1
  O  O35  1  0.69847400  0.16865500  0.75499400  1
  O  O36  1  0.79613100  0.33059600  0.59287800  1
  O  O37  1  0.20386900  0.33059600  0.59287800  1
  O  O38  1  0.79645700  0.32816000  0.92571100  1
  O  O39  1  0.20354300  0.32816000  0.92571100  1
  O  O40  1  0.79911800  0.32843400  0.25679300  1
  O  O41  1  0.20088200  0.32843400  0.25679300  1
  O  O42  1  0.00000000  0.37984900  0.07717200  1
  O  O43  1  0.00000000  0.38019600  0.74446600  1
  O  O44  1  0.00000000  0.37705700  0.40968600  1
  O  O45  1  0.50000000  0.45243700  0.04961500  1
  O  O46  1  0.50000000  0.44815000  0.71778700  1
  O  O47  1  0.50000000  0.44615800  0.38532400  1
  O  O48  1  0.00000000  0.55231800  0.95301000  1
  O  O49  1  0.00000000  0.55183400  0.28580900  1
  O  O50  1  0.00000000  0.55486500  0.62150200  1
  O  O51  1  0.50000000  0.62227600  0.59080300  1
  O  O52  1  0.50000000  0.62797900  0.92578700  1
  O  O53  1  0.50000000  0.61807700  0.25847000  1
  O  O54  1  0.29824300  0.67688400  0.07800300  1
  O  O55  1  0.70175700  0.67688400  0.07800300  1
  O  O56  1  0.29741000  0.67096200  0.41064800  1
  O  O57  1  0.70259000  0.67096200  0.41064800  1
  O  O58  1  0.29918700  0.67204500  0.74428700  1
  O  O59  1  0.70081300  0.67204500  0.74428700  1
  O  O60  1  0.79875000  0.82835400  0.57839700  1
  O  O61  1  0.20125000  0.82835400  0.57839700  1
  O  O62  1  0.79877200  0.82801900  0.24238300  1
  O  O63  1  0.20122800  0.82801900  0.24238300  1
  O  O64  1  0.79999300  0.82965600  0.91036600  1
  O  O65  1  0.20000700  0.82965600  0.91036600  1
  O  O66  1  0.00000000  0.87671800  0.75620400  1
  O  O67  1  0.00000000  0.88474700  0.09039100  1
  O  O68  1  0.00000000  0.88065000  0.42551100  1
  O  O69  1  0.50000000  0.94754900  0.11647300  1
  O  O70  1  0.50000000  0.94335600  0.45216100  1
  O  O71  1  0.50000000  0.94278300  0.78470800  1
