data_image0
_chemical_formula_structural       Cl4Cs2I2Pd
_chemical_formula_sum              "Cl4 Cs2 I2 Pd1"
_cell_length_a       7.36012
_cell_length_b       7.36012
_cell_length_c       7.36012
_cell_angle_alpha    104.899
_cell_angle_beta     111.805
_cell_angle_gamma    111.805

_space_group_name_H-M_alt    "P 1"
_space_group_IT_number       1

loop_
  _space_group_symop_operation_xyz
  'x, y, z'

loop_
  _atom_site_type_symbol
  _atom_site_label
  _atom_site_symmetry_multiplicity
  _atom_site_fract_x
  _atom_site_fract_y
  _atom_site_fract_z
  _atom_site_occupancy
  Cl  Cl1       1.0  0.40000  0.20000  0.20000  1.0000
  Cl  Cl2       1.0  0.00000  0.80000  0.20000  1.0000
  Cl  Cl3       1.0  0.00000  0.20000  0.80000  1.0000
  Cl  Cl4       1.0  0.60000  0.80000  0.80000  1.0000
  Cs  Cs1       1.0  0.50000  0.75000  0.25000  1.0000
  Cs  Cs2       1.0  0.50000  0.25000  0.75000  1.0000
  I   I1        1.0  0.00000  0.34000  0.34000  1.0000
  I   I2        1.0  1.00000  0.66000  0.66000  1.0000
  Pd  Pd1       1.0  0.00000  0.00000  0.00000  1.0000
