# generated using pymatgen
data_LuNbO4
_symmetry_space_group_name_H-M   'P 1'
_cell_length_a   6.97607599
_cell_length_b   6.97607599
_cell_length_c   7.12914834
_cell_angle_alpha   73.44098669
_cell_angle_beta   73.44098669
_cell_angle_gamma   33.29881608
_symmetry_Int_Tables_number   1
_chemical_formula_structural   LuNbO4
_chemical_formula_sum   'Lu2 Nb2 O8'
_cell_volume   181.85167604
_cell_formula_units_Z   2
loop_
 _symmetry_equiv_pos_site_id
 _symmetry_equiv_pos_as_xyz
  1  'x, y, z'
loop_
 _atom_site_type_symbol
 _atom_site_label
 _atom_site_symmetry_multiplicity
 _atom_site_fract_x
 _atom_site_fract_y
 _atom_site_fract_z
 _atom_site_occupancy
  Lu  Lu0  1  0.80431500  0.80431500  0.79545800  1
  Lu  Lu1  1  0.19568500  0.19568500  0.20454200  1
  Nb  Nb2  1  0.89905400  0.89905400  0.21397800  1
  Nb  Nb3  1  0.10094600  0.10094600  0.78602200  1
  O  O4  1  0.95104400  0.95104400  0.86764200  1
  O  O5  1  0.86718800  0.86718800  0.48210600  1
  O  O6  1  0.24571800  0.24571800  0.85856600  1
  O  O7  1  0.36998200  0.36998200  0.19945800  1
  O  O8  1  0.63001800  0.63001800  0.80054200  1
  O  O9  1  0.75428200  0.75428200  0.14143400  1
  O  O10  1  0.13281200  0.13281200  0.51789400  1
  O  O11  1  0.04895600  0.04895600  0.13235800  1
