# generated using pymatgen
data_Na4Mn2C4SO16
_symmetry_space_group_name_H-M   'P 1'
_cell_length_a   10.04964083
_cell_length_b   10.01691892
_cell_length_c   9.80488183
_cell_angle_alpha   60.91718434
_cell_angle_beta   60.58351647
_cell_angle_gamma   58.49929919
_symmetry_Int_Tables_number   1
_chemical_formula_structural   Na4Mn2C4SO16
_chemical_formula_sum   'Na8 Mn4 C8 S2 O32'
_cell_volume   697.21036015
_cell_formula_units_Z   2
loop_
 _symmetry_equiv_pos_site_id
 _symmetry_equiv_pos_as_xyz
  1  'x, y, z'
loop_
 _atom_site_type_symbol
 _atom_site_label
 _atom_site_symmetry_multiplicity
 _atom_site_fract_x
 _atom_site_fract_y
 _atom_site_fract_z
 _atom_site_occupancy
  Na  Na0  1  0.78701900  0.21298100  0.21298100  1
  Na  Na1  1  0.54084000  0.95916000  0.95916000  1
  Na  Na2  1  0.21442700  0.78557300  0.21442700  1
  Na  Na3  1  0.78557300  0.21442700  0.78557300  1
  Na  Na4  1  0.78900700  0.78900700  0.21099300  1
  Na  Na5  1  0.21298100  0.78701900  0.78701900  1
  Na  Na6  1  0.21099300  0.21099300  0.78900700  1
  Na  Na7  1  0.95916000  0.54084000  0.54084000  1
  Mn  Mn8  1  0.37208200  0.37856700  0.87579600  1
  Mn  Mn9  1  0.37856700  0.37208200  0.37355500  1
  Mn  Mn10  1  0.37355500  0.87579600  0.37856700  1
  Mn  Mn11  1  0.87579600  0.37355500  0.37208200  1
  C  C12  1  0.58871800  0.23014300  0.58848300  1
  C  C13  1  0.59265600  0.58848300  0.23014300  1
  C  C14  1  0.23014300  0.58871800  0.59265600  1
  C  C15  1  0.58848300  0.59265600  0.58871800  1
  C  C16  1  0.52424300  0.15810000  0.15400200  1
  C  C17  1  0.16365400  0.15400200  0.15810000  1
  C  C18  1  0.15810000  0.52424300  0.16365400  1
  C  C19  1  0.15400200  0.16365400  0.52424300  1
  S  S20  1  0.00000000  0.00000000  0.00000000  1
  S  S21  1  0.75000000  0.75000000  0.75000000  1
  O  O22  1  0.51877900  0.27496100  0.01379400  1
  O  O23  1  0.72293600  0.23301100  0.47322700  1
  O  O24  1  0.57082500  0.47322700  0.23301100  1
  O  O25  1  0.27496100  0.51877900  0.19246600  1
  O  O26  1  0.72937300  0.56670300  0.23737700  1
  O  O27  1  0.18424500  0.93559400  0.94037700  1
  O  O28  1  0.93978500  0.94037700  0.93559400  1
  O  O29  1  0.47725400  0.73691600  0.21771000  1
  O  O30  1  0.56812000  0.21771000  0.73691600  1
  O  O31  1  0.21771000  0.56812000  0.47725400  1
  O  O32  1  0.73691600  0.47725400  0.56812000  1
  O  O33  1  0.93559400  0.18424500  0.93978500  1
  O  O34  1  0.94037700  0.93978500  0.18424500  1
  O  O35  1  0.53229600  0.01625700  0.17582500  1
  O  O36  1  0.27562200  0.17582500  0.01625700  1
  O  O37  1  0.56670300  0.72937300  0.46654700  1
  O  O38  1  0.19246600  0.01379400  0.27496100  1
  O  O39  1  0.23301100  0.72293600  0.57082500  1
  O  O40  1  0.47322700  0.57082500  0.72293600  1
  O  O41  1  0.81003900  0.80828200  0.56612200  1
  O  O42  1  0.81555700  0.56612200  0.80828200  1
  O  O43  1  0.01873100  0.26853800  0.18337000  1
  O  O44  1  0.52936100  0.18337000  0.26853800  1
  O  O45  1  0.18337000  0.52936100  0.01873100  1
  O  O46  1  0.26853800  0.01873100  0.52936100  1
  O  O47  1  0.80828200  0.81003900  0.81555700  1
  O  O48  1  0.56612200  0.81555700  0.81003900  1
  O  O49  1  0.01379400  0.19246600  0.51877900  1
  O  O50  1  0.46654700  0.23737700  0.56670300  1
  O  O51  1  0.17582500  0.27562200  0.53229600  1
  O  O52  1  0.01625700  0.53229600  0.27562200  1
  O  O53  1  0.23737700  0.46654700  0.72937300  1
