# generated using pymatgen
data_UV2O6
_symmetry_space_group_name_H-M   'P 1'
_cell_length_a   5.12746976
_cell_length_b   5.12746976
_cell_length_c   4.70376500
_cell_angle_alpha   90.00000000
_cell_angle_beta   90.00000000
_cell_angle_gamma   119.99999690
_symmetry_Int_Tables_number   1
_chemical_formula_structural   UV2O6
_chemical_formula_sum   'U1 V2 O6'
_cell_volume   107.09827528
_cell_formula_units_Z   1
loop_
 _symmetry_equiv_pos_site_id
 _symmetry_equiv_pos_as_xyz
  1  'x, y, z'
loop_
 _atom_site_type_symbol
 _atom_site_label
 _atom_site_symmetry_multiplicity
 _atom_site_fract_x
 _atom_site_fract_y
 _atom_site_fract_z
 _atom_site_occupancy
  U  U0  1  0.00000000  0.00000000  0.00000000  1
  V  V1  1  0.66666700  0.33333300  0.50000000  1
  V  V2  1  0.33333300  0.66666700  0.50000000  1
  O  O3  1  0.33640900  0.33640900  0.73769800  1
  O  O4  1  0.66359100  0.00000000  0.73769800  1
  O  O5  1  0.00000000  0.66359100  0.73769800  1
  O  O6  1  0.33640900  0.00000000  0.26230200  1
  O  O7  1  0.00000000  0.33640900  0.26230200  1
  O  O8  1  0.66359100  0.66359100  0.26230200  1
