CIF file written using JARVIS-Tools package.
data_MnOF
_symmetry_space_group_name_H-M  'Pmn2_1'
_cell_length_a       4.71255
_cell_length_b       3.03694
_cell_length_c       14.0306
_cell_angle_alpha    90
_cell_angle_beta     90.0015
_cell_angle_gamma    90

_symmetry_Int_Tables_number  31
_chemical_formula_structural  MnOF
_chemical_formula_sum  Mn6O6F6
_cell_volume  200.80258280507076
_cell_formula_units_Z  6
loop_
  _symmetry_equiv_pos_site_id
 _symmetry_equiv_pos_as_xyz
 1  'x, y, z'
loop_
 _atom_site_type_symbol
 _atom_site_label
 _atom_site_symmetry_multiplicity
 _atom_site_fract_x
 _atom_site_fract_y
 _atom_site_fract_z
 _atom_site_fract_occupancy
 F  F1  1  0.26866  0.50000  0.26457  1
 F  F2  1  0.37652  0.00000  0.10545  1
 F  F3  1  0.23135  0.00000  0.76458  1
 F  F4  1  0.67691  0.00000  0.89584  1
 F  F5  1  0.82309  0.50000  0.39582  1
 F  F6  1  0.12347  0.50000  0.60545  1
 Mn  Mn1  1  0.03033  0.00000  0.00082  1
 Mn  Mn2  1  0.60593  0.50000  0.16868  1
 Mn  Mn3  1  0.46967  0.50000  0.50081  1
 Mn  Mn4  1  0.45817  0.50000  0.83305  1
 Mn  Mn5  1  0.04184  0.00000  0.33304  1
 Mn  Mn6  1  0.89407  0.00000  0.66869  1
 O  O1  1  0.30442  0.00000  0.43385  1
 O  O2  1  0.76835  0.00000  0.23113  1
 O  O3  1  0.85635  0.50000  0.06660  1
 O  O4  1  0.73165  0.50000  0.73114  1
 O  O5  1  0.19559  0.50000  0.93386  1
 O  O6  1  0.64365  0.00000  0.56660  1
