CIF file written using JARVIS-Tools package.
data_TiCrAgS4
_symmetry_space_group_name_H-M  'P2/m'
_cell_length_a       3.47496
_cell_length_b       5.9214
_cell_length_c       6.45
_cell_angle_alpha    88.0366
_cell_angle_beta     90
_cell_angle_gamma    90

_symmetry_Int_Tables_number  10
_chemical_formula_structural  TiCrAgS4
_chemical_formula_sum  TiCrAgS4
_cell_volume  132.64133135085984
_cell_formula_units_Z  1
loop_
  _symmetry_equiv_pos_site_id
 _symmetry_equiv_pos_as_xyz
 1  'x, y, z'
loop_
 _atom_site_type_symbol
 _atom_site_label
 _atom_site_symmetry_multiplicity
 _atom_site_fract_x
 _atom_site_fract_y
 _atom_site_fract_z
 _atom_site_fract_occupancy
 Ag  Ag1  1  0.00000  0.00000  0.00000  1
 Cr  Cr1  1  0.00000  0.00000  0.50000  1
 S  S1  1  0.00000  0.32784  0.71788  1
 S  S2  1  0.50000  0.82885  0.71351  1
 S  S3  1  0.50000  0.17115  0.28649  1
 S  S4  1  0.00000  0.67216  0.28212  1
 Ti  Ti1  1  0.50000  0.50000  0.50000  1
