CIF file written using JARVIS-Tools package.
data_MnCoO4
_symmetry_space_group_name_H-M  'Cmmm'
_cell_length_a       5.20666
_cell_length_b       4.35208
_cell_length_c       5.20688
_cell_angle_alpha    89.6192
_cell_angle_beta     107.207
_cell_angle_gamma    33.2963

_symmetry_Int_Tables_number  65
_chemical_formula_structural  MnCoO4
_chemical_formula_sum  MnCoO4
_cell_volume  54.13623950535042
_cell_formula_units_Z  1
loop_
  _symmetry_equiv_pos_site_id
 _symmetry_equiv_pos_as_xyz
 1  'x, y, z'
loop_
 _atom_site_type_symbol
 _atom_site_label
 _atom_site_symmetry_multiplicity
 _atom_site_fract_x
 _atom_site_fract_y
 _atom_site_fract_z
 _atom_site_fract_occupancy
 Co  Co1  1  0.49885  0.00617  0.50502  1
 Mn  Mn1  1  0.49887  0.50615  0.00502  1
 O  O1  1  0.19352  0.11681  0.69969  1
 O  O2  1  0.19546  0.00614  0.20160  1
 O  O3  1  0.80226  0.00618  0.80845  1
 O  O4  1  0.80417  0.89552  0.31034  1
