CIF file written using JARVIS-Tools package.
data_Ni3Te2
_symmetry_space_group_name_H-M  'P2_1/m'
_cell_length_a       3.81144
_cell_length_b       6.10762
_cell_length_c       7.55112
_cell_angle_alpha    91.5299
_cell_angle_beta     90
_cell_angle_gamma    90

_symmetry_Int_Tables_number  11
_chemical_formula_structural  Ni3Te2
_chemical_formula_sum  Ni6Te4
_cell_volume  175.7184417934824
_cell_formula_units_Z  2
loop_
  _symmetry_equiv_pos_site_id
 _symmetry_equiv_pos_as_xyz
 1  'x, y, z'
loop_
 _atom_site_type_symbol
 _atom_site_label
 _atom_site_symmetry_multiplicity
 _atom_site_fract_x
 _atom_site_fract_y
 _atom_site_fract_z
 _atom_site_fract_occupancy
 Ni  Ni1  1  0.25000  0.28852  0.63543  1
 Ni  Ni2  1  0.75000  0.71148  0.36457  1
 Ni  Ni3  1  0.25000  0.00808  0.37071  1
 Ni  Ni4  1  0.75000  0.99192  0.62929  1
 Ni  Ni5  1  0.25000  0.99413  0.87741  1
 Ni  Ni6  1  0.75000  0.00587  0.12259  1
 Te  Te1  1  0.25000  0.71752  0.11836  1
 Te  Te2  1  0.75000  0.28248  0.88164  1
 Te  Te3  1  0.25000  0.71259  0.61926  1
 Te  Te4  1  0.75000  0.28741  0.38074  1
