CIF file written using JARVIS-Tools package.
data_Rb2PdI6
_symmetry_space_group_name_H-M  'Pnma'
_cell_length_a       7.84387
_cell_length_b       12.306
_cell_length_c       14.5156
_cell_angle_alpha    90
_cell_angle_beta     90
_cell_angle_gamma    90

_symmetry_Int_Tables_number  62
_chemical_formula_structural  Rb2PdI6
_chemical_formula_sum  Rb8Pd4I24
_cell_volume  1401.1495194194242
_cell_formula_units_Z  4
loop_
  _symmetry_equiv_pos_site_id
 _symmetry_equiv_pos_as_xyz
 1  'x, y, z'
loop_
 _atom_site_type_symbol
 _atom_site_label
 _atom_site_symmetry_multiplicity
 _atom_site_fract_x
 _atom_site_fract_y
 _atom_site_fract_z
 _atom_site_fract_occupancy
 I  I1  1  0.77206  0.46874  0.89374  1
 I  I2  1  0.95938  0.75000  0.21043  1
 I  I3  1  0.54062  0.25000  0.71043  1
 I  I4  1  0.03482  0.75000  0.49162  1
 I  I5  1  0.98544  0.25000  0.28274  1
 I  I6  1  0.96518  0.25000  0.50838  1
 I  I7  1  0.46518  0.25000  0.99162  1
 I  I8  1  0.45938  0.75000  0.28957  1
 I  I9  1  0.01456  0.75000  0.71726  1
 I  I10  1  0.27206  0.46874  0.60626  1
 I  I11  1  0.48544  0.25000  0.21726  1
 I  I12  1  0.04470  0.75000  0.91928  1
 I  I13  1  0.54470  0.75000  0.58072  1
 I  I14  1  0.95530  0.25000  0.08072  1
 I  I15  1  0.45530  0.25000  0.41928  1
 I  I16  1  0.51456  0.75000  0.78274  1
 I  I17  1  0.27206  0.03126  0.60626  1
 I  I18  1  0.77206  0.03126  0.89374  1
 I  I19  1  0.72794  0.53126  0.39374  1
 I  I20  1  0.22794  0.96874  0.10626  1
 I  I21  1  0.72794  0.96874  0.39374  1
 I  I22  1  0.22794  0.53126  0.10626  1
 I  I23  1  0.04062  0.25000  0.78957  1
 I  I24  1  0.53482  0.75000  0.00838  1
 Pd  Pd1  1  0.23272  0.75000  0.10130  1
 Pd  Pd2  1  0.73272  0.75000  0.39870  1
 Pd  Pd3  1  0.76728  0.25000  0.89870  1
 Pd  Pd4  1  0.26728  0.25000  0.60130  1
 Rb  Rb1  1  0.78765  0.00706  0.63954  1
 Rb  Rb2  1  0.28765  0.49294  0.86046  1
 Rb  Rb3  1  0.21235  0.50706  0.36046  1
 Rb  Rb4  1  0.71235  0.99294  0.13954  1
 Rb  Rb5  1  0.21235  0.99294  0.36046  1
 Rb  Rb6  1  0.71235  0.50706  0.13954  1
 Rb  Rb7  1  0.78765  0.49294  0.63954  1
 Rb  Rb8  1  0.28765  0.00706  0.86046  1
