CIF file written using JARVIS-Tools package.
data_MoW3Se2S6
_symmetry_space_group_name_H-M  'P3m1'
_cell_length_a       3.22505
_cell_length_b       3.22504
_cell_length_c       34.1407
_cell_angle_alpha    90.0003
_cell_angle_beta     90
_cell_angle_gamma    120

_symmetry_Int_Tables_number  156
_chemical_formula_structural  MoW3Se2S6
_chemical_formula_sum  MoW3Se2S6
_cell_volume  307.5215136983422
_cell_formula_units_Z  1
loop_
  _symmetry_equiv_pos_site_id
 _symmetry_equiv_pos_as_xyz
 1  'x, y, z'
loop_
 _atom_site_type_symbol
 _atom_site_label
 _atom_site_symmetry_multiplicity
 _atom_site_fract_x
 _atom_site_fract_y
 _atom_site_fract_z
 _atom_site_fract_occupancy
 Mo  Mo1  1  0.33332  0.66663  0.09345  1
 S  S1  1  0.33337  0.66675  0.70068  1
 S  S2  1  0.66665  0.33330  0.04792  1
 S  S3  1  0.66665  0.33330  0.42626  1
 S  S4  1  0.66665  0.33330  0.13905  1
 S  S5  1  0.66665  0.33330  0.51790  1
 S  S6  1  0.33336  0.66671  0.60907  1
 Se  Se1  1  0.33334  0.66669  0.33290  1
 Se  Se2  1  0.33333  0.66666  0.23206  1
 W  W1  1  0.33332  0.66663  0.47209  1
 W  W2  1  0.66667  0.33334  0.28248  1
 W  W3  1  0.66670  0.33340  0.65489  1
