CIF file written using JARVIS-Tools package.
data_TbMnSi
_symmetry_space_group_name_H-M  'Pnma'
_cell_length_a       4.15744
_cell_length_b       7.03849
_cell_length_c       7.41118
_cell_angle_alpha    90
_cell_angle_beta     90
_cell_angle_gamma    90

_symmetry_Int_Tables_number  62
_chemical_formula_structural  TbMnSi
_chemical_formula_sum  Tb4Mn4Si4
_cell_volume  216.86655445441755
_cell_formula_units_Z  4
loop_
  _symmetry_equiv_pos_site_id
 _symmetry_equiv_pos_as_xyz
 1  'x, y, z'
loop_
 _atom_site_type_symbol
 _atom_site_label
 _atom_site_symmetry_multiplicity
 _atom_site_fract_x
 _atom_site_fract_y
 _atom_site_fract_z
 _atom_site_fract_occupancy
 Mn  Mn1  1  0.75000  0.86089  0.06027  1
 Mn  Mn2  1  0.25000  0.13911  0.93973  1
 Mn  Mn3  1  0.75000  0.36089  0.43973  1
 Mn  Mn4  1  0.25000  0.63911  0.56027  1
 Si  Si1  1  0.25000  0.79263  0.89191  1
 Si  Si2  1  0.75000  0.20737  0.10809  1
 Si  Si3  1  0.25000  0.29263  0.60809  1
 Si  Si4  1  0.75000  0.70737  0.39191  1
 Tb  Tb1  1  0.25000  0.50149  0.18639  1
 Tb  Tb2  1  0.75000  0.49851  0.81361  1
 Tb  Tb3  1  0.25000  0.00149  0.31361  1
 Tb  Tb4  1  0.75000  0.99851  0.68639  1
