CIF file written using JARVIS-Tools package.
data_Na2CuO2
_symmetry_space_group_name_H-M  'Immm'
_cell_length_a       5.61442
_cell_length_b       5.61442
_cell_length_c       5.61442
_cell_angle_alpha    132.722
_cell_angle_beta     149.082
_cell_angle_gamma    57.5646

_symmetry_Int_Tables_number  71
_chemical_formula_structural  Na2CuO2
_chemical_formula_sum  Na2CuO2
_cell_volume  66.3117540965143
_cell_formula_units_Z  1
loop_
  _symmetry_equiv_pos_site_id
 _symmetry_equiv_pos_as_xyz
 1  'x, y, z'
loop_
 _atom_site_type_symbol
 _atom_site_label
 _atom_site_symmetry_multiplicity
 _atom_site_fract_x
 _atom_site_fract_y
 _atom_site_fract_z
 _atom_site_fract_occupancy
 Cu  Cu1  1  0.00000  0.50000  0.50000  1
 Na  Na1  1  0.68590  0.18590  0.50000  1
 Na  Na2  1  0.31410  0.81410  0.50000  1
 O  O1  1  0.36700  0.36700  0.00000  1
 O  O2  1  0.63300  0.63300  -0.00000  1
