CIF file written using JARVIS-Tools package.
data_Na2Cr2O7
_symmetry_space_group_name_H-M  'P-1'
_cell_length_a       7.37361
_cell_length_b       6.97908
_cell_length_c       6.94886
_cell_angle_alpha    96.3731
_cell_angle_beta     88.463
_cell_angle_gamma    118.824

_symmetry_Int_Tables_number  2
_chemical_formula_structural  Na2Cr2O7
_chemical_formula_sum  Na4Cr4O4
_cell_volume  311.20857737268534
_cell_formula_units_Z  2
loop_
  _symmetry_equiv_pos_site_id
 _symmetry_equiv_pos_as_xyz
 1  'x, y, z'
loop_
 _atom_site_type_symbol
 _atom_site_label
 _atom_site_symmetry_multiplicity
 _atom_site_fract_x
 _atom_site_fract_y
 _atom_site_fract_z
 _atom_site_fract_occupancy
 Cr  Cr1  1  0.19997  0.82519  0.86961  1
 Cr  Cr2  1  0.80003  0.17481  0.13039  1
 Cr  Cr3  1  0.76085  0.50775  0.65613  1
 Cr  Cr4  1  0.23915  0.49225  0.34387  1
 Na  Na1  1  0.67697  0.94005  0.62293  1
 Na  Na2  1  0.32303  0.05995  0.37707  1
 Na  Na3  1  0.25062  0.36508  0.84127  1
 Na  Na4  1  0.74938  0.63492  0.15873  1
 O  O1  1  0.40311  0.79177  0.87725  1
 O  O2  1  0.59689  0.20823  0.12275  1
 O  O3  1  0.00359  0.56870  0.75384  1
 O  O4  1  0.76320  0.97853  0.25879  1
 O  O5  1  0.12283  0.86557  0.08634  1
 O  O6  1  0.23680  0.02147  0.74121  1
 O  O7  1  0.37491  0.45624  0.16906  1
 O  O8  1  0.35342  0.74668  0.44191  1
 O  O9  1  0.62509  0.54376  0.83094  1
 O  O10  1  0.87717  0.13443  0.91366  1
 O  O11  1  0.79110  0.67619  0.49699  1
 O  O12  1  0.20890  0.32381  0.50301  1
 O  O13  1  0.64658  0.25332  0.55809  1
 O  O14  1  -0.00359  0.43130  0.24616  1
