CIF file written using JARVIS-Tools package.
data_Rb2GeB4O9
_symmetry_space_group_name_H-M  'P2_1'
_cell_length_a       6.60366
_cell_length_b       9.9559
_cell_length_c       13.2062
_cell_angle_alpha    90
_cell_angle_beta     90.3414
_cell_angle_gamma    90

_symmetry_Int_Tables_number  4
_chemical_formula_structural  Rb2GeB4O9
_chemical_formula_sum  Rb8Ge4B6O36
_cell_volume  868.233562501569
_cell_formula_units_Z  4
loop_
  _symmetry_equiv_pos_site_id
 _symmetry_equiv_pos_as_xyz
 1  'x, y, z'
loop_
 _atom_site_type_symbol
 _atom_site_label
 _atom_site_symmetry_multiplicity
 _atom_site_fract_x
 _atom_site_fract_y
 _atom_site_fract_z
 _atom_site_fract_occupancy
 B  B1  1  0.19248  0.32243  0.29175  1
 B  B2  1  0.60003  0.98546  0.16325  1
 B  B3  1  0.39997  0.48546  0.83675  1
 B  B4  1  0.34709  0.32153  0.45535  1
 B  B5  1  0.65291  0.82153  0.54465  1
 B  B6  1  0.93185  0.98121  0.09128  1
 B  B7  1  0.06815  0.48121  0.90872  1
 B  B8  1  0.65971  0.84233  0.01659  1
 B  B9  1  0.49612  0.46053  0.32192  1
 B  B10  1  0.50388  0.96053  0.67808  1
 B  B11  1  0.34029  0.34233  0.98341  1
 B  B12  1  0.95366  0.96249  0.57382  1
 B  B13  1  0.80752  0.82243  0.70825  1
 B  B14  1  0.04634  0.46249  0.42618  1
 B  B15  1  0.13012  0.34981  0.75466  1
 B  B16  1  0.86988  0.84981  0.24534  1
 Ge  Ge1  1  0.25859  0.14750  0.12943  1
 Ge  Ge2  1  0.74141  0.64750  0.87057  1
 Ge  Ge3  1  0.75608  0.65839  0.38395  1
 Ge  Ge4  1  0.24392  0.15839  0.61605  1
 O  O1  1  0.85685  0.88511  0.01055  1
 O  O2  1  0.57527  0.74005  0.45942  1
 O  O3  1  0.41563  0.24174  0.04538  1
 O  O4  1  0.06191  0.25290  0.68573  1
 O  O5  1  0.93809  0.75290  0.31427  1
 O  O6  1  0.56219  0.56510  0.79348  1
 O  O7  1  0.58437  0.74174  0.95462  1
 O  O8  1  0.23250  0.56560  0.87413  1
 O  O9  1  0.42473  0.24005  0.54058  1
 O  O10  1  0.02477  0.41420  0.32962  1
 O  O11  1  0.08165  0.06201  0.53604  1
 O  O12  1  0.67454  0.89470  0.24920  1
 O  O13  1  0.09893  0.05636  0.04638  1
 O  O14  1  0.90107  0.55636  0.95362  1
 O  O15  1  0.61865  0.56683  0.28962  1
 O  O16  1  0.38135  0.06683  0.71038  1
 O  O17  1  0.10428  0.24393  0.21007  1
 O  O18  1  0.89572  0.74393  0.78993  1
 O  O19  1  0.43781  0.06510  0.20652  1
 O  O20  1  0.91835  0.56201  0.46396  1
 O  O21  1  0.26798  0.24029  0.37419  1
 O  O22  1  0.14315  0.38511  0.98945  1
 O  O23  1  0.52012  0.89481  0.08204  1
 O  O24  1  0.73202  0.74029  0.62581  1
 O  O25  1  0.52115  0.40734  0.41745  1
 O  O26  1  0.47988  0.39481  0.91796  1
 O  O27  1  0.76750  0.06560  0.12587  1
 O  O28  1  0.97523  0.91420  0.67038  1
 O  O29  1  0.18922  0.41778  0.49393  1
 O  O30  1  0.47885  0.90734  0.58255  1
 O  O31  1  0.98869  0.39522  0.82188  1
 O  O32  1  0.32546  0.39470  0.75080  1
 O  O33  1  0.01131  0.89522  0.17812  1
 O  O34  1  0.35803  0.41463  0.25258  1
 O  O35  1  0.64197  0.91463  0.74742  1
 O  O36  1  0.81078  0.91778  0.50607  1
 Rb  Rb1  1  0.29318  0.93087  0.37365  1
 Rb  Rb2  1  0.70682  0.43087  0.62635  1
 Rb  Rb3  1  0.22884  0.65472  0.63390  1
 Rb  Rb4  1  0.77116  0.15472  0.36610  1
 Rb  Rb5  1  0.74680  0.15507  0.88310  1
 Rb  Rb6  1  0.25320  0.65507  0.11690  1
 Rb  Rb7  1  0.22221  0.87612  0.88129  1
 Rb  Rb8  1  0.77779  0.37612  0.11871  1
