CIF file written using JARVIS-Tools package.
data_Te6Mo3WSe2
_symmetry_space_group_name_H-M  'P3m1'
_cell_length_a       3.50246
_cell_length_b       3.50246
_cell_length_c       37.3792
_cell_angle_alpha    89.9982
_cell_angle_beta     90
_cell_angle_gamma    120

_symmetry_Int_Tables_number  156
_chemical_formula_structural  Te6Mo3WSe2
_chemical_formula_sum  Te6Mo3WSe2
_cell_volume  397.10576826233296
_cell_formula_units_Z  1
loop_
  _symmetry_equiv_pos_site_id
 _symmetry_equiv_pos_as_xyz
 1  'x, y, z'
loop_
 _atom_site_type_symbol
 _atom_site_label
 _atom_site_symmetry_multiplicity
 _atom_site_fract_x
 _atom_site_fract_y
 _atom_site_fract_z
 _atom_site_fract_occupancy
 Mo  Mo1  1  0.33342  0.66684  0.08946  1
 Mo  Mo2  1  0.33330  0.66659  0.47446  1
 Mo  Mo3  1  0.66671  0.33343  0.28198  1
 Se  Se1  1  0.33322  0.66643  0.70040  1
 Se  Se2  1  0.33326  0.66651  0.61357  1
 Te  Te1  1  0.33337  0.66675  0.33112  1
 Te  Te2  1  0.66676  0.33352  0.04040  1
 Te  Te3  1  0.66664  0.33328  0.42532  1
 Te  Te4  1  0.66675  0.33349  0.13861  1
 Te  Te5  1  0.66662  0.33324  0.52357  1
 Te  Te6  1  0.33339  0.66678  0.23284  1
 W  W1  1  0.66657  0.33314  0.65702  1
