CIF file written using JARVIS-Tools package.
data_KBi
_symmetry_space_group_name_H-M  'P2_1/c'
_cell_length_a       7.29635
_cell_length_b       13.4396
_cell_length_c       14.2247
_cell_angle_alpha    113.31
_cell_angle_beta     90
_cell_angle_gamma    90

_symmetry_Int_Tables_number  14
_chemical_formula_structural  KBi
_chemical_formula_sum  K6Bi6
_cell_volume  1281.0177203631215
_cell_formula_units_Z  16
loop_
  _symmetry_equiv_pos_site_id
 _symmetry_equiv_pos_as_xyz
 1  'x, y, z'
loop_
 _atom_site_type_symbol
 _atom_site_label
 _atom_site_symmetry_multiplicity
 _atom_site_fract_x
 _atom_site_fract_y
 _atom_site_fract_z
 _atom_site_fract_occupancy
 Bi  Bi1  1  0.64643  0.17737  0.07402  1
 Bi  Bi2  1  0.14643  0.32263  0.92598  1
 Bi  Bi3  1  0.20869  0.89145  0.58002  1
 Bi  Bi4  1  0.70869  0.60855  0.41998  1
 Bi  Bi5  1  0.79131  0.10855  0.41998  1
 Bi  Bi6  1  0.29131  0.39145  0.58002  1
 Bi  Bi7  1  0.93910  0.72815  0.61301  1
 Bi  Bi8  1  0.43910  0.77185  0.38699  1
 Bi  Bi9  1  0.06090  0.27185  0.38699  1
 Bi  Bi10  1  0.11362  0.87166  0.11660  1
 Bi  Bi11  1  0.61362  0.62834  0.88340  1
 Bi  Bi12  1  0.88638  0.12834  0.88340  1
 Bi  Bi13  1  0.38638  0.37166  0.11660  1
 Bi  Bi14  1  0.85357  0.67737  0.07402  1
 Bi  Bi15  1  0.35357  0.82263  0.92598  1
 Bi  Bi16  1  0.56090  0.22815  0.61301  1
 K  K1  1  0.12544  0.55746  0.84492  1
 K  K2  1  0.87456  0.44254  0.15508  1
 K  K3  1  0.37456  0.05746  0.84492  1
 K  K4  1  0.43133  0.69273  0.65458  1
 K  K5  1  0.93133  0.80727  0.34542  1
 K  K6  1  0.56867  0.30727  0.34542  1
 K  K7  1  0.13387  0.14032  0.11467  1
 K  K8  1  0.20393  0.53907  0.39736  1
 K  K9  1  0.70393  0.96093  0.60264  1
 K  K10  1  0.79607  0.46093  0.60264  1
 K  K11  1  0.29607  0.03907  0.39736  1
 K  K12  1  0.36613  0.64032  0.11467  1
 K  K13  1  0.86613  0.85968  0.88533  1
 K  K14  1  0.63387  0.35968  0.88533  1
 K  K15  1  0.62544  0.94254  0.15508  1
 K  K16  1  0.06867  0.19273  0.65458  1
