CIF file written using JARVIS-Tools package.
data_LaAlH6
_symmetry_space_group_name_H-M  'R-3m'
_cell_length_a       4.32391
_cell_length_b       4.32391
_cell_length_c       4.32391
_cell_angle_alpha    98.2425
_cell_angle_beta     98.2425
_cell_angle_gamma    98.2424

_symmetry_Int_Tables_number  166
_chemical_formula_structural  LaAlH6
_chemical_formula_sum  LaAlH6
_cell_volume  78.06249702129907
_cell_formula_units_Z  1
loop_
  _symmetry_equiv_pos_site_id
 _symmetry_equiv_pos_as_xyz
 1  'x, y, z'
loop_
 _atom_site_type_symbol
 _atom_site_label
 _atom_site_symmetry_multiplicity
 _atom_site_fract_x
 _atom_site_fract_y
 _atom_site_fract_z
 _atom_site_fract_occupancy
 Al  Al1  1  0.00000  0.00000  0.00000  1
 H  H1  1  0.93777  0.29244  0.29244  1
 H  H2  1  0.29244  0.29244  0.93777  1
 H  H3  1  0.29244  0.93777  0.29244  1
 H  H4  1  0.06223  0.70756  0.70756  1
 H  H5  1  0.70756  0.70756  0.06223  1
 H  H6  1  0.70756  0.06223  0.70756  1
 La  La1  1  0.50000  0.50000  0.50000  1
