CIF file written using JARVIS-Tools package.
data_Ba4CeMn3O12
_symmetry_space_group_name_H-M  'R-3m'
_cell_length_a       10.1497
_cell_length_b       10.1497
_cell_length_c       10.1497
_cell_angle_alpha    33.4584
_cell_angle_beta     33.4584
_cell_angle_gamma    33.4584

_symmetry_Int_Tables_number  166
_chemical_formula_structural  Ba4CeMn3O12
_chemical_formula_sum  Ba4CeMn3O2
_cell_volume  283.0481676747144
_cell_formula_units_Z  1
loop_
  _symmetry_equiv_pos_site_id
 _symmetry_equiv_pos_as_xyz
 1  'x, y, z'
loop_
 _atom_site_type_symbol
 _atom_site_label
 _atom_site_symmetry_multiplicity
 _atom_site_fract_x
 _atom_site_fract_y
 _atom_site_fract_z
 _atom_site_fract_occupancy
 Ba  Ba1  1  0.28264  0.28264  0.28264  1
 Ba  Ba2  1  0.13108  0.13108  0.13108  1
 Ba  Ba3  1  0.71736  0.71736  0.71736  1
 Ba  Ba4  1  0.86892  0.86892  0.86892  1
 Ce  Ce1  1  0.00000  0.00000  0.00000  1
 Mn  Mn1  1  0.41405  0.41405  0.41405  1
 Mn  Mn2  1  0.58595  0.58595  0.58595  1
 Mn  Mn3  1  0.50000  0.50000  0.50000  1
 O  O1  1  0.77683  0.77683  0.31123  1
 O  O2  1  0.60581  0.16340  0.60581  1
 O  O3  1  0.31123  0.77683  0.77683  1
 O  O4  1  0.39419  0.83660  0.39419  1
 O  O5  1  0.22317  0.22317  0.68877  1
 O  O6  1  0.60581  0.60581  0.16340  1
 O  O7  1  0.39419  0.39419  0.83660  1
 O  O8  1  0.16340  0.60581  0.60581  1
 O  O9  1  0.68877  0.22317  0.22317  1
 O  O10  1  0.77683  0.31123  0.77683  1
 O  O11  1  0.83660  0.39419  0.39419  1
 O  O12  1  0.22317  0.68877  0.22317  1
