CIF file written using JARVIS-Tools package.
data_Bi3Sb
_symmetry_space_group_name_H-M  'R3m'
_cell_length_a       8.38178
_cell_length_b       8.38178
_cell_length_c       8.38179
_cell_angle_alpha    31.3816
_cell_angle_beta     31.3817
_cell_angle_gamma    31.3816

_symmetry_Int_Tables_number  160
_chemical_formula_structural  Bi3Sb
_chemical_formula_sum  Bi3Sb
_cell_volume  141.73550237808905
_cell_formula_units_Z  1
loop_
  _symmetry_equiv_pos_site_id
 _symmetry_equiv_pos_as_xyz
 1  'x, y, z'
loop_
 _atom_site_type_symbol
 _atom_site_label
 _atom_site_symmetry_multiplicity
 _atom_site_fract_x
 _atom_site_fract_y
 _atom_site_fract_z
 _atom_site_fract_occupancy
 Bi  Bi1  1  0.11687  0.11687  0.11687  1
 Bi  Bi2  1  0.88506  0.88506  0.88506  1
 Bi  Bi3  1  0.38068  0.38068  0.38068  1
 Sb  Sb1  1  0.61740  0.61740  0.61740  1
