CIF file written using JARVIS-Tools package.
data_NiN6Cl2
_symmetry_space_group_name_H-M  'Fm-3m'
_cell_length_a       5.46758
_cell_length_b       5.46758
_cell_length_c       5.46758
_cell_angle_alpha    60
_cell_angle_beta     60
_cell_angle_gamma    60

_symmetry_Int_Tables_number  225
_chemical_formula_structural  NiN6Cl2
_chemical_formula_sum  NiN6Cl2
_cell_volume  115.5764581498026
_cell_formula_units_Z  1
loop_
  _symmetry_equiv_pos_site_id
 _symmetry_equiv_pos_as_xyz
 1  'x, y, z'
loop_
 _atom_site_type_symbol
 _atom_site_label
 _atom_site_symmetry_multiplicity
 _atom_site_fract_x
 _atom_site_fract_y
 _atom_site_fract_z
 _atom_site_fract_occupancy
 Cl  Cl1  1  0.25000  0.25000  0.25000  1
 Cl  Cl2  1  0.75000  0.75000  0.75000  1
 N  N1  1  0.76148  0.23852  0.23852  1
 N  N2  1  0.76148  0.23852  0.76148  1
 N  N3  1  0.76148  0.76148  0.23852  1
 N  N4  1  0.23852  0.76148  0.76148  1
 N  N5  1  0.23852  0.76148  0.23852  1
 N  N6  1  0.23852  0.23852  0.76148  1
 Ni  Ni1  1  0.00000  0.00000  0.00000  1
