CIF file written using JARVIS-Tools package.
data_BaGe2
_symmetry_space_group_name_H-M  'Pnma'
_cell_length_a       6.85067
_cell_length_b       9.15133
_cell_length_c       11.687
_cell_angle_alpha    90
_cell_angle_beta     90
_cell_angle_gamma    90

_symmetry_Int_Tables_number  62
_chemical_formula_structural  BaGe2
_chemical_formula_sum  Ba8Ge6
_cell_volume  732.6872093043892
_cell_formula_units_Z  8
loop_
  _symmetry_equiv_pos_site_id
 _symmetry_equiv_pos_as_xyz
 1  'x, y, z'
loop_
 _atom_site_type_symbol
 _atom_site_label
 _atom_site_symmetry_multiplicity
 _atom_site_fract_x
 _atom_site_fract_y
 _atom_site_fract_z
 _atom_site_fract_occupancy
 Ba  Ba1  1  0.75000  0.98517  0.30845  1
 Ba  Ba2  1  0.75000  0.48517  0.19155  1
 Ba  Ba3  1  0.25000  0.51483  0.80845  1
 Ba  Ba4  1  0.75000  0.15587  0.90699  1
 Ba  Ba5  1  0.25000  0.84413  0.09301  1
 Ba  Ba6  1  0.75000  0.65587  0.59301  1
 Ba  Ba7  1  0.25000  0.34413  0.40699  1
 Ba  Ba8  1  0.25000  0.01483  0.69155  1
 Ge  Ge1  1  0.43804  0.69218  0.35049  1
 Ge  Ge2  1  0.56196  0.80782  0.85049  1
 Ge  Ge3  1  0.06196  0.19218  0.14951  1
 Ge  Ge4  1  0.06196  0.69218  0.35049  1
 Ge  Ge5  1  0.56196  0.30782  0.64951  1
 Ge  Ge6  1  0.43804  0.19218  0.14951  1
 Ge  Ge7  1  0.93804  0.80782  0.85049  1
 Ge  Ge8  1  0.75000  0.80539  0.04133  1
 Ge  Ge9  1  0.25000  0.42632  0.09264  1
 Ge  Ge10  1  0.93804  0.30782  0.64951  1
 Ge  Ge11  1  0.75000  0.07368  0.59264  1
 Ge  Ge12  1  0.25000  0.19461  0.95867  1
 Ge  Ge13  1  0.75000  0.30539  0.45867  1
 Ge  Ge14  1  0.25000  0.69461  0.54133  1
 Ge  Ge15  1  0.75000  0.57368  0.90736  1
 Ge  Ge16  1  0.25000  0.92632  0.40736  1
