CIF file written using JARVIS-Tools package.
data_Ce3Si8Ni2
_symmetry_space_group_name_H-M  'Cmmm'
_cell_length_a       4.13657
_cell_length_b       4.23803
_cell_length_c       13.124
_cell_angle_alpha    90
_cell_angle_beta     99.0674
_cell_angle_gamma    90

_symmetry_Int_Tables_number  65
_chemical_formula_structural  Ce3Si8Ni2
_chemical_formula_sum  Ce3Si8Ni2
_cell_volume  227.2005890814762
_cell_formula_units_Z  1
loop_
  _symmetry_equiv_pos_site_id
 _symmetry_equiv_pos_as_xyz
 1  'x, y, z'
loop_
 _atom_site_type_symbol
 _atom_site_label
 _atom_site_symmetry_multiplicity
 _atom_site_fract_x
 _atom_site_fract_y
 _atom_site_fract_z
 _atom_site_fract_occupancy
 Ce  Ce1  1  0.00000  0.00000  0.00000  1
 Ce  Ce2  1  0.68775  0.50000  0.37550  1
 Ce  Ce3  1  0.31225  0.50000  0.62450  1
 Ni  Ni1  1  0.86649  0.00000  0.73297  1
 Ni  Ni2  1  0.13351  0.00000  0.26703  1
 Si  Si1  1  0.59532  0.00000  0.19063  1
 Si  Si2  1  0.40468  0.00000  0.80937  1
 Si  Si3  1  0.77592  0.00000  0.55184  1
 Si  Si4  1  0.22408  0.00000  0.44816  1
 Si  Si5  1  0.90296  0.50000  0.80592  1
 Si  Si6  1  0.09704  0.50000  0.19408  1
 Si  Si7  1  0.54573  0.50000  0.09147  1
 Si  Si8  1  0.45427  0.50000  0.90853  1
