CIF file written using JARVIS-Tools package.
data_LiMn5O3F5
_symmetry_space_group_name_H-M  'Cm'
_cell_length_a       6.3291
_cell_length_b       6.28162
_cell_length_c       6.28162
_cell_angle_alpha    59.2561
_cell_angle_beta     59.9485
_cell_angle_gamma    59.9485

_symmetry_Int_Tables_number  8
_chemical_formula_structural  LiMn5O3F5
_chemical_formula_sum  LiMn5O3F5
_cell_volume  175.44186129176467
_cell_formula_units_Z  1
loop_
  _symmetry_equiv_pos_site_id
 _symmetry_equiv_pos_as_xyz
 1  'x, y, z'
loop_
 _atom_site_type_symbol
 _atom_site_label
 _atom_site_symmetry_multiplicity
 _atom_site_fract_x
 _atom_site_fract_y
 _atom_site_fract_z
 _atom_site_fract_occupancy
 F  F1  1  0.38703  0.87167  0.39217  1
 F  F2  1  0.38703  0.39217  0.87167  1
 F  F3  1  0.86568  0.37838  0.86390  1
 F  F4  1  0.86568  0.86390  0.37838  1
 F  F5  1  0.38609  0.86920  0.86920  1
 Li  Li1  1  0.64727  0.60841  0.60841  1
 Mn  Mn1  1  0.99284  0.96859  0.96859  1
 Mn  Mn2  1  0.21928  0.28879  0.28879  1
 Mn  Mn3  1  0.63891  0.13349  0.61353  1
 Mn  Mn4  1  0.63891  0.61353  0.13349  1
 Mn  Mn5  1  0.12944  0.62542  0.62542  1
 O  O1  1  0.38379  0.39981  0.39981  1
 O  O2  1  0.84709  0.38769  0.38769  1
 O  O3  1  0.86097  0.84893  0.84893  1
