CIF file written using JARVIS-Tools package.
data_PdSe8Cl2
_symmetry_space_group_name_H-M  'Pbca'
_cell_length_a       9.06708
_cell_length_b       9.6014
_cell_length_c       13.8054
_cell_angle_alpha    90
_cell_angle_beta     90
_cell_angle_gamma    90

_symmetry_Int_Tables_number  61
_chemical_formula_structural  PdSe8Cl2
_chemical_formula_sum  Pd4Se32Cl8
_cell_volume  1201.8508622788231
_cell_formula_units_Z  4
loop_
  _symmetry_equiv_pos_site_id
 _symmetry_equiv_pos_as_xyz
 1  'x, y, z'
loop_
 _atom_site_type_symbol
 _atom_site_label
 _atom_site_symmetry_multiplicity
 _atom_site_fract_x
 _atom_site_fract_y
 _atom_site_fract_z
 _atom_site_fract_occupancy
 Cl  Cl1  1  0.60297  0.84109  0.89112  1
 Cl  Cl2  1  0.60297  0.34109  0.60888  1
 Cl  Cl3  1  0.39703  0.15891  0.10888  1
 Cl  Cl4  1  0.10297  0.15891  0.60888  1
 Cl  Cl5  1  0.89703  0.84109  0.39112  1
 Cl  Cl6  1  0.89703  0.34109  0.10888  1
 Cl  Cl7  1  0.39703  0.65891  0.39112  1
 Cl  Cl8  1  0.10297  0.65891  0.89112  1
 Pd  Pd1  1  0.50000  0.00000  0.00000  1
 Pd  Pd2  1  0.50000  0.50000  0.50000  1
 Pd  Pd3  1  0.00000  0.50000  0.00000  1
 Pd  Pd4  1  0.00000  0.00000  0.50000  1
 Se  Se1  1  0.41097  0.38357  0.87353  1
 Se  Se2  1  0.58903  0.11643  0.37353  1
 Se  Se3  1  0.08802  0.18834  0.27159  1
 Se  Se4  1  0.20397  0.01691  0.38336  1
 Se  Se5  1  0.91097  0.11643  0.87353  1
 Se  Se6  1  0.29603  0.51691  0.61664  1
 Se  Se7  1  0.62291  0.34362  0.97247  1
 Se  Se8  1  0.37709  0.65638  0.02753  1
 Se  Se9  1  0.70397  0.98309  0.11664  1
 Se  Se10  1  0.58903  0.61643  0.12647  1
 Se  Se11  1  0.41097  0.88357  0.62647  1
 Se  Se12  1  0.08903  0.38357  0.37353  1
 Se  Se13  1  0.91198  0.81166  0.72841  1
 Se  Se14  1  0.58802  0.31166  0.27159  1
 Se  Se15  1  0.87709  0.84362  0.02753  1
 Se  Se16  1  0.20397  0.51691  0.11664  1
 Se  Se17  1  0.08903  0.88357  0.12647  1
 Se  Se18  1  0.91198  0.31166  0.77159  1
 Se  Se19  1  0.37709  0.15638  0.47247  1
 Se  Se20  1  0.12291  0.65638  0.52753  1
 Se  Se21  1  0.79603  0.48309  0.88336  1
 Se  Se22  1  0.62291  0.84362  0.52753  1
 Se  Se23  1  0.87709  0.34362  0.47247  1
 Se  Se24  1  0.58802  0.81166  0.22841  1
 Se  Se25  1  0.79603  0.98309  0.61664  1
 Se  Se26  1  0.41198  0.68834  0.72841  1
 Se  Se27  1  0.41198  0.18834  0.77159  1
 Se  Se28  1  0.70397  0.48309  0.38336  1
 Se  Se29  1  0.12291  0.15638  0.97247  1
 Se  Se30  1  0.91097  0.61643  0.62647  1
 Se  Se31  1  0.08802  0.68834  0.22841  1
 Se  Se32  1  0.29603  0.01691  0.88336  1
