CIF file written using JARVIS-Tools package.
data_Te2MoWSeS
_symmetry_space_group_name_H-M  'P3m1'
_cell_length_a       3.4044
_cell_length_b       3.4047
_cell_length_c       35.1434
_cell_angle_alpha    89.9654
_cell_angle_beta     89.9946
_cell_angle_gamma    120.002

_symmetry_Int_Tables_number  156
_chemical_formula_structural  Te2MoWSeS
_chemical_formula_sum  Te4Mo2W2Se2S2
_cell_volume  352.7643634554744
_cell_formula_units_Z  2
loop_
  _symmetry_equiv_pos_site_id
 _symmetry_equiv_pos_as_xyz
 1  'x, y, z'
loop_
 _atom_site_type_symbol
 _atom_site_label
 _atom_site_symmetry_multiplicity
 _atom_site_fract_x
 _atom_site_fract_y
 _atom_site_fract_z
 _atom_site_fract_occupancy
 Mo  Mo1  1  0.33320  0.66627  0.46698  1
 Mo  Mo2  1  0.66657  0.33304  0.27046  1
 S  S1  1  0.66696  0.33414  0.04767  1
 S  S2  1  0.66645  0.33312  0.13347  1
 Se  Se1  1  0.33301  0.66597  0.31737  1
 Se  Se2  1  0.33344  0.66679  0.22355  1
 Te  Te1  1  0.33317  0.66639  0.72852  1
 Te  Te2  1  0.66677  0.33336  0.41356  1
 Te  Te3  1  0.66641  0.33261  0.52033  1
 Te  Te4  1  0.33380  0.66763  0.62129  1
 W  W1  1  0.33331  0.66692  0.09058  1
 W  W2  1  0.66692  0.33376  0.67497  1
