CIF file written using JARVIS-Tools package.
data_Ce2Al16Pt9
_symmetry_space_group_name_H-M  'Immm'
_cell_length_a       4.15826
_cell_length_b       11.1809
_cell_length_c       11.1809
_cell_angle_alpha    65.3591
_cell_angle_beta     79.2833
_cell_angle_gamma    79.2833

_symmetry_Int_Tables_number  71
_chemical_formula_structural  Ce2Al16Pt9
_chemical_formula_sum  Ce2Al6Pt9
_cell_volume  460.8244244688669
_cell_formula_units_Z  1
loop_
  _symmetry_equiv_pos_site_id
 _symmetry_equiv_pos_as_xyz
 1  'x, y, z'
loop_
 _atom_site_type_symbol
 _atom_site_label
 _atom_site_symmetry_multiplicity
 _atom_site_fract_x
 _atom_site_fract_y
 _atom_site_fract_z
 _atom_site_fract_occupancy
 Al  Al1  1  0.92131  0.24998  0.90740  1
 Al  Al2  1  0.20387  0.48795  0.10432  1
 Al  Al3  1  0.41303  0.08697  0.08697  1
 Al  Al4  1  0.60925  0.50885  0.27266  1
 Al  Al5  1  0.07869  0.75002  0.09260  1
 Al  Al6  1  0.92131  0.90740  0.24998  1
 Al  Al7  1  0.39075  0.49115  0.72734  1
 Al  Al8  1  0.00000  0.61143  0.38857  1
 Al  Al9  1  -0.00000  0.38857  0.61143  1
 Al  Al10  1  0.20387  0.10432  0.48795  1
 Al  Al11  1  0.79613  0.89568  0.51205  1
 Al  Al12  1  0.39075  0.72734  0.49115  1
 Al  Al13  1  0.58697  0.91303  0.91303  1
 Al  Al14  1  0.60925  0.27266  0.50885  1
 Al  Al15  1  0.79613  0.51205  0.89568  1
 Al  Al16  1  0.07869  0.09260  0.75002  1
 Ce  Ce1  1  0.77298  0.22702  0.22702  1
 Ce  Ce2  1  0.22702  0.77298  0.77298  1
 Pt  Pt1  1  0.66032  0.65487  0.02449  1
 Pt  Pt2  1  0.00000  0.00000  0.00000  1
 Pt  Pt3  1  0.12663  0.37337  0.37337  1
 Pt  Pt4  1  0.50000  0.74209  0.25791  1
 Pt  Pt5  1  0.87337  0.62663  0.62663  1
 Pt  Pt6  1  0.66032  0.02449  0.65487  1
 Pt  Pt7  1  0.33968  0.34513  0.97551  1
 Pt  Pt8  1  0.50000  0.25791  0.74209  1
 Pt  Pt9  1  0.33968  0.97551  0.34513  1
