CIF file written using JARVIS-Tools package.
data_Fe2SiO4
_symmetry_space_group_name_H-M  'Pnma'
_cell_length_a       4.92778
_cell_length_b       6.00787
_cell_length_c       10.301
_cell_angle_alpha    90
_cell_angle_beta     90
_cell_angle_gamma    90

_symmetry_Int_Tables_number  62
_chemical_formula_structural  Fe2SiO4
_chemical_formula_sum  Fe8Si4O6
_cell_volume  304.9650078151105
_cell_formula_units_Z  4
loop_
  _symmetry_equiv_pos_site_id
 _symmetry_equiv_pos_as_xyz
 1  'x, y, z'
loop_
 _atom_site_type_symbol
 _atom_site_label
 _atom_site_symmetry_multiplicity
 _atom_site_fract_x
 _atom_site_fract_y
 _atom_site_fract_z
 _atom_site_fract_occupancy
 Fe  Fe1  1  0.00000  0.00000  0.00000  1
 Fe  Fe2  1  0.00000  0.50000  0.00000  1
 Fe  Fe3  1  0.50000  0.50000  0.50000  1
 Fe  Fe4  1  0.01580  0.75000  0.72600  1
 Fe  Fe5  1  0.51580  0.25000  0.77400  1
 Fe  Fe6  1  0.98420  0.25000  0.27400  1
 Fe  Fe7  1  0.48420  0.75000  0.22600  1
 Fe  Fe8  1  0.50000  0.00000  0.50000  1
 O  O1  1  0.71570  0.96690  0.83380  1
 O  O2  1  0.21570  0.03310  0.66620  1
 O  O3  1  0.28430  0.46690  0.16620  1
 O  O4  1  0.71570  0.53310  0.83380  1
 O  O5  1  0.28430  0.03310  0.16620  1
 O  O6  1  0.78430  0.96690  0.33380  1
 O  O7  1  0.79682  0.75000  0.55309  1
 O  O8  1  0.78430  0.53310  0.33380  1
 O  O9  1  0.29682  0.25000  0.94691  1
 O  O10  1  0.76212  0.25000  0.09405  1
 O  O11  1  0.70318  0.75000  0.05309  1
 O  O12  1  0.21570  0.46690  0.66620  1
 O  O13  1  0.23788  0.75000  0.90595  1
 O  O14  1  0.26212  0.75000  0.40595  1
 O  O15  1  0.20318  0.25000  0.44691  1
 O  O16  1  0.73788  0.25000  0.59405  1
 Si  Si1  1  0.93045  0.75000  0.40440  1
 Si  Si2  1  0.43045  0.25000  0.09560  1
 Si  Si3  1  0.06955  0.25000  0.59560  1
 Si  Si4  1  0.56955  0.75000  0.90440  1
