CIF file written using JARVIS-Tools package.
data_Ba14Na14LiN6
_symmetry_space_group_name_H-M  'Fm-3m'
_cell_length_a       12.3852
_cell_length_b       12.3852
_cell_length_c       12.3852
_cell_angle_alpha    60
_cell_angle_beta     60
_cell_angle_gamma    60

_symmetry_Int_Tables_number  225
_chemical_formula_structural  Ba14Na14LiN6
_chemical_formula_sum  Ba4Na4LiN6
_cell_volume  1343.3704353933433
_cell_formula_units_Z  1
loop_
  _symmetry_equiv_pos_site_id
 _symmetry_equiv_pos_as_xyz
 1  'x, y, z'
loop_
 _atom_site_type_symbol
 _atom_site_label
 _atom_site_symmetry_multiplicity
 _atom_site_fract_x
 _atom_site_fract_y
 _atom_site_fract_z
 _atom_site_fract_occupancy
 Ba  Ba1  1  0.31545  0.89485  0.89485  1
 Ba  Ba2  1  0.70688  0.70688  0.29312  1
 Ba  Ba3  1  0.89485  0.89485  0.89485  1
 Ba  Ba4  1  0.29312  0.70688  0.70688  1
 Ba  Ba5  1  0.29312  0.70688  0.29312  1
 Ba  Ba6  1  0.89485  0.31545  0.89485  1
 Ba  Ba7  1  0.70688  0.29312  0.70688  1
 Ba  Ba8  1  0.29312  0.29312  0.70688  1
 Ba  Ba9  1  0.70688  0.29312  0.29312  1
 Ba  Ba10  1  0.10515  0.10515  0.10515  1
 Ba  Ba11  1  0.68455  0.10515  0.10515  1
 Ba  Ba12  1  0.10515  0.10515  0.68455  1
 Ba  Ba13  1  0.10515  0.68455  0.10515  1
 Ba  Ba14  1  0.89485  0.89485  0.31545  1
 Li  Li1  1  0.00000  0.00000  0.00000  1
 N  N1  1  0.14975  0.14975  0.85025  1
 N  N2  1  0.85025  0.14975  0.85025  1
 N  N3  1  0.85025  0.85025  0.14975  1
 N  N4  1  0.85025  0.14975  0.14975  1
 N  N5  1  0.14975  0.85025  0.14975  1
 N  N6  1  0.14975  0.85025  0.85025  1
 Na  Na1  1  0.01315  0.32895  0.32895  1
 Na  Na2  1  0.32895  0.01315  0.32895  1
 Na  Na3  1  0.98685  0.67105  0.67105  1
 Na  Na4  1  0.67105  0.67105  0.67105  1
 Na  Na5  1  0.50000  0.00000  0.50000  1
 Na  Na6  1  0.32895  0.32895  0.01315  1
 Na  Na7  1  0.67105  0.98685  0.67105  1
 Na  Na8  1  0.67105  0.67105  0.98685  1
 Na  Na9  1  0.50000  0.50000  -0.00000  1
 Na  Na10  1  0.50000  0.00000  -0.00000  1
 Na  Na11  1  0.00000  0.00000  0.50000  1
 Na  Na12  1  0.00000  0.50000  0.50000  1
 Na  Na13  1  0.32895  0.32895  0.32895  1
 Na  Na14  1  0.00000  0.50000  -0.00000  1
