CIF file written using JARVIS-Tools package.
data_Ag2F5
_symmetry_space_group_name_H-M  'P-1'
_cell_length_a       4.87036
_cell_length_b       7.46406
_cell_length_c       11.114
_cell_angle_alpha    89.0633
_cell_angle_beta     90.7574
_cell_angle_gamma    105.847

_symmetry_Int_Tables_number  2
_chemical_formula_structural  Ag2F5
_chemical_formula_sum  Ag8F20
_cell_volume  388.6003430674932
_cell_formula_units_Z  4
loop_
  _symmetry_equiv_pos_site_id
 _symmetry_equiv_pos_as_xyz
 1  'x, y, z'
loop_
 _atom_site_type_symbol
 _atom_site_label
 _atom_site_symmetry_multiplicity
 _atom_site_fract_x
 _atom_site_fract_y
 _atom_site_fract_z
 _atom_site_fract_occupancy
 Ag  Ag1  1  0.50000  0.50000  -0.00000  1
 Ag  Ag2  1  0.50000  0.00000  0.50000  1
 Ag  Ag3  1  0.06094  0.72139  0.25000  1
 Ag  Ag4  1  0.93906  0.27861  0.75000  1
 Ag  Ag5  1  0.50000  -0.00000  0.00000  1
 Ag  Ag6  1  0.50000  0.50000  0.50000  1
 Ag  Ag7  1  0.05518  0.20887  0.23324  1
 Ag  Ag8  1  0.94482  0.79113  0.76676  1
 F  F1  1  0.94075  0.97226  0.14460  1
 F  F2  1  0.00197  0.06642  0.38295  1
 F  F3  1  0.48079  0.83956  0.86044  1
 F  F4  1  0.41012  0.73422  0.57209  1
 F  F5  1  0.66524  0.23502  0.90681  1
 F  F6  1  0.58988  0.26578  0.42791  1
 F  F7  1  0.05925  0.02774  0.85540  1
 F  F8  1  0.33476  0.76498  0.09319  1
 F  F9  1  0.51921  0.16044  0.13956  1
 F  F10  1  0.17897  0.44735  0.31848  1
 F  F11  1  0.71518  0.55385  0.16051  1
 F  F12  1  0.82846  0.66595  0.40975  1
 F  F13  1  0.57725  0.12195  0.66268  1
 F  F14  1  0.28482  0.44615  0.83949  1
 F  F15  1  0.82103  0.55265  0.68152  1
 F  F16  1  0.10735  0.35300  0.07872  1
 F  F17  1  0.89265  0.64700  0.92128  1
 F  F18  1  0.17154  0.33405  0.59025  1
 F  F19  1  0.42275  0.87805  0.33732  1
 F  F20  1  -0.00197  0.93358  0.61705  1
