CIF file written using JARVIS-Tools package.
data_Mo3WSe6S2
_symmetry_space_group_name_H-M  'P3m1'
_cell_length_a       3.29213
_cell_length_b       3.29214
_cell_length_c       34.9783
_cell_angle_alpha    90.0003
_cell_angle_beta     90
_cell_angle_gamma    120

_symmetry_Int_Tables_number  156
_chemical_formula_structural  Mo3WSe6S2
_chemical_formula_sum  Mo3WSe6S2
_cell_volume  328.3104878363655
_cell_formula_units_Z  1
loop_
  _symmetry_equiv_pos_site_id
 _symmetry_equiv_pos_as_xyz
 1  'x, y, z'
loop_
 _atom_site_type_symbol
 _atom_site_label
 _atom_site_symmetry_multiplicity
 _atom_site_fract_x
 _atom_site_fract_y
 _atom_site_fract_z
 _atom_site_fract_occupancy
 Mo  Mo1  1  0.33332  0.66664  0.09667  1
 Mo  Mo2  1  0.66666  0.33331  0.27911  1
 Mo  Mo3  1  0.66669  0.33339  0.65843  1
 S  S1  1  0.66664  0.33329  0.05281  1
 S  S2  1  0.66666  0.33333  0.14058  1
 Se  Se1  1  0.33332  0.66665  0.32730  1
 Se  Se2  1  0.33336  0.66672  0.70657  1
 Se  Se3  1  0.66666  0.33331  0.42023  1
 Se  Se4  1  0.66668  0.33335  0.51719  1
 Se  Se5  1  0.33332  0.66664  0.23092  1
 Se  Se6  1  0.33336  0.66671  0.61022  1
 W  W1  1  0.33333  0.66666  0.46871  1
