CIF file written using JARVIS-Tools package.
data_SrV4Bi6O20
_symmetry_space_group_name_H-M  'P-1'
_cell_length_a       7.14398
_cell_length_b       7.97174
_cell_length_c       9.33418
_cell_angle_alpha    106.172
_cell_angle_beta     94.8321
_cell_angle_gamma    112.004

_symmetry_Int_Tables_number  2
_chemical_formula_structural  SrV4Bi6O20
_chemical_formula_sum  SrV4Bi6O20
_cell_volume  462.62074607063073
_cell_formula_units_Z  1
loop_
  _symmetry_equiv_pos_site_id
 _symmetry_equiv_pos_as_xyz
 1  'x, y, z'
loop_
 _atom_site_type_symbol
 _atom_site_label
 _atom_site_symmetry_multiplicity
 _atom_site_fract_x
 _atom_site_fract_y
 _atom_site_fract_z
 _atom_site_fract_occupancy
 Bi  Bi1  1  0.43112  0.29600  0.08269  1
 Bi  Bi2  1  0.56888  0.70400  0.91731  1
 Bi  Bi3  1  0.19179  0.21484  0.66942  1
 Bi  Bi4  1  0.80821  0.78516  0.33058  1
 Bi  Bi5  1  0.65742  0.37045  0.48784  1
 Bi  Bi6  1  0.34258  0.62955  0.51216  1
 O  O1  1  0.94198  0.69911  0.56374  1
 O  O2  1  0.64669  0.19003  0.92663  1
 O  O3  1  0.35331  0.80997  0.07337  1
 O  O4  1  0.05802  0.30089  0.43626  1
 O  O5  1  0.15603  0.02433  0.83365  1
 O  O6  1  0.45717  0.11580  0.62607  1
 O  O7  1  0.36568  0.13246  0.31312  1
 O  O8  1  0.75836  0.31133  0.24285  1
 O  O9  1  0.54283  0.88420  0.37393  1
 O  O10  1  0.84397  0.97567  0.16635  1
 O  O11  1  0.54748  0.52824  0.36383  1
 O  O12  1  0.45252  0.47176  0.63617  1
 O  O13  1  0.13035  0.33606  0.15082  1
 O  O14  1  0.67599  0.58473  0.10004  1
 O  O15  1  0.88686  0.26081  0.72057  1
 O  O16  1  0.32401  0.41527  0.89996  1
 O  O17  1  0.86965  0.66394  0.84918  1
 O  O18  1  0.63432  0.86754  0.68688  1
 O  O19  1  0.11314  0.73919  0.27943  1
 O  O20  1  0.24164  0.68867  0.75715  1
 Sr  Sr1  1  0.00000  0.50000  -0.00000  1
 V  V1  1  0.34735  0.89797  0.26173  1
 V  V2  1  0.94790  0.22427  0.24408  1
 V  V3  1  0.65265  0.10203  0.73827  1
 V  V4  1  0.05210  0.77573  0.75592  1
