CIF file written using JARVIS-Tools package.
data_Li4Mn3Cr3O12
_symmetry_space_group_name_H-M  'F222'
_cell_length_a       5.19451
_cell_length_b       5.19456
_cell_length_c       8.78719
_cell_angle_alpha    99.8631
_cell_angle_beta     80.138
_cell_angle_gamma    65.1321

_symmetry_Int_Tables_number  22
_chemical_formula_structural  Li4Mn3Cr3O12
_chemical_formula_sum  Li4Mn3Cr3O2
_cell_volume  203.9395613792956
_cell_formula_units_Z  1
loop_
  _symmetry_equiv_pos_site_id
 _symmetry_equiv_pos_as_xyz
 1  'x, y, z'
loop_
 _atom_site_type_symbol
 _atom_site_label
 _atom_site_symmetry_multiplicity
 _atom_site_fract_x
 _atom_site_fract_y
 _atom_site_fract_z
 _atom_site_fract_occupancy
 Cr  Cr1  1  0.08467  0.41532  0.83065  1
 Cr  Cr2  1  0.41532  0.08467  0.16935  1
 Cr  Cr3  1  0.75000  0.75000  0.50000  1
 Li  Li1  1  0.16966  0.83020  0.66056  1
 Li  Li2  1  0.83020  0.16967  0.33944  1
 Li  Li3  1  0.58009  0.92000  0.83989  1
 Li  Li4  1  0.92000  0.58009  0.16011  1
 Mn  Mn1  1  -0.00000  0.00000  -0.00000  1
 Mn  Mn2  1  0.33605  0.66397  0.32793  1
 Mn  Mn3  1  0.66397  0.33605  0.67207  1
 O  O1  1  0.87437  0.56672  0.67379  1
 O  O2  1  0.10710  0.45186  0.32622  1
 O  O3  1  0.17598  0.87277  0.16810  1
 O  O4  1  0.45186  0.10710  0.67378  1
 O  O5  1  0.21836  0.21835  0.00000  1
 O  O6  1  0.87277  0.17598  0.83190  1
 O  O7  1  0.52558  0.52558  0.50000  1
 O  O8  1  0.56672  0.87437  0.32621  1
 O  O9  1  0.78164  0.78164  -0.00000  1
 O  O10  1  0.29532  0.65592  0.83191  1
 O  O11  1  0.65591  0.29532  0.16809  1
 O  O12  1  0.97442  0.97442  0.50000  1
