CIF file written using JARVIS-Tools package.
data_LiSbF6
_symmetry_space_group_name_H-M  'R-3'
_cell_length_a       5.43215
_cell_length_b       5.43215
_cell_length_c       5.43215
_cell_angle_alpha    55.2465
_cell_angle_beta     55.2465
_cell_angle_gamma    55.2464

_symmetry_Int_Tables_number  148
_chemical_formula_structural  LiSbF6
_chemical_formula_sum  LiSbF6
_cell_volume  100.82130243473797
_cell_formula_units_Z  1
loop_
  _symmetry_equiv_pos_site_id
 _symmetry_equiv_pos_as_xyz
 1  'x, y, z'
loop_
 _atom_site_type_symbol
 _atom_site_label
 _atom_site_symmetry_multiplicity
 _atom_site_fract_x
 _atom_site_fract_y
 _atom_site_fract_z
 _atom_site_fract_occupancy
 F  F1  1  0.62326  0.89128  0.24301  1
 F  F2  1  0.89128  0.24301  0.62326  1
 F  F3  1  0.75699  0.37674  0.10872  1
 F  F4  1  0.24301  0.62326  0.89128  1
 F  F5  1  0.10872  0.75699  0.37674  1
 F  F6  1  0.37674  0.10872  0.75699  1
 Li  Li1  1  0.50000  0.50000  0.50000  1
 Sb  Sb1  1  0.00000  0.00000  0.00000  1
