CIF file written using JARVIS-Tools package.
data_KMoP2O8
_symmetry_space_group_name_H-M  'P2_1/c'
_cell_length_a       5.08459
_cell_length_b       11.403
_cell_length_c       11.7617
_cell_angle_alpha    90
_cell_angle_beta     90
_cell_angle_gamma    90.1742

_symmetry_Int_Tables_number  14
_chemical_formula_structural  KMoP2O8
_chemical_formula_sum  K4Mo4P8O32
_cell_volume  681.9365422370998
_cell_formula_units_Z  4
loop_
  _symmetry_equiv_pos_site_id
 _symmetry_equiv_pos_as_xyz
 1  'x, y, z'
loop_
 _atom_site_type_symbol
 _atom_site_label
 _atom_site_symmetry_multiplicity
 _atom_site_fract_x
 _atom_site_fract_y
 _atom_site_fract_z
 _atom_site_fract_occupancy
 K  K1  1  0.71766  0.06121  0.63338  1
 K  K2  1  0.78234  0.43879  0.13338  1
 K  K3  1  0.28234  0.93879  0.36662  1
 K  K4  1  0.21766  0.56121  0.86662  1
 Mo  Mo1  1  0.74146  0.83291  0.87840  1
 Mo  Mo2  1  0.75854  0.66709  0.37840  1
 Mo  Mo3  1  0.25854  0.16709  0.12160  1
 Mo  Mo4  1  0.24146  0.33291  0.62160  1
 O  O1  1  0.27826  0.92552  0.58592  1
 O  O2  1  0.28778  0.71771  0.67441  1
 O  O3  1  0.57812  0.30878  0.53215  1
 O  O4  1  0.71222  0.28229  0.32559  1
 O  O5  1  0.78778  0.21771  0.82559  1
 O  O6  1  0.44720  0.36490  0.76584  1
 O  O7  1  0.05280  0.13510  0.26584  1
 O  O8  1  0.55280  0.63510  0.23416  1
 O  O9  1  0.42188  0.69122  0.46785  1
 O  O10  1  0.57582  0.10892  0.20940  1
 O  O11  1  0.92188  0.19122  0.03215  1
 O  O12  1  0.54576  0.84557  0.02863  1
 O  O13  1  0.07812  0.80878  0.96785  1
 O  O14  1  0.31557  0.51718  0.59879  1
 O  O15  1  0.18443  0.98282  0.09879  1
 O  O16  1  0.68443  0.48282  0.40121  1
 O  O17  1  0.81557  0.01718  0.90121  1
 O  O18  1  0.94720  0.86490  0.73416  1
 O  O19  1  0.07582  0.60892  0.29060  1
 O  O20  1  0.81116  0.81122  0.35604  1
 O  O21  1  0.18884  0.18878  0.64396  1
 O  O22  1  0.42418  0.89108  0.79060  1
 O  O23  1  0.45424  0.15443  0.97137  1
 O  O24  1  0.04576  0.34557  0.47137  1
 O  O25  1  0.77826  0.42552  0.91408  1
 O  O26  1  0.95424  0.65443  0.52863  1
 O  O27  1  0.22174  0.57448  0.08592  1
 O  O28  1  0.68884  0.68878  0.85604  1
 O  O29  1  0.21222  0.78229  0.17441  1
 O  O30  1  0.31116  0.31122  0.14396  1
 O  O31  1  0.72174  0.07448  0.41408  1
 O  O32  1  0.92418  0.39108  0.70940  1
 P  P1  1  0.23577  0.85822  0.69281  1
 P  P2  1  0.73577  0.35822  0.80719  1
 P  P3  1  0.76423  0.14178  0.30719  1
 P  P4  1  0.26423  0.64178  0.19281  1
 P  P5  1  0.24556  0.63936  0.56104  1
 P  P6  1  0.74556  0.13936  0.93896  1
 P  P7  1  0.75444  0.36064  0.43896  1
 P  P8  1  0.25444  0.86064  0.06104  1
