CIF file written using JARVIS-Tools package.
data_Na2Si2Se5
_symmetry_space_group_name_H-M  'Cmcm'
_cell_length_a       9.40729
_cell_length_b       9.40728
_cell_length_c       10.9108
_cell_angle_alpha    90
_cell_angle_beta     90
_cell_angle_gamma    90.7604

_symmetry_Int_Tables_number  63
_chemical_formula_structural  Na2Si2Se5
_chemical_formula_sum  Na8Si8Se20
_cell_volume  965.4932753318112
_cell_formula_units_Z  4
loop_
  _symmetry_equiv_pos_site_id
 _symmetry_equiv_pos_as_xyz
 1  'x, y, z'
loop_
 _atom_site_type_symbol
 _atom_site_label
 _atom_site_symmetry_multiplicity
 _atom_site_fract_x
 _atom_site_fract_y
 _atom_site_fract_z
 _atom_site_fract_occupancy
 Na  Na1  1  0.07331  0.41763  0.75000  1
 Na  Na2  1  0.92669  0.58237  0.25000  1
 Na  Na3  1  0.41763  0.07331  0.75000  1
 Na  Na4  1  0.58237  0.92669  0.25000  1
 Na  Na5  1  0.14902  0.85098  0.50000  1
 Na  Na6  1  0.85098  0.14902  0.00000  1
 Na  Na7  1  0.85098  0.14902  0.50000  1
 Na  Na8  1  0.14902  0.85098  0.00000  1
 Se  Se1  1  0.79141  0.50337  0.57535  1
 Se  Se2  1  0.15025  0.15025  0.25000  1
 Se  Se3  1  0.17854  0.72561  0.75000  1
 Se  Se4  1  0.15567  0.15567  0.91472  1
 Se  Se5  1  0.84433  0.84433  0.41472  1
 Se  Se6  1  0.27439  0.82146  0.25000  1
 Se  Se7  1  0.84433  0.84433  0.08528  1
 Se  Se8  1  0.72561  0.17854  0.75000  1
 Se  Se9  1  0.49663  0.20859  0.42465  1
 Se  Se10  1  0.44096  0.44096  0.75000  1
 Se  Se11  1  0.82146  0.27439  0.25000  1
 Se  Se12  1  0.15567  0.15567  0.58528  1
 Se  Se13  1  0.50337  0.79141  0.92465  1
 Se  Se14  1  0.49663  0.20859  0.07535  1
 Se  Se15  1  0.20859  0.49663  0.42465  1
 Se  Se16  1  0.50337  0.79141  0.57535  1
 Se  Se17  1  0.84975  0.84975  0.75000  1
 Se  Se18  1  0.20859  0.49663  0.07535  1
 Se  Se19  1  0.79141  0.50337  0.92465  1
 Se  Se20  1  0.55904  0.55904  0.25000  1
 Si  Si1  1  0.58963  0.31732  0.25000  1
 Si  Si2  1  0.68268  0.41037  0.75000  1
 Si  Si3  1  0.31732  0.58963  0.25000  1
 Si  Si4  1  0.41037  0.68268  0.75000  1
 Si  Si5  1  0.74571  0.74571  0.91938  1
 Si  Si6  1  0.25429  0.25429  0.41938  1
 Si  Si7  1  0.74571  0.74571  0.58062  1
 Si  Si8  1  0.25429  0.25429  0.08062  1
