CIF file written using JARVIS-Tools package.
data_FeOF
_symmetry_space_group_name_H-M  'R3'
_cell_length_a       4.83949
_cell_length_b       5.45866
_cell_length_c       4.83949
_cell_angle_alpha    116.314
_cell_angle_beta     59.9999
_cell_angle_gamma    116.314

_symmetry_Int_Tables_number  146
_chemical_formula_structural  FeOF
_chemical_formula_sum  Fe3O3F3
_cell_volume  95.1136804079543
_cell_formula_units_Z  3
loop_
  _symmetry_equiv_pos_site_id
 _symmetry_equiv_pos_as_xyz
 1  'x, y, z'
loop_
 _atom_site_type_symbol
 _atom_site_label
 _atom_site_symmetry_multiplicity
 _atom_site_fract_x
 _atom_site_fract_y
 _atom_site_fract_z
 _atom_site_fract_occupancy
 F  F1  1  0.27202  0.76118  0.93223  1
 F  F2  1  0.55693  0.76118  0.27202  1
 F  F3  1  0.93223  0.76118  0.55693  1
 Fe  Fe1  1  0.14323  0.42968  0.14323  1
 Fe  Fe2  1  0.34703  0.04108  0.34703  1
 Fe  Fe3  1  0.67396  0.02187  0.67396  1
 O  O1  1  0.06986  0.22341  0.42260  1
 O  O2  1  0.42260  0.22341  0.73095  1
 O  O3  1  0.73095  0.22341  0.06986  1
