CIF file written using JARVIS-Tools package.
data_FeH8Cl2O4
_symmetry_space_group_name_H-M  'P2_1/c'
_cell_length_a       5.85139
_cell_length_b       6.90661
_cell_length_c       8.40923
_cell_angle_alpha    90
_cell_angle_beta     110.96
_cell_angle_gamma    90

_symmetry_Int_Tables_number  14
_chemical_formula_structural  FeH8Cl2O4
_chemical_formula_sum  Fe2H6Cl4O8
_cell_volume  317.35706993719276
_cell_formula_units_Z  2
loop_
  _symmetry_equiv_pos_site_id
 _symmetry_equiv_pos_as_xyz
 1  'x, y, z'
loop_
 _atom_site_type_symbol
 _atom_site_label
 _atom_site_symmetry_multiplicity
 _atom_site_fract_x
 _atom_site_fract_y
 _atom_site_fract_z
 _atom_site_fract_occupancy
 Cl  Cl1  1  0.32314  0.23738  0.58027  1
 Cl  Cl2  1  0.67686  0.73738  0.91973  1
 Cl  Cl3  1  0.67686  0.76262  0.41973  1
 Cl  Cl4  1  0.32314  0.26262  0.08027  1
 Fe  Fe1  1  -0.00000  0.50000  0.50000  1
 Fe  Fe2  1  0.00000  0.00000  0.00000  1
 H  H1  1  0.89051  0.92662  0.29340  1
 H  H2  1  0.11268  0.42691  0.84803  1
 H  H3  1  0.88732  0.92691  0.65197  1
 H  H4  1  0.11268  0.07309  0.34803  1
 H  H5  1  0.89051  0.57338  0.79340  1
 H  H6  1  0.88732  0.57309  0.15197  1
 H  H7  1  0.10949  0.42662  0.20660  1
 H  H8  1  0.37042  0.77090  -0.00105  1
 H  H9  1  0.10949  0.07338  0.70660  1
 H  H10  1  0.62958  0.22910  0.00105  1
 H  H11  1  0.37214  0.77457  0.18526  1
 H  H12  1  0.62958  0.27090  0.50105  1
 H  H13  1  0.62786  0.22543  0.81474  1
 H  H14  1  0.37214  0.72543  0.68526  1
 H  H15  1  0.37042  0.72910  0.49895  1
 H  H16  1  0.62786  0.27457  0.31474  1
 O  O1  1  0.73951  0.21940  0.93515  1
 O  O2  1  0.73951  0.28060  0.43515  1
 O  O3  1  0.00136  0.50046  0.75021  1
 O  O4  1  0.99864  0.00046  0.74979  1
 O  O5  1  0.99864  0.49954  0.24979  1
 O  O6  1  0.00136  0.99954  0.25021  1
 O  O7  1  0.26049  0.71940  0.56485  1
 O  O8  1  0.26049  0.78060  0.06485  1
