CIF file written using JARVIS-Tools package.
data_K4MnMo4O15
_symmetry_space_group_name_H-M  'P-3'
_cell_length_a       10.3733
_cell_length_b       10.3733
_cell_length_c       8.06669
_cell_angle_alpha    90
_cell_angle_beta     90
_cell_angle_gamma    120

_symmetry_Int_Tables_number  147
_chemical_formula_structural  K4MnMo4O15
_chemical_formula_sum  K8Mn2Mo8O30
_cell_volume  751.7200415853636
_cell_formula_units_Z  2
loop_
  _symmetry_equiv_pos_site_id
 _symmetry_equiv_pos_as_xyz
 1  'x, y, z'
loop_
 _atom_site_type_symbol
 _atom_site_label
 _atom_site_symmetry_multiplicity
 _atom_site_fract_x
 _atom_site_fract_y
 _atom_site_fract_z
 _atom_site_fract_occupancy
 K  K1  1  0.91238  0.61150  0.13395  1
 K  K2  1  0.38850  0.30089  0.13395  1
 K  K3  1  0.08762  0.38850  0.86605  1
 K  K4  1  0.61150  0.69911  0.86605  1
 K  K5  1  0.00000  0.00000  0.00000  1
 K  K6  1  0.30089  0.91238  0.86605  1
 K  K7  1  0.69911  0.08762  0.13395  1
 K  K8  1  0.00000  0.00000  0.50000  1
 Mn  Mn1  1  0.66667  0.33333  0.45800  1
 Mn  Mn2  1  0.33333  0.66667  0.54200  1
 Mo  Mo1  1  0.65986  0.67588  0.36109  1
 Mo  Mo2  1  0.01602  0.34014  0.36109  1
 Mo  Mo3  1  0.33333  0.66667  0.14321  1
 Mo  Mo4  1  0.67588  0.01602  0.63891  1
 Mo  Mo5  1  0.66667  0.33333  0.85679  1
 Mo  Mo6  1  0.32412  0.98398  0.36109  1
 Mo  Mo7  1  0.98398  0.65986  0.63891  1
 Mo  Mo8  1  0.34014  0.32412  0.63891  1
 O  O1  1  0.48050  0.66819  0.34452  1
 O  O2  1  0.99210  0.73065  0.44041  1
 O  O3  1  0.81231  0.48050  0.65548  1
 O  O4  1  0.50751  0.14342  0.33494  1
 O  O5  1  0.78228  0.79106  0.20443  1
 O  O6  1  0.49249  0.85658  0.66506  1
 O  O7  1  0.18769  0.51950  0.34452  1
 O  O8  1  0.66819  0.18769  0.65548  1
 O  O9  1  0.52087  0.17450  0.95004  1
 O  O10  1  0.21772  0.20894  0.79557  1
 O  O11  1  0.47913  0.82550  0.04996  1
 O  O12  1  0.85658  0.36409  0.33494  1
 O  O13  1  0.33181  0.81231  0.34452  1
 O  O14  1  0.26935  0.26145  0.44041  1
 O  O15  1  0.26145  0.99210  0.55959  1
 O  O16  1  0.00878  0.21772  0.20443  1
 O  O17  1  0.17450  0.65363  0.04996  1
 O  O18  1  0.73065  0.73855  0.55959  1
 O  O19  1  0.73855  0.00790  0.44041  1
 O  O20  1  0.51950  0.33181  0.65548  1
 O  O21  1  0.82550  0.34637  0.95004  1
 O  O22  1  0.79106  0.00878  0.79557  1
 O  O23  1  0.65363  0.47913  0.95004  1
 O  O24  1  0.14342  0.63591  0.66506  1
 O  O25  1  0.20894  0.99122  0.20443  1
 O  O26  1  0.00790  0.26935  0.55959  1
 O  O27  1  0.63591  0.49249  0.33494  1
 O  O28  1  0.36409  0.50751  0.66506  1
 O  O29  1  0.34637  0.52087  0.04996  1
 O  O30  1  0.99122  0.78228  0.79557  1
