# generated using pymatgen
data_Nd2Ge2Ir
_symmetry_space_group_name_H-M   'P 1'
_cell_length_a   5.96707294
_cell_length_b   5.96707294
_cell_length_c   10.15422385
_cell_angle_alpha   89.12676250
_cell_angle_beta   89.12676250
_cell_angle_gamma   41.86262861
_symmetry_Int_Tables_number   1
_chemical_formula_structural   Nd2Ge2Ir
_chemical_formula_sum   'Nd4 Ge4 Ir2'
_cell_volume   241.24775080
_cell_formula_units_Z   2
loop_
 _symmetry_equiv_pos_site_id
 _symmetry_equiv_pos_as_xyz
  1  'x, y, z'
loop_
 _atom_site_type_symbol
 _atom_site_label
 _atom_site_symmetry_multiplicity
 _atom_site_fract_x
 _atom_site_fract_y
 _atom_site_fract_z
 _atom_site_occupancy
  Nd  Nd0  1  0.70385000  0.70385000  0.30247000  1
  Nd  Nd1  1  0.29615000  0.29615000  0.69753000  1
  Nd  Nd2  1  0.13613900  0.13613900  0.03453800  1
  Nd  Nd3  1  0.86386100  0.86386100  0.96546200  1
  Ge  Ge4  1  0.57499200  0.57499200  0.82260600  1
  Ge  Ge5  1  0.42500800  0.42500800  0.17739400  1
  Ge  Ge6  1  0.88450500  0.88450500  0.50643200  1
  Ge  Ge7  1  0.11549500  0.11549500  0.49356800  1
  Ir  Ir8  1  0.00318900  0.00318900  0.71455000  1
  Ir  Ir9  1  0.99681100  0.99681100  0.28545000  1
