CIF file written using JARVIS-Tools package.
data_LiFeF3
_symmetry_space_group_name_H-M  'Cmcm'
_cell_length_a       2.80755
_cell_length_b       4.98538
_cell_length_c       7.25251
_cell_angle_alpha    90
_cell_angle_beta     90
_cell_angle_gamma    106.354

_symmetry_Int_Tables_number  63
_chemical_formula_structural  LiFeF3
_chemical_formula_sum  Li2Fe2F6
_cell_volume  97.40378439231876
_cell_formula_units_Z  2
loop_
  _symmetry_equiv_pos_site_id
 _symmetry_equiv_pos_as_xyz
 1  'x, y, z'
loop_
 _atom_site_type_symbol
 _atom_site_label
 _atom_site_symmetry_multiplicity
 _atom_site_fract_x
 _atom_site_fract_y
 _atom_site_fract_z
 _atom_site_fract_occupancy
 F  F1  1  0.09470  0.18941  0.75000  1
 F  F2  1  0.36069  0.72139  0.57271  1
 F  F3  1  0.36069  0.72139  0.92729  1
 F  F4  1  0.63931  0.27861  0.42729  1
 F  F5  1  0.90530  0.81059  0.25000  1
 F  F6  1  0.63931  0.27861  0.07271  1
 Fe  Fe1  1  0.24457  0.48913  0.25000  1
 Fe  Fe2  1  0.75543  0.51087  0.75000  1
 Li  Li1  1  0.00000  0.00000  0.00000  1
 Li  Li2  1  0.00000  0.00000  0.50000  1
