CIF file written using JARVIS-Tools package.
data_LiAgF2
_symmetry_space_group_name_H-M  'P6_3/mmc'
_cell_length_a       2.97772
_cell_length_b       2.9775
_cell_length_c       11.5834
_cell_angle_alpha    89.9982
_cell_angle_beta     90.003
_cell_angle_gamma    59.9998

_symmetry_Int_Tables_number  194
_chemical_formula_structural  LiAgF2
_chemical_formula_sum  Li2Ag2F4
_cell_volume  88.94120446824012
_cell_formula_units_Z  2
loop_
  _symmetry_equiv_pos_site_id
 _symmetry_equiv_pos_as_xyz
 1  'x, y, z'
loop_
 _atom_site_type_symbol
 _atom_site_label
 _atom_site_symmetry_multiplicity
 _atom_site_fract_x
 _atom_site_fract_y
 _atom_site_fract_z
 _atom_site_fract_occupancy
 Ag  Ag1  1  0.66663  0.66671  0.25000  1
 Ag  Ag2  1  0.33337  0.33335  0.75000  1
 F  F1  1  0.33332  0.33335  0.09452  1
 F  F2  1  0.66668  0.66666  0.59452  1
 F  F3  1  0.66666  0.66669  0.90548  1
 F  F4  1  0.33334  0.33338  0.40548  1
 Li  Li1  1  -0.00000  0.00003  0.00000  1
 Li  Li2  1  0.00000  0.00002  0.50000  1
