CIF file written using JARVIS-Tools package.
data_Li3CrSiO5
_symmetry_space_group_name_H-M  'P-1'
_cell_length_a       5.02912
_cell_length_b       5.69265
_cell_length_c       6.1952
_cell_angle_alpha    76.355
_cell_angle_beta     75.9193
_cell_angle_gamma    73.3016

_symmetry_Int_Tables_number  2
_chemical_formula_structural  Li3CrSiO5
_chemical_formula_sum  Li6Cr2Si2O0
_cell_volume  162.1276078891318
_cell_formula_units_Z  2
loop_
  _symmetry_equiv_pos_site_id
 _symmetry_equiv_pos_as_xyz
 1  'x, y, z'
loop_
 _atom_site_type_symbol
 _atom_site_label
 _atom_site_symmetry_multiplicity
 _atom_site_fract_x
 _atom_site_fract_y
 _atom_site_fract_z
 _atom_site_fract_occupancy
 Cr  Cr1  1  0.89974  0.34552  0.21473  1
 Cr  Cr2  1  0.10026  0.65448  0.78527  1
 Li  Li1  1  0.50815  0.24700  0.99617  1
 Li  Li2  1  0.30600  0.44606  0.39821  1
 Li  Li3  1  0.31487  0.94778  0.39478  1
 Li  Li4  1  0.68513  0.05222  0.60522  1
 Li  Li5  1  0.69400  0.55394  0.60179  1
 Li  Li6  1  0.49185  0.75300  0.00383  1
 O  O1  1  0.99791  0.24385  0.52271  1
 O  O2  1  0.83825  0.42377  0.89432  1
 O  O3  1  0.16175  0.57623  0.10568  1
 O  O4  1  0.00209  0.75615  0.47729  1
 O  O5  1  0.15972  0.04552  0.09397  1
 O  O6  1  0.35792  0.87702  0.71523  1
 O  O7  1  0.64208  0.12298  0.28477  1
 O  O8  1  0.35527  0.33375  0.71769  1
 O  O9  1  0.84028  0.95448  0.90603  1
 O  O10  1  0.64473  0.66625  0.28231  1
 Si  Si1  1  0.10267  0.15150  0.78451  1
 Si  Si2  1  0.89733  0.84850  0.21549  1
