CIF file written using JARVIS-Tools package.
data_V6O7F5
_symmetry_space_group_name_H-M  'C2'
_cell_length_a       4.65789
_cell_length_b       4.65789
_cell_length_c       9.00935
_cell_angle_alpha    89.5942
_cell_angle_beta     90.4058
_cell_angle_gamma    92.6096

_symmetry_Int_Tables_number  5
_chemical_formula_structural  V6O7F5
_chemical_formula_sum  V6O7F5
_cell_volume  195.25425346646145
_cell_formula_units_Z  1
loop_
  _symmetry_equiv_pos_site_id
 _symmetry_equiv_pos_as_xyz
 1  'x, y, z'
loop_
 _atom_site_type_symbol
 _atom_site_label
 _atom_site_symmetry_multiplicity
 _atom_site_fract_x
 _atom_site_fract_y
 _atom_site_fract_z
 _atom_site_fract_occupancy
 F  F1  1  0.79710  0.21008  0.49798  1
 F  F2  1  0.19561  0.79736  0.83417  1
 F  F3  1  0.21008  0.79710  0.16869  1
 F  F4  1  0.79736  0.19561  0.83250  1
 F  F5  1  0.70414  0.70414  0.33333  1
 O  O1  1  0.28705  0.30053  0.66899  1
 O  O2  1  0.19154  0.80869  0.49859  1
 O  O3  1  0.31897  0.31897  0.33333  1
 O  O4  1  0.30053  0.28705  0.99768  1
 O  O5  1  0.70342  0.69455  0.99887  1
 O  O6  1  0.80869  0.19154  0.16808  1
 O  O7  1  0.69455  0.70342  0.66779  1
 V  V1  1  0.45741  0.51861  0.51268  1
 V  V2  1  0.49908  0.49908  0.83333  1
 V  V3  1  0.51861  0.45741  0.15398  1
 V  V4  1  0.00339  0.98532  0.65840  1
 V  V5  1  0.02714  0.02714  0.33333  1
 V  V6  1  0.98532  0.00339  0.00827  1
