CIF file written using JARVIS-Tools package.
data_Li4CuSi2O7
_symmetry_space_group_name_H-M  'C2'
_cell_length_a       4.48071
_cell_length_b       5.24006
_cell_length_c       6.77185
_cell_angle_alpha    80.4959
_cell_angle_beta     90
_cell_angle_gamma    64.6883

_symmetry_Int_Tables_number  5
_chemical_formula_structural  Li4CuSi2O7
_chemical_formula_sum  Li4CuSi2O7
_cell_volume  141.31476104031267
_cell_formula_units_Z  1
loop_
  _symmetry_equiv_pos_site_id
 _symmetry_equiv_pos_as_xyz
 1  'x, y, z'
loop_
 _atom_site_type_symbol
 _atom_site_label
 _atom_site_symmetry_multiplicity
 _atom_site_fract_x
 _atom_site_fract_y
 _atom_site_fract_z
 _atom_site_fract_occupancy
 Cu  Cu1  1  0.00174  0.00000  -0.00000  1
 Li  Li1  1  0.16025  0.70651  0.43524  1
 Li  Li2  1  0.71969  0.57857  0.14518  1
 Li  Li3  1  0.29826  0.42143  0.85482  1
 Li  Li4  1  0.86676  0.29349  0.56476  1
 O  O1  1  0.33233  0.89874  0.22596  1
 O  O2  1  0.86576  0.73507  0.88933  1
 O  O3  1  0.49862  0.58608  0.65471  1
 O  O4  1  0.08470  0.41392  0.34529  1
 O  O5  1  0.60084  0.26493  0.11067  1
 O  O6  1  0.23107  0.10126  0.77404  1
 O  O7  1  0.68561  -0.00000  0.50000  1
 Si  Si1  1  0.56767  0.84605  0.71055  1
 Si  Si2  1  0.41372  0.15395  0.28945  1
