CIF file written using JARVIS-Tools package.
data_HfSnRh
_symmetry_space_group_name_H-M  'P-62m'
_cell_length_a       3.60765
_cell_length_b       7.38037
_cell_length_c       7.38038
_cell_angle_alpha    120
_cell_angle_beta     90
_cell_angle_gamma    90

_symmetry_Int_Tables_number  189
_chemical_formula_structural  HfSnRh
_chemical_formula_sum  Hf3Sn3Rh3
_cell_volume  170.18139778929194
_cell_formula_units_Z  3
loop_
  _symmetry_equiv_pos_site_id
 _symmetry_equiv_pos_as_xyz
 1  'x, y, z'
loop_
 _atom_site_type_symbol
 _atom_site_label
 _atom_site_symmetry_multiplicity
 _atom_site_fract_x
 _atom_site_fract_y
 _atom_site_fract_z
 _atom_site_fract_occupancy
 Hf  Hf1  1  0.50000  0.60472  0.00000  1
 Hf  Hf2  1  0.50000  0.39527  0.39527  1
 Hf  Hf3  1  0.50000  -0.00000  0.60473  1
 Rh  Rh1  1  0.00000  0.33332  0.66667  1
 Rh  Rh2  1  0.00000  0.66665  0.33333  1
 Rh  Rh3  1  0.50000  0.99998  -0.00000  1
 Sn  Sn1  1  0.00000  0.26992  0.00000  1
 Sn  Sn2  1  0.00000  0.73006  0.73006  1
 Sn  Sn3  1  0.00000  -0.00001  0.26994  1
