CIF file written using JARVIS-Tools package.
data_Mg3In
_symmetry_space_group_name_H-M  'P6_3/mmc'
_cell_length_a       5.23303
_cell_length_b       6.31501
_cell_length_c       6.31501
_cell_angle_alpha    120
_cell_angle_beta     90
_cell_angle_gamma    90

_symmetry_Int_Tables_number  194
_chemical_formula_structural  Mg3In
_chemical_formula_sum  Mg6In2
_cell_volume  180.73119250969776
_cell_formula_units_Z  2
loop_
  _symmetry_equiv_pos_site_id
 _symmetry_equiv_pos_as_xyz
 1  'x, y, z'
loop_
 _atom_site_type_symbol
 _atom_site_label
 _atom_site_symmetry_multiplicity
 _atom_site_fract_x
 _atom_site_fract_y
 _atom_site_fract_z
 _atom_site_fract_occupancy
 In  In1  1  0.75000  0.66667  0.33333  1
 In  In2  1  0.25000  0.33333  0.66667  1
 Mg  Mg1  1  0.75000  0.16632  0.33262  1
 Mg  Mg2  1  0.75000  0.16631  0.83369  1
 Mg  Mg3  1  0.75000  0.66738  0.83368  1
 Mg  Mg4  1  0.25000  0.83368  0.66738  1
 Mg  Mg5  1  0.25000  0.83369  0.16631  1
 Mg  Mg6  1  0.25000  0.33262  0.16632  1
