CIF file written using JARVIS-Tools package.
data_Ba9Y2Si6O24
_symmetry_space_group_name_H-M  'R-3'
_cell_length_a       9.44697
_cell_length_b       9.447
_cell_length_c       9.44701
_cell_angle_alpha    64.4931
_cell_angle_beta     64.4931
_cell_angle_gamma    64.4932

_symmetry_Int_Tables_number  148
_chemical_formula_structural  Ba9Y2Si6O24
_chemical_formula_sum  Ba9Y2Si6O24
_cell_volume  654.9145754770522
_cell_formula_units_Z  1
loop_
  _symmetry_equiv_pos_site_id
 _symmetry_equiv_pos_as_xyz
 1  'x, y, z'
loop_
 _atom_site_type_symbol
 _atom_site_label
 _atom_site_symmetry_multiplicity
 _atom_site_fract_x
 _atom_site_fract_y
 _atom_site_fract_z
 _atom_site_fract_occupancy
 Ba  Ba1  1  0.00000  0.00000  0.00000  1
 Ba  Ba2  1  0.66236  0.66236  0.66236  1
 Ba  Ba3  1  0.33764  0.33764  0.33764  1
 Ba  Ba4  1  0.24899  0.55901  0.86096  1
 Ba  Ba5  1  0.55901  0.86096  0.24899  1
 Ba  Ba6  1  0.86095  0.24899  0.55901  1
 Ba  Ba7  1  0.75101  0.44099  0.13904  1
 Ba  Ba8  1  0.44099  0.13904  0.75101  1
 Ba  Ba9  1  0.13905  0.75101  0.44099  1
 O  O1  1  0.71863  0.06986  0.90549  1
 O  O2  1  0.59583  0.78490  0.95137  1
 O  O3  1  0.70818  0.94063  0.35957  1
 O  O4  1  0.78490  0.95136  0.59583  1
 O  O5  1  0.40417  0.21510  0.04863  1
 O  O6  1  0.04863  0.40418  0.21510  1
 O  O7  1  0.64043  0.29182  0.05937  1
 O  O8  1  0.35957  0.70818  0.94063  1
 O  O9  1  0.94063  0.35958  0.70817  1
 O  O10  1  0.61807  0.23178  0.42926  1
 O  O11  1  0.06985  0.90549  0.71863  1
 O  O12  1  0.05937  0.64042  0.29183  1
 O  O13  1  0.29182  0.05937  0.64043  1
 O  O14  1  0.21510  0.04864  0.40417  1
 O  O15  1  0.90549  0.71864  0.06986  1
 O  O16  1  0.57074  0.38194  0.76822  1
 O  O17  1  0.93015  0.09451  0.28137  1
 O  O18  1  0.09451  0.28136  0.93014  1
 O  O19  1  0.95137  0.59582  0.78490  1
 O  O20  1  0.38193  0.76822  0.57074  1
 O  O21  1  0.76822  0.57074  0.38193  1
 O  O22  1  0.42926  0.61806  0.23178  1
 O  O23  1  0.28137  0.93014  0.09451  1
 O  O24  1  0.23178  0.42926  0.61807  1
 Si  Si1  1  0.24553  0.94602  0.58902  1
 Si  Si2  1  0.94601  0.58902  0.24553  1
 Si  Si3  1  0.58902  0.24553  0.94601  1
 Si  Si4  1  0.75447  0.05398  0.41098  1
 Si  Si5  1  0.05399  0.41098  0.75447  1
 Si  Si6  1  0.41098  0.75447  0.05399  1
 Y  Y1  1  0.16452  0.16452  0.16452  1
 Y  Y2  1  0.83548  0.83548  0.83548  1
