CIF file written using JARVIS-Tools package.
data_Ba4HfCl
_symmetry_space_group_name_H-M  'F-43m'
_cell_length_a       7.20932
_cell_length_b       7.20932
_cell_length_c       7.20932
_cell_angle_alpha    60
_cell_angle_beta     60
_cell_angle_gamma    60

_symmetry_Int_Tables_number  216
_chemical_formula_structural  Ba4HfCl
_chemical_formula_sum  Ba4HfCl
_cell_volume  264.9523602103322
_cell_formula_units_Z  1
loop_
  _symmetry_equiv_pos_site_id
 _symmetry_equiv_pos_as_xyz
 1  'x, y, z'
loop_
 _atom_site_type_symbol
 _atom_site_label
 _atom_site_symmetry_multiplicity
 _atom_site_fract_x
 _atom_site_fract_y
 _atom_site_fract_z
 _atom_site_fract_occupancy
 Ba  Ba1  1  0.12299  0.62567  0.62567  1
 Ba  Ba2  1  0.62567  0.62567  0.62567  1
 Ba  Ba3  1  0.62567  0.12299  0.62567  1
 Ba  Ba4  1  0.62567  0.62567  0.12299  1
 Cl  Cl1  1  0.25000  0.25000  0.25000  1
 Hf  Hf1  1  0.00000  0.00000  0.00000  1
