CIF file written using JARVIS-Tools package.
data_LiMn7O12
_symmetry_space_group_name_H-M  'C2'
_cell_length_a       4.9704
_cell_length_b       4.9704
_cell_length_c       9.83549
_cell_angle_alpha    83.9018
_cell_angle_beta     96.0983
_cell_angle_gamma    59.7685

_symmetry_Int_Tables_number  5
_chemical_formula_structural  LiMn7O12
_chemical_formula_sum  LiMn7O2
_cell_volume  205.11121283476803
_cell_formula_units_Z  1
loop_
  _symmetry_equiv_pos_site_id
 _symmetry_equiv_pos_as_xyz
 1  'x, y, z'
loop_
 _atom_site_type_symbol
 _atom_site_label
 _atom_site_symmetry_multiplicity
 _atom_site_fract_x
 _atom_site_fract_y
 _atom_site_fract_z
 _atom_site_fract_occupancy
 Li  Li1  1  0.92869  0.92869  0.75000  1
 Mn  Mn1  1  0.07294  0.07294  0.25000  1
 Mn  Mn2  1  0.25486  0.25486  0.75000  1
 Mn  Mn3  1  0.41825  0.41825  0.25000  1
 Mn  Mn4  1  0.57946  0.57946  0.75000  1
 Mn  Mn5  1  0.52007  -0.00104  0.50968  1
 Mn  Mn6  1  0.74448  0.74448  0.25000  1
 Mn  Mn7  1  -0.00104  0.52007  0.99032  1
 O  O1  1  0.14418  0.34601  0.36030  1
 O  O2  1  0.96623  0.24458  0.86330  1
 O  O3  1  0.29930  0.52713  0.85622  1
 O  O4  1  0.34601  0.14418  0.13970  1
 O  O5  1  0.03246  0.77674  0.13959  1
 O  O6  1  0.62586  0.85412  0.86261  1
 O  O7  1  0.77674  0.03246  0.36041  1
 O  O8  1  0.45579  0.71019  0.35638  1
 O  O9  1  0.52713  0.29930  0.64378  1
 O  O10  1  0.71019  0.45579  0.14362  1
 O  O11  1  0.24458  0.96623  0.63670  1
 O  O12  1  0.85412  0.62586  0.63739  1
