CIF file written using JARVIS-Tools package.
data_Nb3Si
_symmetry_space_group_name_H-M  'P4_2/n'
_cell_length_a       5.22123
_cell_length_b       10.2836
_cell_length_c       10.2836
_cell_angle_alpha    90
_cell_angle_beta     90
_cell_angle_gamma    90

_symmetry_Int_Tables_number  86
_chemical_formula_structural  Nb3Si
_chemical_formula_sum  Nb24Si8
_cell_volume  552.15385490526
_cell_formula_units_Z  8
loop_
  _symmetry_equiv_pos_site_id
 _symmetry_equiv_pos_as_xyz
 1  'x, y, z'
loop_
 _atom_site_type_symbol
 _atom_site_label
 _atom_site_symmetry_multiplicity
 _atom_site_fract_x
 _atom_site_fract_y
 _atom_site_fract_z
 _atom_site_fract_occupancy
 Nb  Nb1  1  0.47625  0.60341  0.76595  1
 Nb  Nb2  1  0.21666  0.34690  0.66518  1
 Nb  Nb3  1  0.52375  0.10341  0.26595  1
 Nb  Nb4  1  0.02375  0.73405  0.60341  1
 Nb  Nb5  1  0.02375  0.76595  0.89659  1
 Nb  Nb6  1  0.52375  0.39659  0.23405  1
 Nb  Nb7  1  0.47625  0.89659  0.73405  1
 Nb  Nb8  1  0.97625  0.26595  0.39659  1
 Nb  Nb9  1  0.97625  0.23405  0.10341  1
 Nb  Nb10  1  0.23599  0.06010  0.53675  1
 Nb  Nb11  1  0.73599  0.46325  0.56010  1
 Nb  Nb12  1  0.73599  0.03675  0.93990  1
 Nb  Nb13  1  0.71666  0.16518  0.65310  1
 Nb  Nb14  1  0.76401  0.93990  0.46325  1
 Nb  Nb15  1  0.21666  0.15310  0.83482  1
 Nb  Nb16  1  0.23599  0.43990  0.96325  1
 Nb  Nb17  1  0.28334  0.83482  0.34690  1
 Nb  Nb18  1  0.78334  0.65310  0.33482  1
 Nb  Nb19  1  0.78334  0.84690  0.16518  1
 Nb  Nb20  1  0.71666  0.33482  0.84690  1
 Nb  Nb21  1  0.76401  0.56010  0.03675  1
 Nb  Nb22  1  0.26401  0.96325  0.06010  1
 Nb  Nb23  1  0.26401  0.53675  0.43990  1
 Nb  Nb24  1  0.28334  0.66518  0.15310  1
 Si  Si1  1  0.47086  0.22252  0.04464  1
 Si  Si2  1  0.02914  0.04464  0.27748  1
 Si  Si3  1  0.52914  0.72252  0.54464  1
 Si  Si4  1  0.52914  0.77748  0.95536  1
 Si  Si5  1  0.02914  0.45536  0.22252  1
 Si  Si6  1  0.97086  0.95536  0.72252  1
 Si  Si7  1  0.47086  0.27748  0.45536  1
 Si  Si8  1  0.97086  0.54464  0.77748  1
