CIF file written using JARVIS-Tools package.
data_LaMgSi2
_symmetry_space_group_name_H-M  'I4_1/amd'
_cell_length_a       4.32665
_cell_length_b       4.32665
_cell_length_c       18.7488
_cell_angle_alpha    96.6258
_cell_angle_beta     96.6258
_cell_angle_gamma    90.0001

_symmetry_Int_Tables_number  141
_chemical_formula_structural  LaMgSi2
_chemical_formula_sum  La4Mg4Si8
_cell_volume  346.27037603035075
_cell_formula_units_Z  4
loop_
  _symmetry_equiv_pos_site_id
 _symmetry_equiv_pos_as_xyz
 1  'x, y, z'
loop_
 _atom_site_type_symbol
 _atom_site_label
 _atom_site_symmetry_multiplicity
 _atom_site_fract_x
 _atom_site_fract_y
 _atom_site_fract_z
 _atom_site_fract_occupancy
 La  La1  1  0.54813  0.79813  0.59626  1
 La  La2  1  0.29813  0.04813  0.09626  1
 La  La3  1  0.70187  0.95187  0.90374  1
 La  La4  1  0.45187  0.20187  0.40374  1
 Mg  Mg1  1  0.37508  0.62508  0.25016  1
 Mg  Mg2  1  0.87492  0.12492  0.24984  1
 Mg  Mg3  1  0.12508  0.87508  0.75016  1
 Mg  Mg4  1  0.62492  0.37492  0.74984  1
 Si  Si1  1  0.01424  0.26424  0.52848  1
 Si  Si2  1  0.23576  0.48576  0.97152  1
 Si  Si3  1  0.17258  0.42258  0.84516  1
 Si  Si4  1  0.07742  0.32742  0.65484  1
 Si  Si5  1  0.98576  0.73576  0.47152  1
 Si  Si6  1  0.76424  0.51424  0.02848  1
 Si  Si7  1  0.82742  0.57742  0.15484  1
 Si  Si8  1  0.92258  0.67258  0.34516  1
