CIF file written using JARVIS-Tools package.
data_LiVCuO4
_symmetry_space_group_name_H-M  'Cmcm'
_cell_length_a       5.06862
_cell_length_b       5.06862
_cell_length_c       6.31058
_cell_angle_alpha    90
_cell_angle_beta     90
_cell_angle_gamma    68.9093

_symmetry_Int_Tables_number  63
_chemical_formula_structural  LiVCuO4
_chemical_formula_sum  Li2V2Cu2O8
_cell_volume  151.26378575834505
_cell_formula_units_Z  2
loop_
  _symmetry_equiv_pos_site_id
 _symmetry_equiv_pos_as_xyz
 1  'x, y, z'
loop_
 _atom_site_type_symbol
 _atom_site_label
 _atom_site_symmetry_multiplicity
 _atom_site_fract_x
 _atom_site_fract_y
 _atom_site_fract_z
 _atom_site_fract_occupancy
 Cu  Cu1  1  0.00000  0.00000  0.00000  1
 Cu  Cu2  1  0.00000  0.00000  0.50000  1
 Li  Li1  1  0.33214  0.33214  0.75000  1
 Li  Li2  1  0.66786  0.66786  0.25000  1
 O  O1  1  0.23398  0.23398  0.02510  1
 O  O2  1  0.23398  0.23398  0.47490  1
 O  O3  1  0.24131  0.72224  0.25000  1
 O  O4  1  0.27776  0.75869  0.75000  1
 O  O5  1  0.72224  0.24131  0.25000  1
 O  O6  1  0.75869  0.27776  0.75000  1
 O  O7  1  0.76602  0.76602  0.97490  1
 O  O8  1  0.76602  0.76602  0.52510  1
 V  V1  1  0.35062  0.35062  0.25000  1
 V  V2  1  0.64938  0.64938  0.75000  1
