CIF file written using JARVIS-Tools package.
data_Nd3S2Br5
_symmetry_space_group_name_H-M  'Pnma'
_cell_length_a       6.86531
_cell_length_b       7.23925
_cell_length_c       22.576
_cell_angle_alpha    90
_cell_angle_beta     90
_cell_angle_gamma    90

_symmetry_Int_Tables_number  62
_chemical_formula_structural  Nd3S2Br5
_chemical_formula_sum  Nd2S8Br20
_cell_volume  1122.0189085357686
_cell_formula_units_Z  4
loop_
  _symmetry_equiv_pos_site_id
 _symmetry_equiv_pos_as_xyz
 1  'x, y, z'
loop_
 _atom_site_type_symbol
 _atom_site_label
 _atom_site_symmetry_multiplicity
 _atom_site_fract_x
 _atom_site_fract_y
 _atom_site_fract_z
 _atom_site_fract_occupancy
 Br  Br1  1  0.85237  0.01796  0.11919  1
 Br  Br2  1  0.63283  0.83194  0.25000  1
 Br  Br3  1  0.13283  0.66806  0.75000  1
 Br  Br4  1  0.86717  0.33194  0.25000  1
 Br  Br5  1  0.16372  0.68265  0.48006  1
 Br  Br6  1  0.35237  0.48204  0.61919  1
 Br  Br7  1  0.66372  0.81735  0.51994  1
 Br  Br8  1  0.83628  0.31735  0.98006  1
 Br  Br9  1  0.83628  0.31735  0.51994  1
 Br  Br10  1  0.33628  0.18265  0.48006  1
 Br  Br11  1  0.66372  0.81735  0.98006  1
 Br  Br12  1  0.16372  0.68265  0.01994  1
 Br  Br13  1  0.36717  0.16806  0.75000  1
 Br  Br14  1  0.14763  0.98204  0.61919  1
 Br  Br15  1  0.64763  0.51796  0.38081  1
 Br  Br16  1  0.64763  0.51796  0.11919  1
 Br  Br17  1  0.14763  0.98204  0.88081  1
 Br  Br18  1  0.85237  0.01796  0.38081  1
 Br  Br19  1  0.35237  0.48204  0.88081  1
 Br  Br20  1  0.33628  0.18265  0.01994  1
 Nd  Nd1  1  0.05556  0.95344  0.25000  1
 Nd  Nd2  1  0.44574  0.87990  0.10306  1
 Nd  Nd3  1  0.44444  0.45344  0.25000  1
 Nd  Nd4  1  0.94444  0.04656  0.75000  1
 Nd  Nd5  1  0.05426  0.37990  0.10306  1
 Nd  Nd6  1  0.55426  0.12010  0.89694  1
 Nd  Nd7  1  0.44574  0.87990  0.39694  1
 Nd  Nd8  1  0.55556  0.54656  0.75000  1
 Nd  Nd9  1  0.05426  0.37990  0.39694  1
 Nd  Nd10  1  0.55426  0.12010  0.60306  1
 Nd  Nd11  1  0.94574  0.62010  0.60306  1
 Nd  Nd12  1  0.94574  0.62010  0.89694  1
 S  S1  1  0.80575  0.33364  0.67423  1
 S  S2  1  0.69425  0.83364  0.82577  1
 S  S3  1  0.19425  0.66636  0.32577  1
 S  S4  1  0.69425  0.83364  0.67423  1
 S  S5  1  0.30575  0.16636  0.17423  1
 S  S6  1  0.80575  0.33364  0.82577  1
 S  S7  1  0.30575  0.16636  0.32577  1
 S  S8  1  0.19425  0.66636  0.17423  1
