CIF file written using JARVIS-Tools package.
data_BaSm2CoO5
_symmetry_space_group_name_H-M  'Immm'
_cell_length_a       3.73647
_cell_length_b       5.90954
_cell_length_c       6.86935
_cell_angle_alpha    115.478
_cell_angle_beta     105.782
_cell_angle_gamma    89.9988

_symmetry_Int_Tables_number  71
_chemical_formula_structural  BaSm2CoO5
_chemical_formula_sum  BaSm2CoO5
_cell_volume  130.568760416642
_cell_formula_units_Z  1
loop_
  _symmetry_equiv_pos_site_id
 _symmetry_equiv_pos_as_xyz
 1  'x, y, z'
loop_
 _atom_site_type_symbol
 _atom_site_label
 _atom_site_symmetry_multiplicity
 _atom_site_fract_x
 _atom_site_fract_y
 _atom_site_fract_z
 _atom_site_fract_occupancy
 Ba  Ba1  1  0.00000  0.00000  0.00000  1
 Co  Co1  1  0.50000  0.50000  0.00000  1
 O  O1  1  0.35271  0.59602  0.70544  1
 O  O2  1  0.64729  0.40398  0.29456  1
 O  O3  1  0.64728  0.89056  0.29457  1
 O  O4  1  0.35272  0.10944  0.70543  1
 O  O5  1  0.00000  0.50000  0.00000  1
 Sm  Sm1  1  0.79705  0.29705  0.59410  1
 Sm  Sm2  1  0.20295  0.70295  0.40590  1
