CIF file written using JARVIS-Tools package.
data_LuTaO4
_symmetry_space_group_name_H-M  'P2/c'
_cell_length_a       5.06506
_cell_length_b       5.4044
_cell_length_c       5.24308
_cell_angle_alpha    90
_cell_angle_beta     95.9397
_cell_angle_gamma    90

_symmetry_Int_Tables_number  13
_chemical_formula_structural  LuTaO4
_chemical_formula_sum  Lu2Ta2O8
_cell_volume  142.75172652654473
_cell_formula_units_Z  2
loop_
  _symmetry_equiv_pos_site_id
 _symmetry_equiv_pos_as_xyz
 1  'x, y, z'
loop_
 _atom_site_type_symbol
 _atom_site_label
 _atom_site_symmetry_multiplicity
 _atom_site_fract_x
 _atom_site_fract_y
 _atom_site_fract_z
 _atom_site_fract_occupancy
 Lu  Lu1  1  0.00000  0.76729  0.25000  1
 Lu  Lu2  1  0.00000  0.23271  0.75000  1
 O  O1  1  0.26364  0.56439  -0.00410  1
 O  O2  1  0.73636  0.56439  0.50410  1
 O  O3  1  0.73636  0.43561  0.00410  1
 O  O4  1  0.26364  0.43561  0.49590  1
 O  O5  1  0.75358  0.07776  0.40852  1
 O  O6  1  0.24642  0.07776  0.09148  1
 O  O7  1  0.24642  0.92224  0.59148  1
 O  O8  1  0.75358  0.92224  0.90852  1
 Ta  Ta1  1  0.50000  0.70023  0.75000  1
 Ta  Ta2  1  0.50000  0.29977  0.25000  1
