CIF file written using JARVIS-Tools package.
data_HgHClO4
_symmetry_space_group_name_H-M  'Pbcm'
_cell_length_a       4.72691
_cell_length_b       7.23236
_cell_length_c       11.3918
_cell_angle_alpha    90
_cell_angle_beta     90
_cell_angle_gamma    90

_symmetry_Int_Tables_number  57
_chemical_formula_structural  HgHClO4
_chemical_formula_sum  Hg4H4Cl4O6
_cell_volume  389.4491950520577
_cell_formula_units_Z  4
loop_
  _symmetry_equiv_pos_site_id
 _symmetry_equiv_pos_as_xyz
 1  'x, y, z'
loop_
 _atom_site_type_symbol
 _atom_site_label
 _atom_site_symmetry_multiplicity
 _atom_site_fract_x
 _atom_site_fract_y
 _atom_site_fract_z
 _atom_site_fract_occupancy
 Cl  Cl1  1  0.00237  0.25000  0.94292  1
 Cl  Cl2  1  0.99763  0.75000  0.05708  1
 Cl  Cl3  1  0.99763  0.25000  0.44292  1
 Cl  Cl4  1  0.00237  0.75000  0.55708  1
 H  H1  1  0.45550  0.75000  0.41272  1
 H  H2  1  0.45550  0.25000  0.08728  1
 H  H3  1  0.54450  0.25000  0.58728  1
 H  H4  1  0.54450  0.75000  0.91272  1
 Hg  Hg1  1  0.43581  0.00000  0.75000  1
 Hg  Hg2  1  0.43581  0.50000  0.75000  1
 Hg  Hg3  1  0.56419  0.00000  0.25000  1
 Hg  Hg4  1  0.56419  0.50000  0.25000  1
 O  O1  1  0.06893  0.08230  0.37140  1
 O  O2  1  0.58002  0.25000  0.15899  1
 O  O3  1  0.58002  0.75000  0.34101  1
 O  O4  1  0.93107  0.41770  0.87140  1
 O  O5  1  0.93107  0.58230  0.62860  1
 O  O6  1  0.06893  0.91770  0.12860  1
 O  O7  1  0.32595  0.75000  0.54903  1
 O  O8  1  0.06893  0.58230  0.12860  1
 O  O9  1  0.67405  0.75000  0.04903  1
 O  O10  1  0.93107  0.91770  0.62860  1
 O  O11  1  0.93107  0.08230  0.87140  1
 O  O12  1  0.06893  0.41770  0.37140  1
 O  O13  1  0.41998  0.75000  0.84101  1
 O  O14  1  0.41998  0.25000  0.65899  1
 O  O15  1  0.67405  0.25000  0.45097  1
 O  O16  1  0.32595  0.25000  0.95097  1
