CIF file written using JARVIS-Tools package.
data_Li2MnCuO4
_symmetry_space_group_name_H-M  'C2/c'
_cell_length_a       5.94406
_cell_length_b       5.94406
_cell_length_c       6.03418
_cell_angle_alpha    123.074
_cell_angle_beta     123.074
_cell_angle_gamma    85.7725

_symmetry_Int_Tables_number  15
_chemical_formula_structural  Li2MnCuO4
_chemical_formula_sum  Li4Mn2Cu2O8
_cell_volume  141.8792679404474
_cell_formula_units_Z  2
loop_
  _symmetry_equiv_pos_site_id
 _symmetry_equiv_pos_as_xyz
 1  'x, y, z'
loop_
 _atom_site_type_symbol
 _atom_site_label
 _atom_site_symmetry_multiplicity
 _atom_site_fract_x
 _atom_site_fract_y
 _atom_site_fract_z
 _atom_site_fract_occupancy
 Cu  Cu1  1  0.00000  0.00000  0.50000  1
 Cu  Cu2  1  0.00000  0.00000  0.00000  1
 Li  Li1  1  0.00000  0.50000  0.50000  1
 Li  Li2  1  0.50000  0.50000  0.50000  1
 Li  Li3  1  0.50000  -0.00000  0.00000  1
 Li  Li4  1  0.50000  0.50000  0.00000  1
 Mn  Mn1  1  -0.00000  0.50000  -0.00000  1
 Mn  Mn2  1  0.50000  -0.00000  0.50000  1
 O  O1  1  0.23440  0.73836  0.01799  1
 O  O2  1  0.27083  0.23956  0.48890  1
 O  O3  1  0.26164  0.76560  0.48201  1
 O  O4  1  0.76044  0.72917  0.01110  1
 O  O5  1  0.23956  0.27083  0.98890  1
 O  O6  1  0.73836  0.23440  0.51799  1
 O  O7  1  0.72917  0.76044  0.51110  1
 O  O8  1  0.76560  0.26164  0.98201  1
