CIF file written using JARVIS-Tools package.
data_MgIn2O4
_symmetry_space_group_name_H-M  'Imma'
_cell_length_a       6.33091
_cell_length_b       6.33091
_cell_length_c       6.41452
_cell_angle_alpha    59.5622
_cell_angle_beta     59.5621
_cell_angle_gamma    59.5745

_symmetry_Int_Tables_number  74
_chemical_formula_structural  MgIn2O4
_chemical_formula_sum  Mg2In4O8
_cell_volume  180.002234755473
_cell_formula_units_Z  2
loop_
  _symmetry_equiv_pos_site_id
 _symmetry_equiv_pos_as_xyz
 1  'x, y, z'
loop_
 _atom_site_type_symbol
 _atom_site_label
 _atom_site_symmetry_multiplicity
 _atom_site_fract_x
 _atom_site_fract_y
 _atom_site_fract_z
 _atom_site_fract_occupancy
 In  In1  1  0.99384  0.99384  0.00616  1
 In  In2  1  0.25616  0.25616  0.24384  1
 In  In3  1  0.62500  0.62500  0.12500  1
 In  In4  1  0.62500  0.62500  0.62500  1
 Mg  Mg1  1  0.12500  0.62500  0.62500  1
 Mg  Mg2  1  0.62500  0.12500  0.62500  1
 O  O1  1  0.38181  0.38181  0.39351  1
 O  O2  1  0.38181  0.38181  0.84288  1
 O  O3  1  0.37577  0.84843  0.38790  1
 O  O4  1  0.40157  0.87423  0.86210  1
 O  O5  1  0.84843  0.37577  0.38790  1
 O  O6  1  0.87423  0.40157  0.86210  1
 O  O7  1  0.86819  0.86819  0.40712  1
 O  O8  1  0.86819  0.86819  0.85649  1
