CIF file written using JARVIS-Tools package.
data_PH5N2O4
_symmetry_space_group_name_H-M  'P2_12_12_1'
_cell_length_a       5.67817
_cell_length_b       7.42635
_cell_length_c       10.1818
_cell_angle_alpha    90
_cell_angle_beta     90
_cell_angle_gamma    90

_symmetry_Int_Tables_number  19
_chemical_formula_structural  PH5N2O4
_chemical_formula_sum  P4H20N8O6
_cell_volume  429.34673300846475
_cell_formula_units_Z  4
loop_
  _symmetry_equiv_pos_site_id
 _symmetry_equiv_pos_as_xyz
 1  'x, y, z'
loop_
 _atom_site_type_symbol
 _atom_site_label
 _atom_site_symmetry_multiplicity
 _atom_site_fract_x
 _atom_site_fract_y
 _atom_site_fract_z
 _atom_site_fract_occupancy
 H  H1  1  0.84179  0.10113  0.67411  1
 H  H2  1  0.35968  0.69988  0.19473  1
 H  H3  1  0.14032  0.30012  0.69473  1
 H  H4  1  0.85968  0.80012  0.80527  1
 H  H5  1  0.64032  0.19988  0.30527  1
 H  H6  1  0.94930  0.40540  0.58894  1
 H  H7  1  0.05070  0.90540  0.91106  1
 H  H8  1  0.44930  0.09460  0.41106  1
 H  H9  1  0.65821  0.89887  0.17411  1
 H  H10  1  0.30947  0.35227  0.48823  1
 H  H11  1  0.15821  0.60113  0.82589  1
 H  H12  1  0.55070  0.59460  0.08894  1
 H  H13  1  0.44496  0.96822  0.06712  1
 H  H14  1  0.05504  0.03178  0.56712  1
 H  H15  1  0.94496  0.53178  0.93288  1
 H  H16  1  0.55504  0.46822  0.43288  1
 H  H17  1  0.69053  0.85227  0.01177  1
 H  H18  1  0.80947  0.14773  0.51177  1
 H  H19  1  0.19053  0.64773  0.98823  1
 H  H20  1  0.34179  0.39887  0.32589  1
 N  N1  1  0.56192  0.20131  0.39716  1
 N  N2  1  0.43808  0.70131  0.10284  1
 N  N3  1  0.06192  0.29869  0.60284  1
 N  N4  1  0.93808  0.79869  0.89716  1
 N  N5  1  0.06694  0.63330  0.91170  1
 N  N6  1  0.56694  0.86670  0.08830  1
 N  N7  1  0.43306  0.36670  0.41170  1
 N  N8  1  0.93306  0.13330  0.58830  1
 O  O1  1  0.71566  0.79129  0.64646  1
 O  O2  1  0.34148  0.94838  0.57324  1
 O  O3  1  0.21566  0.70871  0.35354  1
 O  O4  1  0.28434  0.29129  0.85354  1
 O  O5  1  0.19140  0.36709  0.16024  1
 O  O6  1  0.78434  0.20871  0.14646  1
 O  O7  1  0.80860  0.86709  0.33976  1
 O  O8  1  0.69140  0.13291  0.83976  1
 O  O9  1  0.91287  0.62406  0.18694  1
 O  O10  1  0.15852  0.05162  0.07324  1
 O  O11  1  0.41287  0.87594  0.81306  1
 O  O12  1  0.08713  0.12406  0.31306  1
 O  O13  1  0.84148  0.55162  0.42676  1
 O  O14  1  0.65852  0.44838  0.92676  1
 O  O15  1  0.30860  0.63291  0.66024  1
 O  O16  1  0.58713  0.37594  0.68694  1
 P  P1  1  0.04989  0.18839  0.16820  1
 P  P2  1  0.45011  0.81161  0.66820  1
 P  P3  1  0.54989  0.31161  0.83180  1
 P  P4  1  0.95011  0.68839  0.33180  1
