CIF file written using JARVIS-Tools package.
data_NiSnF6
_symmetry_space_group_name_H-M  'R-3'
_cell_length_a       5.50264
_cell_length_b       5.50264
_cell_length_c       5.50264
_cell_angle_alpha    54.6918
_cell_angle_beta     54.6917
_cell_angle_gamma    54.6916

_symmetry_Int_Tables_number  148
_chemical_formula_structural  NiSnF6
_chemical_formula_sum  NiSnF6
_cell_volume  103.24534893679983
_cell_formula_units_Z  1
loop_
  _symmetry_equiv_pos_site_id
 _symmetry_equiv_pos_as_xyz
 1  'x, y, z'
loop_
 _atom_site_type_symbol
 _atom_site_label
 _atom_site_symmetry_multiplicity
 _atom_site_fract_x
 _atom_site_fract_y
 _atom_site_fract_z
 _atom_site_fract_occupancy
 F  F1  1  0.25357  0.89094  0.60506  1
 F  F2  1  0.89094  0.60506  0.25357  1
 F  F3  1  0.39494  0.74643  0.10906  1
 F  F4  1  0.10906  0.39494  0.74643  1
 F  F5  1  0.74643  0.10906  0.39494  1
 F  F6  1  0.60506  0.25357  0.89094  1
 Ni  Ni1  1  0.50000  0.50000  0.50000  1
 Sn  Sn1  1  0.00000  0.00000  0.00000  1
