CIF file written using JARVIS-Tools package.
data_Te4MoW
_symmetry_space_group_name_H-M  'P3m1'
_cell_length_a       3.56896
_cell_length_b       3.56896
_cell_length_c       38.0372
_cell_angle_alpha    90.0006
_cell_angle_beta     90
_cell_angle_gamma    120

_symmetry_Int_Tables_number  156
_chemical_formula_structural  Te4MoW
_chemical_formula_sum  Te8Mo2W2
_cell_volume  419.58828232249624
_cell_formula_units_Z  2
loop_
  _symmetry_equiv_pos_site_id
 _symmetry_equiv_pos_as_xyz
 1  'x, y, z'
loop_
 _atom_site_type_symbol
 _atom_site_label
 _atom_site_symmetry_multiplicity
 _atom_site_fract_x
 _atom_site_fract_y
 _atom_site_fract_z
 _atom_site_fract_occupancy
 Mo  Mo1  1  0.33332  0.66663  0.09452  1
 Mo  Mo2  1  0.33333  0.66665  0.46946  1
 Te  Te1  1  0.33334  0.66669  0.32983  1
 Te  Te2  1  0.33336  0.66672  0.70463  1
 Te  Te3  1  0.66666  0.33331  0.04696  1
 Te  Te4  1  0.66665  0.33330  0.42183  1
 Te  Te5  1  0.66664  0.33328  0.14217  1
 Te  Te6  1  0.66667  0.33334  0.51709  1
 Te  Te7  1  0.33334  0.66667  0.23423  1
 Te  Te8  1  0.33334  0.66668  0.60909  1
 W  W1  1  0.66667  0.33335  0.28203  1
 W  W2  1  0.66668  0.33337  0.65691  1
