CIF file written using JARVIS-Tools package.
data_RbAuN12
_symmetry_space_group_name_H-M  'C2/c'
_cell_length_a       7.45826
_cell_length_b       7.45826
_cell_length_c       7.88521
_cell_angle_alpha    90.9914
_cell_angle_beta     90.9914
_cell_angle_gamma    91.5381

_symmetry_Int_Tables_number  15
_chemical_formula_structural  RbAuN12
_chemical_formula_sum  Rb2Au2N24
_cell_volume  438.3267459746231
_cell_formula_units_Z  2
loop_
  _symmetry_equiv_pos_site_id
 _symmetry_equiv_pos_as_xyz
 1  'x, y, z'
loop_
 _atom_site_type_symbol
 _atom_site_label
 _atom_site_symmetry_multiplicity
 _atom_site_fract_x
 _atom_site_fract_y
 _atom_site_fract_z
 _atom_site_fract_occupancy
 Au  Au1  1  0.48804  0.51196  0.75000  1
 Au  Au2  1  0.51196  0.48804  0.25000  1
 N  N1  1  0.59268  0.84288  0.60647  1
 N  N2  1  0.28052  0.91989  0.08432  1
 N  N3  1  0.15712  0.40732  0.89353  1
 N  N4  1  0.40732  0.15712  0.39353  1
 N  N5  1  0.83020  0.39472  0.63212  1
 N  N6  1  0.52567  0.75159  0.18148  1
 N  N7  1  0.47433  0.24841  0.81852  1
 N  N8  1  0.39472  0.83020  0.13212  1
 N  N9  1  0.91373  0.70983  0.03768  1
 N  N10  1  0.60528  0.16980  0.86788  1
 N  N11  1  0.16980  0.60528  0.36788  1
 N  N12  1  0.08627  0.29017  0.96232  1
 N  N13  1  0.08011  0.71948  0.41568  1
 N  N14  1  0.75159  0.52567  0.68148  1
 N  N15  1  0.29017  0.08627  0.46232  1
 N  N16  1  0.70983  0.91373  0.53768  1
 N  N17  1  0.84288  0.59268  0.10647  1
 N  N18  1  0.71948  0.08011  0.91568  1
 N  N19  1  0.46542  0.77654  0.67894  1
 N  N20  1  0.91989  0.28052  0.58432  1
 N  N21  1  0.77654  0.46542  0.17894  1
 N  N22  1  0.22346  0.53458  0.82106  1
 N  N23  1  0.24841  0.47433  0.31852  1
 N  N24  1  0.53458  0.22346  0.32106  1
 Rb  Rb1  1  0.07773  0.92227  0.75000  1
 Rb  Rb2  1  0.92227  0.07773  0.25000  1
