CIF file written using JARVIS-Tools package.
data_Zn2Ga2S5
_symmetry_space_group_name_H-M  'R-3m'
_cell_length_a       3.68704
_cell_length_b       3.68704
_cell_length_c       15.2849
_cell_angle_alpha    83.0727
_cell_angle_beta     83.0726
_cell_angle_gamma    60

_symmetry_Int_Tables_number  166
_chemical_formula_structural  Zn2Ga2S5
_chemical_formula_sum  Zn2Ga2S5
_cell_volume  178.19511851404846
_cell_formula_units_Z  1
loop_
  _symmetry_equiv_pos_site_id
 _symmetry_equiv_pos_as_xyz
 1  'x, y, z'
loop_
 _atom_site_type_symbol
 _atom_site_label
 _atom_site_symmetry_multiplicity
 _atom_site_fract_x
 _atom_site_fract_y
 _atom_site_fract_z
 _atom_site_fract_occupancy
 Ga  Ga1  1  0.72402  0.72402  0.82793  1
 Ga  Ga2  1  0.27598  0.27598  0.17207  1
 S  S1  1  0.50000  0.50000  0.50000  1
 S  S2  1  0.77273  0.77273  0.68180  1
 S  S3  1  0.22727  0.22727  0.31820  1
 S  S4  1  0.63190  0.63190  0.10430  1
 S  S5  1  0.36810  0.36810  0.89570  1
 Zn  Zn1  1  0.86629  0.86629  0.40113  1
 Zn  Zn2  1  0.13371  0.13371  0.59887  1
