CIF file written using JARVIS-Tools package.
data_CeAl2Zn2
_symmetry_space_group_name_H-M  'I4/mmm'
_cell_length_a       4.20237
_cell_length_b       4.20237
_cell_length_c       6.19915
_cell_angle_alpha    109.813
_cell_angle_beta     109.813
_cell_angle_gamma    90

_symmetry_Int_Tables_number  139
_chemical_formula_structural  CeAl2Zn2
_chemical_formula_sum  CeAl2Zn2
_cell_volume  96.07950574850709
_cell_formula_units_Z  1
loop_
  _symmetry_equiv_pos_site_id
 _symmetry_equiv_pos_as_xyz
 1  'x, y, z'
loop_
 _atom_site_type_symbol
 _atom_site_label
 _atom_site_symmetry_multiplicity
 _atom_site_fract_x
 _atom_site_fract_y
 _atom_site_fract_z
 _atom_site_fract_occupancy
 Al  Al1  1  0.25000  0.75000  0.50000  1
 Al  Al2  1  0.75000  0.25000  0.50000  1
 Ce  Ce1  1  0.00000  0.00000  0.00000  1
 Zn  Zn1  1  0.61173  0.61173  0.22346  1
 Zn  Zn2  1  0.38827  0.38827  0.77654  1
