CIF file written using JARVIS-Tools package.
data_WI3O
_symmetry_space_group_name_H-M  'P4_2/mnm'
_cell_length_a       3.82145
_cell_length_b       12.5991
_cell_length_c       12.5991
_cell_angle_alpha    90
_cell_angle_beta     90
_cell_angle_gamma    90

_symmetry_Int_Tables_number  136
_chemical_formula_structural  WI3O
_chemical_formula_sum  W4I2O4
_cell_volume  606.6037861531416
_cell_formula_units_Z  4
loop_
  _symmetry_equiv_pos_site_id
 _symmetry_equiv_pos_as_xyz
 1  'x, y, z'
loop_
 _atom_site_type_symbol
 _atom_site_label
 _atom_site_symmetry_multiplicity
 _atom_site_fract_x
 _atom_site_fract_y
 _atom_site_fract_z
 _atom_site_fract_occupancy
 I  I1  1  0.00000  0.89121  0.66876  1
 I  I2  1  0.00000  0.33124  0.10879  1
 I  I3  1  0.50000  0.60879  0.16876  1
 I  I4  1  0.00000  0.10879  0.33124  1
 I  I5  1  0.50000  0.16876  0.60879  1
 I  I6  1  0.50000  0.83124  0.39121  1
 I  I7  1  0.00000  0.66876  0.89121  1
 I  I8  1  0.00000  0.89387  0.10614  1
 I  I9  1  0.50000  0.39121  0.83124  1
 I  I10  1  0.00000  0.10614  0.89387  1
 I  I11  1  0.50000  0.39387  0.39387  1
 I  I12  1  0.50000  0.60614  0.60614  1
 O  O1  1  0.00000  0.38466  0.61534  1
 O  O2  1  0.50000  0.11534  0.11534  1
 O  O3  1  0.50000  0.88466  0.88466  1
 O  O4  1  0.00000  0.61534  0.38466  1
 W  W1  1  0.50000  0.38061  0.61938  1
 W  W2  1  0.00000  0.88061  0.88061  1
 W  W3  1  0.50000  0.61938  0.38061  1
 W  W4  1  0.00000  0.11939  0.11939  1
