CIF file written using JARVIS-Tools package.
data_PdF3
_symmetry_space_group_name_H-M  'P321'
_cell_length_a       5.10764
_cell_length_b       5.10764
_cell_length_c       7.4189
_cell_angle_alpha    90
_cell_angle_beta     90
_cell_angle_gamma    120

_symmetry_Int_Tables_number  150
_chemical_formula_structural  PdF3
_chemical_formula_sum  Pd3F9
_cell_volume  167.61393895708883
_cell_formula_units_Z  3
loop_
  _symmetry_equiv_pos_site_id
 _symmetry_equiv_pos_as_xyz
 1  'x, y, z'
loop_
 _atom_site_type_symbol
 _atom_site_label
 _atom_site_symmetry_multiplicity
 _atom_site_fract_x
 _atom_site_fract_y
 _atom_site_fract_z
 _atom_site_fract_occupancy
 F  F1  1  0.66103  0.71012  0.18366  1
 F  F2  1  0.04909  0.33897  0.18366  1
 F  F3  1  0.28988  0.95091  0.18366  1
 F  F4  1  0.64832  0.00000  0.50000  1
 F  F5  1  0.35168  0.35168  0.50000  1
 F  F6  1  0.00000  0.64832  0.50000  1
 F  F7  1  0.95091  0.28988  0.81634  1
 F  F8  1  0.33897  0.04909  0.81634  1
 F  F9  1  0.71012  0.66103  0.81634  1
 Pd  Pd1  1  0.66667  0.33333  0.65675  1
 Pd  Pd2  1  0.33333  0.66667  0.34325  1
 Pd  Pd3  1  0.00000  0.00000  0.00000  1
