CIF file written using JARVIS-Tools package.
data_Ho3Co2Ge4
_symmetry_space_group_name_H-M  'C2/m'
_cell_length_a       4.13875
_cell_length_b       5.68781
_cell_length_c       7.98589
_cell_angle_alpha    106.599
_cell_angle_beta     90
_cell_angle_gamma    111.335

_symmetry_Int_Tables_number  12
_chemical_formula_structural  Ho3Co2Ge4
_chemical_formula_sum  Ho3Co2Ge4
_cell_volume  166.66902476219096
_cell_formula_units_Z  1
loop_
  _symmetry_equiv_pos_site_id
 _symmetry_equiv_pos_as_xyz
 1  'x, y, z'
loop_
 _atom_site_type_symbol
 _atom_site_label
 _atom_site_symmetry_multiplicity
 _atom_site_fract_x
 _atom_site_fract_y
 _atom_site_fract_z
 _atom_site_fract_occupancy
 Co  Co1  1  0.30742  0.61484  0.62667  1
 Co  Co2  1  0.69258  0.38516  0.37333  1
 Ge  Ge1  1  0.09550  0.19101  0.39709  1
 Ge  Ge2  1  0.90450  0.80899  0.60291  1
 Ge  Ge3  1  0.70633  0.41265  0.08061  1
 Ge  Ge4  1  0.29367  0.58735  0.91939  1
 Ho  Ho1  1  0.37560  0.75120  0.30719  1
 Ho  Ho2  1  0.62440  0.24880  0.69281  1
 Ho  Ho3  1  0.00000  0.00000  0.00000  1
