CIF file written using JARVIS-Tools package.
data_K3CaP2HO8
_symmetry_space_group_name_H-M  'C2/m'
_cell_length_a       5.726
_cell_length_b       5.726
_cell_length_c       7.40787
_cell_angle_alpha    86.3398
_cell_angle_beta     93.6602
_cell_angle_gamma    119.771

_symmetry_Int_Tables_number  12
_chemical_formula_structural  K3CaP2HO8
_chemical_formula_sum  K3CaP2HO8
_cell_volume  210.2518516193694
_cell_formula_units_Z  1
loop_
  _symmetry_equiv_pos_site_id
 _symmetry_equiv_pos_as_xyz
 1  'x, y, z'
loop_
 _atom_site_type_symbol
 _atom_site_label
 _atom_site_symmetry_multiplicity
 _atom_site_fract_x
 _atom_site_fract_y
 _atom_site_fract_z
 _atom_site_fract_occupancy
 Ca  Ca1  1  0.00000  0.00000  0.00000  1
 H  H1  1  0.50000  0.50000  0.50000  1
 K  K1  1  -0.00000  0.00000  0.50000  1
 K  K2  1  0.66790  0.33210  0.18699  1
 K  K3  1  0.33210  0.66790  0.81301  1
 O  O1  1  0.81787  0.18213  0.77663  1
 O  O2  1  0.18213  0.81787  0.22337  1
 O  O3  1  0.62190  0.37810  0.53600  1
 O  O4  1  0.37810  0.62190  0.46400  1
 O  O5  1  0.82146  0.61939  0.82875  1
 O  O6  1  0.38061  0.17854  0.82875  1
 O  O7  1  0.17854  0.38061  0.17125  1
 O  O8  1  0.61939  0.82146  0.17125  1
 P  P1  1  0.66235  0.33765  0.74625  1
 P  P2  1  0.33765  0.66235  0.25375  1
