CIF file written using JARVIS-Tools package.
data_Sr2TaN3
_symmetry_space_group_name_H-M  'C2/c'
_cell_length_a       6.01637
_cell_length_b       6.39544
_cell_length_c       12.5998
_cell_angle_alpha    88.8647
_cell_angle_beta     87.5857
_cell_angle_gamma    61.9421

_symmetry_Int_Tables_number  15
_chemical_formula_structural  Sr2TaN3
_chemical_formula_sum  Sr8Ta4N2
_cell_volume  427.44988195345013
_cell_formula_units_Z  4
loop_
  _symmetry_equiv_pos_site_id
 _symmetry_equiv_pos_as_xyz
 1  'x, y, z'
loop_
 _atom_site_type_symbol
 _atom_site_label
 _atom_site_symmetry_multiplicity
 _atom_site_fract_x
 _atom_site_fract_y
 _atom_site_fract_z
 _atom_site_fract_occupancy
 N  N1  1  0.19582  0.18711  0.53970  1
 N  N2  1  0.49954  0.00091  0.25000  1
 N  N3  1  0.91299  0.17402  0.75000  1
 N  N4  1  0.08701  0.82598  0.25000  1
 N  N5  1  0.33181  0.67318  0.62554  1
 N  N6  1  0.99501  0.67318  0.87446  1
 N  N7  1  0.66819  0.32682  0.37446  1
 N  N8  1  0.00499  0.32682  0.12554  1
 N  N9  1  0.61707  0.18711  0.96030  1
 N  N10  1  0.80418  0.81289  0.46030  1
 N  N11  1  0.50046  0.99909  0.75000  1
 N  N12  1  0.38293  0.81289  0.03970  1
 Sr  Sr1  1  0.84656  0.76782  0.07678  1
 Sr  Sr2  1  0.53982  0.40386  0.14136  1
 Sr  Sr3  1  0.38561  0.76782  0.42322  1
 Sr  Sr4  1  0.15344  0.23218  0.92322  1
 Sr  Sr5  1  0.61439  0.23218  0.57678  1
 Sr  Sr6  1  0.46018  0.59614  0.85864  1
 Sr  Sr7  1  0.94368  0.59614  0.64136  1
 Sr  Sr8  1  0.05632  0.40386  0.35864  1
 Ta  Ta1  1  0.23185  0.00269  0.16356  1
 Ta  Ta2  1  0.76815  0.99731  0.83644  1
 Ta  Ta3  1  0.76546  0.00269  0.33644  1
 Ta  Ta4  1  0.23454  0.99731  0.66356  1
