CIF file written using JARVIS-Tools package.
data_LiNiO2
_symmetry_space_group_name_H-M  'R-3m'
_cell_length_a       4.9741
_cell_length_b       4.97411
_cell_length_c       4.9741
_cell_angle_alpha    33.7298
_cell_angle_beta     33.7297
_cell_angle_gamma    33.7298

_symmetry_Int_Tables_number  166
_chemical_formula_structural  LiNiO2
_chemical_formula_sum  LiNiO2
_cell_volume  33.80885120362262
_cell_formula_units_Z  1
loop_
  _symmetry_equiv_pos_site_id
 _symmetry_equiv_pos_as_xyz
 1  'x, y, z'
loop_
 _atom_site_type_symbol
 _atom_site_label
 _atom_site_symmetry_multiplicity
 _atom_site_fract_x
 _atom_site_fract_y
 _atom_site_fract_z
 _atom_site_fract_occupancy
 Li  Li1  1  1.00000  1.00000  1.00000  1
 Ni  Ni1  1  0.50000  0.50000  0.50000  1
 O  O1  1  0.75863  0.75863  0.75863  1
 O  O2  1  0.24137  0.24137  0.24137  1
