CIF file written using JARVIS-Tools package.
data_Tl2SnF6
_symmetry_space_group_name_H-M  'P-3m1'
_cell_length_a       6.0971
_cell_length_b       6.0971
_cell_length_c       4.79612
_cell_angle_alpha    90
_cell_angle_beta     90
_cell_angle_gamma    120

_symmetry_Int_Tables_number  164
_chemical_formula_structural  Tl2SnF6
_chemical_formula_sum  Tl2SnF6
_cell_volume  154.40683676911527
_cell_formula_units_Z  1
loop_
  _symmetry_equiv_pos_site_id
 _symmetry_equiv_pos_as_xyz
 1  'x, y, z'
loop_
 _atom_site_type_symbol
 _atom_site_label
 _atom_site_symmetry_multiplicity
 _atom_site_fract_x
 _atom_site_fract_y
 _atom_site_fract_z
 _atom_site_fract_occupancy
 F  F1  1  0.84118  0.15882  0.23042  1
 F  F2  1  0.31763  0.15882  0.23042  1
 F  F3  1  0.84118  0.68237  0.23042  1
 F  F4  1  0.15882  0.84118  0.76958  1
 F  F5  1  0.68237  0.84118  0.76958  1
 F  F6  1  0.15882  0.31763  0.76958  1
 Sn  Sn1  1  0.00000  0.00000  0.00000  1
 Tl  Tl1  1  0.66667  0.33333  0.69672  1
 Tl  Tl2  1  0.33333  0.66667  0.30328  1
