CIF file written using JARVIS-Tools package.
data_Li4VCr3O8
_symmetry_space_group_name_H-M  'P2/m'
_cell_length_a       5.0258
_cell_length_b       5.1031
_cell_length_c       5.80665
_cell_angle_alpha    90.0004
_cell_angle_beta     90.0003
_cell_angle_gamma    109.257

_symmetry_Int_Tables_number  10
_chemical_formula_structural  Li4VCr3O8
_chemical_formula_sum  Li4VCr3O8
_cell_volume  140.5914669830627
_cell_formula_units_Z  1
loop_
  _symmetry_equiv_pos_site_id
 _symmetry_equiv_pos_as_xyz
 1  'x, y, z'
loop_
 _atom_site_type_symbol
 _atom_site_label
 _atom_site_symmetry_multiplicity
 _atom_site_fract_x
 _atom_site_fract_y
 _atom_site_fract_z
 _atom_site_fract_occupancy
 Cr  Cr1  1  0.00000  0.50000  0.75290  1
 Cr  Cr2  1  -0.00000  0.50000  0.24710  1
 Cr  Cr3  1  0.50000  0.50000  0.50000  1
 Li  Li1  1  0.00000  0.00000  0.00000  1
 Li  Li2  1  -0.00000  -0.00000  0.50000  1
 Li  Li3  1  0.50003  0.00001  0.74792  1
 Li  Li4  1  0.49997  -0.00001  0.25208  1
 O  O1  1  0.24058  0.73483  0.00000  1
 O  O2  1  0.24218  0.72345  0.50000  1
 O  O3  1  0.25555  0.26818  0.74822  1
 O  O4  1  0.74445  0.73182  0.74822  1
 O  O5  1  0.25555  0.26818  0.25178  1
 O  O6  1  0.75942  0.26517  -0.00000  1
 O  O7  1  0.74445  0.73182  0.25178  1
 O  O8  1  0.75782  0.27655  0.50000  1
 V  V1  1  0.50000  0.50000  -0.00000  1
