CIF file written using JARVIS-Tools package.
data_LiH4SNO4
_symmetry_space_group_name_H-M  'Pna2_1'
_cell_length_a       5.34479
_cell_length_b       8.56647
_cell_length_c       9.04234
_cell_angle_alpha    90
_cell_angle_beta     90
_cell_angle_gamma    90

_symmetry_Int_Tables_number  33
_chemical_formula_structural  LiH4SNO4
_chemical_formula_sum  Li4H6S4N4O6
_cell_volume  414.01259330478064
_cell_formula_units_Z  4
loop_
  _symmetry_equiv_pos_site_id
 _symmetry_equiv_pos_as_xyz
 1  'x, y, z'
loop_
 _atom_site_type_symbol
 _atom_site_label
 _atom_site_symmetry_multiplicity
 _atom_site_fract_x
 _atom_site_fract_y
 _atom_site_fract_z
 _atom_site_fract_occupancy
 H  H1  1  0.93581  0.45362  0.27649  1
 H  H2  1  0.64185  0.90684  0.17811  1
 H  H3  1  0.72905  0.59591  0.33077  1
 H  H4  1  0.93581  0.95362  0.22351  1
 H  H5  1  0.43581  0.04638  0.77649  1
 H  H6  1  0.43581  0.54638  0.72351  1
 H  H7  1  0.70201  0.50667  0.16333  1
 H  H8  1  0.14185  0.59316  0.67811  1
 H  H9  1  0.70201  0.00667  0.33667  1
 H  H10  1  0.64185  0.40684  0.32189  1
 H  H11  1  0.20201  0.99333  0.66333  1
 H  H12  1  0.20201  0.49333  0.83667  1
 H  H13  1  0.22905  0.40409  0.66923  1
 H  H14  1  0.14185  0.09316  0.82189  1
 H  H15  1  0.22905  0.90409  0.83077  1
 H  H16  1  0.72905  0.09591  0.16923  1
 Li  Li1  1  0.25606  0.80855  0.41606  1
 Li  Li2  1  0.75606  0.69145  0.91606  1
 Li  Li3  1  0.75606  0.19145  0.58394  1
 Li  Li4  1  0.25606  0.30855  0.08394  1
 N  N1  1  0.25305  0.50766  0.72769  1
 N  N2  1  0.75305  0.49234  0.27231  1
 N  N3  1  0.25305  0.00766  0.77231  1
 N  N4  1  0.75305  -0.00766  0.22769  1
 O  O1  1  0.64771  0.23996  0.77794  1
 O  O2  1  0.25489  0.03132  0.42356  1
 O  O3  1  0.51150  0.76468  0.05926  1
 O  O4  1  0.59119  0.73682  0.45573  1
 O  O5  1  0.09119  0.26318  0.54427  1
 O  O6  1  0.25489  0.53132  0.07644  1
 O  O7  1  0.01150  0.73532  0.55926  1
 O  O8  1  0.14771  0.76004  0.22206  1
 O  O9  1  0.75489  0.96868  0.57644  1
 O  O10  1  0.51150  0.26468  0.44074  1
 O  O11  1  0.09119  0.76318  0.95573  1
 O  O12  1  0.01150  0.23532  0.94074  1
 O  O13  1  0.14771  0.26004  0.27794  1
 O  O14  1  0.64771  0.73996  0.72206  1
 O  O15  1  0.59119  0.23682  0.04427  1
 O  O16  1  0.75489  0.46868  0.92356  1
 S  S1  1  0.25108  0.70375  0.07942  1
 S  S2  1  0.75108  0.29625  0.92058  1
 S  S3  1  0.25108  0.20375  0.42058  1
 S  S4  1  0.75108  0.79625  0.57942  1
