CIF file written using JARVIS-Tools package.
data_Sn3PO4F3
_symmetry_space_group_name_H-M  'P1'
_cell_length_a       7.21176
_cell_length_b       7.50272
_cell_length_c       7.13207
_cell_angle_alpha    114.073
_cell_angle_beta     128.94
_cell_angle_gamma    107.585

_symmetry_Int_Tables_number  1
_chemical_formula_structural  Sn3PO4F3
_chemical_formula_sum  Sn3PO4F3
_cell_volume  169.27659004909776
_cell_formula_units_Z  1
loop_
  _symmetry_equiv_pos_site_id
 _symmetry_equiv_pos_as_xyz
 1  'x, y, z'
loop_
 _atom_site_type_symbol
 _atom_site_label
 _atom_site_symmetry_multiplicity
 _atom_site_fract_x
 _atom_site_fract_y
 _atom_site_fract_z
 _atom_site_fract_occupancy
 F  F1  1  0.04241  0.59942  0.52633  1
 F  F2  1  0.84101  0.10208  0.22365  1
 F  F3  1  0.13088  0.07804  0.07699  1
 O  O1  1  -0.10485  0.53709  -0.22428  1
 O  O2  1  0.42652  0.62376  0.14298  1
 O  O3  1  0.49030  -0.04622  0.54139  1
 O  O4  1  0.28962  0.11737  0.81278  1
 P  P1  1  0.34062  0.78853  0.18296  1
 Sn  Sn1  1  0.55051  0.71870  0.65855  1
 Sn  Sn2  1  0.65838  0.54188  0.06747  1
 Sn  Sn3  1  0.53561  0.14034  0.19219  1
