CIF file written using JARVIS-Tools package.
data_NaFePO4
_symmetry_space_group_name_H-M  'Cmcm'
_cell_length_a       5.01832
_cell_length_b       5.01832
_cell_length_c       6.80938
_cell_angle_alpha    90
_cell_angle_beta     90
_cell_angle_gamma    65.6259

_symmetry_Int_Tables_number  63
_chemical_formula_structural  NaFePO4
_chemical_formula_sum  Na2Fe2P2O8
_cell_volume  156.20029976773807
_cell_formula_units_Z  2
loop_
  _symmetry_equiv_pos_site_id
 _symmetry_equiv_pos_as_xyz
 1  'x, y, z'
loop_
 _atom_site_type_symbol
 _atom_site_label
 _atom_site_symmetry_multiplicity
 _atom_site_fract_x
 _atom_site_fract_y
 _atom_site_fract_z
 _atom_site_fract_occupancy
 Fe  Fe1  1  0.00000  0.00000  0.00000  1
 Fe  Fe2  1  0.00000  0.00000  0.50000  1
 Na  Na1  1  0.31431  0.31431  0.75000  1
 Na  Na2  1  0.68569  0.68569  0.25000  1
 O  O1  1  0.21024  0.67887  0.25000  1
 O  O2  1  0.32113  0.78976  0.75000  1
 O  O3  1  0.23013  0.23013  0.06631  1
 O  O4  1  0.23013  0.23013  0.43369  1
 O  O5  1  0.76987  0.76987  0.56631  1
 O  O6  1  0.76987  0.76987  0.93369  1
 O  O7  1  0.67887  0.21024  0.25000  1
 O  O8  1  0.78976  0.32113  0.75000  1
 P  P1  1  0.33673  0.33673  0.25000  1
 P  P2  1  0.66327  0.66327  0.75000  1
