CIF file written using JARVIS-Tools package.
data_Mg6ZnFe
_symmetry_space_group_name_H-M  'Amm2'
_cell_length_a       6.08261
_cell_length_b       6.15123
_cell_length_c       4.77183
_cell_angle_alpha    90
_cell_angle_beta     90
_cell_angle_gamma    120.374

_symmetry_Int_Tables_number  38
_chemical_formula_structural  Mg6ZnFe
_chemical_formula_sum  Mg6ZnFe
_cell_volume  154.0346102972705
_cell_formula_units_Z  1
loop_
  _symmetry_equiv_pos_site_id
 _symmetry_equiv_pos_as_xyz
 1  'x, y, z'
loop_
 _atom_site_type_symbol
 _atom_site_label
 _atom_site_symmetry_multiplicity
 _atom_site_fract_x
 _atom_site_fract_y
 _atom_site_fract_z
 _atom_site_fract_occupancy
 Fe  Fe1  1  0.16382  0.83191  0.25000  1
 Mg  Mg1  1  0.66762  0.33534  0.25000  1
 Mg  Mg2  1  0.66762  0.83228  0.25000  1
 Mg  Mg3  1  0.32244  0.15344  0.75000  1
 Mg  Mg4  1  0.32244  0.66900  0.75000  1
 Mg  Mg5  1  0.84089  0.17045  0.75000  1
 Mg  Mg6  1  0.84832  0.67416  0.75000  1
 Zn  Zn1  1  0.16686  0.33343  0.25000  1
