CIF file written using JARVIS-Tools package.
data_LiTaO3
_symmetry_space_group_name_H-M  'P4/mbm'
_cell_length_a       5.4111
_cell_length_b       5.41112
_cell_length_c       3.9428
_cell_angle_alpha    90
_cell_angle_beta     90
_cell_angle_gamma    89.9996

_symmetry_Int_Tables_number  127
_chemical_formula_structural  LiTaO3
_chemical_formula_sum  Li2Ta2O6
_cell_volume  115.44567395872899
_cell_formula_units_Z  2
loop_
  _symmetry_equiv_pos_site_id
 _symmetry_equiv_pos_as_xyz
 1  'x, y, z'
loop_
 _atom_site_type_symbol
 _atom_site_label
 _atom_site_symmetry_multiplicity
 _atom_site_fract_x
 _atom_site_fract_y
 _atom_site_fract_z
 _atom_site_fract_occupancy
 Li  Li1  1  -0.00003  0.49996  0.50000  1
 Li  Li2  1  0.49993  -0.00007  0.50000  1
 O  O1  1  0.00008  0.00006  0.50000  1
 O  O2  1  0.17646  0.67646  0.00000  1
 O  O3  1  0.32357  0.17647  0.00000  1
 O  O4  1  0.50005  0.50008  0.50000  1
 O  O5  1  0.67647  0.82357  0.00000  1
 O  O6  1  0.82356  0.32356  0.00000  1
 Ta  Ta1  1  0.99998  -0.00000  0.00000  1
 Ta  Ta2  1  0.50000  0.49998  0.00000  1
