CIF file written using JARVIS-Tools package.
data_AlFeO3
_symmetry_space_group_name_H-M  'Pnma'
_cell_length_a       4.85743
_cell_length_b       5.11689
_cell_length_c       7.3513
_cell_angle_alpha    90
_cell_angle_beta     90
_cell_angle_gamma    90

_symmetry_Int_Tables_number  62
_chemical_formula_structural  AlFeO3
_chemical_formula_sum  Al4Fe4O2
_cell_volume  182.71583076041833
_cell_formula_units_Z  4
loop_
  _symmetry_equiv_pos_site_id
 _symmetry_equiv_pos_as_xyz
 1  'x, y, z'
loop_
 _atom_site_type_symbol
 _atom_site_label
 _atom_site_symmetry_multiplicity
 _atom_site_fract_x
 _atom_site_fract_y
 _atom_site_fract_z
 _atom_site_fract_occupancy
 Al  Al1  1  0.00000  0.50000  0.00000  1
 Al  Al2  1  0.00000  0.50000  0.50000  1
 Al  Al3  1  0.50000  0.00000  0.00000  1
 Al  Al4  1  0.50000  0.00000  0.50000  1
 Fe  Fe1  1  0.02481  0.94517  0.75000  1
 Fe  Fe2  1  0.47519  0.44517  0.75000  1
 Fe  Fe3  1  0.52481  0.55483  0.25000  1
 Fe  Fe4  1  0.97519  0.05483  0.25000  1
 O  O1  1  0.13822  0.44211  0.25000  1
 O  O2  1  0.80890  0.80479  0.42836  1
 O  O3  1  0.19110  0.19521  0.92836  1
 O  O4  1  0.30890  0.69521  0.92836  1
 O  O5  1  0.19110  0.19521  0.57164  1
 O  O6  1  0.69110  0.30479  0.42836  1
 O  O7  1  0.63822  0.05789  0.75000  1
 O  O8  1  0.69110  0.30479  0.07164  1
 O  O9  1  0.30890  0.69521  0.57164  1
 O  O10  1  0.80890  0.80479  0.07164  1
 O  O11  1  0.36178  0.94211  0.25000  1
 O  O12  1  0.86178  0.55789  0.75000  1
