CIF file written using JARVIS-Tools package.
data_Dy3Mn3Ga2Si
_symmetry_space_group_name_H-M  'P-62m'
_cell_length_a       7.03364
_cell_length_b       7.03364
_cell_length_c       3.94177
_cell_angle_alpha    90
_cell_angle_beta     90
_cell_angle_gamma    120

_symmetry_Int_Tables_number  189
_chemical_formula_structural  Dy3Mn3Ga2Si
_chemical_formula_sum  Dy3Mn3Ga2Si
_cell_volume  168.8812181325114
_cell_formula_units_Z  1
loop_
  _symmetry_equiv_pos_site_id
 _symmetry_equiv_pos_as_xyz
 1  'x, y, z'
loop_
 _atom_site_type_symbol
 _atom_site_label
 _atom_site_symmetry_multiplicity
 _atom_site_fract_x
 _atom_site_fract_y
 _atom_site_fract_z
 _atom_site_fract_occupancy
 Dy  Dy1  1  0.40789  0.00000  0.00000  1
 Dy  Dy2  1  0.59211  0.59211  0.00000  1
 Dy  Dy3  1  0.00000  0.40789  0.00000  1
 Ga  Ga1  1  0.66667  0.33333  0.50000  1
 Ga  Ga2  1  0.33333  0.66667  0.50000  1
 Mn  Mn1  1  0.21833  0.21833  0.50000  1
 Mn  Mn2  1  0.00000  0.78167  0.50000  1
 Mn  Mn3  1  0.78167  0.00000  0.50000  1
 Si  Si1  1  0.00000  0.00000  0.00000  1
