CIF file written using JARVIS-Tools package.
data_RbTaO3
_symmetry_space_group_name_H-M  'R3m'
_cell_length_a       4.07083
_cell_length_b       4.07083
_cell_length_c       4.07083
_cell_angle_alpha    89.957
_cell_angle_beta     89.957
_cell_angle_gamma    89.957

_symmetry_Int_Tables_number  160
_chemical_formula_structural  RbTaO3
_chemical_formula_sum  RbTaO3
_cell_volume  67.46031594328733
_cell_formula_units_Z  1
loop_
  _symmetry_equiv_pos_site_id
 _symmetry_equiv_pos_as_xyz
 1  'x, y, z'
loop_
 _atom_site_type_symbol
 _atom_site_label
 _atom_site_symmetry_multiplicity
 _atom_site_fract_x
 _atom_site_fract_y
 _atom_site_fract_z
 _atom_site_fract_occupancy
 O  O1  1  0.03420  0.53074  0.53074  1
 O  O2  1  0.53074  0.03420  0.53074  1
 O  O3  1  0.53074  0.53074  0.03420  1
 Rb  Rb1  1  0.02426  0.02426  0.02426  1
 Ta  Ta1  1  0.51603  0.51603  0.51603  1
