CIF file written using JARVIS-Tools package.
data_PbBr2
_symmetry_space_group_name_H-M  'P4_2/mnm'
_cell_length_a       7.0971
_cell_length_b       7.0971
_cell_length_c       4.57566
_cell_angle_alpha    90
_cell_angle_beta     90
_cell_angle_gamma    90

_symmetry_Int_Tables_number  136
_chemical_formula_structural  PbBr2
_chemical_formula_sum  Pb2Br4
_cell_volume  230.4707502701063
_cell_formula_units_Z  2
loop_
  _symmetry_equiv_pos_site_id
 _symmetry_equiv_pos_as_xyz
 1  'x, y, z'
loop_
 _atom_site_type_symbol
 _atom_site_label
 _atom_site_symmetry_multiplicity
 _atom_site_fract_x
 _atom_site_fract_y
 _atom_site_fract_z
 _atom_site_fract_occupancy
 Br  Br1  1  0.30067  0.30067  0.00000  1
 Br  Br2  1  0.69933  0.69933  0.00000  1
 Br  Br3  1  0.80067  0.19933  0.50000  1
 Br  Br4  1  0.19933  0.80067  0.50000  1
 Pb  Pb1  1  0.00000  0.00000  0.00000  1
 Pb  Pb2  1  0.50000  0.50000  0.50000  1
