CIF file written using JARVIS-Tools package.
data_ZrSn
_symmetry_space_group_name_H-M  'P4/nmm'
_cell_length_a       6.00294
_cell_length_b       5.59413
_cell_length_c       5.59406
_cell_angle_alpha    90
_cell_angle_beta     90
_cell_angle_gamma    90

_symmetry_Int_Tables_number  129
_chemical_formula_structural  ZrSn
_chemical_formula_sum  Zr4Sn4
_cell_volume  187.85546029423648
_cell_formula_units_Z  4
loop_
  _symmetry_equiv_pos_site_id
 _symmetry_equiv_pos_as_xyz
 1  'x, y, z'
loop_
 _atom_site_type_symbol
 _atom_site_label
 _atom_site_symmetry_multiplicity
 _atom_site_fract_x
 _atom_site_fract_y
 _atom_site_fract_z
 _atom_site_fract_occupancy
 Sn  Sn1  1  0.64397  0.00006  0.25000  1
 Sn  Sn2  1  0.35603  0.50006  0.25000  1
 Sn  Sn3  1  0.64397  0.49994  0.75000  1
 Sn  Sn4  1  0.35603  0.99994  0.75000  1
 Zr  Zr1  1  0.86937  0.50005  0.25000  1
 Zr  Zr2  1  0.13063  0.00005  0.25000  1
 Zr  Zr3  1  0.86937  0.99995  0.75000  1
 Zr  Zr4  1  0.13063  0.49995  0.75000  1
