CIF file written using JARVIS-Tools package.
data_Ho6ReO12
_symmetry_space_group_name_H-M  'R-3'
_cell_length_a       6.4301
_cell_length_b       6.4301
_cell_length_c       6.43011
_cell_angle_alpha    98.7452
_cell_angle_beta     98.7452
_cell_angle_gamma    98.7452

_symmetry_Int_Tables_number  148
_chemical_formula_structural  Ho6ReO12
_chemical_formula_sum  Ho6ReO2
_cell_volume  255.5057043017302
_cell_formula_units_Z  1
loop_
  _symmetry_equiv_pos_site_id
 _symmetry_equiv_pos_as_xyz
 1  'x, y, z'
loop_
 _atom_site_type_symbol
 _atom_site_label
 _atom_site_symmetry_multiplicity
 _atom_site_fract_x
 _atom_site_fract_y
 _atom_site_fract_z
 _atom_site_fract_occupancy
 Ho  Ho1  1  0.38904  0.85630  0.68523  1
 Ho  Ho2  1  0.31477  0.61096  0.14370  1
 Ho  Ho3  1  0.14370  0.31477  0.61096  1
 Ho  Ho4  1  0.85630  0.68523  0.38904  1
 Ho  Ho5  1  0.68523  0.38904  0.85630  1
 Ho  Ho6  1  0.61096  0.14370  0.31477  1
 O  O1  1  0.03558  0.92606  0.70206  1
 O  O2  1  0.29794  0.96443  0.07394  1
 O  O3  1  0.70206  0.03558  0.92606  1
 O  O4  1  0.56786  0.82276  0.41050  1
 O  O5  1  0.17724  0.58950  0.43214  1
 O  O6  1  0.92606  0.70206  0.03558  1
 O  O7  1  0.58950  0.43214  0.17724  1
 O  O8  1  0.07394  0.29794  0.96443  1
 O  O9  1  0.43214  0.17724  0.58950  1
 O  O10  1  0.82276  0.41050  0.56786  1
 O  O11  1  0.41050  0.56786  0.82276  1
 O  O12  1  0.96443  0.07394  0.29794  1
 Re  Re1  1  0.00000  0.00000  0.00000  1
