CIF file written using JARVIS-Tools package.
data_AlInO3
_symmetry_space_group_name_H-M  'P6_3/mmc'
_cell_length_a       3.27588
_cell_length_b       3.27597
_cell_length_c       12.0224
_cell_angle_alpha    89.9989
_cell_angle_beta     90.0003
_cell_angle_gamma    60.0002

_symmetry_Int_Tables_number  194
_chemical_formula_structural  AlInO3
_chemical_formula_sum  Al2In2O6
_cell_volume  111.73502707694269
_cell_formula_units_Z  2
loop_
  _symmetry_equiv_pos_site_id
 _symmetry_equiv_pos_as_xyz
 1  'x, y, z'
loop_
 _atom_site_type_symbol
 _atom_site_label
 _atom_site_symmetry_multiplicity
 _atom_site_fract_x
 _atom_site_fract_y
 _atom_site_fract_z
 _atom_site_fract_occupancy
 Al  Al1  1  0.33339  0.33328  0.25000  1
 Al  Al2  1  0.66671  0.66662  0.75000  1
 In  In1  1  -0.00000  -0.00000  -0.00000  1
 In  In2  1  -0.00001  0.00001  0.50000  1
 O  O1  1  0.00006  -0.00006  0.25000  1
 O  O2  1  0.00004  -0.00004  0.75000  1
 O  O3  1  0.33332  0.33334  0.40793  1
 O  O4  1  0.33333  0.33333  0.09207  1
 O  O5  1  0.66668  0.66666  0.59208  1
 O  O6  1  0.66669  0.66665  0.90792  1
