CIF file written using JARVIS-Tools package.
data_ScNiC2
_symmetry_space_group_name_H-M  'P4/nmm'
_cell_length_a       3.37359
_cell_length_b       3.37359
_cell_length_c       7.26302
_cell_angle_alpha    90
_cell_angle_beta     90
_cell_angle_gamma    90

_symmetry_Int_Tables_number  129
_chemical_formula_structural  ScNiC2
_chemical_formula_sum  Sc2Ni2C4
_cell_volume  82.66128019148616
_cell_formula_units_Z  2
loop_
  _symmetry_equiv_pos_site_id
 _symmetry_equiv_pos_as_xyz
 1  'x, y, z'
loop_
 _atom_site_type_symbol
 _atom_site_label
 _atom_site_symmetry_multiplicity
 _atom_site_fract_x
 _atom_site_fract_y
 _atom_site_fract_z
 _atom_site_fract_occupancy
 C  C1  1  0.75000  0.75000  0.16530  1
 C  C2  1  0.25000  0.25000  0.83470  1
 C  C3  1  0.75000  0.75000  0.35350  1
 C  C4  1  0.25000  0.25000  0.64650  1
 Ni  Ni1  1  0.75000  0.25000  0.00000  1
 Ni  Ni2  1  0.25000  0.75000  0.00000  1
 Sc  Sc1  1  0.75000  0.75000  0.65679  1
 Sc  Sc2  1  0.25000  0.25000  0.34321  1
