CIF file written using JARVIS-Tools package.
data_Ba2YBr7
_symmetry_space_group_name_H-M  'C2/c'
_cell_length_a       9.71338
_cell_length_b       9.71338
_cell_length_c       10.8898
_cell_angle_alpha    55.4037
_cell_angle_beta     124.596
_cell_angle_gamma    127.716

_symmetry_Int_Tables_number  15
_chemical_formula_structural  Ba2YBr7
_chemical_formula_sum  Ba4Y2Br4
_cell_volume  629.5481125814401
_cell_formula_units_Z  2
loop_
  _symmetry_equiv_pos_site_id
 _symmetry_equiv_pos_as_xyz
 1  'x, y, z'
loop_
 _atom_site_type_symbol
 _atom_site_label
 _atom_site_symmetry_multiplicity
 _atom_site_fract_x
 _atom_site_fract_y
 _atom_site_fract_z
 _atom_site_fract_occupancy
 Ba  Ba1  1  0.30647  0.68365  0.72177  1
 Ba  Ba2  1  0.31635  0.69353  0.22177  1
 Ba  Ba3  1  0.68365  0.30647  0.77823  1
 Ba  Ba4  1  0.69353  0.31635  0.27823  1
 Br  Br1  1  0.06941  0.68810  0.84772  1
 Br  Br2  1  0.31190  0.93059  0.34772  1
 Br  Br3  1  0.07245  0.24731  0.93683  1
 Br  Br4  1  0.68810  0.06941  0.65228  1
 Br  Br5  1  0.60052  0.60052  0.75000  1
 Br  Br6  1  0.10725  0.35856  0.54923  1
 Br  Br7  1  0.35856  0.10725  0.95077  1
 Br  Br8  1  0.24731  0.07245  0.56317  1
 Br  Br9  1  0.75269  0.92755  0.43683  1
 Br  Br10  1  0.39948  0.39948  0.25000  1
 Br  Br11  1  0.89275  0.64144  0.45077  1
 Br  Br12  1  0.92755  0.75269  0.06317  1
 Br  Br13  1  0.64144  0.89275  0.04923  1
 Br  Br14  1  0.93059  0.31190  0.15228  1
 Y  Y1  1  0.03695  0.03695  0.25000  1
 Y  Y2  1  0.96305  0.96305  0.75000  1
