CIF file written using JARVIS-Tools package.
data_CSO
_symmetry_space_group_name_H-M  'R3m'
_cell_length_a       3.98762
_cell_length_b       3.98762
_cell_length_c       3.98762
_cell_angle_alpha    98.286
_cell_angle_beta     98.2859
_cell_angle_gamma    98.286

_symmetry_Int_Tables_number  160
_chemical_formula_structural  CSO
_chemical_formula_sum  CSO
_cell_volume  61.20421927106422
_cell_formula_units_Z  1
loop_
  _symmetry_equiv_pos_site_id
 _symmetry_equiv_pos_as_xyz
 1  'x, y, z'
loop_
 _atom_site_type_symbol
 _atom_site_label
 _atom_site_symmetry_multiplicity
 _atom_site_fract_x
 _atom_site_fract_y
 _atom_site_fract_z
 _atom_site_fract_occupancy
 C  C1  1  0.20154  0.20154  0.20154  1
 O  O1  1  -0.00004  -0.00004  -0.00004  1
 S  S1  1  0.46830  0.46830  0.46830  1
