CIF file written using JARVIS-Tools package.
data_Sr5P3ClO12
_symmetry_space_group_name_H-M  'P6_3/m'
_cell_length_a       9.92398
_cell_length_b       9.92398
_cell_length_c       7.21503
_cell_angle_alpha    90
_cell_angle_beta     90
_cell_angle_gamma    120

_symmetry_Int_Tables_number  176
_chemical_formula_structural  Sr5P3ClO12
_chemical_formula_sum  Sr0P6Cl2O24
_cell_volume  615.3757488259131
_cell_formula_units_Z  2
loop_
  _symmetry_equiv_pos_site_id
 _symmetry_equiv_pos_as_xyz
 1  'x, y, z'
loop_
 _atom_site_type_symbol
 _atom_site_label
 _atom_site_symmetry_multiplicity
 _atom_site_fract_x
 _atom_site_fract_y
 _atom_site_fract_z
 _atom_site_fract_occupancy
 Cl  Cl1  1  0.00000  0.00000  0.50000  1
 Cl  Cl2  1  0.00000  0.00000  0.00000  1
 O  O1  1  0.14511  0.66446  0.25000  1
 O  O2  1  0.35573  0.26617  0.42410  1
 O  O3  1  0.41223  0.53194  0.75000  1
 O  O4  1  0.33554  0.48065  0.25000  1
 O  O5  1  0.91044  0.64427  0.07590  1
 O  O6  1  0.08956  0.35573  0.57590  1
 O  O7  1  0.88028  0.41223  0.25000  1
 O  O8  1  0.35573  0.26617  0.07590  1
 O  O9  1  0.66446  0.51935  0.75000  1
 O  O10  1  0.64427  0.73383  0.57590  1
 O  O11  1  0.64427  0.73383  0.92410  1
 O  O12  1  0.73383  0.08956  0.07590  1
 O  O13  1  0.73383  0.08956  0.42410  1
 O  O14  1  0.85489  0.33554  0.75000  1
 O  O15  1  0.48065  0.14511  0.75000  1
 O  O16  1  0.51935  0.85489  0.25000  1
 O  O17  1  0.46806  0.88028  0.75000  1
 O  O18  1  0.58777  0.46806  0.25000  1
 O  O19  1  0.26617  0.91044  0.92410  1
 O  O20  1  0.53194  0.11972  0.25000  1
 O  O21  1  0.08956  0.35573  0.92410  1
 O  O22  1  0.11972  0.58777  0.75000  1
 O  O23  1  0.91044  0.64427  0.42410  1
 O  O24  1  0.26617  0.91044  0.57590  1
 P  P1  1  0.03441  0.40654  0.75000  1
 P  P2  1  0.62787  0.03441  0.25000  1
 P  P3  1  0.59346  0.62787  0.75000  1
 P  P4  1  0.40654  0.37213  0.25000  1
 P  P5  1  0.96559  0.59346  0.25000  1
 P  P6  1  0.37213  0.96559  0.75000  1
 Sr  Sr1  1  0.33333  0.66667  0.49889  1
 Sr  Sr2  1  0.33333  0.66667  0.00111  1
 Sr  Sr3  1  0.25675  0.24760  0.75000  1
 Sr  Sr4  1  0.24760  0.99085  0.25000  1
 Sr  Sr5  1  0.00915  0.25675  0.25000  1
 Sr  Sr6  1  0.74325  0.75240  0.25000  1
 Sr  Sr7  1  0.66667  0.33333  0.99889  1
 Sr  Sr8  1  0.66667  0.33333  0.50111  1
 Sr  Sr9  1  0.75240  0.00915  0.75000  1
 Sr  Sr10  1  0.99085  0.74325  0.75000  1
