CIF file written using JARVIS-Tools package.
data_Na2CoO3
_symmetry_space_group_name_H-M  'C2/m'
_cell_length_a       5.1811
_cell_length_b       5.1811
_cell_length_c       5.57638
_cell_angle_alpha    80.8167
_cell_angle_beta     99.1833
_cell_angle_gamma    59.9403

_symmetry_Int_Tables_number  12
_chemical_formula_structural  Na2CoO3
_chemical_formula_sum  Na4Co2O6
_cell_volume  122.76884882321065
_cell_formula_units_Z  2
loop_
  _symmetry_equiv_pos_site_id
 _symmetry_equiv_pos_as_xyz
 1  'x, y, z'
loop_
 _atom_site_type_symbol
 _atom_site_label
 _atom_site_symmetry_multiplicity
 _atom_site_fract_x
 _atom_site_fract_y
 _atom_site_fract_z
 _atom_site_fract_occupancy
 Co  Co1  1  0.66724  0.66724  -0.00000  1
 Co  Co2  1  0.33276  0.33276  -0.00000  1
 Na  Na1  1  0.15700  0.15700  0.50000  1
 Na  Na2  1  0.84300  0.84300  0.50000  1
 Na  Na3  1  0.50000  0.50000  0.50000  1
 Na  Na4  1  0.00000  0.00000  0.00000  1
 O  O1  1  0.30980  0.69020  0.80164  1
 O  O2  1  0.06752  0.55316  0.19763  1
 O  O3  1  0.44684  0.93248  0.19763  1
 O  O4  1  0.93248  0.44684  0.80237  1
 O  O5  1  0.55316  0.06752  0.80237  1
 O  O6  1  0.69020  0.30980  0.19836  1
