CIF file written using JARVIS-Tools package.
data_BeCuPt
_symmetry_space_group_name_H-M  'I4mm'
_cell_length_a       4.97418
_cell_length_b       4.97418
_cell_length_c       4.97418
_cell_angle_alpha    147.353
_cell_angle_beta     147.353
_cell_angle_gamma    46.8412

_symmetry_Int_Tables_number  107
_chemical_formula_structural  BeCuPt
_chemical_formula_sum  BeCuPt
_cell_volume  35.684256542101174
_cell_formula_units_Z  1
loop_
  _symmetry_equiv_pos_site_id
 _symmetry_equiv_pos_as_xyz
 1  'x, y, z'
loop_
 _atom_site_type_symbol
 _atom_site_label
 _atom_site_symmetry_multiplicity
 _atom_site_fract_x
 _atom_site_fract_y
 _atom_site_fract_z
 _atom_site_fract_occupancy
 Be  Be1  1  0.00361  0.00361  -0.00000  1
 Cu  Cu1  1  0.35078  0.35078  0.00000  1
 Pt  Pt1  1  0.64560  0.64560  -0.00000  1
