CIF file written using JARVIS-Tools package.
data_VS2
_symmetry_space_group_name_H-M  'R-3m'
_cell_length_a       6.62681
_cell_length_b       6.62681
_cell_length_c       6.62681
_cell_angle_alpha    27.8955
_cell_angle_beta     27.8955
_cell_angle_gamma    27.8954

_symmetry_Int_Tables_number  166
_chemical_formula_structural  VS2
_chemical_formula_sum  VS2
_cell_volume  56.25481093666338
_cell_formula_units_Z  1
loop_
  _symmetry_equiv_pos_site_id
 _symmetry_equiv_pos_as_xyz
 1  'x, y, z'
loop_
 _atom_site_type_symbol
 _atom_site_label
 _atom_site_symmetry_multiplicity
 _atom_site_fract_x
 _atom_site_fract_y
 _atom_site_fract_z
 _atom_site_fract_occupancy
 S  S1  1  0.58996  0.58996  0.58996  1
 S  S2  1  0.41004  0.41004  0.41004  1
 V  V1  1  0.00000  0.00000  0.00000  1
