CIF file written using JARVIS-Tools package.
data_HfTlCuS3
_symmetry_space_group_name_H-M  'Cmcm'
_cell_length_a       3.70526
_cell_length_b       7.31156
_cell_length_c       9.76423
_cell_angle_alpha    90
_cell_angle_beta     90
_cell_angle_gamma    104.678

_symmetry_Int_Tables_number  63
_chemical_formula_structural  HfTlCuS3
_chemical_formula_sum  Hf2Tl2Cu2S6
_cell_volume  255.89239798735113
_cell_formula_units_Z  2
loop_
  _symmetry_equiv_pos_site_id
 _symmetry_equiv_pos_as_xyz
 1  'x, y, z'
loop_
 _atom_site_type_symbol
 _atom_site_label
 _atom_site_symmetry_multiplicity
 _atom_site_fract_x
 _atom_site_fract_y
 _atom_site_fract_z
 _atom_site_fract_occupancy
 Cu  Cu1  1  0.45822  0.91644  0.75000  1
 Cu  Cu2  1  0.54178  0.08356  0.25000  1
 Hf  Hf1  1  0.00000  0.00000  0.50000  1
 Hf  Hf2  1  0.00000  0.00000  0.00000  1
 S  S1  1  0.37726  0.75452  0.54590  1
 S  S2  1  0.62274  0.24548  0.45410  1
 S  S3  1  0.62274  0.24548  0.04590  1
 S  S4  1  0.06009  0.12018  0.75000  1
 S  S5  1  0.93991  0.87982  0.25000  1
 S  S6  1  0.37726  0.75452  0.95410  1
 Tl  Tl1  1  0.25636  0.51273  0.25000  1
 Tl  Tl2  1  0.74364  0.48727  0.75000  1
