CIF file written using JARVIS-Tools package.
data_LiCu2F6
_symmetry_space_group_name_H-M  'P4_2/mnm'
_cell_length_a       4.62242
_cell_length_b       4.62262
_cell_length_c       9.07861
_cell_angle_alpha    90.0021
_cell_angle_beta     90.0003
_cell_angle_gamma    89.9996

_symmetry_Int_Tables_number  136
_chemical_formula_structural  LiCu2F6
_chemical_formula_sum  Li2Cu4F2
_cell_volume  193.98917908526673
_cell_formula_units_Z  2
loop_
  _symmetry_equiv_pos_site_id
 _symmetry_equiv_pos_as_xyz
 1  'x, y, z'
loop_
 _atom_site_type_symbol
 _atom_site_label
 _atom_site_symmetry_multiplicity
 _atom_site_fract_x
 _atom_site_fract_y
 _atom_site_fract_z
 _atom_site_fract_occupancy
 Cu  Cu1  1  -0.00000  -0.00001  0.66848  1
 Cu  Cu2  1  0.00002  0.99999  0.33152  1
 Cu  Cu3  1  0.50000  0.50000  0.83152  1
 Cu  Cu4  1  0.50001  0.49999  0.16848  1
 F  F1  1  0.69890  0.69887  0.66965  1
 F  F2  1  0.19294  0.80709  0.50000  1
 F  F3  1  0.19890  0.80112  0.83036  1
 F  F4  1  0.80109  0.19887  0.83036  1
 F  F5  1  0.30109  0.30112  0.66965  1
 F  F6  1  0.19892  0.80112  0.16964  1
 F  F7  1  0.80708  0.19290  0.50000  1
 F  F8  1  0.69293  0.69290  -0.00000  1
 F  F9  1  0.30112  0.30111  0.33035  1
 F  F10  1  0.69892  0.69887  0.33035  1
 F  F11  1  0.80112  0.19887  0.16964  1
 F  F12  1  0.30708  0.30710  -0.00000  1
 Li  Li1  1  0.50001  0.49999  0.50000  1
 Li  Li2  1  1.00000  0.00000  0.00000  1
