CIF file written using JARVIS-Tools package.
data_Li5Ti2Co3O10
_symmetry_space_group_name_H-M  'P1'
_cell_length_a       5.06679
_cell_length_b       5.03397
_cell_length_c       7.5631
_cell_angle_alpha    71.9468
_cell_angle_beta     71.3939
_cell_angle_gamma    81.4214

_symmetry_Int_Tables_number  1
_chemical_formula_structural  Li5Ti2Co3O10
_chemical_formula_sum  Li5Ti2Co3O0
_cell_volume  173.55136424204025
_cell_formula_units_Z  1
loop_
  _symmetry_equiv_pos_site_id
 _symmetry_equiv_pos_as_xyz
 1  'x, y, z'
loop_
 _atom_site_type_symbol
 _atom_site_label
 _atom_site_symmetry_multiplicity
 _atom_site_fract_x
 _atom_site_fract_y
 _atom_site_fract_z
 _atom_site_fract_occupancy
 Co  Co1  1  0.00057  0.50000  0.99943  1
 Co  Co2  1  0.69601  0.00271  0.10080  1
 Co  Co3  1  0.30953  0.99879  0.88798  1
 Li  Li1  1  0.58147  0.50905  0.79604  1
 Li  Li2  1  0.22688  0.50138  0.59188  1
 Li  Li3  1  0.50132  0.00501  0.49558  1
 Li  Li4  1  0.42398  0.48866  0.20153  1
 Li  Li5  1  0.78266  0.51098  0.40347  1
 O  O1  1  0.65954  0.76098  0.95152  1
 O  O2  1  0.86137  0.77885  0.54229  1
 O  O3  1  0.02403  0.76048  0.14587  1
 O  O4  1  0.14026  0.22689  0.45542  1
 O  O5  1  0.35571  0.24143  0.05676  1
 O  O6  1  0.22233  0.74424  0.76175  1
 O  O7  1  0.44101  0.76970  0.33354  1
 O  O8  1  0.57025  0.24748  0.64785  1
 O  O9  1  0.77329  0.24392  0.23183  1
 O  O10  1  0.94325  0.24078  0.86526  1
 Ti  Ti1  1  0.11274  0.99643  0.29607  1
 Ti  Ti2  1  0.88200  0.01345  0.70027  1
