CIF file written using JARVIS-Tools package.
data_RbHSeO4
_symmetry_space_group_name_H-M  'P2_12_12_1'
_cell_length_a       12.9177
_cell_length_b       4.60584
_cell_length_c       7.479
_cell_angle_alpha    90
_cell_angle_beta     90
_cell_angle_gamma    90

_symmetry_Int_Tables_number  19
_chemical_formula_structural  RbHSeO4
_chemical_formula_sum  Rb4H4Se4O6
_cell_volume  444.9764758351727
_cell_formula_units_Z  4
loop_
  _symmetry_equiv_pos_site_id
 _symmetry_equiv_pos_as_xyz
 1  'x, y, z'
loop_
 _atom_site_type_symbol
 _atom_site_label
 _atom_site_symmetry_multiplicity
 _atom_site_fract_x
 _atom_site_fract_y
 _atom_site_fract_z
 _atom_site_fract_occupancy
 H  H1  1  0.88621  0.27273  0.82549  1
 H  H2  1  0.61379  0.72727  0.32549  1
 H  H3  1  0.38621  0.22727  0.17451  1
 H  H4  1  0.11379  0.77273  0.67451  1
 O  O1  1  0.92865  0.46364  0.81817  1
 O  O2  1  0.78361  0.57070  0.08378  1
 O  O3  1  0.42865  0.03636  0.18183  1
 O  O4  1  0.28361  0.92930  0.91622  1
 O  O5  1  0.21639  0.07070  0.41622  1
 O  O6  1  0.97406  0.84200  0.08370  1
 O  O7  1  0.52594  0.15800  0.58370  1
 O  O8  1  0.71639  0.42930  0.58378  1
 O  O9  1  0.02594  0.34200  0.41630  1
 O  O10  1  0.82749  0.98100  0.82784  1
 O  O11  1  0.67251  0.01900  0.32784  1
 O  O12  1  0.07135  0.96364  0.68183  1
 O  O13  1  0.17251  0.48100  0.67216  1
 O  O14  1  0.47406  0.65800  0.91630  1
 O  O15  1  0.57135  0.53636  0.31817  1
 O  O16  1  0.32749  0.51900  0.17216  1
 Rb  Rb1  1  0.12215  0.31784  0.04772  1
 Rb  Rb2  1  0.37785  0.68216  0.54772  1
 Rb  Rb3  1  0.62215  0.18216  0.95228  1
 Rb  Rb4  1  0.87785  0.81784  0.45228  1
 Se  Se1  1  0.87511  0.72607  0.96413  1
 Se  Se2  1  0.62489  0.27393  0.46413  1
 Se  Se3  1  0.37511  0.77393  0.03587  1
 Se  Se4  1  0.12489  0.22607  0.53587  1
