CIF file written using JARVIS-Tools package.
data_Sm2ZnS4
_symmetry_space_group_name_H-M  'I-42d'
_cell_length_a       7.35502
_cell_length_b       7.35502
_cell_length_c       7.35502
_cell_angle_alpha    111.199
_cell_angle_beta     106.068
_cell_angle_gamma    111.199

_symmetry_Int_Tables_number  122
_chemical_formula_structural  Sm2ZnS4
_chemical_formula_sum  Sm4Zn2S8
_cell_volume  305.48444722681614
_cell_formula_units_Z  2
loop_
  _symmetry_equiv_pos_site_id
 _symmetry_equiv_pos_as_xyz
 1  'x, y, z'
loop_
 _atom_site_type_symbol
 _atom_site_label
 _atom_site_symmetry_multiplicity
 _atom_site_fract_x
 _atom_site_fract_y
 _atom_site_fract_z
 _atom_site_fract_occupancy
 S  S1  1  0.02085  0.90150  0.49059  1
 S  S2  1  0.47915  0.96974  0.88065  1
 S  S3  1  0.11935  0.09850  0.08909  1
 S  S4  1  0.38065  0.46974  0.97915  1
 S  S5  1  0.58909  0.59850  0.61935  1
 S  S6  1  0.50941  0.03026  0.41091  1
 S  S7  1  0.91091  0.53026  0.00941  1
 S  S8  1  0.99059  0.40150  0.52085  1
 Sm  Sm1  1  0.25000  0.64732  0.39732  1
 Sm  Sm2  1  0.60268  0.35268  0.25000  1
 Sm  Sm3  1  0.75000  0.85268  0.10268  1
 Sm  Sm4  1  0.89732  0.14732  0.75000  1
 Zn  Zn1  1  0.12500  0.75000  0.87500  1
 Zn  Zn2  1  0.37500  0.25000  0.62500  1
