CIF file written using JARVIS-Tools package.
data_V2O3F
_symmetry_space_group_name_H-M  'P1'
_cell_length_a       4.64024
_cell_length_b       5.83399
_cell_length_c       9.73834
_cell_angle_alpha    107.336
_cell_angle_beta     91.5389
_cell_angle_gamma    90.11

_symmetry_Int_Tables_number  1
_chemical_formula_structural  V2O3F
_chemical_formula_sum  V8O2F4
_cell_volume  251.54727778713615
_cell_formula_units_Z  4
loop_
  _symmetry_equiv_pos_site_id
 _symmetry_equiv_pos_as_xyz
 1  'x, y, z'
loop_
 _atom_site_type_symbol
 _atom_site_label
 _atom_site_symmetry_multiplicity
 _atom_site_fract_x
 _atom_site_fract_y
 _atom_site_fract_z
 _atom_site_fract_occupancy
 F  F1  1  0.80565  0.29650  0.09775  1
 F  F2  1  0.20511  0.94518  0.39433  1
 F  F3  1  0.79043  0.54962  0.60198  1
 F  F4  1  0.70372  0.92230  0.85025  1
 O  O1  1  0.30109  0.57369  0.14949  1
 O  O2  1  0.18643  0.45784  0.40678  1
 O  O3  1  0.20917  0.70091  0.89890  1
 O  O4  1  0.19900  0.19752  0.90199  1
 O  O5  1  0.30932  0.07913  0.15637  1
 O  O6  1  0.30628  0.82685  0.65492  1
 O  O7  1  0.28434  0.32213  0.64526  1
 O  O8  1  0.68844  0.17239  0.34559  1
 O  O9  1  0.70241  0.42764  0.84846  1
 O  O10  1  0.80979  0.79833  0.09617  1
 O  O11  1  0.79234  0.05266  0.60215  1
 O  O12  1  0.70214  0.67728  0.35307  1
 V  V1  1  0.99821  0.76460  0.50725  1
 V  V2  1  0.04526  -0.00607  0.00474  1
 V  V3  1  0.01391  0.50301  0.99123  1
 V  V4  1  0.98429  0.23856  0.49410  1
 V  V5  1  0.46950  0.60936  0.75129  1
 V  V6  1  0.46374  0.39526  0.27006  1
 V  V7  1  0.48753  0.13943  0.74513  1
 V  V8  1  0.54188  0.85586  0.23277  1
