CIF file written using JARVIS-Tools package.
data_TiCo3
_symmetry_space_group_name_H-M  'P6_3/mmc'
_cell_length_a       4.06903
_cell_length_b       5.09295
_cell_length_c       5.09319
_cell_angle_alpha    119.998
_cell_angle_beta     90
_cell_angle_gamma    90

_symmetry_Int_Tables_number  194
_chemical_formula_structural  TiCo3
_chemical_formula_sum  Ti2Co6
_cell_volume  91.40955754516966
_cell_formula_units_Z  2
loop_
  _symmetry_equiv_pos_site_id
 _symmetry_equiv_pos_as_xyz
 1  'x, y, z'
loop_
 _atom_site_type_symbol
 _atom_site_label
 _atom_site_symmetry_multiplicity
 _atom_site_fract_x
 _atom_site_fract_y
 _atom_site_fract_z
 _atom_site_fract_occupancy
 Co  Co1  1  0.75000  0.16102  0.32207  1
 Co  Co2  1  0.75000  0.16104  0.83900  1
 Co  Co3  1  0.75000  0.67790  0.83899  1
 Co  Co4  1  0.25000  0.83898  0.67793  1
 Co  Co5  1  0.25000  0.83896  0.16100  1
 Co  Co6  1  0.25000  0.32210  0.16101  1
 Ti  Ti1  1  0.75000  0.66669  0.33340  1
 Ti  Ti2  1  0.25000  0.33331  0.66660  1
