CIF file written using JARVIS-Tools package.
data_SbOF
_symmetry_space_group_name_H-M  'Pna2_1'
_cell_length_a       4.23574
_cell_length_b       6.10128
_cell_length_c       7.68971
_cell_angle_alpha    90
_cell_angle_beta     90
_cell_angle_gamma    90

_symmetry_Int_Tables_number  33
_chemical_formula_structural  SbOF
_chemical_formula_sum  Sb4O4F4
_cell_volume  198.72873986053557
_cell_formula_units_Z  4
loop_
  _symmetry_equiv_pos_site_id
 _symmetry_equiv_pos_as_xyz
 1  'x, y, z'
loop_
 _atom_site_type_symbol
 _atom_site_label
 _atom_site_symmetry_multiplicity
 _atom_site_fract_x
 _atom_site_fract_y
 _atom_site_fract_z
 _atom_site_fract_occupancy
 F  F1  1  0.17586  0.91918  0.72112  1
 F  F2  1  0.67586  0.58082  0.22112  1
 F  F3  1  0.17586  0.41918  0.77888  1
 F  F4  1  0.67586  0.08082  0.27888  1
 O  O1  1  0.73200  0.12243  0.92476  1
 O  O2  1  0.23200  0.37757  0.42476  1
 O  O3  1  0.73200  0.62243  0.57524  1
 O  O4  1  0.23200  0.87757  0.07524  1
 Sb  Sb1  1  0.37843  0.19326  0.08934  1
 Sb  Sb2  1  0.87843  0.30674  0.58934  1
 Sb  Sb3  1  0.37843  0.69326  0.41066  1
 Sb  Sb4  1  0.87843  0.80674  0.91066  1
