CIF file written using JARVIS-Tools package.
data_VP4
_symmetry_space_group_name_H-M  'C2/c'
_cell_length_a       5.30128
_cell_length_b       5.89031
_cell_length_c       6.12537
_cell_angle_alpha    81.2228
_cell_angle_beta     64.359
_cell_angle_gamma    69.352

_symmetry_Int_Tables_number  15
_chemical_formula_structural  VP4
_chemical_formula_sum  V2P8
_cell_volume  161.35987330566394
_cell_formula_units_Z  2
loop_
  _symmetry_equiv_pos_site_id
 _symmetry_equiv_pos_as_xyz
 1  'x, y, z'
loop_
 _atom_site_type_symbol
 _atom_site_label
 _atom_site_symmetry_multiplicity
 _atom_site_fract_x
 _atom_site_fract_y
 _atom_site_fract_z
 _atom_site_fract_occupancy
 P  P1  1  0.49726  0.31043  0.55514  1
 P  P2  1  0.94760  0.18957  0.55514  1
 P  P3  1  0.18577  0.32352  0.17824  1
 P  P4  1  0.63599  0.17648  0.17824  1
 P  P5  1  0.81423  0.67648  0.82176  1
 P  P6  1  0.36401  0.82352  0.82176  1
 P  P7  1  0.05240  0.81043  0.44486  1
 P  P8  1  0.50274  0.68957  0.44486  1
 V  V1  1  0.06239  0.25000  0.87523  1
 V  V2  1  0.93761  0.75000  0.12477  1
