CIF file written using JARVIS-Tools package.
data_KGaCl4
_symmetry_space_group_name_H-M  'P2_1/c'
_cell_length_a       7.28273
_cell_length_b       9.55589
_cell_length_c       9.69376
_cell_angle_alpha    90
_cell_angle_beta     90
_cell_angle_gamma    90.161

_symmetry_Int_Tables_number  14
_chemical_formula_structural  KGaCl4
_chemical_formula_sum  K4Ga4Cl6
_cell_volume  674.6145135092074
_cell_formula_units_Z  4
loop_
  _symmetry_equiv_pos_site_id
 _symmetry_equiv_pos_as_xyz
 1  'x, y, z'
loop_
 _atom_site_type_symbol
 _atom_site_label
 _atom_site_symmetry_multiplicity
 _atom_site_fract_x
 _atom_site_fract_y
 _atom_site_fract_z
 _atom_site_fract_occupancy
 Cl  Cl1  1  0.33303  0.55359  0.32149  1
 Cl  Cl2  1  0.16608  0.55371  0.67699  1
 Cl  Cl3  1  0.66608  0.05371  0.82301  1
 Cl  Cl4  1  0.83392  0.44629  0.32301  1
 Cl  Cl5  1  0.50975  0.18185  0.45641  1
 Cl  Cl6  1  -0.00975  0.31815  -0.04359  1
 Cl  Cl7  1  0.49025  0.81815  0.54359  1
 Cl  Cl8  1  0.00975  0.68185  0.04359  1
 Cl  Cl9  1  0.51098  0.31838  0.04531  1
 Cl  Cl10  1  0.98902  0.18162  0.54531  1
 Cl  Cl11  1  0.33392  0.94629  0.17699  1
 Cl  Cl12  1  0.01098  0.81838  0.45469  1
 Cl  Cl13  1  0.16697  0.94641  0.82149  1
 Cl  Cl14  1  0.66697  0.44641  0.67851  1
 Cl  Cl15  1  0.83303  0.05359  0.17851  1
 Cl  Cl16  1  0.48902  0.68162  0.95469  1
 Ga  Ga1  1  0.75002  0.31659  0.50079  1
 Ga  Ga2  1  0.24998  0.68341  0.49921  1
 Ga  Ga3  1  0.25002  0.81659  0.99921  1
 Ga  Ga4  1  0.74998  0.18341  0.00079  1
 K  K1  1  0.81942  0.75068  0.74922  1
 K  K2  1  0.68058  0.74932  0.24922  1
 K  K3  1  0.18058  0.24932  0.25078  1
 K  K4  1  0.31942  0.25068  0.75078  1
