CIF file written using JARVIS-Tools package.
data_ThTi2O6
_symmetry_space_group_name_H-M  'C2/m'
_cell_length_a       3.84307
_cell_length_b       5.32327
_cell_length_c       6.64119
_cell_angle_alpha    71.6087
_cell_angle_beta     73.1819
_cell_angle_gamma    68.8402

_symmetry_Int_Tables_number  12
_chemical_formula_structural  ThTi2O6
_chemical_formula_sum  ThTi2O6
_cell_volume  117.84513880703506
_cell_formula_units_Z  1
loop_
  _symmetry_equiv_pos_site_id
 _symmetry_equiv_pos_as_xyz
 1  'x, y, z'
loop_
 _atom_site_type_symbol
 _atom_site_label
 _atom_site_symmetry_multiplicity
 _atom_site_fract_x
 _atom_site_fract_y
 _atom_site_fract_z
 _atom_site_fract_occupancy
 O  O1  1  0.27801  0.84780  0.59617  1
 O  O2  1  0.72199  0.15220  0.40383  1
 O  O3  1  0.65598  0.79456  0.89348  1
 O  O4  1  0.02355  0.64129  0.31160  1
 O  O5  1  0.97645  0.35871  0.68840  1
 O  O6  1  0.34402  0.20544  0.10652  1
 Th  Th1  1  0.00000  0.00000  0.00000  1
 Ti  Ti1  1  0.82331  0.74579  0.60760  1
 Ti  Ti2  1  0.17669  0.25421  0.39240  1
