CIF file written using JARVIS-Tools package.
data_K2MnP2O7
_symmetry_space_group_name_H-M  'P2_1/c'
_cell_length_a       5.51079
_cell_length_b       9.59057
_cell_length_c       12.5764
_cell_angle_alpha    104.144
_cell_angle_beta     90
_cell_angle_gamma    90

_symmetry_Int_Tables_number  14
_chemical_formula_structural  K2MnP2O7
_chemical_formula_sum  K8Mn4P8O28
_cell_volume  644.5339888593164
_cell_formula_units_Z  4
loop_
  _symmetry_equiv_pos_site_id
 _symmetry_equiv_pos_as_xyz
 1  'x, y, z'
loop_
 _atom_site_type_symbol
 _atom_site_label
 _atom_site_symmetry_multiplicity
 _atom_site_fract_x
 _atom_site_fract_y
 _atom_site_fract_z
 _atom_site_fract_occupancy
 K  K1  1  0.73906  0.37104  0.85427  1
 K  K2  1  0.76094  0.87104  0.35427  1
 K  K3  1  0.27920  0.35834  0.32052  1
 K  K4  1  0.26094  0.62896  0.14573  1
 K  K5  1  0.72080  0.64166  0.67948  1
 K  K6  1  0.23906  0.12896  0.64573  1
 K  K7  1  0.22080  0.85834  0.82052  1
 K  K8  1  0.77920  0.14166  0.17948  1
 Mn  Mn1  1  0.24001  0.25206  0.01825  1
 Mn  Mn2  1  0.74001  0.24794  0.48175  1
 Mn  Mn3  1  0.25999  0.75206  0.51825  1
 Mn  Mn4  1  0.75999  0.74794  0.98175  1
 O  O1  1  0.00323  0.60733  0.85286  1
 O  O2  1  0.77229  0.39547  0.37419  1
 O  O3  1  0.95965  0.38090  0.60730  1
 O  O4  1  0.22771  0.60453  0.62581  1
 O  O5  1  0.09836  0.85121  0.04335  1
 O  O6  1  0.80554  0.07567  0.75859  1
 O  O7  1  -0.00323  0.39267  0.14714  1
 O  O8  1  0.03758  0.13583  0.38304  1
 O  O9  1  0.76379  0.57057  0.06314  1
 O  O10  1  0.27229  0.10453  0.12581  1
 O  O11  1  0.04035  0.61910  0.39270  1
 O  O12  1  0.53758  0.36417  0.11696  1
 O  O13  1  0.45965  0.11910  0.89270  1
 O  O14  1  0.50323  0.89267  0.64714  1
 O  O15  1  0.96242  0.86417  0.61696  1
 O  O16  1  0.72771  0.89547  0.87419  1
 O  O17  1  0.59836  0.64879  0.45665  1
 O  O18  1  0.46242  0.63583  0.88304  1
 O  O19  1  0.40164  0.35121  0.54335  1
 O  O20  1  0.54035  0.88090  0.10730  1
 O  O21  1  0.69446  0.57567  0.25859  1
 O  O22  1  0.19446  0.92433  0.24141  1
 O  O23  1  0.73621  0.07057  0.56314  1
 O  O24  1  0.90164  0.14879  0.95665  1
 O  O25  1  0.23621  0.42943  0.93686  1
 O  O26  1  0.26379  0.92943  0.43686  1
 O  O27  1  0.30554  0.42433  0.74141  1
 O  O28  1  0.49677  0.10733  0.35286  1
 P  P1  1  0.74552  0.96622  0.63716  1
 P  P2  1  0.75448  0.46622  0.13716  1
 P  P3  1  0.78232  0.55637  0.38048  1
 P  P4  1  0.21768  0.44363  0.61952  1
 P  P5  1  0.71768  0.05637  0.88048  1
 P  P6  1  0.28232  0.94363  0.11952  1
 P  P7  1  0.25448  0.03378  0.36284  1
 P  P8  1  0.24552  0.53378  0.86284  1
