CIF file written using JARVIS-Tools package.
data_RbCrF5
_symmetry_space_group_name_H-M  'Pmc2_1'
_cell_length_a       5.54007
_cell_length_b       7.79424
_cell_length_c       9.66478
_cell_angle_alpha    90
_cell_angle_beta     90
_cell_angle_gamma    90

_symmetry_Int_Tables_number  26
_chemical_formula_structural  RbCrF5
_chemical_formula_sum  Rb4Cr4F20
_cell_volume  417.33136369877656
_cell_formula_units_Z  4
loop_
  _symmetry_equiv_pos_site_id
 _symmetry_equiv_pos_as_xyz
 1  'x, y, z'
loop_
 _atom_site_type_symbol
 _atom_site_label
 _atom_site_symmetry_multiplicity
 _atom_site_fract_x
 _atom_site_fract_y
 _atom_site_fract_z
 _atom_site_fract_occupancy
 Cr  Cr1  1  0.00000  0.86287  0.22965  1
 Cr  Cr2  1  0.50000  0.57743  0.34478  1
 Cr  Cr3  1  0.50000  0.42257  0.84478  1
 Cr  Cr4  1  0.00000  0.13713  0.72965  1
 F  F1  1  0.00000  0.14943  0.91416  1
 F  F2  1  0.26461  0.52891  0.93975  1
 F  F3  1  0.74721  0.68554  0.22854  1
 F  F4  1  0.23309  0.02500  0.22310  1
 F  F5  1  0.74721  0.31446  0.72854  1
 F  F6  1  0.50000  0.23653  0.95308  1
 F  F7  1  0.50000  0.76347  0.45308  1
 F  F8  1  0.50000  0.59610  0.71938  1
 F  F9  1  0.23309  0.97500  0.72310  1
 F  F10  1  0.76691  0.97500  0.72310  1
 F  F11  1  0.76691  0.02500  0.22310  1
 F  F12  1  0.73539  0.52891  0.93975  1
 F  F13  1  0.50000  0.40390  0.21938  1
 F  F14  1  0.00000  0.83491  0.04440  1
 F  F15  1  0.25279  0.31446  0.72854  1
 F  F16  1  0.26461  0.47109  0.43975  1
 F  F17  1  0.00000  0.85057  0.41416  1
 F  F18  1  0.25279  0.68554  0.22854  1
 F  F19  1  0.73539  0.47109  0.43975  1
 F  F20  1  0.00000  0.16509  0.54440  1
 Rb  Rb1  1  0.00000  0.64846  0.65284  1
 Rb  Rb2  1  0.00000  0.35154  0.15284  1
 Rb  Rb3  1  0.50000  0.12243  0.47045  1
 Rb  Rb4  1  0.50000  0.87757  0.97045  1
