CIF file written using JARVIS-Tools package.
data_UInPt
_symmetry_space_group_name_H-M  'P-62m'
_cell_length_a       4.14941
_cell_length_b       7.4089
_cell_length_c       7.40818
_cell_angle_alpha    120.003
_cell_angle_beta     90
_cell_angle_gamma    90

_symmetry_Int_Tables_number  189
_chemical_formula_structural  UInPt
_chemical_formula_sum  U3In3Pt3
_cell_volume  197.22833783616088
_cell_formula_units_Z  3
loop_
  _symmetry_equiv_pos_site_id
 _symmetry_equiv_pos_as_xyz
 1  'x, y, z'
loop_
 _atom_site_type_symbol
 _atom_site_label
 _atom_site_symmetry_multiplicity
 _atom_site_fract_x
 _atom_site_fract_y
 _atom_site_fract_z
 _atom_site_fract_occupancy
 In  In1  1  0.00000  0.25049  -0.00000  1
 In  In2  1  0.00000  0.74951  0.74956  1
 In  In3  1  0.00000  0.99996  0.25044  1
 Pt  Pt1  1  0.00000  0.33331  0.66663  1
 Pt  Pt2  1  0.00000  0.66667  0.33337  1
 Pt  Pt3  1  0.50000  0.00004  0.00000  1
 U  U1  1  0.50000  0.58411  -0.00000  1
 U  U2  1  0.50000  0.41585  0.41589  1
 U  U3  1  0.50000  0.99996  0.58411  1
