CIF file written using JARVIS-Tools package.
data_MoWSe2S2
_symmetry_space_group_name_H-M  'P3m1'
_cell_length_a       3.25736
_cell_length_b       3.25736
_cell_length_c       34.3478
_cell_angle_alpha    90.0004
_cell_angle_beta     90.0001
_cell_angle_gamma    120

_symmetry_Int_Tables_number  156
_chemical_formula_structural  MoWSe2S2
_chemical_formula_sum  Mo2W2Se4S4
_cell_volume  315.6172929996099
_cell_formula_units_Z  2
loop_
  _symmetry_equiv_pos_site_id
 _symmetry_equiv_pos_as_xyz
 1  'x, y, z'
loop_
 _atom_site_type_symbol
 _atom_site_label
 _atom_site_symmetry_multiplicity
 _atom_site_fract_x
 _atom_site_fract_y
 _atom_site_fract_z
 _atom_site_fract_occupancy
 Mo  Mo1  1  0.33332  0.66663  0.09490  1
 Mo  Mo2  1  0.66669  0.33337  0.65673  1
 S  S1  1  0.66664  0.33329  0.04993  1
 S  S2  1  0.66665  0.33331  0.42419  1
 S  S3  1  0.66665  0.33330  0.13992  1
 S  S4  1  0.66666  0.33331  0.51465  1
 Se  Se1  1  0.33335  0.66669  0.33161  1
 Se  Se2  1  0.33336  0.66671  0.70612  1
 Se  Se3  1  0.33334  0.66668  0.23212  1
 Se  Se4  1  0.33335  0.66670  0.60729  1
 W  W1  1  0.33332  0.66664  0.46942  1
 W  W2  1  0.66667  0.33335  0.28187  1
