CIF file written using JARVIS-Tools package.
data_LiFe2O2F3
_symmetry_space_group_name_H-M  'C2/m'
_cell_length_a       3.68649
_cell_length_b       5.16644
_cell_length_c       10.5323
_cell_angle_alpha    92.8083
_cell_angle_beta     89.9966
_cell_angle_gamma    110.903

_symmetry_Int_Tables_number  12
_chemical_formula_structural  LiFe2O2F3
_chemical_formula_sum  Li2Fe4O4F6
_cell_volume  187.13779259099277
_cell_formula_units_Z  2
loop_
  _symmetry_equiv_pos_site_id
 _symmetry_equiv_pos_as_xyz
 1  'x, y, z'
loop_
 _atom_site_type_symbol
 _atom_site_label
 _atom_site_symmetry_multiplicity
 _atom_site_fract_x
 _atom_site_fract_y
 _atom_site_fract_z
 _atom_site_fract_occupancy
 F  F1  1  0.96263  0.93036  0.11751  1
 F  F2  1  0.29917  0.60344  0.91322  1
 F  F3  1  0.73580  0.47669  0.73777  1
 F  F4  1  0.26084  0.52678  0.26241  1
 F  F5  1  0.69747  0.40002  0.08696  1
 F  F6  1  0.03402  0.07310  0.88265  1
 Fe  Fe1  1  0.86329  0.73170  0.53434  1
 Fe  Fe2  1  0.82851  0.66212  0.24205  1
 Fe  Fe3  1  0.16813  0.34136  0.75812  1
 Fe  Fe4  1  0.13335  0.27180  0.46583  1
 Li  Li1  1  0.85858  0.72225  0.95252  1
 Li  Li2  1  0.13807  0.28120  0.04765  1
 O  O1  1  0.96732  0.93973  0.37413  1
 O  O2  1  0.31176  0.62863  0.56129  1
 O  O3  1  0.68488  0.37485  0.43888  1
 O  O4  1  0.02933  0.06376  0.62604  1
