CIF file written using JARVIS-Tools package.
data_La3CuSnS7
_symmetry_space_group_name_H-M  'P6_3'
_cell_length_a       10.3394
_cell_length_b       10.3394
_cell_length_c       6.08006
_cell_angle_alpha    90
_cell_angle_beta     90
_cell_angle_gamma    120

_symmetry_Int_Tables_number  173
_chemical_formula_structural  La3CuSnS7
_chemical_formula_sum  La6Cu2Sn2S4
_cell_volume  562.9023397917117
_cell_formula_units_Z  2
loop_
  _symmetry_equiv_pos_site_id
 _symmetry_equiv_pos_as_xyz
 1  'x, y, z'
loop_
 _atom_site_type_symbol
 _atom_site_label
 _atom_site_symmetry_multiplicity
 _atom_site_fract_x
 _atom_site_fract_y
 _atom_site_fract_z
 _atom_site_fract_occupancy
 Cu  Cu1  1  0.00000  0.00000  0.71892  1
 Cu  Cu2  1  0.00000  0.00000  0.21892  1
 La  La1  1  0.22201  0.35671  0.75667  1
 La  La2  1  0.86530  0.22201  0.25667  1
 La  La3  1  0.35671  0.13470  0.25667  1
 La  La4  1  0.64329  0.86530  0.75667  1
 La  La5  1  0.13470  0.77799  0.75667  1
 La  La6  1  0.77799  0.64329  0.25667  1
 S  S1  1  0.33333  0.66667  0.94110  1
 S  S2  1  0.48417  0.57275  0.49904  1
 S  S3  1  0.90321  0.15528  0.73187  1
 S  S4  1  0.74793  0.90321  0.23187  1
 S  S5  1  0.15528  0.25207  0.23187  1
 S  S6  1  0.66667  0.33333  0.44110  1
 S  S7  1  0.25207  0.09679  0.73187  1
 S  S8  1  0.91142  0.48417  0.99904  1
 S  S9  1  0.42725  0.91142  0.49904  1
 S  S10  1  0.51583  0.42725  0.99904  1
 S  S11  1  0.84472  0.74793  0.73187  1
 S  S12  1  0.08858  0.51583  0.49904  1
 S  S13  1  0.09679  0.84472  0.23187  1
 S  S14  1  0.57275  0.08858  0.99904  1
 Sn  Sn1  1  0.66667  0.33333  0.83221  1
 Sn  Sn2  1  0.33333  0.66667  0.33221  1
