CIF file written using JARVIS-Tools package.
data_NaH2SO4
_symmetry_space_group_name_H-M  'Pnma'
_cell_length_a       6.4164
_cell_length_b       10.6397
_cell_length_c       10.5167
_cell_angle_alpha    90
_cell_angle_beta     90
_cell_angle_gamma    90

_symmetry_Int_Tables_number  62
_chemical_formula_structural  NaH2SO4
_chemical_formula_sum  Na8H6S8O32
_cell_volume  717.9599252691535
_cell_formula_units_Z  8
loop_
  _symmetry_equiv_pos_site_id
 _symmetry_equiv_pos_as_xyz
 1  'x, y, z'
loop_
 _atom_site_type_symbol
 _atom_site_label
 _atom_site_symmetry_multiplicity
 _atom_site_fract_x
 _atom_site_fract_y
 _atom_site_fract_z
 _atom_site_fract_occupancy
 H  H1  1  0.31898  0.43178  0.10465  1
 H  H2  1  0.31898  0.06822  0.10465  1
 H  H3  1  0.81898  0.06822  0.39535  1
 H  H4  1  0.18102  0.56822  0.60465  1
 H  H5  1  0.68102  0.93178  0.89535  1
 H  H6  1  0.18102  0.93178  0.60465  1
 H  H7  1  0.81898  0.43178  0.39535  1
 H  H8  1  0.68102  0.56822  0.89535  1
 H  H9  1  0.21594  0.12472  0.22717  1
 H  H10  1  0.71594  0.37528  0.27283  1
 H  H11  1  0.78406  0.62472  0.77283  1
 H  H12  1  0.28406  0.87528  0.72717  1
 H  H13  1  0.78406  0.87528  0.77283  1
 H  H14  1  0.28406  0.62472  0.72717  1
 H  H15  1  0.21594  0.37528  0.22717  1
 H  H16  1  0.71594  0.12472  0.27283  1
 Na  Na1  1  0.56374  0.05944  0.65377  1
 Na  Na2  1  0.56374  0.44056  0.65377  1
 Na  Na3  1  0.93626  0.55944  0.15377  1
 Na  Na4  1  0.43626  0.94056  0.34623  1
 Na  Na5  1  0.93626  0.94056  0.15377  1
 Na  Na6  1  0.43626  0.55944  0.34623  1
 Na  Na7  1  0.06374  0.44056  0.84623  1
 Na  Na8  1  0.06374  0.05944  0.84623  1
 O  O1  1  0.41461  0.75000  0.21953  1
 O  O2  1  0.12028  0.86651  0.43835  1
 O  O3  1  0.87972  0.36651  0.56165  1
 O  O4  1  0.37972  0.13349  0.93835  1
 O  O5  1  0.85694  0.75000  0.66882  1
 O  O6  1  0.35694  0.75000  0.83118  1
 O  O7  1  0.14306  0.25000  0.33118  1
 O  O8  1  0.64306  0.25000  0.16882  1
 O  O9  1  0.12941  0.86585  0.97837  1
 O  O10  1  0.87059  0.36585  0.02163  1
 O  O11  1  0.62941  0.63415  0.52163  1
 O  O12  1  0.62941  0.86585  0.52163  1
 O  O13  1  0.12941  0.63415  0.97837  1
 O  O14  1  0.37059  0.36585  0.47837  1
 O  O15  1  0.87059  0.13415  0.02163  1
 O  O16  1  0.75615  0.45517  0.31354  1
 O  O17  1  0.74385  0.54483  0.81354  1
 O  O18  1  0.37059  0.13415  0.47837  1
 O  O19  1  0.24385  0.95517  0.68646  1
 O  O20  1  0.25615  0.04483  0.18646  1
 O  O21  1  0.24385  0.54483  0.68646  1
 O  O22  1  0.62028  0.63349  0.06165  1
 O  O23  1  0.74385  0.95517  0.81354  1
 O  O24  1  0.12028  0.63349  0.43835  1
 O  O25  1  0.37972  0.36651  0.93835  1
 O  O26  1  0.87972  0.13349  0.56165  1
 O  O27  1  0.62028  0.86651  0.06165  1
 O  O28  1  0.08539  0.25000  0.71953  1
 O  O29  1  0.91461  0.75000  0.28047  1
 O  O30  1  0.75615  0.04483  0.31354  1
 O  O31  1  0.25615  0.45517  0.18646  1
 O  O32  1  0.58539  0.25000  0.78047  1
 S  S1  1  0.75372  0.25000  0.04552  1
 S  S2  1  0.25372  0.25000  0.45448  1
 S  S3  1  0.24628  0.75000  0.95448  1
 S  S4  1  0.00760  0.75000  0.40833  1
 S  S5  1  0.49240  0.25000  0.90833  1
 S  S6  1  0.50760  0.75000  0.09167  1
 S  S7  1  0.99240  0.25000  0.59167  1
 S  S8  1  0.74628  0.75000  0.54552  1
