CIF file written using JARVIS-Tools package.
data_La4Ni3O8
_symmetry_space_group_name_H-M  'I4/mmm'
_cell_length_a       3.95849
_cell_length_b       3.95849
_cell_length_c       13.4134
_cell_angle_alpha    98.4854
_cell_angle_beta     98.4854
_cell_angle_gamma    90

_symmetry_Int_Tables_number  139
_chemical_formula_structural  La4Ni3O8
_chemical_formula_sum  La4Ni3O8
_cell_volume  205.55516562094576
_cell_formula_units_Z  1
loop_
  _symmetry_equiv_pos_site_id
 _symmetry_equiv_pos_as_xyz
 1  'x, y, z'
loop_
 _atom_site_type_symbol
 _atom_site_label
 _atom_site_symmetry_multiplicity
 _atom_site_fract_x
 _atom_site_fract_y
 _atom_site_fract_z
 _atom_site_fract_occupancy
 La  La1  1  0.29917  0.29917  0.59835  1
 La  La2  1  0.70083  0.70083  0.40165  1
 La  La3  1  0.43406  0.43406  0.86812  1
 La  La4  1  0.56594  0.56594  0.13188  1
 Ni  Ni1  1  0.12401  0.12401  0.24802  1
 Ni  Ni2  1  0.87599  0.87599  0.75198  1
 Ni  Ni3  1  0.00000  0.00000  0.00000  1
 O  O1  1  0.37406  0.87406  0.74811  1
 O  O2  1  0.25000  0.75000  0.50000  1
 O  O3  1  0.87406  0.37406  0.74811  1
 O  O4  1  0.75000  0.25000  0.50000  1
 O  O5  1  0.50000  -0.00000  0.00000  1
 O  O6  1  0.62594  0.12594  0.25189  1
 O  O7  1  0.12594  0.62594  0.25189  1
 O  O8  1  0.00000  0.50000  0.00000  1
