CIF file written using JARVIS-Tools package.
data_LiFeCoO4
_symmetry_space_group_name_H-M  'P4_322'
_cell_length_a       5.68859
_cell_length_b       5.68859
_cell_length_c       8.09563
_cell_angle_alpha    90
_cell_angle_beta     90
_cell_angle_gamma    90

_symmetry_Int_Tables_number  95
_chemical_formula_structural  LiFeCoO4
_chemical_formula_sum  Li4Fe4Co4O6
_cell_volume  261.97517166678955
_cell_formula_units_Z  4
loop_
  _symmetry_equiv_pos_site_id
 _symmetry_equiv_pos_as_xyz
 1  'x, y, z'
loop_
 _atom_site_type_symbol
 _atom_site_label
 _atom_site_symmetry_multiplicity
 _atom_site_fract_x
 _atom_site_fract_y
 _atom_site_fract_z
 _atom_site_fract_occupancy
 Co  Co1  1  0.50000  0.75683  0.50000  1
 Co  Co2  1  0.24317  0.50000  0.25000  1
 Co  Co3  1  0.50000  0.24317  0.00000  1
 Co  Co4  1  0.75683  0.50000  0.75000  1
 Fe  Fe1  1  0.25226  0.25226  0.62500  1
 Fe  Fe2  1  0.25226  0.74774  0.87500  1
 Fe  Fe3  1  0.74774  0.25226  0.37500  1
 Fe  Fe4  1  0.74774  0.74774  0.12500  1
 Li  Li1  1  0.00000  0.24166  0.00000  1
 Li  Li2  1  0.24166  0.00000  0.25000  1
 Li  Li3  1  0.00000  0.75834  0.50000  1
 Li  Li4  1  0.75834  0.00000  0.75000  1
 O  O1  1  0.26438  0.51284  0.48369  1
 O  O2  1  0.01522  0.26818  0.25522  1
 O  O3  1  0.98478  0.26818  0.74478  1
 O  O4  1  0.26818  0.01522  0.99478  1
 O  O5  1  0.26818  0.98478  0.50522  1
 O  O6  1  0.26438  0.48716  0.01631  1
 O  O7  1  0.01522  0.73182  0.24478  1
 O  O8  1  0.73182  0.01522  0.00522  1
 O  O9  1  0.51284  0.26438  0.76631  1
 O  O10  1  0.51284  0.73562  0.73369  1
 O  O11  1  0.73562  0.51284  0.51631  1
 O  O12  1  0.73562  0.48716  0.98369  1
 O  O13  1  0.48716  0.26438  0.23369  1
 O  O14  1  0.73182  0.98478  0.49478  1
 O  O15  1  0.48716  0.73562  0.26631  1
 O  O16  1  0.98478  0.73182  0.75522  1
