CIF file written using JARVIS-Tools package.
data_KH2I3O
_symmetry_space_group_name_H-M  'Pc'
_cell_length_a       4.57744
_cell_length_b       9.99231
_cell_length_c       9.39657
_cell_angle_alpha    90
_cell_angle_beta     116.202
_cell_angle_gamma    90

_symmetry_Int_Tables_number  7
_chemical_formula_structural  KH2I3O
_chemical_formula_sum  K2H4I6O2
_cell_volume  385.628393069504
_cell_formula_units_Z  2
loop_
  _symmetry_equiv_pos_site_id
 _symmetry_equiv_pos_as_xyz
 1  'x, y, z'
loop_
 _atom_site_type_symbol
 _atom_site_label
 _atom_site_symmetry_multiplicity
 _atom_site_fract_x
 _atom_site_fract_y
 _atom_site_fract_z
 _atom_site_fract_occupancy
 H  H1  1  0.73840  0.19406  0.87445  1
 H  H2  1  0.73840  0.80594  0.37445  1
 H  H3  1  0.70768  0.34873  0.84668  1
 H  H4  1  0.70768  0.65127  0.34668  1
 I  I1  1  0.34278  0.53640  0.90990  1
 I  I2  1  0.34278  0.46360  0.40990  1
 I  I3  1  0.37645  0.75451  0.69968  1
 I  I4  1  0.37645  0.24549  0.19968  1
 I  I5  1  0.39410  0.97462  0.48980  1
 I  I6  1  0.39410  0.02538  0.98980  1
 K  K1  1  0.02396  0.23915  0.61638  1
 K  K2  1  0.02396  0.76085  0.11638  1
 O  O1  1  0.68983  0.26282  0.79230  1
 O  O2  1  0.68983  0.73718  0.29230  1
