CIF file written using JARVIS-Tools package.
data_LiHS
_symmetry_space_group_name_H-M  'Pmc2_1'
_cell_length_a       6.07748
_cell_length_b       3.90362
_cell_length_c       7.80372
_cell_angle_alpha    90
_cell_angle_beta     90
_cell_angle_gamma    90

_symmetry_Int_Tables_number  26
_chemical_formula_structural  LiHS
_chemical_formula_sum  Li4H4S4
_cell_volume  185.13667031730589
_cell_formula_units_Z  4
loop_
  _symmetry_equiv_pos_site_id
 _symmetry_equiv_pos_as_xyz
 1  'x, y, z'
loop_
 _atom_site_type_symbol
 _atom_site_label
 _atom_site_symmetry_multiplicity
 _atom_site_fract_x
 _atom_site_fract_y
 _atom_site_fract_z
 _atom_site_fract_occupancy
 H  H1  1  0.00000  -0.00200  0.93565  1
 H  H2  1  0.00000  0.00200  0.43565  1
 H  H3  1  0.50000  0.88246  0.50233  1
 H  H4  1  0.50000  0.11754  0.00233  1
 Li  Li1  1  0.25005  0.50537  0.24692  1
 Li  Li2  1  0.74995  0.50537  0.24692  1
 Li  Li3  1  0.74995  0.49463  0.74692  1
 Li  Li4  1  0.25005  0.49463  0.74692  1
 S  S1  1  0.00000  -0.00596  0.76251  1
 S  S2  1  0.00000  0.00596  0.26251  1
 S  S3  1  0.50000  0.53646  0.49827  1
 S  S4  1  0.50000  0.46354  0.99827  1
