CIF file written using JARVIS-Tools package.
data_Li3CoOF3
_symmetry_space_group_name_H-M  'P4/mmm'
_cell_length_a       2.85116
_cell_length_b       2.85116
_cell_length_c       8.48182
_cell_angle_alpha    90
_cell_angle_beta     90
_cell_angle_gamma    90

_symmetry_Int_Tables_number  123
_chemical_formula_structural  Li3CoOF3
_chemical_formula_sum  Li3CoOF3
_cell_volume  68.94950849302606
_cell_formula_units_Z  1
loop_
  _symmetry_equiv_pos_site_id
 _symmetry_equiv_pos_as_xyz
 1  'x, y, z'
loop_
 _atom_site_type_symbol
 _atom_site_label
 _atom_site_symmetry_multiplicity
 _atom_site_fract_x
 _atom_site_fract_y
 _atom_site_fract_z
 _atom_site_fract_occupancy
 Co  Co1  1  0.50000  0.50000  0.50000  1
 F  F1  1  0.50000  0.50000  0.23478  1
 F  F2  1  0.50000  0.50000  0.76522  1
 F  F3  1  0.00000  0.00000  0.00000  1
 Li  Li1  1  0.00000  0.00000  0.24179  1
 Li  Li2  1  0.00000  0.00000  0.75821  1
 Li  Li3  1  0.50000  0.50000  0.00000  1
 O  O1  1  0.00000  0.00000  0.50000  1
