CIF file written using JARVIS-Tools package.
data_Ce2Nd2O7
_symmetry_space_group_name_H-M  'Fd-3m'
_cell_length_a       7.85354
_cell_length_b       7.85354
_cell_length_c       7.85354
_cell_angle_alpha    60
_cell_angle_beta     90
_cell_angle_gamma    120

_symmetry_Int_Tables_number  227
_chemical_formula_structural  Ce2Nd2O7
_chemical_formula_sum  Ce4Nd4O4
_cell_volume  342.51574439338174
_cell_formula_units_Z  2
loop_
  _symmetry_equiv_pos_site_id
 _symmetry_equiv_pos_as_xyz
 1  'x, y, z'
loop_
 _atom_site_type_symbol
 _atom_site_label
 _atom_site_symmetry_multiplicity
 _atom_site_fract_x
 _atom_site_fract_y
 _atom_site_fract_z
 _atom_site_fract_occupancy
 Ce  Ce1  1  0.00000  0.00000  0.00000  1
 Ce  Ce2  1  0.50000  0.50000  0.00000  1
 Ce  Ce3  1  -0.00000  0.50000  0.00000  1
 Ce  Ce4  1  0.00000  0.00000  0.50000  1
 Nd  Nd1  1  0.50000  0.00000  0.00000  1
 Nd  Nd2  1  0.50000  0.00000  0.50000  1
 Nd  Nd3  1  0.50000  0.50000  0.50000  1
 Nd  Nd4  1  0.00000  0.50000  0.50000  1
 O  O1  1  0.90265  0.25000  0.34735  1
 O  O2  1  0.65265  0.30531  0.09735  1
 O  O3  1  0.34735  0.69469  0.90265  1
 O  O4  1  0.34735  0.25000  0.34735  1
 O  O5  1  0.90265  0.25000  0.90265  1
 O  O6  1  0.65265  0.75000  0.09735  1
 O  O7  1  0.37500  0.75000  0.37500  1
 O  O8  1  0.09735  0.75000  0.09735  1
 O  O9  1  0.09735  0.19469  0.65265  1
 O  O10  1  0.90265  0.80531  0.34735  1
 O  O11  1  0.65265  0.75000  0.65265  1
 O  O12  1  0.34735  0.25000  0.90265  1
 O  O13  1  0.62500  0.25000  0.62500  1
 O  O14  1  0.09735  0.75000  0.65265  1
