CIF file written using JARVIS-Tools package.
data_FeP3O9
_symmetry_space_group_name_H-M  'P-1'
_cell_length_a       6.94385
_cell_length_b       7.29443
_cell_length_c       6.52512
_cell_angle_alpha    86.9237
_cell_angle_beta     90.7908
_cell_angle_gamma    74.6951

_symmetry_Int_Tables_number  2
_chemical_formula_structural  FeP3O9
_chemical_formula_sum  Fe2P6O8
_cell_volume  318.19172107533683
_cell_formula_units_Z  2
loop_
  _symmetry_equiv_pos_site_id
 _symmetry_equiv_pos_as_xyz
 1  'x, y, z'
loop_
 _atom_site_type_symbol
 _atom_site_label
 _atom_site_symmetry_multiplicity
 _atom_site_fract_x
 _atom_site_fract_y
 _atom_site_fract_z
 _atom_site_fract_occupancy
 Fe  Fe1  1  0.60486  0.13672  0.14588  1
 Fe  Fe2  1  0.39514  0.86328  0.85412  1
 O  O1  1  0.73734  0.32938  0.05813  1
 O  O2  1  0.33423  0.33182  0.10968  1
 O  O3  1  0.83807  0.92570  0.17816  1
 O  O4  1  0.43505  0.91847  0.17012  1
 O  O5  1  0.66577  0.66818  0.89032  1
 O  O6  1  0.38830  0.59990  0.31039  1
 O  O7  1  0.71191  0.67073  0.36824  1
 O  O8  1  0.03892  0.58366  0.21211  1
 O  O9  1  -0.00021  0.22291  0.46656  1
 O  O10  1  0.00021  0.77709  0.53344  1
 O  O11  1  0.40843  0.84697  0.55572  1
 O  O12  1  0.28809  0.32927  0.63176  1
 O  O13  1  0.61170  0.40010  0.68961  1
 O  O14  1  0.96108  0.41634  0.78789  1
 O  O15  1  0.56495  0.08153  0.82988  1
 O  O16  1  0.16193  0.07430  0.82184  1
 O  O17  1  0.59157  0.15303  0.44428  1
 O  O18  1  0.26266  0.67062  0.94187  1
 P  P1  1  0.74256  0.45832  0.87014  1
 P  P2  1  0.09553  0.24159  0.66244  1
 P  P3  1  0.52009  0.22764  0.64641  1
 P  P4  1  0.47991  0.77236  0.35359  1
 P  P5  1  0.90447  0.75841  0.33756  1
 P  P6  1  0.25744  0.54168  0.12986  1
