CIF file written using JARVIS-Tools package.
data_Nb2FeO6
_symmetry_space_group_name_H-M  'Pbcn'
_cell_length_a       5.06696
_cell_length_b       5.6271
_cell_length_c       13.7519
_cell_angle_alpha    90
_cell_angle_beta     90
_cell_angle_gamma    90

_symmetry_Int_Tables_number  60
_chemical_formula_structural  Nb2FeO6
_chemical_formula_sum  Nb8Fe4O24
_cell_volume  392.09839510968334
_cell_formula_units_Z  4
loop_
  _symmetry_equiv_pos_site_id
 _symmetry_equiv_pos_as_xyz
 1  'x, y, z'
loop_
 _atom_site_type_symbol
 _atom_site_label
 _atom_site_symmetry_multiplicity
 _atom_site_fract_x
 _atom_site_fract_y
 _atom_site_fract_z
 _atom_site_fract_occupancy
 Fe  Fe1  1  0.25000  0.36308  0.00000  1
 Fe  Fe2  1  0.75000  0.63692  0.00000  1
 Fe  Fe3  1  0.25000  0.86308  0.50000  1
 Fe  Fe4  1  0.75000  0.13692  0.50000  1
 Nb  Nb1  1  0.72197  0.68399  0.65554  1
 Nb  Nb2  1  0.77803  0.18399  0.15554  1
 Nb  Nb3  1  0.72197  0.18399  0.84446  1
 Nb  Nb4  1  0.22197  0.31601  0.65554  1
 Nb  Nb5  1  0.22197  0.81601  0.84446  1
 Nb  Nb6  1  0.77803  0.68399  0.34446  1
 Nb  Nb7  1  0.27803  0.81601  0.15554  1
 Nb  Nb8  1  0.27803  0.31601  0.34446  1
 O  O1  1  0.55399  0.88750  0.75696  1
 O  O2  1  0.60843  0.88199  0.08696  1
 O  O3  1  0.39157  0.61801  0.58696  1
 O  O4  1  0.89157  0.88199  0.91304  1
 O  O5  1  0.07599  0.11551  0.42790  1
 O  O6  1  0.57599  0.38449  0.07210  1
 O  O7  1  0.42401  0.11551  0.57210  1
 O  O8  1  0.94601  0.88750  0.24304  1
 O  O9  1  0.10843  0.11801  0.08696  1
 O  O10  1  0.44601  0.61250  0.25696  1
 O  O11  1  0.05399  0.61250  0.74304  1
 O  O12  1  0.89157  0.38199  0.58696  1
 O  O13  1  0.55399  0.38750  0.74304  1
 O  O14  1  0.44601  0.11250  0.24304  1
 O  O15  1  0.10843  0.61801  0.41304  1
 O  O16  1  0.94601  0.38750  0.25696  1
 O  O17  1  0.92401  0.38449  0.92790  1
 O  O18  1  0.92401  0.88449  0.57210  1
 O  O19  1  0.42401  0.61551  0.92790  1
 O  O20  1  0.57599  0.88449  0.42790  1
 O  O21  1  0.07599  0.61551  0.07210  1
 O  O22  1  0.39157  0.11801  0.91304  1
 O  O23  1  0.05399  0.11250  0.75696  1
 O  O24  1  0.60843  0.38199  0.41304  1
