CIF file written using JARVIS-Tools package.
data_Na2TiO3
_symmetry_space_group_name_H-M  'C2/c'
_cell_length_a       5.34379
_cell_length_b       5.3454
_cell_length_c       10.934
_cell_angle_alpha    85.1826
_cell_angle_beta     99.6721
_cell_angle_gamma    119.99

_symmetry_Int_Tables_number  15
_chemical_formula_structural  Na2TiO3
_chemical_formula_sum  Na8Ti4O2
_cell_volume  266.663232478095
_cell_formula_units_Z  4
loop_
  _symmetry_equiv_pos_site_id
 _symmetry_equiv_pos_as_xyz
 1  'x, y, z'
loop_
 _atom_site_type_symbol
 _atom_site_label
 _atom_site_symmetry_multiplicity
 _atom_site_fract_x
 _atom_site_fract_y
 _atom_site_fract_z
 _atom_site_fract_occupancy
 Na  Na1  1  0.15777  0.84233  0.49971  1
 Na  Na2  1  -0.00000  0.50000  0.00000  1
 Na  Na3  1  0.08507  0.17014  0.25000  1
 Na  Na4  1  0.68456  0.84233  0.00029  1
 Na  Na5  1  0.50000  0.50000  0.50000  1
 Na  Na6  1  0.31544  0.15767  0.99971  1
 Na  Na7  1  0.91493  0.82986  0.75000  1
 Na  Na8  1  0.84223  0.15767  0.50029  1
 O  O1  1  0.49692  0.17150  0.35205  1
 O  O2  1  0.74485  0.79580  0.35316  1
 O  O3  1  0.42771  0.54780  0.14843  1
 O  O4  1  0.57229  0.45220  0.85157  1
 O  O5  1  0.25515  0.20420  0.64684  1
 O  O6  1  0.50308  0.82850  0.64795  1
 O  O7  1  0.12009  0.54780  0.35157  1
 O  O8  1  0.94905  0.20420  0.85316  1
 O  O9  1  0.05095  0.79580  0.14684  1
 O  O10  1  0.67458  0.17150  0.14795  1
 O  O11  1  0.87991  0.45220  0.64843  1
 O  O12  1  0.32542  0.82850  0.85205  1
 Ti  Ti1  1  0.24988  0.49976  0.75000  1
 Ti  Ti2  1  0.75012  0.50024  0.25000  1
 Ti  Ti3  1  0.58192  0.16383  0.75000  1
 Ti  Ti4  1  0.41808  0.83617  0.25000  1
