CIF file written using JARVIS-Tools package.
data_LaIn5Co
_symmetry_space_group_name_H-M  'P4/mmm'
_cell_length_a       4.66279
_cell_length_b       4.66279
_cell_length_c       7.70114
_cell_angle_alpha    90
_cell_angle_beta     90
_cell_angle_gamma    90

_symmetry_Int_Tables_number  123
_chemical_formula_structural  LaIn5Co
_chemical_formula_sum  LaIn5Co
_cell_volume  167.43501464574544
_cell_formula_units_Z  1
loop_
  _symmetry_equiv_pos_site_id
 _symmetry_equiv_pos_as_xyz
 1  'x, y, z'
loop_
 _atom_site_type_symbol
 _atom_site_label
 _atom_site_symmetry_multiplicity
 _atom_site_fract_x
 _atom_site_fract_y
 _atom_site_fract_z
 _atom_site_fract_occupancy
 Co  Co1  1  0.00000  0.00000  0.50000  1
 In  In1  1  0.50000  0.50000  0.00000  1
 In  In2  1  0.50000  0.00000  0.68781  1
 In  In3  1  0.00000  0.50000  0.31219  1
 In  In4  1  0.50000  0.00000  0.31219  1
 In  In5  1  0.00000  0.50000  0.68781  1
 La  La1  1  0.00000  0.00000  0.00000  1
