CIF file written using JARVIS-Tools package.
data_SiNi
_symmetry_space_group_name_H-M  'P2_13'
_cell_length_a       4.53973
_cell_length_b       4.53973
_cell_length_c       4.53973
_cell_angle_alpha    90
_cell_angle_beta     90
_cell_angle_gamma    90

_symmetry_Int_Tables_number  198
_chemical_formula_structural  SiNi
_chemical_formula_sum  Si4Ni4
_cell_volume  93.56007748078332
_cell_formula_units_Z  4
loop_
  _symmetry_equiv_pos_site_id
 _symmetry_equiv_pos_as_xyz
 1  'x, y, z'
loop_
 _atom_site_type_symbol
 _atom_site_label
 _atom_site_symmetry_multiplicity
 _atom_site_fract_x
 _atom_site_fract_y
 _atom_site_fract_z
 _atom_site_fract_occupancy
 Ni  Ni1  1  0.35107  0.85107  0.64893  1
 Ni  Ni2  1  0.85107  0.64893  0.35107  1
 Ni  Ni3  1  0.64893  0.35107  0.85107  1
 Ni  Ni4  1  0.14893  0.14893  0.14893  1
 Si  Si1  1  0.65419  0.15419  0.34581  1
 Si  Si2  1  0.15419  0.34581  0.65419  1
 Si  Si3  1  0.34581  0.65419  0.15419  1
 Si  Si4  1  0.84581  0.84581  0.84581  1
