CIF file written using JARVIS-Tools package.
data_Mn6O7F5
_symmetry_space_group_name_H-M  'C2'
_cell_length_a       4.60841
_cell_length_b       4.60841
_cell_length_c       9.08142
_cell_angle_alpha    90.1691
_cell_angle_beta     89.8309
_cell_angle_gamma    93.3838

_symmetry_Int_Tables_number  5
_chemical_formula_structural  Mn6O7F5
_chemical_formula_sum  Mn6O7F5
_cell_volume  192.52864959221745
_cell_formula_units_Z  1
loop_
  _symmetry_equiv_pos_site_id
 _symmetry_equiv_pos_as_xyz
 1  'x, y, z'
loop_
 _atom_site_type_symbol
 _atom_site_label
 _atom_site_symmetry_multiplicity
 _atom_site_fract_x
 _atom_site_fract_y
 _atom_site_fract_z
 _atom_site_fract_occupancy
 F  F1  1  0.80376  0.18617  0.82316  1
 F  F2  1  0.18617  0.80376  0.84351  1
 F  F3  1  0.22473  0.77989  0.16907  1
 F  F4  1  0.77989  0.22473  0.49760  1
 F  F5  1  0.70771  0.70771  0.33333  1
 Mn  Mn1  1  0.98702  0.00258  0.00876  1
 Mn  Mn2  1  0.51982  0.46603  0.15848  1
 Mn  Mn3  1  0.49530  0.49530  0.83333  1
 Mn  Mn4  1  0.00258  0.98702  0.65790  1
 Mn  Mn5  1  0.02377  0.02377  0.33333  1
 Mn  Mn6  1  0.46603  0.51982  0.50818  1
 O  O1  1  0.81700  0.18807  0.17110  1
 O  O2  1  0.67896  0.70279  0.66637  1
 O  O3  1  0.31834  0.31834  0.33333  1
 O  O4  1  0.31063  0.28742  -0.00022  1
 O  O5  1  0.18807  0.81700  0.49557  1
 O  O6  1  0.28742  0.31063  0.66688  1
 O  O7  1  0.70279  0.67896  0.00029  1
