CIF file written using JARVIS-Tools package.
data_P6H24N6O19
_symmetry_space_group_name_H-M  'R-3'
_cell_length_a       9.17906
_cell_length_b       9.17906
_cell_length_c       9.17906
_cell_angle_alpha    112.731
_cell_angle_beta     112.731
_cell_angle_gamma    112.731

_symmetry_Int_Tables_number  148
_chemical_formula_structural  P6H24N6O19
_chemical_formula_sum  P6H24N6O9
_cell_volume  511.0794222225122
_cell_formula_units_Z  1
loop_
  _symmetry_equiv_pos_site_id
 _symmetry_equiv_pos_as_xyz
 1  'x, y, z'
loop_
 _atom_site_type_symbol
 _atom_site_label
 _atom_site_symmetry_multiplicity
 _atom_site_fract_x
 _atom_site_fract_y
 _atom_site_fract_z
 _atom_site_fract_occupancy
 H  H1  1  0.38008  0.80188  0.77487  1
 H  H2  1  0.28847  0.87500  0.64578  1
 H  H3  1  0.87500  0.64578  0.28847  1
 H  H4  1  0.64578  0.28847  0.87500  1
 H  H5  1  0.71153  0.12500  0.35422  1
 H  H6  1  0.12500  0.35422  0.71153  1
 H  H7  1  0.35422  0.71153  0.12500  1
 H  H8  1  0.19812  0.22513  0.61992  1
 H  H9  1  0.22513  0.61992  0.19812  1
 H  H10  1  0.80188  0.77487  0.38008  1
 H  H11  1  0.77487  0.38008  0.80188  1
 H  H12  1  0.46130  0.84613  0.64749  1
 H  H13  1  0.51813  0.21783  0.63472  1
 H  H14  1  0.53870  0.15387  0.35251  1
 H  H15  1  0.61992  0.19812  0.22513  1
 H  H16  1  0.84613  0.64749  0.46130  1
 H  H17  1  0.64749  0.46130  0.84613  1
 H  H18  1  0.48187  0.78217  0.36528  1
 H  H19  1  0.78217  0.36528  0.48187  1
 H  H20  1  0.63472  0.51813  0.21783  1
 H  H21  1  0.35251  0.53870  0.15387  1
 H  H22  1  0.15387  0.35251  0.53870  1
 H  H23  1  0.21783  0.63472  0.51813  1
 H  H24  1  0.36528  0.48187  0.78217  1
 N  N1  1  0.66343  0.21178  0.35489  1
 N  N2  1  0.78822  0.64511  0.33657  1
 N  N3  1  0.33657  0.78822  0.64511  1
 N  N4  1  0.64511  0.33657  0.78822  1
 N  N5  1  0.21178  0.35489  0.66343  1
 N  N6  1  0.35489  0.66343  0.21178  1
 O  O1  1  0.36373  0.34629  0.03860  1
 O  O2  1  0.04609  0.69688  0.23115  1
 O  O3  1  0.23115  0.04609  0.69688  1
 O  O4  1  0.96140  0.63627  0.65371  1
 O  O5  1  0.34629  0.03860  0.36373  1
 O  O6  1  0.03860  0.36373  0.34629  1
 O  O7  1  0.63627  0.65371  0.96140  1
 O  O8  1  0.65371  0.96140  0.63627  1
 O  O9  1  0.76885  0.95391  0.30312  1
 O  O10  1  0.24072  0.01420  0.96633  1
 O  O11  1  0.30312  0.76885  0.95391  1
 O  O12  1  0.50000  0.50000  0.50000  1
 O  O13  1  0.03367  0.75928  0.98580  1
 O  O14  1  0.75928  0.98580  0.03367  1
 O  O15  1  0.01420  0.96633  0.24072  1
 O  O16  1  0.96633  0.24072  0.01420  1
 O  O17  1  0.95391  0.30312  0.76885  1
 O  O18  1  0.69688  0.23115  0.04609  1
 O  O19  1  0.98580  0.03367  0.75928  1
 P  P1  1  0.13394  0.77978  0.87736  1
 P  P2  1  0.87736  0.13394  0.77978  1
 P  P3  1  0.77978  0.87736  0.13394  1
 P  P4  1  0.86606  0.22022  0.12264  1
 P  P5  1  0.12264  0.86606  0.22022  1
 P  P6  1  0.22022  0.12264  0.86606  1
