CIF file written using JARVIS-Tools package.
data_Li2Mn2F7
_symmetry_space_group_name_H-M  'P-1'
_cell_length_a       5.38587
_cell_length_b       6.68747
_cell_length_c       8.46507
_cell_angle_alpha    109.907
_cell_angle_beta     102.016
_cell_angle_gamma    84.9858

_symmetry_Int_Tables_number  2
_chemical_formula_structural  Li2Mn2F7
_chemical_formula_sum  Li4Mn4F4
_cell_volume  280.34886635683415
_cell_formula_units_Z  2
loop_
  _symmetry_equiv_pos_site_id
 _symmetry_equiv_pos_as_xyz
 1  'x, y, z'
loop_
 _atom_site_type_symbol
 _atom_site_label
 _atom_site_symmetry_multiplicity
 _atom_site_fract_x
 _atom_site_fract_y
 _atom_site_fract_z
 _atom_site_fract_occupancy
 F  F1  1  0.66706  0.24883  0.30203  1
 F  F2  1  0.36227  0.17336  0.94558  1
 F  F3  1  0.09898  0.59986  0.88743  1
 F  F4  1  0.90102  0.40014  0.11257  1
 F  F5  1  0.10241  0.19663  0.61875  1
 F  F6  1  0.33294  0.75117  0.69797  1
 F  F7  1  0.58116  0.43609  0.78538  1
 F  F8  1  0.80597  0.59879  0.58709  1
 F  F9  1  0.19403  0.40121  0.41291  1
 F  F10  1  0.15614  0.00398  0.17314  1
 F  F11  1  0.63773  0.82664  0.05442  1
 F  F12  1  0.89759  0.80337  0.38125  1
 F  F13  1  0.41884  0.56391  0.21462  1
 F  F14  1  0.84386  0.99602  0.82686  1
 Li  Li1  1  0.32852  0.74959  0.08891  1
 Li  Li2  1  0.86355  0.98848  0.25977  1
 Li  Li3  1  0.13645  0.01152  0.74023  1
 Li  Li4  1  0.67148  0.25041  0.91109  1
 Mn  Mn1  1  0.27353  0.27358  0.17214  1
 Mn  Mn2  1  0.79065  0.53065  0.33849  1
 Mn  Mn3  1  0.20935  0.46935  0.66151  1
 Mn  Mn4  1  0.72647  0.72642  0.82786  1
