CIF file written using JARVIS-Tools package.
data_MnSe2O6
_symmetry_space_group_name_H-M  'P2_1/c'
_cell_length_a       5.11142
_cell_length_b       6.65107
_cell_length_c       7.31747
_cell_angle_alpha    90
_cell_angle_beta     90.9486
_cell_angle_gamma    90

_symmetry_Int_Tables_number  14
_chemical_formula_structural  MnSe2O6
_chemical_formula_sum  Mn2Se4O2
_cell_volume  248.73344404432513
_cell_formula_units_Z  2
loop_
  _symmetry_equiv_pos_site_id
 _symmetry_equiv_pos_as_xyz
 1  'x, y, z'
loop_
 _atom_site_type_symbol
 _atom_site_label
 _atom_site_symmetry_multiplicity
 _atom_site_fract_x
 _atom_site_fract_y
 _atom_site_fract_z
 _atom_site_fract_occupancy
 Mn  Mn1  1  0.00000  0.00000  0.00000  1
 Mn  Mn2  1  0.50000  0.50000  0.50000  1
 O  O1  1  0.94364  0.07544  0.75182  1
 O  O2  1  0.44364  0.42456  0.25182  1
 O  O3  1  0.05636  0.92456  0.24818  1
 O  O4  1  0.19768  0.77153  0.92073  1
 O  O5  1  0.30232  0.27153  0.57927  1
 O  O6  1  0.19534  0.66306  0.49825  1
 O  O7  1  0.55636  0.57544  0.74818  1
 O  O8  1  0.69534  0.83694  0.99825  1
 O  O9  1  0.69768  0.72847  0.42073  1
 O  O10  1  0.80232  0.22847  0.07927  1
 O  O11  1  0.30466  0.16306  0.00175  1
 O  O12  1  0.80466  0.33694  0.50175  1
 Se  Se1  1  0.01565  0.32383  0.69496  1
 Se  Se2  1  0.51565  0.17617  0.19496  1
 Se  Se3  1  0.98435  0.67617  0.30504  1
 Se  Se4  1  0.48435  0.82383  0.80504  1
