CIF file written using JARVIS-Tools package.
data_LaFe5H2
_symmetry_space_group_name_H-M  'Cmmm'
_cell_length_a       4.11022
_cell_length_b       5.1793
_cell_length_c       5.18854
_cell_angle_alpha    119.941
_cell_angle_beta     90
_cell_angle_gamma    90

_symmetry_Int_Tables_number  65
_chemical_formula_structural  LaFe5H2
_chemical_formula_sum  LaFe5H2
_cell_volume  95.71244931588163
_cell_formula_units_Z  1
loop_
  _symmetry_equiv_pos_site_id
 _symmetry_equiv_pos_as_xyz
 1  'x, y, z'
loop_
 _atom_site_type_symbol
 _atom_site_label
 _atom_site_symmetry_multiplicity
 _atom_site_fract_x
 _atom_site_fract_y
 _atom_site_fract_z
 _atom_site_fract_occupancy
 Fe  Fe1  1  0.50000  0.00000  0.50000  1
 Fe  Fe2  1  0.50000  0.50000  0.50000  1
 Fe  Fe3  1  0.00000  0.33787  0.67574  1
 Fe  Fe4  1  0.00000  0.66213  0.32426  1
 Fe  Fe5  1  0.50000  0.50000  0.00000  1
 H  H1  1  0.50000  0.86542  0.73084  1
 H  H2  1  0.50000  0.13458  0.26916  1
 La  La1  1  0.00000  0.00000  0.00000  1
