CIF file written using JARVIS-Tools package.
data_Co3OF5
_symmetry_space_group_name_H-M  'P-1'
_cell_length_a       4.65268
_cell_length_b       5.55765
_cell_length_c       7.75657
_cell_angle_alpha    86.2253
_cell_angle_beta     88.7916
_cell_angle_gamma    87.7206

_symmetry_Int_Tables_number  2
_chemical_formula_structural  Co3OF5
_chemical_formula_sum  Co6O2F0
_cell_volume  199.94175788652694
_cell_formula_units_Z  2
loop_
  _symmetry_equiv_pos_site_id
 _symmetry_equiv_pos_as_xyz
 1  'x, y, z'
loop_
 _atom_site_type_symbol
 _atom_site_label
 _atom_site_symmetry_multiplicity
 _atom_site_fract_x
 _atom_site_fract_y
 _atom_site_fract_z
 _atom_site_fract_occupancy
 Co  Co1  1  0.46763  0.33826  0.19484  1
 Co  Co2  1  0.50000  -0.00000  0.50000  1
 Co  Co3  1  0.53237  0.66174  0.80516  1
 Co  Co4  1  0.99655  0.17236  0.83681  1
 Co  Co5  1  0.00000  0.50000  0.50000  1
 Co  Co6  1  0.00345  0.82764  0.16319  1
 F  F1  1  0.19717  0.13335  0.06875  1
 F  F2  1  0.80283  0.86665  0.93125  1
 F  F3  1  0.80501  0.52907  0.26526  1
 F  F4  1  0.79617  0.20711  0.60527  1
 F  F5  1  0.70143  0.02991  0.26475  1
 F  F6  1  0.20383  0.79289  0.39473  1
 F  F7  1  0.30925  0.63589  0.05580  1
 F  F8  1  0.69075  0.36411  0.94420  1
 F  F9  1  0.29857  0.97009  0.73525  1
 F  F10  1  0.19499  0.47093  0.73474  1
 O  O1  1  0.28597  0.29980  0.41133  1
 O  O2  1  0.71403  0.70020  0.58867  1
