CIF file written using JARVIS-Tools package.
data_V4O3F9
_symmetry_space_group_name_H-M  'C2'
_cell_length_a       5.1101
_cell_length_b       5.30031
_cell_length_c       8.82432
_cell_angle_alpha    74.1549
_cell_angle_beta     90
_cell_angle_gamma    61.1802

_symmetry_Int_Tables_number  5
_chemical_formula_structural  V4O3F9
_chemical_formula_sum  V4O3F9
_cell_volume  198.97609265194586
_cell_formula_units_Z  1
loop_
  _symmetry_equiv_pos_site_id
 _symmetry_equiv_pos_as_xyz
 1  'x, y, z'
loop_
 _atom_site_type_symbol
 _atom_site_label
 _atom_site_symmetry_multiplicity
 _atom_site_fract_x
 _atom_site_fract_y
 _atom_site_fract_z
 _atom_site_fract_occupancy
 F  F1  1  0.92856  0.74391  0.57387  1
 F  F2  1  0.92247  0.75609  0.17613  1
 F  F3  1  0.97091  0.26509  0.12253  1
 F  F4  1  0.57995  0.24425  0.32562  1
 F  F5  1  0.57722  0.24481  0.93076  1
 F  F6  1  0.48599  0.23491  0.62747  1
 F  F7  1  0.01716  0.75000  0.87500  1
 F  F8  1  0.07203  0.25519  0.81924  1
 F  F9  1  0.07420  0.25575  0.42438  1
 O  O1  1  0.53676  0.75000  0.37500  1
 O  O2  1  0.40762  0.75746  0.08378  1
 O  O3  1  0.41509  0.74254  0.66622  1
 V  V1  1  0.71576  0.52962  0.24905  1
 V  V2  1  0.49537  0.97038  0.50095  1
 V  V3  1  0.27070  0.50953  0.74676  1
 V  V4  1  0.03023  0.99047  0.00324  1
