CIF file written using JARVIS-Tools package.
data_PrAlH6
_symmetry_space_group_name_H-M  'R-3m'
_cell_length_a       4.29057
_cell_length_b       4.29057
_cell_length_c       4.29056
_cell_angle_alpha    98.331
_cell_angle_beta     98.331
_cell_angle_gamma    98.3311

_symmetry_Int_Tables_number  166
_chemical_formula_structural  PrAlH6
_chemical_formula_sum  PrAlH6
_cell_volume  76.20821494446676
_cell_formula_units_Z  1
loop_
  _symmetry_equiv_pos_site_id
 _symmetry_equiv_pos_as_xyz
 1  'x, y, z'
loop_
 _atom_site_type_symbol
 _atom_site_label
 _atom_site_symmetry_multiplicity
 _atom_site_fract_x
 _atom_site_fract_y
 _atom_site_fract_z
 _atom_site_fract_occupancy
 Al  Al1  1  0.00000  0.00000  0.00000  1
 H  H1  1  0.93653  0.29414  0.29414  1
 H  H2  1  0.29414  0.29414  0.93653  1
 H  H3  1  0.29414  0.93653  0.29414  1
 H  H4  1  0.06347  0.70586  0.70586  1
 H  H5  1  0.70586  0.70586  0.06347  1
 H  H6  1  0.70586  0.06347  0.70586  1
 Pr  Pr1  1  0.50000  0.50000  0.50000  1
