CIF file written using JARVIS-Tools package.
data_VH16C6N6O7F2
_symmetry_space_group_name_H-M  'P-1'
_cell_length_a       7.14037
_cell_length_b       10.6465
_cell_length_c       10.8293
_cell_angle_alpha    63.6437
_cell_angle_beta     72.7233
_cell_angle_gamma    88.7514

_symmetry_Int_Tables_number  2
_chemical_formula_structural  VH16C6N6O7F2
_chemical_formula_sum  V2H32C2N2O4F4
_cell_volume  698.5288997062609
_cell_formula_units_Z  2
loop_
  _symmetry_equiv_pos_site_id
 _symmetry_equiv_pos_as_xyz
 1  'x, y, z'
loop_
 _atom_site_type_symbol
 _atom_site_label
 _atom_site_symmetry_multiplicity
 _atom_site_fract_x
 _atom_site_fract_y
 _atom_site_fract_z
 _atom_site_fract_occupancy
 C  C1  1  0.75350  0.14083  0.79915  1
 C  C2  1  0.64082  0.57772  0.54391  1
 C  C3  1  0.50065  0.54217  0.69118  1
 C  C4  1  0.35918  0.42228  0.45609  1
 C  C5  1  0.51305  0.30852  0.35273  1
 C  C6  1  0.61694  0.72882  0.50158  1
 C  C7  1  0.85738  0.49629  0.87225  1
 C  C8  1  0.49935  0.45783  0.30882  1
 C  C9  1  0.48695  0.69148  0.64727  1
 C  C10  1  0.24650  0.85917  0.20085  1
 C  C11  1  0.14262  0.50371  0.12775  1
 C  C12  1  0.38306  0.27118  0.49842  1
 F  F1  1  0.10153  0.90033  0.73740  1
 F  F2  1  0.35406  -0.01285  0.46560  1
 F  F3  1  0.89847  0.09967  0.26260  1
 F  F4  1  0.64594  0.01285  0.53440  1
 H  H1  1  0.95434  0.53136  0.29909  1
 H  H2  1  0.17953  0.19151  0.78099  1
 H  H3  1  0.24243  0.31319  0.17782  1
 H  H4  1  0.82680  0.90005  0.56897  1
 H  H5  1  0.95388  0.63204  0.65683  1
 H  H6  1  0.31369  0.42903  0.99058  1
 H  H7  1  0.92885  0.98289  0.80665  1
 H  H8  1  0.22933  0.68833  0.39642  1
 H  H9  1  0.21768  0.66076  0.91721  1
 H  H10  1  0.07115  0.01711  0.19335  1
 H  H11  1  0.59689  0.14135  0.99031  1
 H  H12  1  0.94647  0.30055  0.94999  1
 H  H13  1  0.21804  0.03668  0.02510  1
 H  H14  1  0.57151  0.28330  0.83382  1
 H  H15  1  0.05353  0.69945  0.05001  1
 H  H16  1  0.78232  0.33924  0.08279  1
 H  H17  1  0.00187  0.86331  0.63516  1
 H  H18  1  0.82047  0.80849  0.21901  1
 H  H19  1  0.17320  0.09995  0.43103  1
 H  H20  1  0.89965  0.17405  0.58910  1
 H  H21  1  0.10035  0.82595  0.41090  1
 H  H22  1  0.04566  0.46864  0.70091  1
 H  H23  1  0.73927  0.70856  0.17072  1
 H  H24  1  0.26073  0.29144  0.82928  1
 H  H25  1  0.78196  0.96332  0.97490  1
 H  H26  1  0.99813  0.13669  0.36484  1
 H  H27  1  0.04612  0.36796  0.34317  1
 H  H28  1  0.42849  0.71670  0.16618  1
 H  H29  1  0.40311  0.85865  0.00969  1
 H  H30  1  0.75757  0.68681  0.82218  1
 H  H31  1  0.68631  0.57097  0.00942  1
 H  H32  1  0.77067  0.31167  0.60358  1
 N  N1  1  0.17929  0.98134  0.13550  1
 N  N2  1  0.62601  0.19006  0.87978  1
 N  N3  1  0.25579  0.41266  0.09607  1
 N  N4  1  0.82071  0.01866  0.86450  1
 N  N5  1  0.81259  0.21381  0.65342  1
 N  N6  1  0.04520  0.46840  0.26763  1
 N  N7  1  0.18741  0.78619  0.34658  1
 N  N8  1  0.86961  0.37178  0.97755  1
 N  N9  1  0.74421  0.58734  0.90393  1
 N  N10  1  0.95480  0.53160  0.73237  1
 N  N11  1  0.37399  0.80994  0.12022  1
 N  N12  1  0.13039  0.62822  0.02245  1
 O  O1  1  0.39465  0.75417  0.71938  1
 O  O2  1  0.73755  0.50937  0.48481  1
 O  O3  1  0.68845  0.84231  0.38349  1
 O  O4  1  0.57475  0.56904  0.19246  1
 O  O5  1  0.42525  0.43096  0.80754  1
 O  O6  1  0.31155  0.15769  0.61651  1
 O  O7  1  0.15061  0.21869  0.85988  1
 O  O8  1  0.57858  0.05821  0.17736  1
 O  O9  1  0.60535  0.24583  0.28062  1
 O  O10  1  0.26245  0.49063  0.51519  1
 O  O11  1  0.42142  0.94179  0.82264  1
 O  O12  1  0.07917  0.16925  0.40773  1
 O  O13  1  0.92083  0.83075  0.59227  1
 O  O14  1  0.84939  0.78131  0.14012  1
 V  V1  1  0.37882  0.95644  0.67799  1
 V  V2  1  0.62118  0.04356  0.32201  1
