CIF file written using JARVIS-Tools package.
data_SiC
_symmetry_space_group_name_H-M  'P3m1'
_cell_length_a       3.10031
_cell_length_b       3.1003
_cell_length_c       25.3694
_cell_angle_alpha    90
_cell_angle_beta     90
_cell_angle_gamma    120

_symmetry_Int_Tables_number  156
_chemical_formula_structural  SiC
_chemical_formula_sum  Si0C0
_cell_volume  211.17853918253516
_cell_formula_units_Z  10
loop_
  _symmetry_equiv_pos_site_id
 _symmetry_equiv_pos_as_xyz
 1  'x, y, z'
loop_
 _atom_site_type_symbol
 _atom_site_label
 _atom_site_symmetry_multiplicity
 _atom_site_fract_x
 _atom_site_fract_y
 _atom_site_fract_z
 _atom_site_fract_occupancy
 C  C1  1  0.66667  0.33333  0.87505  1
 C  C2  1  0.66667  0.33333  0.47488  1
 C  C3  1  0.33333  0.66667  0.57518  1
 C  C4  1  0.33333  0.66667  0.17499  1
 C  C5  1  0.66667  0.33333  0.27484  1
 C  C6  1  0.66667  0.33333  0.67495  1
 C  C7  1  0.00000  0.00000  0.07518  1
 C  C8  1  0.00000  0.00000  0.77524  1
 C  C9  1  0.00000  0.00000  0.37512  1
 C  C10  1  0.33333  0.66667  0.97490  1
 Si  Si1  1  0.66667  0.33333  0.19987  1
 Si  Si2  1  0.00000  0.00000  0.29990  1
 Si  Si3  1  0.66667  0.33333  0.60000  1
 Si  Si4  1  0.33333  0.66667  0.49997  1
 Si  Si5  1  0.00000  0.00000  0.70003  1
 Si  Si6  1  0.33333  0.66667  0.89993  1
 Si  Si7  1  0.66667  0.33333  0.80007  1
 Si  Si8  1  0.33333  0.66667  0.10001  1
 Si  Si9  1  0.66667  0.33333  0.39994  1
 Si  Si10  1  0.00000  0.00000  0.99996  1
