CIF file written using JARVIS-Tools package.
data_TbB3O6
_symmetry_space_group_name_H-M  'P2_1/c'
_cell_length_a       6.097
_cell_length_b       7.80213
_cell_length_c       8.32499
_cell_angle_alpha    90
_cell_angle_beta     90
_cell_angle_gamma    90.0416

_symmetry_Int_Tables_number  14
_chemical_formula_structural  TbB3O6
_chemical_formula_sum  Tb4B2O24
_cell_volume  396.01623682028844
_cell_formula_units_Z  4
loop_
  _symmetry_equiv_pos_site_id
 _symmetry_equiv_pos_as_xyz
 1  'x, y, z'
loop_
 _atom_site_type_symbol
 _atom_site_label
 _atom_site_symmetry_multiplicity
 _atom_site_fract_x
 _atom_site_fract_y
 _atom_site_fract_z
 _atom_site_fract_occupancy
 B  B1  1  0.51102  0.75001  0.99947  1
 B  B2  1  0.88101  0.49390  0.68477  1
 B  B3  1  0.01102  0.75001  0.50053  1
 B  B4  1  0.61877  0.99485  0.81518  1
 B  B5  1  0.61899  0.50610  0.18477  1
 B  B6  1  0.48898  0.24999  0.00053  1
 B  B7  1  0.88123  0.00515  0.31518  1
 B  B8  1  0.38101  0.49390  0.81523  1
 B  B9  1  0.98898  0.24999  0.49947  1
 B  B10  1  0.11877  0.99485  0.68482  1
 B  B11  1  0.11899  0.50610  0.31523  1
 B  B12  1  0.38123  0.00515  0.18482  1
 O  O1  1  0.83983  0.16670  0.38396  1
 O  O2  1  0.16040  0.66690  0.38544  1
 O  O3  1  0.33983  0.16670  0.11604  1
 O  O4  1  0.33960  0.33310  0.88544  1
 O  O5  1  0.66017  0.83330  0.88396  1
 O  O6  1  0.83960  0.33310  0.61456  1
 O  O7  1  0.64220  0.13510  0.91761  1
 O  O8  1  0.16017  0.83330  0.61604  1
 O  O9  1  0.35762  0.63517  0.91645  1
 O  O10  1  0.85780  0.86490  0.41761  1
 O  O11  1  0.93711  0.99289  0.16003  1
 O  O12  1  0.64238  0.36483  0.08355  1
 O  O13  1  0.35780  0.86490  0.08239  1
 O  O14  1  0.56289  0.00711  0.66003  1
 O  O15  1  0.93666  0.50522  0.84004  1
 O  O16  1  0.85762  0.63517  0.58355  1
 O  O17  1  0.14238  0.36483  0.41645  1
 O  O18  1  0.06334  0.49478  0.15996  1
 O  O19  1  0.66040  0.66690  0.11456  1
 O  O20  1  0.14220  0.13510  0.58239  1
 O  O21  1  0.56334  0.49478  0.34004  1
 O  O22  1  0.43666  0.50522  0.65996  1
 O  O23  1  0.06289  0.00711  0.83997  1
 O  O24  1  0.43711  0.99289  0.33997  1
 Tb  Tb1  1  0.99154  0.24995  0.00091  1
 Tb  Tb2  1  0.00846  0.75005  0.99909  1
 Tb  Tb3  1  0.50846  0.75005  0.50091  1
 Tb  Tb4  1  0.49154  0.24995  0.49909  1
