CIF file written using JARVIS-Tools package.
data_NaLi5N2
_symmetry_space_group_name_H-M  'Pm'
_cell_length_a       3.59011
_cell_length_b       3.79859
_cell_length_c       7.43289
_cell_angle_alpha    104.498
_cell_angle_beta     90
_cell_angle_gamma    90

_symmetry_Int_Tables_number  6
_chemical_formula_structural  NaLi5N2
_chemical_formula_sum  NaLi5N2
_cell_volume  98.13699957278422
_cell_formula_units_Z  1
loop_
  _symmetry_equiv_pos_site_id
 _symmetry_equiv_pos_as_xyz
 1  'x, y, z'
loop_
 _atom_site_type_symbol
 _atom_site_label
 _atom_site_symmetry_multiplicity
 _atom_site_fract_x
 _atom_site_fract_y
 _atom_site_fract_z
 _atom_site_fract_occupancy
 Li  Li1  1  0.00000  0.12947  0.64895  1
 Li  Li2  1  0.50000  0.93072  0.24443  1
 Li  Li3  1  0.50000  0.57485  0.53889  1
 Li  Li4  1  0.00000  0.48920  0.36177  1
 Li  Li5  1  0.00000  0.34371  0.07217  1
 N  N1  1  0.50000  0.40801  0.19827  1
 N  N2  1  0.00000  0.62479  0.63936  1
 Na  Na1  1  0.50000  0.74325  0.87815  1
