CIF file written using JARVIS-Tools package.
data_Tl6TeO6
_symmetry_space_group_name_H-M  'R-3'
_cell_length_a       6.59797
_cell_length_b       6.59797
_cell_length_c       6.59797
_cell_angle_alpha    93.8747
_cell_angle_beta     93.8747
_cell_angle_gamma    93.8747

_symmetry_Int_Tables_number  148
_chemical_formula_structural  Tl6TeO6
_chemical_formula_sum  Tl6TeO6
_cell_volume  285.16737697842547
_cell_formula_units_Z  1
loop_
  _symmetry_equiv_pos_site_id
 _symmetry_equiv_pos_as_xyz
 1  'x, y, z'
loop_
 _atom_site_type_symbol
 _atom_site_label
 _atom_site_symmetry_multiplicity
 _atom_site_fract_x
 _atom_site_fract_y
 _atom_site_fract_z
 _atom_site_fract_occupancy
 O  O1  1  0.03573  0.95372  0.70667  1
 O  O2  1  0.95372  0.70667  0.03573  1
 O  O3  1  0.70667  0.03573  0.95372  1
 O  O4  1  0.96427  0.04628  0.29333  1
 O  O5  1  0.04628  0.29333  0.96427  1
 O  O6  1  0.29333  0.96427  0.04628  1
 Te  Te1  1  0.00000  0.00000  0.00000  1
 Tl  Tl1  1  0.72457  0.43194  0.85797  1
 Tl  Tl2  1  0.43194  0.85797  0.72457  1
 Tl  Tl3  1  0.85797  0.72457  0.43194  1
 Tl  Tl4  1  0.27543  0.56806  0.14203  1
 Tl  Tl5  1  0.56806  0.14203  0.27543  1
 Tl  Tl6  1  0.14203  0.27543  0.56806  1
