CIF file written using JARVIS-Tools package.
data_BeTl4W
_symmetry_space_group_name_H-M  'F-43m'
_cell_length_a       5.97642
_cell_length_b       5.97642
_cell_length_c       5.97642
_cell_angle_alpha    60
_cell_angle_beta     60
_cell_angle_gamma    60

_symmetry_Int_Tables_number  216
_chemical_formula_structural  BeTl4W
_chemical_formula_sum  BeTl4W
_cell_volume  150.9419830899244
_cell_formula_units_Z  1
loop_
  _symmetry_equiv_pos_site_id
 _symmetry_equiv_pos_as_xyz
 1  'x, y, z'
loop_
 _atom_site_type_symbol
 _atom_site_label
 _atom_site_symmetry_multiplicity
 _atom_site_fract_x
 _atom_site_fract_y
 _atom_site_fract_z
 _atom_site_fract_occupancy
 Be  Be1  1  0.00000  0.00000  0.00000  1
 Tl  Tl1  1  0.12546  0.62485  0.62485  1
 Tl  Tl2  1  0.62485  0.62485  0.62485  1
 Tl  Tl3  1  0.62485  0.12546  0.62485  1
 Tl  Tl4  1  0.62485  0.62485  0.12546  1
 W  W1  1  0.25000  0.25000  0.25000  1
