CIF file written using JARVIS-Tools package.
data_Yb2InCu2
_symmetry_space_group_name_H-M  'P4/mbm'
_cell_length_a       3.71794
_cell_length_b       7.42931
_cell_length_c       7.42931
_cell_angle_alpha    90
_cell_angle_beta     90
_cell_angle_gamma    90

_symmetry_Int_Tables_number  127
_chemical_formula_structural  Yb2InCu2
_chemical_formula_sum  Yb4In2Cu4
_cell_volume  205.2102990813976
_cell_formula_units_Z  2
loop_
  _symmetry_equiv_pos_site_id
 _symmetry_equiv_pos_as_xyz
 1  'x, y, z'
loop_
 _atom_site_type_symbol
 _atom_site_label
 _atom_site_symmetry_multiplicity
 _atom_site_fract_x
 _atom_site_fract_y
 _atom_site_fract_z
 _atom_site_fract_occupancy
 Cu  Cu1  1  0.00000  0.38198  0.88198  1
 Cu  Cu2  1  0.00000  0.11802  0.38198  1
 Cu  Cu3  1  0.00000  0.88198  0.61802  1
 Cu  Cu4  1  0.00000  0.61802  0.11802  1
 In  In1  1  0.00000  0.00000  0.00000  1
 In  In2  1  0.00000  0.50000  0.50000  1
 Yb  Yb1  1  0.50000  0.17711  0.67711  1
 Yb  Yb2  1  0.50000  0.32289  0.17711  1
 Yb  Yb3  1  0.50000  0.67711  0.82289  1
 Yb  Yb4  1  0.50000  0.82289  0.32289  1
