CIF file written using JARVIS-Tools package.
data_Ca3La3B5O15
_symmetry_space_group_name_H-M  'P6_3mc'
_cell_length_a       10.5492
_cell_length_b       10.5492
_cell_length_c       6.39515
_cell_angle_alpha    90
_cell_angle_beta     90
_cell_angle_gamma    120

_symmetry_Int_Tables_number  186
_chemical_formula_structural  Ca3La3B5O15
_chemical_formula_sum  Ca6La6B0O30
_cell_volume  616.3444641585137
_cell_formula_units_Z  2
loop_
  _symmetry_equiv_pos_site_id
 _symmetry_equiv_pos_as_xyz
 1  'x, y, z'
loop_
 _atom_site_type_symbol
 _atom_site_label
 _atom_site_symmetry_multiplicity
 _atom_site_fract_x
 _atom_site_fract_y
 _atom_site_fract_z
 _atom_site_fract_occupancy
 B  B1  1  0.80094  0.19906  0.04716  1
 B  B2  1  0.39813  0.19906  0.04716  1
 B  B3  1  0.80094  0.60187  0.04716  1
 B  B4  1  0.19906  0.39813  0.54716  1
 B  B5  1  0.60187  0.80094  0.54716  1
 B  B6  1  0.00000  0.00000  0.24822  1
 B  B7  1  0.66667  0.33333  0.59875  1
 B  B8  1  0.33333  0.66667  0.09875  1
 B  B9  1  0.19906  0.80094  0.54716  1
 B  B10  1  0.00000  0.00000  0.74822  1
 Ca  Ca1  1  0.52681  0.47319  0.26179  1
 Ca  Ca2  1  0.52681  0.05362  0.26179  1
 Ca  Ca3  1  0.05362  0.52681  0.76179  1
 Ca  Ca4  1  0.47319  0.94638  0.76179  1
 Ca  Ca5  1  0.94638  0.47319  0.26179  1
 Ca  Ca6  1  0.47319  0.52681  0.76179  1
 La  La1  1  0.15629  0.84371  0.08082  1
 La  La2  1  0.68743  0.84371  0.08082  1
 La  La3  1  0.84371  0.15629  0.58082  1
 La  La4  1  0.15629  0.31257  0.08082  1
 La  La5  1  0.84371  0.68743  0.58082  1
 La  La6  1  0.31257  0.15629  0.58082  1
 O  O1  1  0.54595  0.77297  0.74544  1
 O  O2  1  0.77297  0.22703  0.24544  1
 O  O3  1  0.22703  0.45405  0.74544  1
 O  O4  1  0.92810  0.62655  0.94552  1
 O  O5  1  0.77297  0.54595  0.24544  1
 O  O6  1  0.69845  0.62655  0.94552  1
 O  O7  1  0.30155  0.92810  0.44552  1
 O  O8  1  0.59015  0.40985  0.59797  1
 O  O9  1  0.30155  0.37345  0.44552  1
 O  O10  1  0.37345  0.07190  0.94552  1
 O  O11  1  0.62655  0.69845  0.44552  1
 O  O12  1  0.45405  0.22703  0.24544  1
 O  O13  1  0.92810  0.30155  0.94552  1
 O  O14  1  0.22703  0.77297  0.74544  1
 O  O15  1  0.07564  0.15127  0.74116  1
 O  O16  1  0.81969  0.40985  0.59797  1
 O  O17  1  0.07190  0.37345  0.44552  1
 O  O18  1  0.69845  0.07190  0.94552  1
 O  O19  1  0.40985  0.81969  0.09797  1
 O  O20  1  0.84873  0.92436  0.74116  1
 O  O21  1  0.37345  0.30155  0.94552  1
 O  O22  1  0.18031  0.59015  0.09797  1
 O  O23  1  0.92436  0.07564  0.24116  1
 O  O24  1  0.59015  0.18031  0.59797  1
 O  O25  1  0.62655  0.92810  0.44552  1
 O  O26  1  0.92436  0.84873  0.24116  1
 O  O27  1  0.15127  0.07564  0.24116  1
 O  O28  1  0.07564  0.92436  0.74116  1
 O  O29  1  0.40985  0.59015  0.09797  1
 O  O30  1  0.07190  0.69845  0.44552  1
