CIF file written using JARVIS-Tools package.
data_Ba2MgH6
_symmetry_space_group_name_H-M  'P-3m1'
_cell_length_a       5.71781
_cell_length_b       5.71786
_cell_length_c       4.52962
_cell_angle_alpha    89.9998
_cell_angle_beta     89.999
_cell_angle_gamma    119.999

_symmetry_Int_Tables_number  164
_chemical_formula_structural  Ba2MgH6
_chemical_formula_sum  Ba2MgH6
_cell_volume  128.2501633148581
_cell_formula_units_Z  1
loop_
  _symmetry_equiv_pos_site_id
 _symmetry_equiv_pos_as_xyz
 1  'x, y, z'
loop_
 _atom_site_type_symbol
 _atom_site_label
 _atom_site_symmetry_multiplicity
 _atom_site_fract_x
 _atom_site_fract_y
 _atom_site_fract_z
 _atom_site_fract_occupancy
 Ba  Ba1  1  0.66667  0.33333  0.26721  1
 Ba  Ba2  1  0.33333  0.66667  0.73279  1
 H  H1  1  0.82931  0.65861  0.77326  1
 H  H2  1  0.82931  0.17069  0.77326  1
 H  H3  1  0.34139  0.17069  0.77326  1
 H  H4  1  0.17069  0.34139  0.22674  1
 H  H5  1  0.17069  0.82931  0.22674  1
 H  H6  1  0.65861  0.82931  0.22674  1
 Mg  Mg1  1  0.00000  0.00000  0.00000  1
