CIF file written using JARVIS-Tools package.
data_RbBi
_symmetry_space_group_name_H-M  'P2_1/c'
_cell_length_a       7.50887
_cell_length_b       13.9481
_cell_length_c       14.8067
_cell_angle_alpha    113.704
_cell_angle_beta     90
_cell_angle_gamma    90

_symmetry_Int_Tables_number  14
_chemical_formula_structural  RbBi
_chemical_formula_sum  Rb6Bi6
_cell_volume  1419.944968990208
_cell_formula_units_Z  16
loop_
  _symmetry_equiv_pos_site_id
 _symmetry_equiv_pos_as_xyz
 1  'x, y, z'
loop_
 _atom_site_type_symbol
 _atom_site_label
 _atom_site_symmetry_multiplicity
 _atom_site_fract_x
 _atom_site_fract_y
 _atom_site_fract_z
 _atom_site_fract_occupancy
 Bi  Bi1  1  0.64581  0.18307  0.07179  1
 Bi  Bi2  1  0.14581  0.31693  0.92821  1
 Bi  Bi3  1  0.20340  0.88482  0.57720  1
 Bi  Bi4  1  0.70340  0.61518  0.42280  1
 Bi  Bi5  1  0.79660  0.11518  0.42280  1
 Bi  Bi6  1  0.29660  0.38482  0.57720  1
 Bi  Bi7  1  0.93415  0.73021  0.60602  1
 Bi  Bi8  1  0.43415  0.76979  0.39398  1
 Bi  Bi9  1  0.06585  0.26979  0.39398  1
 Bi  Bi10  1  0.11720  0.86563  0.10986  1
 Bi  Bi11  1  0.61720  0.63437  0.89014  1
 Bi  Bi12  1  0.88280  0.13437  0.89014  1
 Bi  Bi13  1  0.38280  0.36563  0.10986  1
 Bi  Bi14  1  0.85419  0.68307  0.07179  1
 Bi  Bi15  1  0.35419  0.81693  0.92821  1
 Bi  Bi16  1  0.56585  0.23021  0.60602  1
 Rb  Rb1  1  0.13152  0.55020  0.84757  1
 Rb  Rb2  1  0.86848  0.44980  0.15243  1
 Rb  Rb3  1  0.36848  0.05020  0.84757  1
 Rb  Rb4  1  0.42458  0.68844  0.65556  1
 Rb  Rb5  1  0.92458  0.81156  0.34444  1
 Rb  Rb6  1  0.57542  0.31156  0.34444  1
 Rb  Rb7  1  0.12986  0.14061  0.11940  1
 Rb  Rb8  1  0.19857  0.53351  0.39420  1
 Rb  Rb9  1  0.69857  0.96649  0.60580  1
 Rb  Rb10  1  0.80143  0.46649  0.60580  1
 Rb  Rb11  1  0.30143  0.03351  0.39420  1
 Rb  Rb12  1  0.37014  0.64061  0.11940  1
 Rb  Rb13  1  0.87014  0.85939  0.88060  1
 Rb  Rb14  1  0.62986  0.35939  0.88060  1
 Rb  Rb15  1  0.63152  0.94980  0.15243  1
 Rb  Rb16  1  0.07542  0.18844  0.65556  1
