CIF file written using JARVIS-Tools package.
data_Ag3O4
_symmetry_space_group_name_H-M  'P2_1/c'
_cell_length_a       3.62629
_cell_length_b       5.70901
_cell_length_c       9.29789
_cell_angle_alpha    90
_cell_angle_beta     90
_cell_angle_gamma    105.014

_symmetry_Int_Tables_number  14
_chemical_formula_structural  Ag3O4
_chemical_formula_sum  Ag6O8
_cell_volume  185.91833253979115
_cell_formula_units_Z  2
loop_
  _symmetry_equiv_pos_site_id
 _symmetry_equiv_pos_as_xyz
 1  'x, y, z'
loop_
 _atom_site_type_symbol
 _atom_site_label
 _atom_site_symmetry_multiplicity
 _atom_site_fract_x
 _atom_site_fract_y
 _atom_site_fract_z
 _atom_site_fract_occupancy
 Ag  Ag1  1  0.28640  0.54869  0.85830  1
 Ag  Ag2  1  0.71360  0.95131  0.35830  1
 Ag  Ag3  1  0.71360  0.45131  0.14170  1
 Ag  Ag4  1  0.28640  0.04869  0.64170  1
 Ag  Ag5  1  0.00000  0.50000  0.50000  1
 Ag  Ag6  1  0.00000  0.00000  0.00000  1
 O  O1  1  0.04271  0.32897  0.69096  1
 O  O2  1  0.95729  0.17103  0.19096  1
 O  O3  1  0.95729  0.67103  0.30904  1
 O  O4  1  0.04271  0.82897  0.80904  1
 O  O5  1  0.47891  0.27292  0.95402  1
 O  O6  1  0.52109  0.22708  0.45402  1
 O  O7  1  0.47891  0.77292  0.54598  1
 O  O8  1  0.52109  0.72708  0.04598  1
