CIF file written using JARVIS-Tools package.
data_LiSmAlF6
_symmetry_space_group_name_H-M  'P6_322'
_cell_length_a       4.85516
_cell_length_b       4.85516
_cell_length_c       11.1145
_cell_angle_alpha    90
_cell_angle_beta     90
_cell_angle_gamma    120

_symmetry_Int_Tables_number  182
_chemical_formula_structural  LiSmAlF6
_chemical_formula_sum  Li2Sm2Al2F2
_cell_volume  226.89620778902375
_cell_formula_units_Z  2
loop_
  _symmetry_equiv_pos_site_id
 _symmetry_equiv_pos_as_xyz
 1  'x, y, z'
loop_
 _atom_site_type_symbol
 _atom_site_label
 _atom_site_symmetry_multiplicity
 _atom_site_fract_x
 _atom_site_fract_y
 _atom_site_fract_z
 _atom_site_fract_occupancy
 Al  Al1  1  0.33333  0.66667  0.75000  1
 Al  Al2  1  0.66667  0.33333  0.25000  1
 F  F1  1  0.33322  0.97623  0.84384  1
 F  F2  1  0.35699  0.33322  0.34384  1
 F  F3  1  0.66678  0.02377  0.34384  1
 F  F4  1  0.02377  0.35699  0.84384  1
 F  F5  1  0.33322  0.35699  0.65616  1
 F  F6  1  0.35699  0.02377  0.15616  1
 F  F7  1  0.97623  0.33322  0.15616  1
 F  F8  1  0.97623  0.64301  0.34384  1
 F  F9  1  0.02377  0.66678  0.65616  1
 F  F10  1  0.64301  0.66678  0.84384  1
 F  F11  1  0.64301  0.97623  0.65616  1
 F  F12  1  0.66678  0.64301  0.15616  1
 Li  Li1  1  0.33333  0.66667  0.25000  1
 Li  Li2  1  0.66667  0.33333  0.75000  1
 Sm  Sm1  1  0.00000  0.00000  0.00000  1
 Sm  Sm2  1  0.00000  0.00000  0.50000  1
