CIF file written using JARVIS-Tools package.
data_Sc3RhC4
_symmetry_space_group_name_H-M  'Immm'
_cell_length_a       3.39187
_cell_length_b       4.48498
_cell_length_c       6.74735
_cell_angle_alpha    109.412
_cell_angle_beta     104.557
_cell_angle_gamma    90

_symmetry_Int_Tables_number  71
_chemical_formula_structural  Sc3RhC4
_chemical_formula_sum  Sc3RhC4
_cell_volume  93.30805964857106
_cell_formula_units_Z  1
loop_
  _symmetry_equiv_pos_site_id
 _symmetry_equiv_pos_as_xyz
 1  'x, y, z'
loop_
 _atom_site_type_symbol
 _atom_site_label
 _atom_site_symmetry_multiplicity
 _atom_site_fract_x
 _atom_site_fract_y
 _atom_site_fract_z
 _atom_site_fract_occupancy
 C  C1  1  0.87102  0.21136  0.74203  1
 C  C2  1  0.12898  0.78864  0.25797  1
 C  C3  1  0.12898  0.46932  0.25797  1
 C  C4  1  0.87102  0.53068  0.74203  1
 Rh  Rh1  1  0.00000  0.00000  0.00000  1
 Sc  Sc1  1  0.50000  0.50000  0.00000  1
 Sc  Sc2  1  0.31112  0.81112  0.62224  1
 Sc  Sc3  1  0.68888  0.18888  0.37776  1
