CIF file written using JARVIS-Tools package.
data_LiMnPO4
_symmetry_space_group_name_H-M  'P2_1'
_cell_length_a       7.84274
_cell_length_b       4.94264
_cell_length_c       8.37955
_cell_angle_alpha    90
_cell_angle_beta     101.042
_cell_angle_gamma    90

_symmetry_Int_Tables_number  4
_chemical_formula_structural  LiMnPO4
_chemical_formula_sum  Li4Mn4P4O6
_cell_volume  318.8102678839193
_cell_formula_units_Z  4
loop_
  _symmetry_equiv_pos_site_id
 _symmetry_equiv_pos_as_xyz
 1  'x, y, z'
loop_
 _atom_site_type_symbol
 _atom_site_label
 _atom_site_symmetry_multiplicity
 _atom_site_fract_x
 _atom_site_fract_y
 _atom_site_fract_z
 _atom_site_fract_occupancy
 Li  Li1  1  0.13528  -0.03580  0.54128  1
 Li  Li2  1  0.64800  0.03703  0.95471  1
 Li  Li3  1  0.35200  0.53703  0.04529  1
 Li  Li4  1  0.86472  0.46420  0.45872  1
 Mn  Mn1  1  0.48641  0.59373  0.72702  1
 Mn  Mn2  1  0.02539  0.01495  0.17824  1
 Mn  Mn3  1  0.97461  0.51495  0.82176  1
 Mn  Mn4  1  0.51359  0.09373  0.27298  1
 O  O1  1  0.62510  0.90695  0.47158  1
 O  O2  1  0.81749  0.26064  0.64568  1
 O  O3  1  0.57705  0.45481  0.96557  1
 O  O4  1  0.10561  0.86024  0.96106  1
 O  O5  1  0.93163  0.78638  0.60462  1
 O  O6  1  0.29725  0.34856  0.22678  1
 O  O7  1  0.37490  0.40695  0.52842  1
 O  O8  1  0.21619  0.31279  0.87362  1
 O  O9  1  0.78381  0.81279  0.12638  1
 O  O10  1  0.06837  0.28638  0.39538  1
 O  O11  1  0.29336  0.87988  0.74264  1
 O  O12  1  0.89439  0.36024  0.03894  1
 O  O13  1  0.70275  0.84856  0.77322  1
 O  O14  1  0.42295  0.95481  0.03443  1
 O  O15  1  0.70664  0.37988  0.25736  1
 O  O16  1  0.18251  0.76064  0.35432  1
 P  P1  1  0.23125  0.45842  0.37928  1
 P  P2  1  0.76875  0.95842  0.62072  1
 P  P3  1  0.25775  0.00903  0.90077  1
 P  P4  1  0.74225  0.50903  0.09923  1
