CIF file written using JARVIS-Tools package.
data_RePbClO4
_symmetry_space_group_name_H-M  'Pmn2_1'
_cell_length_a       4.44512
_cell_length_b       5.75371
_cell_length_c       9.45735
_cell_angle_alpha    90
_cell_angle_beta     90
_cell_angle_gamma    90

_symmetry_Int_Tables_number  31
_chemical_formula_structural  RePbClO4
_chemical_formula_sum  Re2Pb2Cl2O8
_cell_volume  241.88033845710896
_cell_formula_units_Z  2
loop_
  _symmetry_equiv_pos_site_id
 _symmetry_equiv_pos_as_xyz
 1  'x, y, z'
loop_
 _atom_site_type_symbol
 _atom_site_label
 _atom_site_symmetry_multiplicity
 _atom_site_fract_x
 _atom_site_fract_y
 _atom_site_fract_z
 _atom_site_fract_occupancy
 Cl  Cl1  1  0.66677  0.00000  0.46067  1
 Cl  Cl2  1  0.16677  0.50000  0.53933  1
 O  O1  1  0.63997  0.24532  0.77808  1
 O  O2  1  0.13997  0.74532  0.22192  1
 O  O3  1  0.62886  0.50000  0.04744  1
 O  O4  1  0.63713  0.00000  0.12758  1
 O  O5  1  0.63997  0.75468  0.77808  1
 O  O6  1  0.13997  0.25468  0.22192  1
 O  O7  1  0.12886  0.00000  0.95256  1
 O  O8  1  0.13713  0.50000  0.87242  1
 Pb  Pb1  1  0.71075  0.50000  0.32420  1
 Pb  Pb2  1  0.21075  0.00000  0.67580  1
 Re  Re1  1  0.24585  0.00000  0.12996  1
 Re  Re2  1  0.74585  0.50000  0.87004  1
