CIF file written using JARVIS-Tools package.
data_CoIN2O2
_symmetry_space_group_name_H-M  'Pnma'
_cell_length_a       3.82313
_cell_length_b       10.3656
_cell_length_c       12.3932
_cell_angle_alpha    90
_cell_angle_beta     90
_cell_angle_gamma    90

_symmetry_Int_Tables_number  62
_chemical_formula_structural  CoIN2O2
_chemical_formula_sum  Co4I4N8O8
_cell_volume  491.1328137353097
_cell_formula_units_Z  4
loop_
  _symmetry_equiv_pos_site_id
 _symmetry_equiv_pos_as_xyz
 1  'x, y, z'
loop_
 _atom_site_type_symbol
 _atom_site_label
 _atom_site_symmetry_multiplicity
 _atom_site_fract_x
 _atom_site_fract_y
 _atom_site_fract_z
 _atom_site_fract_occupancy
 Co  Co1  1  0.75000  0.56112  0.28587  1
 Co  Co2  1  0.25000  0.43888  0.71413  1
 Co  Co3  1  0.75000  0.06112  0.21413  1
 Co  Co4  1  0.25000  0.93888  0.78587  1
 I  I1  1  0.25000  0.90898  0.15096  1
 I  I2  1  0.75000  0.09102  0.84904  1
 I  I3  1  0.25000  0.40898  0.34904  1
 I  I4  1  0.75000  0.59102  0.65096  1
 N  N1  1  0.25000  0.80860  0.86217  1
 N  N2  1  0.25000  0.92917  0.65305  1
 N  N3  1  0.25000  0.30860  0.63783  1
 N  N4  1  0.75000  0.69140  0.36217  1
 N  N5  1  0.75000  0.07083  0.34695  1
 N  N6  1  0.25000  0.42917  0.84695  1
 N  N7  1  0.75000  0.19140  0.13783  1
 N  N8  1  0.75000  0.57083  0.15305  1
 O  O1  1  0.25000  0.40572  0.93959  1
 O  O2  1  0.75000  0.29261  0.09555  1
 O  O3  1  0.25000  0.20739  0.59555  1
 O  O4  1  0.75000  0.79261  0.40445  1
 O  O5  1  0.25000  0.90572  0.56041  1
 O  O6  1  0.25000  0.70739  0.90445  1
 O  O7  1  0.75000  0.59428  0.06041  1
 O  O8  1  0.75000  0.09428  0.43959  1
