CIF file written using JARVIS-Tools package.
data_TmFeO3
_symmetry_space_group_name_H-M  'P6_3cm'
_cell_length_a       6.05585
_cell_length_b       6.05585
_cell_length_c       11.3437
_cell_angle_alpha    90
_cell_angle_beta     90
_cell_angle_gamma    120

_symmetry_Int_Tables_number  185
_chemical_formula_structural  TmFeO3
_chemical_formula_sum  Tm6Fe6O8
_cell_volume  360.276733591905
_cell_formula_units_Z  6
loop_
  _symmetry_equiv_pos_site_id
 _symmetry_equiv_pos_as_xyz
 1  'x, y, z'
loop_
 _atom_site_type_symbol
 _atom_site_label
 _atom_site_symmetry_multiplicity
 _atom_site_fract_x
 _atom_site_fract_y
 _atom_site_fract_z
 _atom_site_fract_occupancy
 Fe  Fe1  1  0.66628  0.00000  0.50113  1
 Fe  Fe2  1  -0.00000  0.66628  0.50113  1
 Fe  Fe3  1  0.33372  0.00000  0.00113  1
 Fe  Fe4  1  0.33372  0.33372  0.50113  1
 Fe  Fe5  1  0.66628  0.66628  0.00113  1
 Fe  Fe6  1  0.00000  0.33372  0.00113  1
 O  O1  1  0.66667  0.33333  0.02172  1
 O  O2  1  0.36185  0.00000  0.83722  1
 O  O3  1  0.00000  0.00000  0.47782  1
 O  O4  1  0.69599  0.00000  0.66580  1
 O  O5  1  0.66667  0.33333  0.52172  1
 O  O6  1  -0.00000  0.69599  0.66580  1
 O  O7  1  0.00000  0.00000  0.97782  1
 O  O8  1  0.30401  0.30401  0.66580  1
 O  O9  1  -0.00000  0.36185  0.83722  1
 O  O10  1  0.30401  0.00000  0.16580  1
 O  O11  1  0.63815  0.63815  0.83722  1
 O  O12  1  0.33333  0.66667  0.02172  1
 O  O13  1  0.00000  0.63815  0.33722  1
 O  O14  1  0.00000  0.30401  0.16580  1
 O  O15  1  0.33333  0.66667  0.52172  1
 O  O16  1  0.69599  0.69599  0.16580  1
 O  O17  1  0.63815  0.00000  0.33722  1
 O  O18  1  0.36185  0.36185  0.33722  1
 Tm  Tm1  1  0.33333  0.66667  0.73085  1
 Tm  Tm2  1  0.00000  0.00000  0.77848  1
 Tm  Tm3  1  0.33333  0.66667  0.23085  1
 Tm  Tm4  1  0.00000  0.00000  0.27848  1
 Tm  Tm5  1  0.66667  0.33333  0.23085  1
 Tm  Tm6  1  0.66667  0.33333  0.73085  1
