CIF file written using JARVIS-Tools package.
data_HoCoSi2
_symmetry_space_group_name_H-M  'Cmcm'
_cell_length_a       3.97413
_cell_length_b       4.01087
_cell_length_c       8.39704
_cell_angle_alpha    103.817
_cell_angle_beta     90
_cell_angle_gamma    90

_symmetry_Int_Tables_number  63
_chemical_formula_structural  HoCoSi2
_chemical_formula_sum  Ho2Co2Si4
_cell_volume  129.9734176103999
_cell_formula_units_Z  2
loop_
  _symmetry_equiv_pos_site_id
 _symmetry_equiv_pos_as_xyz
 1  'x, y, z'
loop_
 _atom_site_type_symbol
 _atom_site_label
 _atom_site_symmetry_multiplicity
 _atom_site_fract_x
 _atom_site_fract_y
 _atom_site_fract_z
 _atom_site_fract_occupancy
 Co  Co1  1  0.25000  0.67860  0.35721  1
 Co  Co2  1  0.75000  0.32140  0.64279  1
 Ho  Ho1  1  0.25000  0.89221  0.78441  1
 Ho  Ho2  1  0.75000  0.10779  0.21559  1
 Si  Si1  1  0.75000  0.75006  0.50012  1
 Si  Si2  1  0.25000  0.24994  0.49988  1
 Si  Si3  1  0.75000  0.45733  0.91466  1
 Si  Si4  1  0.25000  0.54267  0.08534  1
