CIF file written using JARVIS-Tools package.
data_Mg9Si5
_symmetry_space_group_name_H-M  'P6_3/m'
_cell_length_a       7.14636
_cell_length_b       7.14636
_cell_length_c       12.2849
_cell_angle_alpha    90
_cell_angle_beta     90
_cell_angle_gamma    120

_symmetry_Int_Tables_number  176
_chemical_formula_structural  Mg9Si5
_chemical_formula_sum  Mg8Si0
_cell_volume  543.3404949887037
_cell_formula_units_Z  2
loop_
  _symmetry_equiv_pos_site_id
 _symmetry_equiv_pos_as_xyz
 1  'x, y, z'
loop_
 _atom_site_type_symbol
 _atom_site_label
 _atom_site_symmetry_multiplicity
 _atom_site_fract_x
 _atom_site_fract_y
 _atom_site_fract_z
 _atom_site_fract_occupancy
 Mg  Mg1  1  0.32180  0.91685  0.58355  1
 Mg  Mg2  1  0.07146  0.34670  0.25000  1
 Mg  Mg3  1  0.59505  0.67820  0.58355  1
 Mg  Mg4  1  0.91685  0.59505  0.08355  1
 Mg  Mg5  1  0.67820  0.08315  0.08355  1
 Mg  Mg6  1  0.08315  0.40495  0.58355  1
 Mg  Mg7  1  0.40495  0.32180  0.08355  1
 Mg  Mg8  1  0.40495  0.32180  0.41645  1
 Mg  Mg9  1  0.08315  0.40495  0.91645  1
 Mg  Mg10  1  0.34670  0.27524  0.75000  1
 Mg  Mg11  1  0.67820  0.08315  0.41645  1
 Mg  Mg12  1  0.91685  0.59505  0.41645  1
 Mg  Mg13  1  0.59505  0.67820  0.91645  1
 Mg  Mg14  1  0.65330  0.72476  0.25000  1
 Mg  Mg15  1  0.92854  0.65330  0.75000  1
 Mg  Mg16  1  0.72476  0.07146  0.75000  1
 Mg  Mg17  1  0.27524  0.92854  0.25000  1
 Mg  Mg18  1  0.32180  0.91685  0.91645  1
 Si  Si1  1  0.00000  0.00000  0.60214  1
 Si  Si2  1  0.00000  0.00000  0.10214  1
 Si  Si3  1  0.66667  0.33333  0.25000  1
 Si  Si4  1  0.33333  0.66667  0.75000  1
 Si  Si5  1  0.33333  0.66667  0.41277  1
 Si  Si6  1  0.66667  0.33333  0.58723  1
 Si  Si7  1  0.66667  0.33333  0.91277  1
 Si  Si8  1  0.00000  0.00000  0.89786  1
 Si  Si9  1  0.33333  0.66667  0.08723  1
 Si  Si10  1  0.00000  0.00000  0.39786  1
