CIF file written using JARVIS-Tools package.
data_TiS2
_symmetry_space_group_name_H-M  'P-3m1'
_cell_length_a       3.41334
_cell_length_b       3.41309
_cell_length_c       5.71688
_cell_angle_alpha    90.016
_cell_angle_beta     90
_cell_angle_gamma    120.002

_symmetry_Int_Tables_number  164
_chemical_formula_structural  TiS2
_chemical_formula_sum  TiS2
_cell_volume  57.677404816319076
_cell_formula_units_Z  1
loop_
  _symmetry_equiv_pos_site_id
 _symmetry_equiv_pos_as_xyz
 1  'x, y, z'
loop_
 _atom_site_type_symbol
 _atom_site_label
 _atom_site_symmetry_multiplicity
 _atom_site_fract_x
 _atom_site_fract_y
 _atom_site_fract_z
 _atom_site_fract_occupancy
 S  S1  1  0.33341  0.66683  0.24838  1
 S  S2  1  0.66659  0.33317  0.75162  1
 Ti  Ti1  1  0.00000  0.00000  0.00000  1
