CIF file written using JARVIS-Tools package.
data_Te2Mo3S4
_symmetry_space_group_name_H-M  'Cm'
_cell_length_a       3.30964
_cell_length_b       3.30963
_cell_length_c       19.7896
_cell_angle_alpha    85.1806
_cell_angle_beta     90
_cell_angle_gamma    120

_symmetry_Int_Tables_number  8
_chemical_formula_structural  Te2Mo3S4
_chemical_formula_sum  Te2Mo3S4
_cell_volume  186.84188523777087
_cell_formula_units_Z  1
loop_
  _symmetry_equiv_pos_site_id
 _symmetry_equiv_pos_as_xyz
 1  'x, y, z'
loop_
 _atom_site_type_symbol
 _atom_site_label
 _atom_site_symmetry_multiplicity
 _atom_site_fract_x
 _atom_site_fract_y
 _atom_site_fract_z
 _atom_site_fract_occupancy
 Mo  Mo1  1  0.44006  0.88011  0.02497  1
 Mo  Mo2  1  0.22283  0.44565  0.67938  1
 Mo  Mo3  1  0.67042  0.34084  0.33664  1
 S  S1  1  0.31107  0.62215  0.41428  1
 S  S2  1  0.79939  0.59878  0.94734  1
 S  S3  1  0.74739  0.49478  0.10258  1
 S  S4  1  0.36308  0.72615  0.25904  1
 Te  Te1  1  0.58886  0.17771  0.58184  1
 Te  Te2  1  0.52351  0.04702  0.77677  1
