CIF file written using JARVIS-Tools package.
data_Li3Fe5O10
_symmetry_space_group_name_H-M  'P-1'
_cell_length_a       4.86793
_cell_length_b       4.9649
_cell_length_c       7.56278
_cell_angle_alpha    101.442
_cell_angle_beta     109.497
_cell_angle_gamma    99.2339

_symmetry_Int_Tables_number  2
_chemical_formula_structural  Li3Fe5O10
_chemical_formula_sum  Li3Fe5O0
_cell_volume  163.71619736893706
_cell_formula_units_Z  1
loop_
  _symmetry_equiv_pos_site_id
 _symmetry_equiv_pos_as_xyz
 1  'x, y, z'
loop_
 _atom_site_type_symbol
 _atom_site_label
 _atom_site_symmetry_multiplicity
 _atom_site_fract_x
 _atom_site_fract_y
 _atom_site_fract_z
 _atom_site_fract_occupancy
 Fe  Fe1  1  0.57468  -0.00534  0.69320  1
 Fe  Fe2  1  -0.00000  0.50000  0.00000  1
 Fe  Fe3  1  0.21047  0.00562  0.89576  1
 Fe  Fe4  1  0.78953  0.99438  0.10424  1
 Fe  Fe5  1  0.42532  0.00534  0.30680  1
 Li  Li1  1  0.20129  0.49864  0.41950  1
 Li  Li2  1  -0.00000  -0.00000  0.50000  1
 Li  Li3  1  0.79871  0.50136  0.58050  1
 O  O1  1  0.58035  0.78166  0.46376  1
 O  O2  1  0.41965  0.21834  0.53624  1
 O  O3  1  0.60286  0.22529  0.94548  1
 O  O4  1  0.82029  0.78906  0.86117  1
 O  O5  1  0.39714  0.77471  0.05452  1
 O  O6  1  0.78806  0.21899  0.33208  1
 O  O7  1  0.98060  0.22693  0.75991  1
 O  O8  1  0.01940  0.77307  0.24009  1
 O  O9  1  0.21194  0.78101  0.66792  1
 O  O10  1  0.17971  0.21094  0.13883  1
