CIF file written using JARVIS-Tools package.
data_SrV6O11
_symmetry_space_group_name_H-M  'P6_3/mmc'
_cell_length_a       5.97298
_cell_length_b       5.97298
_cell_length_c       13.32
_cell_angle_alpha    90
_cell_angle_beta     90
_cell_angle_gamma    120

_symmetry_Int_Tables_number  194
_chemical_formula_structural  SrV6O11
_chemical_formula_sum  Sr2V2O22
_cell_volume  411.5440663666186
_cell_formula_units_Z  2
loop_
  _symmetry_equiv_pos_site_id
 _symmetry_equiv_pos_as_xyz
 1  'x, y, z'
loop_
 _atom_site_type_symbol
 _atom_site_label
 _atom_site_symmetry_multiplicity
 _atom_site_fract_x
 _atom_site_fract_y
 _atom_site_fract_z
 _atom_site_fract_occupancy
 O  O1  1  0.34041  0.17020  0.92682  1
 O  O2  1  0.87683  0.12317  0.75000  1
 O  O3  1  0.17020  0.34041  0.07318  1
 O  O4  1  0.87683  0.75366  0.75000  1
 O  O5  1  0.82980  0.17020  0.92682  1
 O  O6  1  0.34041  0.17020  0.57318  1
 O  O7  1  0.12317  0.87683  0.25000  1
 O  O8  1  0.17020  0.82980  0.42682  1
 O  O9  1  0.65959  0.82980  0.07318  1
 O  O10  1  0.12317  0.24634  0.25000  1
 O  O11  1  0.24634  0.12317  0.75000  1
 O  O12  1  0.66667  0.33333  0.09252  1
 O  O13  1  0.33333  0.66667  0.90748  1
 O  O14  1  0.17020  0.82980  0.07318  1
 O  O15  1  0.75366  0.87683  0.25000  1
 O  O16  1  0.66667  0.33333  0.40748  1
 O  O17  1  0.82980  0.65959  0.57318  1
 O  O18  1  0.65959  0.82980  0.42682  1
 O  O19  1  0.33333  0.66667  0.59252  1
 O  O20  1  0.17020  0.34041  0.42682  1
 O  O21  1  0.82980  0.17020  0.57318  1
 O  O22  1  0.82980  0.65959  0.92682  1
 Sr  Sr1  1  0.33333  0.66667  0.25000  1
 Sr  Sr2  1  0.66667  0.33333  0.75000  1
 V  V1  1  0.00000  0.00000  0.14447  1
 V  V2  1  0.50000  0.50000  0.00000  1
 V  V3  1  0.00000  0.00000  0.85553  1
 V  V4  1  0.00000  0.00000  0.35553  1
 V  V5  1  0.00000  0.50000  0.00000  1
 V  V6  1  0.66667  0.33333  0.25000  1
 V  V7  1  0.00000  0.00000  0.64447  1
 V  V8  1  0.00000  0.50000  0.50000  1
 V  V9  1  0.50000  0.00000  0.50000  1
 V  V10  1  0.33333  0.66667  0.75000  1
 V  V11  1  0.50000  0.00000  0.00000  1
 V  V12  1  0.50000  0.50000  0.50000  1
