CIF file written using JARVIS-Tools package.
data_AgNO3
_symmetry_space_group_name_H-M  'P1'
_cell_length_a       7.13518
_cell_length_b       6.31986
_cell_length_c       7.50535
_cell_angle_alpha    37.3942
_cell_angle_beta     37.2294
_cell_angle_gamma    46.1989

_symmetry_Int_Tables_number  1
_chemical_formula_structural  AgNO3
_chemical_formula_sum  Ag2N2O6
_cell_volume  122.70338472630684
_cell_formula_units_Z  2
loop_
  _symmetry_equiv_pos_site_id
 _symmetry_equiv_pos_as_xyz
 1  'x, y, z'
loop_
 _atom_site_type_symbol
 _atom_site_label
 _atom_site_symmetry_multiplicity
 _atom_site_fract_x
 _atom_site_fract_y
 _atom_site_fract_z
 _atom_site_fract_occupancy
 Ag  Ag1  1  0.35813  0.54543  0.51450  1
 Ag  Ag2  1  -0.64787  0.37810  0.15745  1
 N  N1  1  0.80646  0.92090  0.45854  1
 N  N2  1  -0.00123  -0.03010  0.67696  1
 O  O1  1  0.92983  0.19552  0.18190  1
 O  O2  1  0.65181  -0.16575  0.27774  1
 O  O3  1  0.73524  -0.93862  0.76668  1
 O  O4  1  0.50652  0.94807  -0.32272  1
 O  O5  1  -0.03128  0.61045  0.54024  1
 O  O6  1  -0.03381  0.80980  0.02251  1
