CIF file written using JARVIS-Tools package.
data_K2O
_symmetry_space_group_name_H-M  'Cmc2_1'
_cell_length_a       4.27781
_cell_length_b       8.16588
_cell_length_c       4.28204
_cell_angle_alpha    90
_cell_angle_beta     119.828
_cell_angle_gamma    90

_symmetry_Int_Tables_number  36
_chemical_formula_structural  K2O
_chemical_formula_sum  K4O2
_cell_volume  129.76559766696852
_cell_formula_units_Z  2
loop_
  _symmetry_equiv_pos_site_id
 _symmetry_equiv_pos_as_xyz
 1  'x, y, z'
loop_
 _atom_site_type_symbol
 _atom_site_label
 _atom_site_symmetry_multiplicity
 _atom_site_fract_x
 _atom_site_fract_y
 _atom_site_fract_z
 _atom_site_fract_occupancy
 K  K1  1  0.00027  0.87585  0.99872  1
 K  K2  1  0.33353  0.62252  0.66578  1
 K  K3  1  0.66647  0.12252  0.33422  1
 K  K4  1  -0.00027  0.37585  0.00128  1
 O  O1  1  0.33309  0.25163  0.66777  1
 O  O2  1  0.66691  0.75163  0.33223  1
