CIF file written using JARVIS-Tools package.
data_K3CrO4
_symmetry_space_group_name_H-M  'I-42m'
_cell_length_a       5.76677
_cell_length_b       5.76677
_cell_length_c       5.76677
_cell_angle_alpha    105.822
_cell_angle_beta     111.326
_cell_angle_gamma    111.326

_symmetry_Int_Tables_number  121
_chemical_formula_structural  K3CrO4
_chemical_formula_sum  K3CrO4
_cell_volume  147.18484664587294
_cell_formula_units_Z  1
loop_
  _symmetry_equiv_pos_site_id
 _symmetry_equiv_pos_as_xyz
 1  'x, y, z'
loop_
 _atom_site_type_symbol
 _atom_site_label
 _atom_site_symmetry_multiplicity
 _atom_site_fract_x
 _atom_site_fract_y
 _atom_site_fract_z
 _atom_site_fract_occupancy
 Cr  Cr1  1  0.00000  0.00000  0.00000  1
 K  K1  1  0.50000  0.75000  0.25000  1
 K  K2  1  0.50000  0.25000  0.75000  1
 K  K3  1  0.00000  0.50000  0.50000  1
 O  O1  1  0.69023  0.98418  0.98418  1
 O  O2  1  0.00000  0.01582  0.70604  1
 O  O3  1  0.00000  0.70604  0.01582  1
 O  O4  1  0.30977  0.29396  0.29396  1
