CIF file written using JARVIS-Tools package.
data_Zn2Ga2S5
_symmetry_space_group_name_H-M  'R3m'
_cell_length_a       3.73932
_cell_length_b       3.73933
_cell_length_c       15.1891
_cell_angle_alpha    82.9294
_cell_angle_beta     82.9294
_cell_angle_gamma    60

_symmetry_Int_Tables_number  160
_chemical_formula_structural  Zn2Ga2S5
_chemical_formula_sum  Zn2Ga2S5
_cell_volume  182.06153300947256
_cell_formula_units_Z  1
loop_
  _symmetry_equiv_pos_site_id
 _symmetry_equiv_pos_as_xyz
 1  'x, y, z'
loop_
 _atom_site_type_symbol
 _atom_site_label
 _atom_site_symmetry_multiplicity
 _atom_site_fract_x
 _atom_site_fract_y
 _atom_site_fract_z
 _atom_site_fract_occupancy
 Ga  Ga1  1  0.89644  0.89644  0.31070  1
 Ga  Ga2  1  0.07634  0.07634  0.77097  1
 S  S1  1  0.99501  0.99501  0.01497  1
 S  S2  1  0.53233  0.53233  0.40300  1
 S  S3  1  0.38979  0.38979  0.83063  1
 S  S4  1  0.25639  0.25639  0.23083  1
 S  S5  1  0.12778  0.12778  0.61665  1
 Zn  Zn1  1  0.31144  0.31144  0.06568  1
 Zn  Zn2  1  0.48248  0.48248  0.55257  1
