CIF file written using JARVIS-Tools package.
data_Tl2MoO4
_symmetry_space_group_name_H-M  'C2'
_cell_length_a       6.17981
_cell_length_b       6.1798
_cell_length_c       8.0302
_cell_angle_alpha    88.4053
_cell_angle_beta     88.4053
_cell_angle_gamma    63.1825

_symmetry_Int_Tables_number  5
_chemical_formula_structural  Tl2MoO4
_chemical_formula_sum  Tl4Mo2O8
_cell_volume  273.5438710010226
_cell_formula_units_Z  2
loop_
  _symmetry_equiv_pos_site_id
 _symmetry_equiv_pos_as_xyz
 1  'x, y, z'
loop_
 _atom_site_type_symbol
 _atom_site_label
 _atom_site_symmetry_multiplicity
 _atom_site_fract_x
 _atom_site_fract_y
 _atom_site_fract_z
 _atom_site_fract_occupancy
 Mo  Mo1  1  0.35868  0.31386  0.30773  1
 Mo  Mo2  1  0.68614  0.64132  0.69227  1
 O  O1  1  0.21845  0.59894  0.19937  1
 O  O2  1  0.40106  0.78155  0.80063  1
 O  O3  1  0.29626  0.09786  0.20185  1
 O  O4  1  0.90214  0.70374  0.79815  1
 O  O5  1  0.67651  0.22517  0.29997  1
 O  O6  1  0.77483  0.32349  0.70003  1
 O  O7  1  0.64919  0.75992  0.48491  1
 O  O8  1  0.24008  0.35081  0.51509  1
 Tl  Tl1  1  0.67570  0.65427  0.17642  1
 Tl  Tl2  1  0.34573  0.32430  0.82358  1
 Tl  Tl3  1  0.04859  0.95141  0.50000  1
 Tl  Tl4  1  -0.00276  0.00276  -0.00000  1
