CIF file written using JARVIS-Tools package.
data_BaAl4O7
_symmetry_space_group_name_H-M  'Pnma'
_cell_length_a       12.8605
_cell_length_b       9.23936
_cell_length_c       5.58644
_cell_angle_alpha    90
_cell_angle_beta     90
_cell_angle_gamma    90

_symmetry_Int_Tables_number  62
_chemical_formula_structural  BaAl4O7
_chemical_formula_sum  Ba4Al6O28
_cell_volume  663.7964473717713
_cell_formula_units_Z  4
loop_
  _symmetry_equiv_pos_site_id
 _symmetry_equiv_pos_as_xyz
 1  'x, y, z'
loop_
 _atom_site_type_symbol
 _atom_site_label
 _atom_site_symmetry_multiplicity
 _atom_site_fract_x
 _atom_site_fract_y
 _atom_site_fract_z
 _atom_site_fract_occupancy
 Al  Al1  1  0.67494  0.57522  0.56783  1
 Al  Al2  1  0.32506  0.39875  0.06783  1
 Al  Al3  1  0.82506  0.07522  0.43217  1
 Al  Al4  1  0.17494  0.07522  0.43217  1
 Al  Al5  1  0.12314  0.55175  0.87910  1
 Al  Al6  1  0.87686  0.55175  0.87910  1
 Al  Al7  1  0.37686  0.05175  0.12090  1
 Al  Al8  1  0.12314  0.42221  0.37910  1
 Al  Al9  1  0.87686  0.42221  0.37910  1
 Al  Al10  1  0.37686  0.92221  0.62090  1
 Al  Al11  1  0.62314  0.92221  0.62090  1
 Al  Al12  1  0.62314  0.05175  0.12090  1
 Al  Al13  1  0.67494  0.39875  0.06783  1
 Al  Al14  1  0.17494  0.89875  0.93217  1
 Al  Al15  1  0.82506  0.89875  0.93217  1
 Al  Al16  1  0.32506  0.57522  0.56783  1
 Ba  Ba1  1  0.00000  0.19122  0.88464  1
 Ba  Ba2  1  0.50000  0.28274  0.61535  1
 Ba  Ba3  1  0.00000  0.78274  0.38465  1
 Ba  Ba4  1  0.50000  0.69122  0.11536  1
 O  O1  1  0.68533  0.92557  0.91645  1
 O  O2  1  0.31467  0.92557  0.91645  1
 O  O3  1  0.81467  0.42557  0.08355  1
 O  O4  1  0.50000  0.98576  0.69860  1
 O  O5  1  0.68533  0.04839  0.41645  1
 O  O6  1  0.31467  0.04839  0.41645  1
 O  O7  1  0.81467  0.54839  0.58355  1
 O  O8  1  0.18533  0.54839  0.58355  1
 O  O9  1  0.86666  0.24983  0.49750  1
 O  O10  1  0.13334  0.24983  0.49750  1
 O  O11  1  0.63334  0.74983  0.50250  1
 O  O12  1  0.36666  0.74983  0.50250  1
 O  O13  1  0.18533  0.42557  0.08355  1
 O  O14  1  0.62609  0.51197  0.84157  1
 O  O15  1  0.63333  0.22414  0.00250  1
 O  O16  1  0.62608  0.46199  0.34158  1
 O  O17  1  0.00000  0.48818  0.80139  1
 O  O18  1  0.50000  0.98818  0.19861  1
 O  O19  1  0.86667  0.72414  0.99750  1
 O  O20  1  0.36667  0.22414  0.00250  1
 O  O21  1  0.13333  0.72414  0.99750  1
 O  O22  1  0.37391  0.51197  0.84157  1
 O  O23  1  0.87392  0.96199  0.65842  1
 O  O24  1  0.12609  0.01197  0.15843  1
 O  O25  1  0.87391  0.01197  0.15843  1
 O  O26  1  0.37392  0.46199  0.34158  1
 O  O27  1  0.12608  0.96199  0.65842  1
 O  O28  1  0.00000  0.48576  0.30140  1
