CIF file written using JARVIS-Tools package.
data_TlCoF3
_symmetry_space_group_name_H-M  'Pm-3m'
_cell_length_a       4.13931
_cell_length_b       4.13922
_cell_length_c       4.13916
_cell_angle_alpha    90.0002
_cell_angle_beta     90.0001
_cell_angle_gamma    90.0005

_symmetry_Int_Tables_number  221
_chemical_formula_structural  TlCoF3
_chemical_formula_sum  TlCoF3
_cell_volume  70.9182464185765
_cell_formula_units_Z  1
loop_
  _symmetry_equiv_pos_site_id
 _symmetry_equiv_pos_as_xyz
 1  'x, y, z'
loop_
 _atom_site_type_symbol
 _atom_site_label
 _atom_site_symmetry_multiplicity
 _atom_site_fract_x
 _atom_site_fract_y
 _atom_site_fract_z
 _atom_site_fract_occupancy
 Co  Co1  1  0.50599  0.50800  0.51001  1
 F  F1  1  0.50600  0.50800  0.01001  1
 F  F2  1  0.50600  0.00800  0.51000  1
 F  F3  1  0.00599  0.50800  0.51000  1
 Tl  Tl1  1  0.00602  0.00800  0.00998  1
