CIF file written using JARVIS-Tools package.
data_HoMn12
_symmetry_space_group_name_H-M  'I4/mmm'
_cell_length_a       4.55242
_cell_length_b       6.25442
_cell_length_c       6.25443
_cell_angle_alpha    82.3888
_cell_angle_beta     68.6579
_cell_angle_gamma    68.6579

_symmetry_Int_Tables_number  139
_chemical_formula_structural  HoMn12
_chemical_formula_sum  HoMn2
_cell_volume  154.49435392811853
_cell_formula_units_Z  1
loop_
  _symmetry_equiv_pos_site_id
 _symmetry_equiv_pos_as_xyz
 1  'x, y, z'
loop_
 _atom_site_type_symbol
 _atom_site_label
 _atom_site_symmetry_multiplicity
 _atom_site_fract_x
 _atom_site_fract_y
 _atom_site_fract_z
 _atom_site_fract_occupancy
 Ho  Ho1  1  0.00000  0.00000  0.00000  1
 Mn  Mn1  1  0.72582  0.77418  0.77418  1
 Mn  Mn2  1  0.50000  0.00000  0.50000  1
 Mn  Mn3  1  -0.00000  0.50000  0.00000  1
 Mn  Mn4  1  0.50000  0.50000  -0.00000  1
 Mn  Mn5  1  0.00000  0.00000  0.50000  1
 Mn  Mn6  1  0.36443  0.63557  0.63557  1
 Mn  Mn7  1  0.00000  0.36443  0.63557  1
 Mn  Mn8  1  -0.00000  0.63557  0.36443  1
 Mn  Mn9  1  0.63557  0.36443  0.36443  1
 Mn  Mn10  1  0.27418  0.22582  0.22582  1
 Mn  Mn11  1  0.50000  0.77418  0.22582  1
 Mn  Mn12  1  0.50000  0.22582  0.77418  1
