CIF file written using JARVIS-Tools package.
data_CdH4S2O5
_symmetry_space_group_name_H-M  'P2_1/c'
_cell_length_a       5.63137
_cell_length_b       7.14827
_cell_length_c       14.1346
_cell_angle_alpha    90
_cell_angle_beta     101.847
_cell_angle_gamma    90

_symmetry_Int_Tables_number  14
_chemical_formula_structural  CdH4S2O5
_chemical_formula_sum  Cd4H6S8O20
_cell_volume  556.8609015305185
_cell_formula_units_Z  4
loop_
  _symmetry_equiv_pos_site_id
 _symmetry_equiv_pos_as_xyz
 1  'x, y, z'
loop_
 _atom_site_type_symbol
 _atom_site_label
 _atom_site_symmetry_multiplicity
 _atom_site_fract_x
 _atom_site_fract_y
 _atom_site_fract_z
 _atom_site_fract_occupancy
 Cd  Cd1  1  0.44546  0.16941  0.81809  1
 Cd  Cd2  1  0.94546  0.33059  0.31809  1
 Cd  Cd3  1  0.55454  0.83059  0.18191  1
 Cd  Cd4  1  0.05454  0.66941  0.68191  1
 H  H1  1  0.77103  0.16167  0.01660  1
 H  H2  1  0.27103  0.33833  0.51660  1
 H  H3  1  0.22897  0.83833  0.98340  1
 H  H4  1  0.27803  0.12485  0.99491  1
 H  H5  1  0.77803  0.37515  0.49491  1
 H  H6  1  0.72197  0.87515  0.00509  1
 H  H7  1  0.22197  0.62485  0.50509  1
 H  H8  1  0.72897  0.66167  0.48340  1
 H  H9  1  0.29908  0.14112  0.46353  1
 H  H10  1  0.20092  0.64112  0.03647  1
 H  H11  1  0.70092  0.85888  0.53647  1
 H  H12  1  0.03466  0.13531  0.91737  1
 H  H13  1  0.53466  0.36469  0.41737  1
 H  H14  1  0.96534  0.86469  0.08263  1
 H  H15  1  0.46534  0.63531  0.58263  1
 H  H16  1  0.79908  0.35888  0.96353  1
 O  O1  1  0.40369  0.13618  0.11959  1
 O  O2  1  0.09631  0.63618  0.38041  1
 O  O3  1  0.59631  0.86382  0.88041  1
 O  O4  1  0.81011  0.19578  0.75785  1
 O  O5  1  0.31011  0.30422  0.25785  1
 O  O6  1  0.16438  0.42067  0.09156  1
 O  O7  1  0.68989  0.69578  0.74215  1
 O  O8  1  0.66438  0.07933  0.59156  1
 O  O9  1  0.33562  0.92067  0.40844  1
 O  O10  1  0.83562  0.57933  0.90844  1
 O  O11  1  0.90369  0.36382  0.61959  1
 O  O12  1  0.18989  0.80422  0.24215  1
 O  O13  1  0.76119  0.22437  0.95374  1
 O  O14  1  0.29761  0.58452  0.57181  1
 O  O15  1  0.23881  0.77563  0.04626  1
 O  O16  1  0.73881  0.72437  0.54626  1
 O  O17  1  0.20239  0.08452  0.92819  1
 O  O18  1  0.70239  0.41548  0.42819  1
 O  O19  1  0.79761  0.91548  0.07181  1
 O  O20  1  0.26119  0.27563  0.45374  1
 S  S1  1  0.32228  0.52661  0.83544  1
 S  S2  1  0.82228  0.97339  0.33544  1
 S  S3  1  0.67772  0.47339  0.16456  1
 S  S4  1  0.17772  0.02661  0.66456  1
 S  S5  1  0.14450  0.82249  0.34101  1
 S  S6  1  0.35550  0.32249  0.15899  1
 S  S7  1  0.85550  0.17751  0.65899  1
 S  S8  1  0.64450  0.67751  0.84101  1
