CIF file written using JARVIS-Tools package.
data_LiCoO2
_symmetry_space_group_name_H-M  'R-3m'
_cell_length_a       4.91259
_cell_length_b       4.91259
_cell_length_c       4.91259
_cell_angle_alpha    33.6576
_cell_angle_beta     33.6576
_cell_angle_gamma    33.6576

_symmetry_Int_Tables_number  166
_chemical_formula_structural  LiCoO2
_chemical_formula_sum  LiCoO2
_cell_volume  32.443115479554145
_cell_formula_units_Z  1
loop_
  _symmetry_equiv_pos_site_id
 _symmetry_equiv_pos_as_xyz
 1  'x, y, z'
loop_
 _atom_site_type_symbol
 _atom_site_label
 _atom_site_symmetry_multiplicity
 _atom_site_fract_x
 _atom_site_fract_y
 _atom_site_fract_z
 _atom_site_fract_occupancy
 Co  Co1  1  0.00000  0.00000  0.00000  1
 Li  Li1  1  0.50000  0.50000  0.50000  1
 O  O1  1  0.26002  0.26002  0.26002  1
 O  O2  1  0.73998  0.73998  0.73998  1
