CIF file written using JARVIS-Tools package.
data_PrMgAg
_symmetry_space_group_name_H-M  'P-62m'
_cell_length_a       4.3099
_cell_length_b       7.81237
_cell_length_c       7.81264
_cell_angle_alpha    119.999
_cell_angle_beta     90
_cell_angle_gamma    90

_symmetry_Int_Tables_number  189
_chemical_formula_structural  PrMgAg
_chemical_formula_sum  Pr3Mg3Ag3
_cell_volume  227.81577377462702
_cell_formula_units_Z  3
loop_
  _symmetry_equiv_pos_site_id
 _symmetry_equiv_pos_as_xyz
 1  'x, y, z'
loop_
 _atom_site_type_symbol
 _atom_site_label
 _atom_site_symmetry_multiplicity
 _atom_site_fract_x
 _atom_site_fract_y
 _atom_site_fract_z
 _atom_site_fract_occupancy
 Ag  Ag1  1  0.00000  0.33332  0.66667  1
 Ag  Ag2  1  0.00000  0.66665  0.33333  1
 Ag  Ag3  1  0.50000  -0.00001  0.00000  1
 Mg  Mg1  1  0.00000  0.24003  0.00000  1
 Mg  Mg2  1  0.00000  0.75996  0.75996  1
 Mg  Mg3  1  0.00000  0.99999  0.24004  1
 Pr  Pr1  1  0.50000  0.58501  0.00000  1
 Pr  Pr2  1  0.50000  0.41497  0.41499  1
 Pr  Pr3  1  0.50000  -0.00001  0.58501  1
