CIF file written using JARVIS-Tools package.
data_Te8Mo3W
_symmetry_space_group_name_H-M  'P3m1'
_cell_length_a       3.56836
_cell_length_b       3.56839
_cell_length_c       37.9977
_cell_angle_alpha    90.0007
_cell_angle_beta     90
_cell_angle_gamma    120

_symmetry_Int_Tables_number  156
_chemical_formula_structural  Te8Mo3W
_chemical_formula_sum  Te8Mo3W
_cell_volume  419.01589911145254
_cell_formula_units_Z  1
loop_
  _symmetry_equiv_pos_site_id
 _symmetry_equiv_pos_as_xyz
 1  'x, y, z'
loop_
 _atom_site_type_symbol
 _atom_site_label
 _atom_site_symmetry_multiplicity
 _atom_site_fract_x
 _atom_site_fract_y
 _atom_site_fract_z
 _atom_site_fract_occupancy
 Mo  Mo1  1  0.33332  0.66664  0.09452  1
 Mo  Mo2  1  0.33333  0.66666  0.46937  1
 Mo  Mo3  1  0.66667  0.33334  0.28200  1
 Te  Te1  1  0.33335  0.66671  0.32969  1
 Te  Te2  1  0.33334  0.66670  0.70481  1
 Te  Te3  1  0.66665  0.33329  0.04691  1
 Te  Te4  1  0.66667  0.33332  0.42168  1
 Te  Te5  1  0.66665  0.33331  0.14223  1
 Te  Te6  1  0.66666  0.33332  0.51705  1
 Te  Te7  1  0.33333  0.66665  0.23431  1
 Te  Te8  1  0.33335  0.66671  0.60916  1
 W  W1  1  0.66668  0.33337  0.65703  1
