CIF file written using JARVIS-Tools package.
data_NdAl3Br12
_symmetry_space_group_name_H-M  'P3_121'
_cell_length_a       10.2664
_cell_length_b       10.2664
_cell_length_c       18.3982
_cell_angle_alpha    90
_cell_angle_beta     90
_cell_angle_gamma    120

_symmetry_Int_Tables_number  152
_chemical_formula_structural  NdAl3Br12
_chemical_formula_sum  Nd3Al9Br36
_cell_volume  1679.3596656821699
_cell_formula_units_Z  3
loop_
  _symmetry_equiv_pos_site_id
 _symmetry_equiv_pos_as_xyz
 1  'x, y, z'
loop_
 _atom_site_type_symbol
 _atom_site_label
 _atom_site_symmetry_multiplicity
 _atom_site_fract_x
 _atom_site_fract_y
 _atom_site_fract_z
 _atom_site_fract_occupancy
 Al  Al1  1  0.37118  0.68274  0.55792  1
 Al  Al2  1  0.68844  0.31726  0.10875  1
 Al  Al3  1  0.62882  0.31156  0.77541  1
 Al  Al4  1  0.89332  0.89332  0.00000  1
 Al  Al5  1  -0.00000  0.10668  0.66667  1
 Al  Al6  1  0.68274  0.37118  0.44208  1
 Al  Al7  1  0.31156  0.62882  0.22459  1
 Al  Al8  1  0.10668  -0.00000  0.33333  1
 Al  Al9  1  0.31726  0.68844  0.89125  1
 Br  Br1  1  0.76371  0.30097  0.87774  1
 Br  Br2  1  0.53726  0.23629  0.54441  1
 Br  Br3  1  0.21448  0.71843  0.63145  1
 Br  Br4  1  0.70324  0.11513  0.14763  1
 Br  Br5  1  0.69903  0.46274  0.21107  1
 Br  Br6  1  0.50396  0.78552  0.29812  1
 Br  Br7  1  0.07453  0.20140  0.36355  1
 Br  Br8  1  0.28157  0.49604  0.96479  1
 Br  Br9  1  0.46274  0.69903  0.78893  1
 Br  Br10  1  0.78552  0.50396  0.70188  1
 Br  Br11  1  0.30097  0.76371  0.12226  1
 Br  Br12  1  0.50481  0.42754  0.38623  1
 Br  Br13  1  0.57246  0.07727  0.71957  1
 Br  Br14  1  0.92273  0.49519  0.05290  1
 Br  Br15  1  0.49519  0.92273  0.94710  1
 Br  Br16  1  0.42754  0.50481  0.61377  1
 Br  Br17  1  0.07727  0.57246  0.28043  1
 Br  Br18  1  0.23629  0.53726  0.45559  1
 Br  Br19  1  0.12687  0.92547  0.03022  1
 Br  Br20  1  0.49604  0.28157  0.03521  1
 Br  Br21  1  0.71843  0.21448  0.36855  1
 Br  Br22  1  0.02997  0.24924  0.77013  1
 Br  Br23  1  0.20140  0.07453  0.63645  1
 Br  Br24  1  0.87313  0.79860  0.30311  1
 Br  Br25  1  0.97003  0.21928  0.56320  1
 Br  Br26  1  0.78072  0.75076  0.89653  1
 Br  Br27  1  0.75076  0.78072  0.10347  1
 Br  Br28  1  0.21928  0.97003  0.43680  1
 Br  Br29  1  0.24924  0.02997  0.22987  1
 Br  Br30  1  0.29676  0.41189  0.18570  1
 Br  Br31  1  0.58811  0.88487  0.51904  1
 Br  Br32  1  0.11513  0.70324  0.85237  1
 Br  Br33  1  0.79860  0.87313  0.69689  1
 Br  Br34  1  0.92547  0.12687  0.96978  1
 Br  Br35  1  0.88487  0.58811  0.48096  1
 Br  Br36  1  0.41189  0.29676  0.81430  1
 Nd  Nd1  1  0.72522  -0.00000  0.83333  1
 Nd  Nd2  1  -0.00000  0.72522  0.16667  1
 Nd  Nd3  1  0.27478  0.27478  0.50000  1
