CIF file written using JARVIS-Tools package.
data_Na3Hg2
_symmetry_space_group_name_H-M  'P4_2/mnm'
_cell_length_a       7.74599
_cell_length_b       8.44935
_cell_length_c       8.44935
_cell_angle_alpha    90
_cell_angle_beta     90
_cell_angle_gamma    90

_symmetry_Int_Tables_number  136
_chemical_formula_structural  Na3Hg2
_chemical_formula_sum  Na2Hg8
_cell_volume  552.9977852599077
_cell_formula_units_Z  4
loop_
  _symmetry_equiv_pos_site_id
 _symmetry_equiv_pos_as_xyz
 1  'x, y, z'
loop_
 _atom_site_type_symbol
 _atom_site_label
 _atom_site_symmetry_multiplicity
 _atom_site_fract_x
 _atom_site_fract_y
 _atom_site_fract_z
 _atom_site_fract_occupancy
 Hg  Hg1  1  0.19862  0.36950  0.36950  1
 Hg  Hg2  1  0.19862  0.63050  0.63050  1
 Hg  Hg3  1  0.30138  0.86950  0.13050  1
 Hg  Hg4  1  0.30138  0.13050  0.86950  1
 Hg  Hg5  1  0.80138  0.36950  0.36950  1
 Hg  Hg6  1  0.80138  0.63050  0.63050  1
 Hg  Hg7  1  0.69862  0.13050  0.86950  1
 Hg  Hg8  1  0.69862  0.86950  0.13050  1
 Na  Na1  1  0.50000  0.64050  0.35950  1
 Na  Na2  1  0.25000  0.50000  0.00000  1
 Na  Na3  1  0.75000  0.50000  0.00000  1
 Na  Na4  1  0.00000  0.85950  0.85950  1
 Na  Na5  1  0.50000  0.80252  0.80252  1
 Na  Na6  1  0.50000  0.35950  0.64050  1
 Na  Na7  1  0.00000  0.14050  0.14050  1
 Na  Na8  1  0.00000  0.30252  0.69748  1
 Na  Na9  1  0.50000  0.19748  0.19748  1
 Na  Na10  1  0.00000  0.69748  0.30252  1
 Na  Na11  1  0.25000  0.00000  0.50000  1
 Na  Na12  1  0.75000  0.00000  0.50000  1
