CIF file written using JARVIS-Tools package.
data_BaFe2S4
_symmetry_space_group_name_H-M  'I4/m'
_cell_length_a       5.07263
_cell_length_b       5.8963
_cell_length_c       5.89702
_cell_angle_alpha    79.3505
_cell_angle_beta     64.5341
_cell_angle_gamma    64.5354

_symmetry_Int_Tables_number  87
_chemical_formula_structural  BaFe2S4
_chemical_formula_sum  BaFe2S4
_cell_volume  143.7714352924343
_cell_formula_units_Z  1
loop_
  _symmetry_equiv_pos_site_id
 _symmetry_equiv_pos_as_xyz
 1  'x, y, z'
loop_
 _atom_site_type_symbol
 _atom_site_label
 _atom_site_symmetry_multiplicity
 _atom_site_fract_x
 _atom_site_fract_y
 _atom_site_fract_z
 _atom_site_fract_occupancy
 Ba  Ba1  1  0.98568  -0.00000  -0.00001  1
 Fe  Fe1  1  0.23588  0.50001  0.50001  1
 Fe  Fe2  1  0.73589  0.49999  0.49999  1
 S  S1  1  0.18364  0.41382  0.19053  1
 S  S2  1  0.37428  0.80949  0.41385  1
 S  S3  1  0.59750  0.19051  0.58615  1
 S  S4  1  0.78813  0.58617  0.80947  1
