CIF file written using JARVIS-Tools package.
data_Li3P7
_symmetry_space_group_name_H-M  'P2_12_12_1'
_cell_length_a       7.61094
_cell_length_b       9.80321
_cell_length_c       10.4663
_cell_angle_alpha    90
_cell_angle_beta     90
_cell_angle_gamma    90

_symmetry_Int_Tables_number  19
_chemical_formula_structural  Li3P7
_chemical_formula_sum  Li2P28
_cell_volume  780.9082191503039
_cell_formula_units_Z  4
loop_
  _symmetry_equiv_pos_site_id
 _symmetry_equiv_pos_as_xyz
 1  'x, y, z'
loop_
 _atom_site_type_symbol
 _atom_site_label
 _atom_site_symmetry_multiplicity
 _atom_site_fract_x
 _atom_site_fract_y
 _atom_site_fract_z
 _atom_site_fract_occupancy
 Li  Li1  1  0.84829  0.30764  0.81569  1
 Li  Li2  1  0.06719  0.47378  0.98680  1
 Li  Li3  1  0.34829  0.19236  0.18431  1
 Li  Li4  1  0.15171  0.80764  0.68431  1
 Li  Li5  1  0.56719  0.02622  0.01320  1
 Li  Li6  1  0.40494  0.30180  0.69330  1
 Li  Li7  1  0.65171  0.69236  0.31569  1
 Li  Li8  1  0.93281  0.97378  0.51320  1
 Li  Li9  1  0.90494  0.19820  0.30670  1
 Li  Li10  1  0.59506  0.80180  0.80670  1
 Li  Li11  1  0.09506  0.69820  0.19330  1
 Li  Li12  1  0.43281  0.52622  0.48680  1
 P  P1  1  0.03699  0.57213  0.76788  1
 P  P2  1  0.46264  0.44425  0.93069  1
 P  P3  1  0.03736  0.55575  0.43069  1
 P  P4  1  0.53736  0.94425  0.56931  1
 P  P5  1  0.35839  0.54976  0.11304  1
 P  P6  1  0.28194  0.87341  0.31843  1
 P  P7  1  0.64161  0.04976  0.38696  1
 P  P8  1  0.21806  0.12659  0.81843  1
 P  P9  1  0.71806  0.37341  0.18157  1
 P  P10  1  0.78194  0.62659  0.68157  1
 P  P11  1  0.96264  0.05575  0.06931  1
 P  P12  1  0.14161  0.45024  0.61304  1
 P  P13  1  0.85839  0.95024  0.88696  1
 P  P14  1  0.87440  0.71942  0.50200  1
 P  P15  1  0.12560  0.21942  0.99800  1
 P  P16  1  0.59215  0.63673  0.00384  1
 P  P17  1  0.96301  0.07213  0.73212  1
 P  P18  1  0.37440  0.78058  0.49800  1
 P  P19  1  0.40785  0.13673  0.49616  1
 P  P20  1  0.62560  0.28058  0.00200  1
 P  P21  1  0.46301  0.42787  0.26788  1
 P  P22  1  0.18423  0.07305  0.38154  1
 P  P23  1  0.81577  0.57305  0.11846  1
 P  P24  1  0.31577  0.92695  0.88154  1
 P  P25  1  0.09215  0.86327  0.99616  1
 P  P26  1  0.68423  0.42695  0.61846  1
 P  P27  1  0.90785  0.36327  0.50384  1
 P  P28  1  0.53699  0.92787  0.23212  1
