CIF file written using JARVIS-Tools package.
data_LiAgF2
_symmetry_space_group_name_H-M  'P2_12_12_1'
_cell_length_a       2.89869
_cell_length_b       6.18888
_cell_length_c       10.9791
_cell_angle_alpha    90
_cell_angle_beta     90
_cell_angle_gamma    90

_symmetry_Int_Tables_number  19
_chemical_formula_structural  LiAgF2
_chemical_formula_sum  Li4Ag4F8
_cell_volume  196.96096599876333
_cell_formula_units_Z  4
loop_
  _symmetry_equiv_pos_site_id
 _symmetry_equiv_pos_as_xyz
 1  'x, y, z'
loop_
 _atom_site_type_symbol
 _atom_site_label
 _atom_site_symmetry_multiplicity
 _atom_site_fract_x
 _atom_site_fract_y
 _atom_site_fract_z
 _atom_site_fract_occupancy
 Ag  Ag1  1  0.74562  0.26395  0.61906  1
 Ag  Ag2  1  0.24562  0.23605  0.38094  1
 Ag  Ag3  1  0.25438  0.76395  0.88094  1
 Ag  Ag4  1  0.75438  0.73605  0.11906  1
 F  F1  1  0.25329  0.08946  0.94557  1
 F  F2  1  0.75282  0.05884  0.19164  1
 F  F3  1  0.25282  0.44116  0.80836  1
 F  F4  1  0.75329  0.41054  0.05443  1
 F  F5  1  0.74671  0.58946  0.55443  1
 F  F6  1  0.24718  0.55884  0.30836  1
 F  F7  1  0.74718  0.94116  0.69164  1
 F  F8  1  0.24671  0.91054  0.44557  1
 Li  Li1  1  0.25326  0.21472  0.10532  1
 Li  Li2  1  0.75326  0.28528  0.89468  1
 Li  Li3  1  0.74674  0.71472  0.39468  1
 Li  Li4  1  0.24674  0.78528  0.60532  1
