CIF file written using JARVIS-Tools package.
data_CeSiIr
_symmetry_space_group_name_H-M  'P2_13'
_cell_length_a       6.33084
_cell_length_b       6.33084
_cell_length_c       6.33084
_cell_angle_alpha    90
_cell_angle_beta     90
_cell_angle_gamma    90

_symmetry_Int_Tables_number  198
_chemical_formula_structural  CeSiIr
_chemical_formula_sum  Ce4Si4Ir4
_cell_volume  253.73691008528644
_cell_formula_units_Z  4
loop_
  _symmetry_equiv_pos_site_id
 _symmetry_equiv_pos_as_xyz
 1  'x, y, z'
loop_
 _atom_site_type_symbol
 _atom_site_label
 _atom_site_symmetry_multiplicity
 _atom_site_fract_x
 _atom_site_fract_y
 _atom_site_fract_z
 _atom_site_fract_occupancy
 Ce  Ce1  1  0.12332  0.87668  0.37668  1
 Ce  Ce2  1  0.87668  0.37668  0.12332  1
 Ce  Ce3  1  0.62332  0.62332  0.62332  1
 Ce  Ce4  1  0.37668  0.12332  0.87668  1
 Ir  Ir1  1  0.68782  0.81218  0.18782  1
 Ir  Ir2  1  0.18782  0.68782  0.81218  1
 Ir  Ir3  1  0.31218  0.31218  0.31218  1
 Ir  Ir4  1  0.81218  0.18782  0.68782  1
 Si  Si1  1  0.08445  0.41555  0.58445  1
 Si  Si2  1  0.58445  0.08445  0.41555  1
 Si  Si3  1  0.41555  0.58445  0.08445  1
 Si  Si4  1  0.91555  0.91555  0.91555  1
