CIF file written using JARVIS-Tools package.
data_CeSi2Ir
_symmetry_space_group_name_H-M  'Cmcm'
_cell_length_a       4.21399
_cell_length_b       4.20521
_cell_length_c       8.68564
_cell_angle_alpha    104.009
_cell_angle_beta     90
_cell_angle_gamma    90

_symmetry_Int_Tables_number  63
_chemical_formula_structural  CeSi2Ir
_chemical_formula_sum  Ce2Si4Ir2
_cell_volume  149.33785334938034
_cell_formula_units_Z  2
loop_
  _symmetry_equiv_pos_site_id
 _symmetry_equiv_pos_as_xyz
 1  'x, y, z'
loop_
 _atom_site_type_symbol
 _atom_site_label
 _atom_site_symmetry_multiplicity
 _atom_site_fract_x
 _atom_site_fract_y
 _atom_site_fract_z
 _atom_site_fract_occupancy
 Ce  Ce1  1  0.75000  0.10589  0.21177  1
 Ce  Ce2  1  0.25000  0.89411  0.78823  1
 Ir  Ir1  1  0.75000  0.32309  0.64618  1
 Ir  Ir2  1  0.25000  0.67691  0.35382  1
 Si  Si1  1  0.75000  0.46388  0.92776  1
 Si  Si2  1  0.25000  0.53612  0.07224  1
 Si  Si3  1  0.75000  0.75002  0.50004  1
 Si  Si4  1  0.25000  0.24998  0.49996  1
