CIF file written using JARVIS-Tools package.
data_NaNdS2
_symmetry_space_group_name_H-M  'I4_1/amd'
_cell_length_a       5.70971
_cell_length_b       5.70971
_cell_length_c       7.15925
_cell_angle_alpha    113.499
_cell_angle_beta     113.501
_cell_angle_gamma    89.9995

_symmetry_Int_Tables_number  141
_chemical_formula_structural  NaNdS2
_chemical_formula_sum  Na2Nd2S4
_cell_volume  192.74566339223048
_cell_formula_units_Z  2
loop_
  _symmetry_equiv_pos_site_id
 _symmetry_equiv_pos_as_xyz
 1  'x, y, z'
loop_
 _atom_site_type_symbol
 _atom_site_label
 _atom_site_symmetry_multiplicity
 _atom_site_fract_x
 _atom_site_fract_y
 _atom_site_fract_z
 _atom_site_fract_occupancy
 Na  Na1  1  0.24958  0.75279  0.49914  1
 Na  Na2  1  0.49961  0.50268  -0.00091  1
 Nd  Nd1  1  0.99962  0.00274  0.99912  1
 Nd  Nd2  1  0.74959  0.25280  0.49913  1
 S  S1  1  0.98921  0.49236  0.97832  1
 S  S2  1  0.76003  0.76320  0.51995  1
 S  S3  1  0.51003  0.01318  0.01994  1
 S  S4  1  0.23918  0.24235  0.47829  1
