CIF file written using JARVIS-Tools package.
data_TiF3
_symmetry_space_group_name_H-M  'R-3c'
_cell_length_a       5.57264
_cell_length_b       5.57264
_cell_length_c       5.57263
_cell_angle_alpha    59.9713
_cell_angle_beta     59.9713
_cell_angle_gamma    59.9712

_symmetry_Int_Tables_number  167
_chemical_formula_structural  TiF3
_chemical_formula_sum  Ti2F6
_cell_volume  122.28808017225454
_cell_formula_units_Z  2
loop_
  _symmetry_equiv_pos_site_id
 _symmetry_equiv_pos_as_xyz
 1  'x, y, z'
loop_
 _atom_site_type_symbol
 _atom_site_label
 _atom_site_symmetry_multiplicity
 _atom_site_fract_x
 _atom_site_fract_y
 _atom_site_fract_z
 _atom_site_fract_occupancy
 F  F1  1  0.25322  0.75000  0.24678  1
 F  F2  1  0.75000  0.24678  0.25322  1
 F  F3  1  0.75322  0.74678  0.25000  1
 F  F4  1  0.25000  0.75322  0.74678  1
 F  F5  1  0.74678  0.25000  0.75322  1
 F  F6  1  0.24678  0.25322  0.75000  1
 Ti  Ti1  1  0.50000  0.50000  0.50000  1
 Ti  Ti2  1  0.00000  0.00000  0.00000  1
