CIF file written using JARVIS-Tools package.
data_CdP2O6
_symmetry_space_group_name_H-M  'P2_12_12_1'
_cell_length_a       7.47823
_cell_length_b       7.39621
_cell_length_c       8.51243
_cell_angle_alpha    90
_cell_angle_beta     90
_cell_angle_gamma    90

_symmetry_Int_Tables_number  19
_chemical_formula_structural  CdP2O6
_chemical_formula_sum  Cd4P8O24
_cell_volume  470.82721719451484
_cell_formula_units_Z  4
loop_
  _symmetry_equiv_pos_site_id
 _symmetry_equiv_pos_as_xyz
 1  'x, y, z'
loop_
 _atom_site_type_symbol
 _atom_site_label
 _atom_site_symmetry_multiplicity
 _atom_site_fract_x
 _atom_site_fract_y
 _atom_site_fract_z
 _atom_site_fract_occupancy
 Cd  Cd1  1  0.85692  0.97772  0.79636  1
 Cd  Cd2  1  0.35692  0.02228  0.70364  1
 Cd  Cd3  1  0.64308  0.47772  0.20364  1
 Cd  Cd4  1  0.14308  0.52228  0.29636  1
 O  O1  1  0.57751  0.81690  0.79700  1
 O  O2  1  0.81003  0.03798  0.04900  1
 O  O3  1  0.55766  0.51113  0.67310  1
 O  O4  1  0.68997  0.53798  0.95100  1
 O  O5  1  0.05766  0.48887  0.82690  1
 O  O6  1  0.94234  0.01113  0.32690  1
 O  O7  1  0.10308  0.66839  0.07216  1
 O  O8  1  0.64697  0.17665  0.69139  1
 O  O9  1  0.14697  0.82335  0.80861  1
 O  O10  1  0.18997  0.46202  0.54900  1
 O  O11  1  0.35303  0.32335  0.19139  1
 O  O12  1  0.31003  0.96202  0.45100  1
 O  O13  1  0.89692  0.83161  0.57216  1
 O  O14  1  0.13573  0.07855  0.09697  1
 O  O15  1  0.44234  0.98887  0.17310  1
 O  O16  1  0.85303  0.67665  0.30861  1
 O  O17  1  0.42249  0.68310  0.29700  1
 O  O18  1  0.86427  0.42145  0.59697  1
 O  O19  1  0.07751  0.18310  0.70300  1
 O  O20  1  0.92249  0.31690  0.20300  1
 O  O21  1  0.36427  0.57855  0.90303  1
 O  O22  1  0.39692  0.16839  0.92784  1
 O  O23  1  0.60308  0.33161  0.42784  1
 O  O24  1  0.63573  0.92145  0.40303  1
 P  P1  1  0.83641  0.84559  0.40661  1
 P  P2  1  0.94023  0.11865  0.16301  1
 P  P3  1  0.55977  0.61865  0.83699  1
 P  P4  1  0.05977  0.38135  0.66301  1
 P  P5  1  0.33641  0.15441  0.09339  1
 P  P6  1  0.44023  0.88135  0.33699  1
 P  P7  1  0.66359  0.34559  0.59339  1
 P  P8  1  0.16359  0.65441  0.90661  1
