CIF file written using JARVIS-Tools package.
data_Rb2O
_symmetry_space_group_name_H-M  'Pbca'
_cell_length_a       6.68812
_cell_length_b       6.94552
_cell_length_c       13.3587
_cell_angle_alpha    90
_cell_angle_beta     90
_cell_angle_gamma    90

_symmetry_Int_Tables_number  61
_chemical_formula_structural  Rb2O
_chemical_formula_sum  Rb6O8
_cell_volume  620.5460523408638
_cell_formula_units_Z  8
loop_
  _symmetry_equiv_pos_site_id
 _symmetry_equiv_pos_as_xyz
 1  'x, y, z'
loop_
 _atom_site_type_symbol
 _atom_site_label
 _atom_site_symmetry_multiplicity
 _atom_site_fract_x
 _atom_site_fract_y
 _atom_site_fract_z
 _atom_site_fract_occupancy
 O  O1  1  0.76855  0.03419  0.88541  1
 O  O2  1  0.26855  0.96581  0.61459  1
 O  O3  1  0.23145  0.46581  0.38541  1
 O  O4  1  0.73145  0.03419  0.38541  1
 O  O5  1  0.73145  0.53419  0.11459  1
 O  O6  1  0.23145  0.96581  0.11459  1
 O  O7  1  0.26855  0.46581  0.88541  1
 O  O8  1  0.76855  0.53419  0.61459  1
 Rb  Rb1  1  0.49908  0.73844  0.47673  1
 Rb  Rb2  1  0.49908  0.23844  0.02327  1
 Rb  Rb3  1  0.82667  0.89748  0.19816  1
 Rb  Rb4  1  0.32667  0.60252  0.19816  1
 Rb  Rb5  1  -0.00092  0.26156  0.02327  1
 Rb  Rb6  1  -0.00092  0.76156  0.47673  1
 Rb  Rb7  1  0.17333  0.60252  0.69816  1
 Rb  Rb8  1  0.50092  0.26156  0.52327  1
 Rb  Rb9  1  0.00092  0.23844  0.52327  1
 Rb  Rb10  1  0.67333  0.89748  0.69816  1
 Rb  Rb11  1  0.67333  0.39748  0.80184  1
 Rb  Rb12  1  0.17333  0.10252  0.80184  1
 Rb  Rb13  1  0.50092  0.76156  0.97673  1
 Rb  Rb14  1  0.00092  0.73844  0.97673  1
 Rb  Rb15  1  0.82667  0.39748  0.30184  1
 Rb  Rb16  1  0.32667  0.10252  0.30184  1
