CIF file written using JARVIS-Tools package.
data_H3ClO5
_symmetry_space_group_name_H-M  'Pnma'
_cell_length_a       8.81255
_cell_length_b       5.38968
_cell_length_c       7.1702
_cell_angle_alpha    90
_cell_angle_beta     90
_cell_angle_gamma    90

_symmetry_Int_Tables_number  62
_chemical_formula_structural  H3ClO5
_chemical_formula_sum  H2Cl4O20
_cell_volume  340.56205625024546
_cell_formula_units_Z  4
loop_
  _symmetry_equiv_pos_site_id
 _symmetry_equiv_pos_as_xyz
 1  'x, y, z'
loop_
 _atom_site_type_symbol
 _atom_site_label
 _atom_site_symmetry_multiplicity
 _atom_site_fract_x
 _atom_site_fract_y
 _atom_site_fract_z
 _atom_site_fract_occupancy
 Cl  Cl1  1  0.58508  0.75000  0.80290  1
 Cl  Cl2  1  0.41492  0.25000  0.19710  1
 Cl  Cl3  1  0.91492  0.25000  0.30290  1
 Cl  Cl4  1  0.08508  0.75000  0.69710  1
 H  H1  1  0.32203  0.09973  0.56449  1
 H  H2  1  0.32203  0.40027  0.56449  1
 H  H3  1  0.21464  0.25000  0.71458  1
 H  H4  1  0.82203  0.40027  0.93551  1
 H  H5  1  0.17797  0.90027  0.06449  1
 H  H6  1  0.71464  0.25000  0.78542  1
 H  H7  1  0.67797  0.90027  0.43551  1
 H  H8  1  0.67797  0.59973  0.43551  1
 H  H9  1  0.78536  0.75000  0.28542  1
 H  H10  1  0.28536  0.75000  0.21458  1
 H  H11  1  0.17797  0.59973  0.06449  1
 H  H12  1  0.82203  0.09973  0.93551  1
 O  O1  1  0.44509  0.75000  0.90677  1
 O  O2  1  0.78303  0.25000  0.42865  1
 O  O3  1  0.81316  0.25000  0.85452  1
 O  O4  1  0.21697  0.75000  0.57135  1
 O  O5  1  0.71697  0.75000  0.92865  1
 O  O6  1  0.05491  0.25000  0.40677  1
 O  O7  1  0.55491  0.25000  0.09323  1
 O  O8  1  0.94509  0.75000  0.59323  1
 O  O9  1  0.28303  0.25000  0.07135  1
 O  O10  1  0.68684  0.75000  0.35452  1
 O  O11  1  0.59322  0.97170  0.68168  1
 O  O12  1  0.09322  0.97170  0.81832  1
 O  O13  1  0.59322  0.52830  0.68168  1
 O  O14  1  0.90678  0.47170  0.18168  1
 O  O15  1  0.40678  0.02830  0.31832  1
 O  O16  1  0.18684  0.75000  0.14548  1
 O  O17  1  0.90678  0.02830  0.18168  1
 O  O18  1  0.09322  0.52830  0.81832  1
 O  O19  1  0.40678  0.47170  0.31832  1
 O  O20  1  0.31316  0.25000  0.64548  1
