CIF file written using JARVIS-Tools package.
data_NdAlNi
_symmetry_space_group_name_H-M  'P-62m'
_cell_length_a       4.04545
_cell_length_b       7.08879
_cell_length_c       7.08872
_cell_angle_alpha    120
_cell_angle_beta     90
_cell_angle_gamma    90

_symmetry_Int_Tables_number  189
_chemical_formula_structural  NdAlNi
_chemical_formula_sum  Nd3Al3Ni3
_cell_volume  176.0500133087883
_cell_formula_units_Z  3
loop_
  _symmetry_equiv_pos_site_id
 _symmetry_equiv_pos_as_xyz
 1  'x, y, z'
loop_
 _atom_site_type_symbol
 _atom_site_label
 _atom_site_symmetry_multiplicity
 _atom_site_fract_x
 _atom_site_fract_y
 _atom_site_fract_z
 _atom_site_fract_occupancy
 Al  Al1  1  0.00000  0.22796  -0.00000  1
 Al  Al2  1  0.00000  0.77202  0.77203  1
 Al  Al3  1  0.00000  -0.00001  0.22797  1
 Nd  Nd1  1  0.50000  0.58072  -0.00000  1
 Nd  Nd2  1  0.50000  0.41926  0.41927  1
 Nd  Nd3  1  0.50000  0.99999  0.58073  1
 Ni  Ni1  1  0.00000  0.33332  0.66667  1
 Ni  Ni2  1  0.00000  0.66665  0.33333  1
 Ni  Ni3  1  0.50000  -0.00001  -0.00000  1
