CIF file written using JARVIS-Tools package.
data_Li3TiP2O8
_symmetry_space_group_name_H-M  'C2/c'
_cell_length_a       4.59379
_cell_length_b       5.128
_cell_length_c       13.7395
_cell_angle_alpha    98.376
_cell_angle_beta     89.9995
_cell_angle_gamma    116.61

_symmetry_Int_Tables_number  15
_chemical_formula_structural  Li3TiP2O8
_chemical_formula_sum  Li6Ti2P4O6
_cell_volume  285.51088622243765
_cell_formula_units_Z  2
loop_
  _symmetry_equiv_pos_site_id
 _symmetry_equiv_pos_as_xyz
 1  'x, y, z'
loop_
 _atom_site_type_symbol
 _atom_site_label
 _atom_site_symmetry_multiplicity
 _atom_site_fract_x
 _atom_site_fract_y
 _atom_site_fract_z
 _atom_site_fract_occupancy
 Li  Li1  1  0.36206  0.65779  0.33540  1
 Li  Li2  1  0.29786  0.65763  0.83539  1
 Li  Li3  1  0.70271  0.33912  0.16420  1
 Li  Li4  1  0.63864  0.33915  0.66420  1
 Li  Li5  1  0.04487  -0.00152  0.24979  1
 Li  Li6  1  0.95577  0.99837  0.74980  1
 O  O1  1  0.73147  0.93585  0.13555  1
 O  O2  1  0.79407  0.06101  0.36404  1
 O  O3  1  0.21098  0.77323  0.03603  1
 O  O4  1  0.56454  0.77338  0.53605  1
 O  O5  1  0.17178  0.67656  0.20980  1
 O  O6  1  0.97722  0.61227  0.41253  1
 O  O7  1  0.20665  0.93595  0.63557  1
 O  O8  1  0.63716  0.61212  0.91253  1
 O  O9  1  0.36333  0.38457  0.08707  1
 O  O10  1  0.49369  0.32034  0.28979  1
 O  O11  1  0.43619  0.22359  0.46355  1
 O  O12  1  0.82881  0.32023  0.78979  1
 O  O13  1  0.50698  0.67655  0.70981  1
 O  O14  1  0.78953  0.22345  0.96355  1
 O  O15  1  0.02347  0.38469  0.58706  1
 O  O16  1  0.26908  0.06086  0.86403  1
 P  P1  1  0.36794  0.68832  0.11768  1
 P  P2  1  0.32264  0.68842  0.61769  1
 P  P3  1  0.67807  0.30853  0.38191  1
 P  P4  1  0.63261  0.30839  0.88190  1
 Ti  Ti1  1  0.00027  0.99835  -0.00021  1
 Ti  Ti2  1  0.00036  0.99848  0.49980  1
