CIF file written using JARVIS-Tools package.
data_MnAuO2
_symmetry_space_group_name_H-M  'C2/m'
_cell_length_a       2.94947
_cell_length_b       3.16278
_cell_length_c       6.33702
_cell_angle_alpha    101.919
_cell_angle_beta     90.0001
_cell_angle_gamma    117.793

_symmetry_Int_Tables_number  12
_chemical_formula_structural  MnAuO2
_chemical_formula_sum  MnAuO2
_cell_volume  50.85024957128245
_cell_formula_units_Z  1
loop_
  _symmetry_equiv_pos_site_id
 _symmetry_equiv_pos_as_xyz
 1  'x, y, z'
loop_
 _atom_site_type_symbol
 _atom_site_label
 _atom_site_symmetry_multiplicity
 _atom_site_fract_x
 _atom_site_fract_y
 _atom_site_fract_z
 _atom_site_fract_occupancy
 Au  Au1  1  0.00000  0.00000  0.00000  1
 Mn  Mn1  1  0.50000  0.00000  0.50000  1
 O  O1  1  0.09961  0.19922  0.33567  1
 O  O2  1  0.90039  0.80078  0.66433  1
