CIF file written using JARVIS-Tools package.
data_Mn3O4F2
_symmetry_space_group_name_H-M  'Pnnm'
_cell_length_a       4.60275
_cell_length_b       2.98083
_cell_length_c       13.8752
_cell_angle_alpha    90
_cell_angle_beta     90.0013
_cell_angle_gamma    90

_symmetry_Int_Tables_number  58
_chemical_formula_structural  Mn3O4F2
_chemical_formula_sum  Mn6O8F4
_cell_volume  190.36864440596005
_cell_formula_units_Z  2
loop_
  _symmetry_equiv_pos_site_id
 _symmetry_equiv_pos_as_xyz
 1  'x, y, z'
loop_
 _atom_site_type_symbol
 _atom_site_label
 _atom_site_symmetry_multiplicity
 _atom_site_fract_x
 _atom_site_fract_y
 _atom_site_fract_z
 _atom_site_fract_occupancy
 F  F1  1  0.15060  0.50000  0.10726  1
 F  F2  1  0.84940  0.50000  0.89274  1
 F  F3  1  0.34939  0.00000  0.60725  1
 F  F4  1  0.65061  0.00000  0.39275  1
 Mn  Mn1  1  0.50000  0.50000  -0.00000  1
 Mn  Mn2  1  0.07728  0.00000  0.82570  1
 Mn  Mn3  1  0.57727  0.50000  0.67430  1
 Mn  Mn4  1  0.92272  0.00000  0.17430  1
 Mn  Mn5  1  0.00000  0.00000  0.50000  1
 Mn  Mn6  1  0.42273  0.50000  0.32570  1
 O  O1  1  0.17664  0.50000  0.43376  1
 O  O2  1  0.26067  0.50000  0.76783  1
 O  O3  1  0.23933  0.00000  0.26784  1
 O  O4  1  0.76067  0.00000  0.73216  1
 O  O5  1  0.73933  0.50000  0.23217  1
 O  O6  1  0.82336  0.50000  0.56624  1
 O  O7  1  0.67664  0.00000  0.06625  1
 O  O8  1  0.32336  0.00000  0.93375  1
