CIF file written using JARVIS-Tools package.
data_H4PbC2O6
_symmetry_space_group_name_H-M  'Pnma'
_cell_length_a       7.74428
_cell_length_b       7.62239
_cell_length_c       9.37329
_cell_angle_alpha    90
_cell_angle_beta     90.0001
_cell_angle_gamma    90.0001

_symmetry_Int_Tables_number  62
_chemical_formula_structural  H4PbC2O6
_chemical_formula_sum  H6Pb4C8O24
_cell_volume  553.3046996919988
_cell_formula_units_Z  4
loop_
  _symmetry_equiv_pos_site_id
 _symmetry_equiv_pos_as_xyz
 1  'x, y, z'
loop_
 _atom_site_type_symbol
 _atom_site_label
 _atom_site_symmetry_multiplicity
 _atom_site_fract_x
 _atom_site_fract_y
 _atom_site_fract_z
 _atom_site_fract_occupancy
 C  C1  1  0.35069  0.22284  0.13094  1
 C  C2  1  0.64931  0.77716  0.86906  1
 C  C3  1  0.14931  0.27716  0.63094  1
 C  C4  1  0.14931  0.22284  0.13093  1
 C  C5  1  0.85069  0.77716  0.86907  1
 C  C6  1  0.85069  0.72284  0.36907  1
 C  C7  1  0.35069  0.27716  0.63093  1
 C  C8  1  0.64931  0.72284  0.36906  1
 H  H1  1  0.35188  0.96169  0.83322  1
 H  H2  1  0.65049  0.33569  0.39687  1
 H  H3  1  0.64812  0.03831  0.16678  1
 H  H4  1  0.85188  0.46169  0.66678  1
 H  H5  1  0.85188  0.03831  0.16678  1
 H  H6  1  0.35188  0.53831  0.33322  1
 H  H7  1  0.34951  0.66431  0.60313  1
 H  H8  1  0.15049  0.66431  0.60313  1
 H  H9  1  0.34951  0.83569  0.10313  1
 H  H10  1  0.14812  0.96169  0.83322  1
 H  H11  1  0.65049  0.16431  0.89687  1
 H  H12  1  0.64812  0.46169  0.66678  1
 H  H13  1  0.84951  0.33569  0.39687  1
 H  H14  1  0.84951  0.16431  0.89687  1
 H  H15  1  0.14812  0.53831  0.33322  1
 H  H16  1  0.15049  0.83569  0.10313  1
 O  O1  1  0.75000  0.26715  0.36391  1
 O  O2  1  0.25000  0.76715  0.13609  1
 O  O3  1  0.07358  0.16633  0.55125  1
 O  O4  1  0.57358  0.83367  0.44875  1
 O  O5  1  0.07300  0.38868  0.70859  1
 O  O6  1  0.92642  0.83367  0.44875  1
 O  O7  1  0.25000  0.73285  0.63609  1
 O  O8  1  0.57300  0.61132  0.29141  1
 O  O9  1  0.25000  0.48445  0.37880  1
 O  O10  1  0.75000  0.51555  0.62120  1
 O  O11  1  0.07358  0.33367  0.05125  1
 O  O12  1  0.25000  0.01555  0.87880  1
 O  O13  1  0.92700  0.88868  0.79141  1
 O  O14  1  0.57358  0.66633  0.94875  1
 O  O15  1  0.42642  0.33367  0.05125  1
 O  O16  1  0.75000  0.23285  0.86391  1
 O  O17  1  0.92700  0.61132  0.29141  1
 O  O18  1  0.92642  0.66633  0.94875  1
 O  O19  1  0.75000  -0.01555  0.12120  1
 O  O20  1  0.42700  0.38868  0.70859  1
 O  O21  1  0.42700  0.11132  0.20859  1
 O  O22  1  0.07300  0.11132  0.20859  1
 O  O23  1  0.57300  0.88868  0.79141  1
 O  O24  1  0.42642  0.16633  0.55125  1
 Pb  Pb1  1  0.75000  0.04441  0.59589  1
 Pb  Pb2  1  0.25000  0.95559  0.40411  1
 Pb  Pb3  1  0.25000  0.54441  0.90411  1
 Pb  Pb4  1  0.75000  0.45559  0.09589  1
