CIF file written using JARVIS-Tools package.
data_Na2LiAlP2
_symmetry_space_group_name_H-M  'Cmce'
_cell_length_a       5.77361
_cell_length_b       8.91697
_cell_length_c       8.91698
_cell_angle_alpha    99.0923
_cell_angle_beta     90
_cell_angle_gamma    90

_symmetry_Int_Tables_number  64
_chemical_formula_structural  Na2LiAlP2
_chemical_formula_sum  Na8Li4Al4P8
_cell_volume  453.30555057395964
_cell_formula_units_Z  4
loop_
  _symmetry_equiv_pos_site_id
 _symmetry_equiv_pos_as_xyz
 1  'x, y, z'
loop_
 _atom_site_type_symbol
 _atom_site_label
 _atom_site_symmetry_multiplicity
 _atom_site_fract_x
 _atom_site_fract_y
 _atom_site_fract_z
 _atom_site_fract_occupancy
 Al  Al1  1  0.50000  0.62994  0.62994  1
 Al  Al2  1  0.50000  0.37006  0.37006  1
 Al  Al3  1  0.00000  0.12994  0.12994  1
 Al  Al4  1  0.00000  0.87006  0.87006  1
 Li  Li1  1  0.00000  0.38148  0.38148  1
 Li  Li2  1  0.50000  0.11852  0.11852  1
 Li  Li3  1  0.00000  0.61852  0.61852  1
 Li  Li4  1  0.50000  0.88148  0.88148  1
 Na  Na1  1  0.71308  0.82094  0.17906  1
 Na  Na2  1  0.21308  0.67906  0.32094  1
 Na  Na3  1  0.78692  0.32094  0.67906  1
 Na  Na4  1  0.75000  0.93219  0.56781  1
 Na  Na5  1  0.25000  0.56781  0.93219  1
 Na  Na6  1  0.25000  0.06781  0.43219  1
 Na  Na7  1  0.28692  0.17906  0.82094  1
 Na  Na8  1  0.75000  0.43219  0.06781  1
 P  P1  1  0.25000  0.35241  0.14759  1
 P  P2  1  0.25000  0.85241  0.64759  1
 P  P3  1  0.21472  0.89522  0.10478  1
 P  P4  1  0.28528  0.39522  0.60478  1
 P  P5  1  0.78528  0.10478  0.89522  1
 P  P6  1  0.71472  0.60478  0.39522  1
 P  P7  1  0.75000  0.14759  0.35241  1
 P  P8  1  0.75000  0.64759  0.85241  1
