CIF file written using JARVIS-Tools package.
data_V2CdP2O10
_symmetry_space_group_name_H-M  'Fdd2'
_cell_length_a       6.79241
_cell_length_b       6.7924
_cell_length_c       8.78391
_cell_angle_alpha    102.569
_cell_angle_beta     102.569
_cell_angle_gamma    115.922

_symmetry_Int_Tables_number  43
_chemical_formula_structural  V2CdP2O10
_chemical_formula_sum  V4Cd2P4O20
_cell_volume  332.40698214809447
_cell_formula_units_Z  2
loop_
  _symmetry_equiv_pos_site_id
 _symmetry_equiv_pos_as_xyz
 1  'x, y, z'
loop_
 _atom_site_type_symbol
 _atom_site_label
 _atom_site_symmetry_multiplicity
 _atom_site_fract_x
 _atom_site_fract_y
 _atom_site_fract_z
 _atom_site_fract_occupancy
 Cd  Cd1  1  0.99882  0.99882  0.00000  1
 Cd  Cd2  1  0.24882  0.74882  0.50000  1
 O  O1  1  0.91732  0.43865  0.20217  1
 O  O2  1  0.34720  0.13295  0.53447  1
 O  O3  1  0.88846  0.60862  0.97093  1
 O  O4  1  0.85862  0.63846  0.47093  1
 O  O5  1  0.00169  0.02894  0.69341  1
 O  O6  1  0.16753  0.38769  0.52907  1
 O  O7  1  0.55828  0.08553  0.80659  1
 O  O8  1  0.82173  0.32581  0.66449  1
 O  O9  1  0.06273  0.34848  0.96553  1
 O  O10  1  0.68865  0.66732  0.70217  1
 O  O11  1  0.33553  0.30828  0.30659  1
 O  O12  1  0.40724  0.41133  0.83551  1
 O  O13  1  0.59848  0.81273  0.46553  1
 O  O14  1  0.23648  0.71515  0.79783  1
 O  O15  1  0.66133  0.15724  0.33551  1
 O  O16  1  0.57581  0.57173  0.16449  1
 O  O17  1  0.63769  0.91753  0.02907  1
 O  O18  1  0.96515  0.98648  0.29783  1
 O  O19  1  0.27894  0.75169  0.19341  1
 O  O20  1  0.38295  0.09720  0.03447  1
 P  P1  1  0.45213  0.95245  0.91624  1
 P  P2  1  0.20245  0.20213  0.41624  1
 P  P3  1  0.03621  0.53590  0.08376  1
 P  P4  1  0.78590  0.78621  0.58376  1
 V  V1  1  0.60127  0.37671  0.76288  1
 V  V2  1  0.62671  0.35127  0.26288  1
 V  V3  1  0.61383  0.83839  0.23712  1
 V  V4  1  0.08839  0.36383  0.73712  1
