CIF file written using JARVIS-Tools package.
data_Na3CuO2
_symmetry_space_group_name_H-M  'Ibam'
_cell_length_a       5.29833
_cell_length_b       5.94356
_cell_length_c       6.58733
_cell_angle_alpha    116.811
_cell_angle_beta     113.714
_cell_angle_gamma    89.9996

_symmetry_Int_Tables_number  72
_chemical_formula_structural  Na3CuO2
_chemical_formula_sum  Na6Cu2O4
_cell_volume  165.27951175214676
_cell_formula_units_Z  2
loop_
  _symmetry_equiv_pos_site_id
 _symmetry_equiv_pos_as_xyz
 1  'x, y, z'
loop_
 _atom_site_type_symbol
 _atom_site_label
 _atom_site_symmetry_multiplicity
 _atom_site_fract_x
 _atom_site_fract_y
 _atom_site_fract_z
 _atom_site_fract_occupancy
 Cu  Cu1  1  0.00278  0.00043  0.00092  1
 Cu  Cu2  1  0.00278  0.50044  0.00092  1
 Na  Na1  1  0.76466  0.51235  0.52468  1
 Na  Na2  1  0.50280  0.25045  0.00093  1
 Na  Na3  1  0.50274  0.75045  0.00093  1
 Na  Na4  1  0.76473  0.01235  0.52468  1
 Na  Na5  1  0.24089  0.48850  0.47714  1
 Na  Na6  1  0.24097  0.98850  0.47717  1
 O  O1  1  0.87566  0.62685  0.25373  1
 O  O2  1  0.38271  0.12684  0.25373  1
 O  O3  1  0.62285  0.87404  0.74812  1
 O  O4  1  0.12991  0.37404  0.74812  1
