CIF file written using JARVIS-Tools package.
data_MnAgO2
_symmetry_space_group_name_H-M  'C2/m'
_cell_length_a       2.91998
_cell_length_b       3.13268
_cell_length_c       6.39605
_cell_angle_alpha    101.055
_cell_angle_beta     90.0001
_cell_angle_gamma    117.778

_symmetry_Int_Tables_number  12
_chemical_formula_structural  MnAgO2
_chemical_formula_sum  MnAgO2
_cell_volume  50.5341579763586
_cell_formula_units_Z  1
loop_
  _symmetry_equiv_pos_site_id
 _symmetry_equiv_pos_as_xyz
 1  'x, y, z'
loop_
 _atom_site_type_symbol
 _atom_site_label
 _atom_site_symmetry_multiplicity
 _atom_site_fract_x
 _atom_site_fract_y
 _atom_site_fract_z
 _atom_site_fract_occupancy
 Ag  Ag1  1  0.00000  0.00000  0.00000  1
 Mn  Mn1  1  0.50000  -0.00000  0.50000  1
 O  O1  1  0.10106  0.20212  0.33622  1
 O  O2  1  0.89894  0.79788  0.66378  1
