CIF file written using JARVIS-Tools package.
data_Mn2FeO3
_symmetry_space_group_name_H-M  'P2/m'
_cell_length_a       5.34399
_cell_length_b       3.07825
_cell_length_c       7.5312
_cell_angle_alpha    90
_cell_angle_beta     90.1165
_cell_angle_gamma    90

_symmetry_Int_Tables_number  10
_chemical_formula_structural  Mn2FeO3
_chemical_formula_sum  Mn4Fe2O6
_cell_volume  123.88900267243413
_cell_formula_units_Z  2
loop_
  _symmetry_equiv_pos_site_id
 _symmetry_equiv_pos_as_xyz
 1  'x, y, z'
loop_
 _atom_site_type_symbol
 _atom_site_label
 _atom_site_symmetry_multiplicity
 _atom_site_fract_x
 _atom_site_fract_y
 _atom_site_fract_z
 _atom_site_fract_occupancy
 Fe  Fe1  1  0.16476  0.50000  0.33505  1
 Fe  Fe2  1  0.83524  0.50000  0.66495  1
 Mn  Mn1  1  0.66929  0.00000  0.33772  1
 Mn  Mn2  1  0.33071  0.00000  0.66228  1
 Mn  Mn3  1  0.50000  0.50000  -0.00000  1
 Mn  Mn4  1  0.00000  0.00000  0.00000  1
 O  O1  1  0.33210  0.00000  0.17001  1
 O  O2  1  0.83302  0.50000  0.16743  1
 O  O3  1  0.16698  0.50000  0.83257  1
 O  O4  1  0.50000  0.50000  0.50000  1
 O  O5  1  -0.00000  0.00000  0.50000  1
 O  O6  1  0.66790  0.00000  0.82999  1
