CIF file written using JARVIS-Tools package.
data_Li6TeO6
_symmetry_space_group_name_H-M  'R-3'
_cell_length_a       5.6289
_cell_length_b       5.62886
_cell_length_c       5.62888
_cell_angle_alpha    61.4046
_cell_angle_beta     61.4068
_cell_angle_gamma    61.4046

_symmetry_Int_Tables_number  148
_chemical_formula_structural  Li6TeO6
_chemical_formula_sum  Li6TeO6
_cell_volume  130.09176909963915
_cell_formula_units_Z  1
loop_
  _symmetry_equiv_pos_site_id
 _symmetry_equiv_pos_as_xyz
 1  'x, y, z'
loop_
 _atom_site_type_symbol
 _atom_site_label
 _atom_site_symmetry_multiplicity
 _atom_site_fract_x
 _atom_site_fract_y
 _atom_site_fract_z
 _atom_site_fract_occupancy
 Li  Li1  1  0.91788  0.48506  0.28420  1
 Li  Li2  1  0.51493  0.71581  0.08213  1
 Li  Li3  1  0.71580  0.08210  0.51492  1
 Li  Li4  1  0.28420  0.91790  0.48508  1
 Li  Li5  1  0.48507  0.28419  0.91787  1
 Li  Li6  1  0.08212  0.51494  0.71580  1
 O  O1  1  0.79541  0.34853  0.10536  1
 O  O2  1  0.65148  0.89463  0.20462  1
 O  O3  1  0.89461  0.20460  0.65148  1
 O  O4  1  0.10539  0.79540  0.34852  1
 O  O5  1  0.34852  0.10537  0.79538  1
 O  O6  1  0.20459  0.65147  0.89464  1
 Te  Te1  1  0.00000  0.00000  0.00000  1
