CIF file written using JARVIS-Tools package.
data_HgBr2
_symmetry_space_group_name_H-M  'Cmc2_1'
_cell_length_a       4.15162
_cell_length_b       4.15162
_cell_length_c       12.47
_cell_angle_alpha    90
_cell_angle_beta     90
_cell_angle_gamma    114.832

_symmetry_Int_Tables_number  36
_chemical_formula_structural  HgBr2
_chemical_formula_sum  Hg2Br4
_cell_volume  195.05949010099445
_cell_formula_units_Z  2
loop_
  _symmetry_equiv_pos_site_id
 _symmetry_equiv_pos_as_xyz
 1  'x, y, z'
loop_
 _atom_site_type_symbol
 _atom_site_label
 _atom_site_symmetry_multiplicity
 _atom_site_fract_x
 _atom_site_fract_y
 _atom_site_fract_z
 _atom_site_fract_occupancy
 Br  Br1  1  0.60745  0.39255  0.13436  1
 Br  Br2  1  0.39255  0.60745  0.63436  1
 Br  Br3  1  0.07134  0.92866  0.86542  1
 Br  Br4  1  0.92866  0.07134  0.36542  1
 Hg  Hg1  1  0.66097  0.33903  0.50021  1
 Hg  Hg2  1  0.33903  0.66097  0.00021  1
