CIF file written using JARVIS-Tools package.
data_CoTe2
_symmetry_space_group_name_H-M  'P-3m1'
_cell_length_a       3.78245
_cell_length_b       3.78246
_cell_length_c       5.59738
_cell_angle_alpha    90
_cell_angle_beta     90.0086
_cell_angle_gamma    120

_symmetry_Int_Tables_number  164
_chemical_formula_structural  CoTe2
_chemical_formula_sum  CoTe2
_cell_volume  69.35265801753279
_cell_formula_units_Z  1
loop_
  _symmetry_equiv_pos_site_id
 _symmetry_equiv_pos_as_xyz
 1  'x, y, z'
loop_
 _atom_site_type_symbol
 _atom_site_label
 _atom_site_symmetry_multiplicity
 _atom_site_fract_x
 _atom_site_fract_y
 _atom_site_fract_z
 _atom_site_fract_occupancy
 Co  Co1  1  0.00000  0.00000  0.00000  1
 Te  Te1  1  0.66658  0.33329  0.76017  1
 Te  Te2  1  0.33342  0.66671  0.23983  1
