CIF file written using JARVIS-Tools package.
data_NiAgF3
_symmetry_space_group_name_H-M  'Pm-3m'
_cell_length_a       3.97815
_cell_length_b       3.97838
_cell_length_c       3.97791
_cell_angle_alpha    90.0091
_cell_angle_beta     89.9821
_cell_angle_gamma    89.9816

_symmetry_Int_Tables_number  221
_chemical_formula_structural  NiAgF3
_chemical_formula_sum  NiAgF3
_cell_volume  62.956576503565294
_cell_formula_units_Z  1
loop_
  _symmetry_equiv_pos_site_id
 _symmetry_equiv_pos_as_xyz
 1  'x, y, z'
loop_
 _atom_site_type_symbol
 _atom_site_label
 _atom_site_symmetry_multiplicity
 _atom_site_fract_x
 _atom_site_fract_y
 _atom_site_fract_z
 _atom_site_fract_occupancy
 Ag  Ag1  1  0.01200  0.00197  0.00000  1
 F  F1  1  0.51200  0.50182  0.00000  1
 F  F2  1  0.01194  0.50196  0.50003  1
 F  F3  1  0.51218  0.00210  0.49996  1
 Ni  Ni1  1  0.51188  0.50215  0.50000  1
