CIF file written using JARVIS-Tools package.
data_GeTe
_symmetry_space_group_name_H-M  'Pnma'
_cell_length_a       4.24701
_cell_length_b       4.34513
_cell_length_c       12.1613
_cell_angle_alpha    90
_cell_angle_beta     90
_cell_angle_gamma    90

_symmetry_Int_Tables_number  62
_chemical_formula_structural  GeTe
_chemical_formula_sum  Ge4Te4
_cell_volume  224.42253408949614
_cell_formula_units_Z  4
loop_
  _symmetry_equiv_pos_site_id
 _symmetry_equiv_pos_as_xyz
 1  'x, y, z'
loop_
 _atom_site_type_symbol
 _atom_site_label
 _atom_site_symmetry_multiplicity
 _atom_site_fract_x
 _atom_site_fract_y
 _atom_site_fract_z
 _atom_site_fract_occupancy
 Ge  Ge1  1  0.25000  0.20350  0.63465  1
 Ge  Ge2  1  0.25000  0.29650  0.13465  1
 Ge  Ge3  1  0.75000  0.79650  0.36535  1
 Ge  Ge4  1  0.75000  0.70350  0.86535  1
 Te  Te1  1  0.25000  0.25464  0.87388  1
 Te  Te2  1  0.25000  0.24536  0.37388  1
 Te  Te3  1  0.75000  0.74536  0.12612  1
 Te  Te4  1  0.75000  0.75464  0.62612  1
