CIF file written using JARVIS-Tools package.
data_AlCo4
_symmetry_space_group_name_H-M  'R-3m'
_cell_length_a       10.025
_cell_length_b       10.025
_cell_length_c       10.025
_cell_angle_alpha    14.7059
_cell_angle_beta     14.7059
_cell_angle_gamma    14.7059

_symmetry_Int_Tables_number  166
_chemical_formula_structural  AlCo4
_chemical_formula_sum  AlCo4
_cell_volume  56.537979769942986
_cell_formula_units_Z  1
loop_
  _symmetry_equiv_pos_site_id
 _symmetry_equiv_pos_as_xyz
 1  'x, y, z'
loop_
 _atom_site_type_symbol
 _atom_site_label
 _atom_site_symmetry_multiplicity
 _atom_site_fract_x
 _atom_site_fract_y
 _atom_site_fract_z
 _atom_site_fract_occupancy
 Al  Al1  1  0.00000  0.00000  0.00000  1
 Co  Co1  1  0.59900  0.59900  0.59900  1
 Co  Co2  1  0.20014  0.20014  0.20014  1
 Co  Co3  1  0.79986  0.79986  0.79986  1
 Co  Co4  1  0.40100  0.40100  0.40100  1
