CIF file written using JARVIS-Tools package.
data_LiVF3
_symmetry_space_group_name_H-M  'R3c'
_cell_length_a       5.18972
_cell_length_b       5.1895
_cell_length_c       5.57901
_cell_angle_alpha    62.2871
_cell_angle_beta     62.2881
_cell_angle_gamma    60.0004

_symmetry_Int_Tables_number  161
_chemical_formula_structural  LiVF3
_chemical_formula_sum  Li2V2F6
_cell_volume  109.77271261099864
_cell_formula_units_Z  2
loop_
  _symmetry_equiv_pos_site_id
 _symmetry_equiv_pos_as_xyz
 1  'x, y, z'
loop_
 _atom_site_type_symbol
 _atom_site_label
 _atom_site_symmetry_multiplicity
 _atom_site_fract_x
 _atom_site_fract_y
 _atom_site_fract_z
 _atom_site_fract_occupancy
 F  F1  1  0.40313  0.07965  0.74118  1
 F  F2  1  0.27604  0.57966  0.24117  1
 F  F3  1  0.90313  0.27604  0.24117  1
 F  F4  1  0.77605  0.40312  0.74117  1
 F  F5  1  0.07966  0.77604  0.74118  1
 F  F6  1  0.57965  0.90313  0.24118  1
 Li  Li1  1  0.20228  0.20227  0.39319  1
 Li  Li2  1  0.70227  0.70228  0.89319  1
 V  V1  1  0.49377  0.49377  0.51868  1
 V  V2  1  0.99377  0.99378  0.01868  1
