CIF file written using JARVIS-Tools package.
data_Ni5O4
_symmetry_space_group_name_H-M  'P-43m'
_cell_length_a       4.5395
_cell_length_b       4.5395
_cell_length_c       4.5395
_cell_angle_alpha    90
_cell_angle_beta     90
_cell_angle_gamma    90

_symmetry_Int_Tables_number  215
_chemical_formula_structural  Ni5O4
_chemical_formula_sum  Ni5O4
_cell_volume  93.54589162110888
_cell_formula_units_Z  1
loop_
  _symmetry_equiv_pos_site_id
 _symmetry_equiv_pos_as_xyz
 1  'x, y, z'
loop_
 _atom_site_type_symbol
 _atom_site_label
 _atom_site_symmetry_multiplicity
 _atom_site_fract_x
 _atom_site_fract_y
 _atom_site_fract_z
 _atom_site_fract_occupancy
 Ni  Ni1  1  0.95640  0.95640  0.95640  1
 Ni  Ni2  1  0.54360  0.54360  0.95640  1
 Ni  Ni3  1  0.54360  0.95640  0.54360  1
 Ni  Ni4  1  0.95640  0.54360  0.54360  1
 Ni  Ni5  1  0.25000  0.25000  0.25000  1
 O  O1  1  0.51202  0.51202  0.51202  1
 O  O2  1  0.98798  0.98798  0.51202  1
 O  O3  1  0.98798  0.51202  0.98798  1
 O  O4  1  0.51202  0.98798  0.98798  1
