CIF file written using JARVIS-Tools package.
data_CeMg6Cu
_symmetry_space_group_name_H-M  'Amm2'
_cell_length_a       6.90196
_cell_length_b       6.90195
_cell_length_c       4.81958
_cell_angle_alpha    90
_cell_angle_beta     90
_cell_angle_gamma    126.731

_symmetry_Int_Tables_number  38
_chemical_formula_structural  CeMg6Cu
_chemical_formula_sum  CeMg6Cu
_cell_volume  184.0040912844531
_cell_formula_units_Z  1
loop_
  _symmetry_equiv_pos_site_id
 _symmetry_equiv_pos_as_xyz
 1  'x, y, z'
loop_
 _atom_site_type_symbol
 _atom_site_label
 _atom_site_symmetry_multiplicity
 _atom_site_fract_x
 _atom_site_fract_y
 _atom_site_fract_z
 _atom_site_fract_occupancy
 Ce  Ce1  1  0.29785  0.20215  0.75000  1
 Cu  Cu1  1  0.13492  0.36508  0.25000  1
 Mg  Mg1  1  0.19074  0.81726  0.25000  1
 Mg  Mg2  1  0.68274  0.30926  0.25000  1
 Mg  Mg3  1  0.69722  0.80278  0.25000  1
 Mg  Mg4  1  0.32391  0.68043  0.75000  1
 Mg  Mg5  1  0.81957  0.17609  0.75000  1
 Mg  Mg6  1  0.85306  0.64694  0.75000  1
