CIF file written using JARVIS-Tools package.
data_AlFePO5
_symmetry_space_group_name_H-M  'P2_1/c'
_cell_length_a       5.48067
_cell_length_b       7.1785
_cell_length_c       10.4775
_cell_angle_alpha    90.0002
_cell_angle_beta     89.9998
_cell_angle_gamma    98.3919

_symmetry_Int_Tables_number  14
_chemical_formula_structural  AlFePO5
_chemical_formula_sum  Al4Fe4P4O20
_cell_volume  407.8017903909919
_cell_formula_units_Z  4
loop_
  _symmetry_equiv_pos_site_id
 _symmetry_equiv_pos_as_xyz
 1  'x, y, z'
loop_
 _atom_site_type_symbol
 _atom_site_label
 _atom_site_symmetry_multiplicity
 _atom_site_fract_x
 _atom_site_fract_y
 _atom_site_fract_z
 _atom_site_fract_occupancy
 Al  Al1  1  0.54632  0.36008  0.17460  1
 Al  Al2  1  0.95368  0.63992  0.67460  1
 Al  Al3  1  0.04632  0.36008  0.32540  1
 Al  Al4  1  0.45368  0.63992  0.82540  1
 Fe  Fe1  1  0.10232  0.01684  0.14202  1
 Fe  Fe2  1  0.89768  0.98316  0.85798  1
 Fe  Fe3  1  0.60232  0.01684  0.35798  1
 Fe  Fe4  1  0.39768  0.98316  0.64202  1
 O  O1  1  0.89172  0.71181  0.51721  1
 O  O2  1  0.60828  0.28819  0.01721  1
 O  O3  1  0.42944  0.91397  0.18086  1
 O  O4  1  0.07057  0.08603  0.68086  1
 O  O5  1  0.30857  0.88224  0.45188  1
 O  O6  1  0.92944  0.91397  0.31914  1
 O  O7  1  0.19142  0.11776  0.95188  1
 O  O8  1  0.39172  0.71181  0.98279  1
 O  O9  1  0.80858  0.88224  0.04812  1
 O  O10  1  0.57056  0.08603  0.81914  1
 O  O11  1  0.10828  0.28819  0.48279  1
 O  O12  1  0.10361  0.60771  0.32077  1
 O  O13  1  0.25982  0.72762  0.71501  1
 O  O14  1  0.69143  0.11776  0.54812  1
 O  O15  1  0.75983  0.72762  0.78499  1
 O  O16  1  0.89639  0.39229  0.67923  1
 O  O17  1  0.39639  0.39229  0.82077  1
 O  O18  1  0.60361  0.60771  0.17923  1
 O  O19  1  0.24018  0.27238  0.21501  1
 O  O20  1  0.74018  0.27238  0.28499  1
 P  P1  1  0.05837  0.77821  0.40185  1
 P  P2  1  0.94163  0.22179  0.59815  1
 P  P3  1  0.55838  0.77821  0.09815  1
 P  P4  1  0.44162  0.22179  0.90185  1
