CIF file written using JARVIS-Tools package.
data_SiPd
_symmetry_space_group_name_H-M  'I4/mcm'
_cell_length_a       4.67556
_cell_length_b       6.30706
_cell_length_c       6.30706
_cell_angle_alpha    82.1032
_cell_angle_beta     68.2436
_cell_angle_gamma    68.2436

_symmetry_Int_Tables_number  140
_chemical_formula_structural  SiPd
_chemical_formula_sum  Si4Pd4
_cell_volume  160.43612257696512
_cell_formula_units_Z  4
loop_
  _symmetry_equiv_pos_site_id
 _symmetry_equiv_pos_as_xyz
 1  'x, y, z'
loop_
 _atom_site_type_symbol
 _atom_site_label
 _atom_site_symmetry_multiplicity
 _atom_site_fract_x
 _atom_site_fract_y
 _atom_site_fract_z
 _atom_site_fract_occupancy
 Pd  Pd1  1  0.17802  0.50000  0.14396  1
 Pd  Pd2  1  0.82198  0.50000  0.85604  1
 Pd  Pd3  1  0.32198  0.85604  0.50000  1
 Pd  Pd4  1  0.67802  0.14396  0.50000  1
 Si  Si1  1  0.38746  0.50000  0.72508  1
 Si  Si2  1  0.61254  0.50000  0.27492  1
 Si  Si3  1  0.11254  0.27492  0.50000  1
 Si  Si4  1  0.88746  0.72508  0.50000  1
