CIF file written using JARVIS-Tools package.
data_Y6N2O5
_symmetry_space_group_name_H-M  'C2/m'
_cell_length_a       4.76421
_cell_length_b       5.90629
_cell_length_c       7.58408
_cell_angle_alpha    97.828
_cell_angle_beta     90.0002
_cell_angle_gamma    113.785

_symmetry_Int_Tables_number  12
_chemical_formula_structural  Y6N2O5
_chemical_formula_sum  Y6N2O5
_cell_volume  193.10614285701405
_cell_formula_units_Z  1
loop_
  _symmetry_equiv_pos_site_id
 _symmetry_equiv_pos_as_xyz
 1  'x, y, z'
loop_
 _atom_site_type_symbol
 _atom_site_label
 _atom_site_symmetry_multiplicity
 _atom_site_fract_x
 _atom_site_fract_y
 _atom_site_fract_z
 _atom_site_fract_occupancy
 N  N1  1  0.35704  0.71480  0.57248  1
 N  N2  1  0.64222  0.28515  0.42369  1
 O  O1  1  0.07873  0.15819  0.69996  1
 O  O2  1  0.49961  -0.00003  0.99808  1
 O  O3  1  0.77178  0.54425  0.85234  1
 O  O4  1  0.92052  0.84175  0.29621  1
 O  O5  1  0.22750  0.45569  0.14383  1
 Y  Y1  1  0.29063  0.58198  0.85931  1
 Y  Y2  1  0.56497  0.13066  0.71491  1
 Y  Y3  1  0.14474  0.29019  0.42015  1
 Y  Y4  1  0.85452  0.70976  0.57601  1
 Y  Y5  1  0.70863  0.41797  0.13685  1
 Y  Y6  1  0.43428  0.86928  0.28126  1
