CIF file written using JARVIS-Tools package.
data_VOF3
_symmetry_space_group_name_H-M  'P2_12_12_1'
_cell_length_a       5.55852
_cell_length_b       4.84096
_cell_length_c       9.1061
_cell_angle_alpha    90
_cell_angle_beta     90
_cell_angle_gamma    90

_symmetry_Int_Tables_number  19
_chemical_formula_structural  VOF3
_chemical_formula_sum  V4O4F2
_cell_volume  245.03200923175459
_cell_formula_units_Z  4
loop_
  _symmetry_equiv_pos_site_id
 _symmetry_equiv_pos_as_xyz
 1  'x, y, z'
loop_
 _atom_site_type_symbol
 _atom_site_label
 _atom_site_symmetry_multiplicity
 _atom_site_fract_x
 _atom_site_fract_y
 _atom_site_fract_z
 _atom_site_fract_occupancy
 F  F1  1  0.88949  0.30038  0.48775  1
 F  F2  1  0.09491  0.38364  0.23364  1
 F  F3  1  0.88073  0.54616  0.76764  1
 F  F4  1  0.38949  0.19962  0.51225  1
 F  F5  1  0.11051  0.80038  0.01225  1
 F  F6  1  0.11927  0.04616  0.73236  1
 F  F7  1  0.40509  0.61636  0.73364  1
 F  F8  1  0.59491  0.11636  0.76636  1
 F  F9  1  0.61927  0.45384  0.26764  1
 F  F10  1  0.90509  0.88364  0.26636  1
 F  F11  1  0.61051  0.69962  -0.01225  1
 F  F12  1  0.38073  -0.04616  0.23236  1
 O  O1  1  0.86220  0.23883  0.00388  1
 O  O2  1  0.63780  0.76117  0.50388  1
 O  O3  1  0.36220  0.26117  -0.00388  1
 O  O4  1  0.13780  0.73883  0.49612  1
 V  V1  1  0.82044  0.60424  0.39068  1
 V  V2  1  0.67956  0.39576  0.89068  1
 V  V3  1  0.32044  0.89576  0.60932  1
 V  V4  1  0.17956  0.10424  0.10932  1
