CIF file written using JARVIS-Tools package.
data_Na3SbTe3
_symmetry_space_group_name_H-M  'P2_13'
_cell_length_a       9.56821
_cell_length_b       9.56821
_cell_length_c       9.56821
_cell_angle_alpha    90
_cell_angle_beta     90
_cell_angle_gamma    90

_symmetry_Int_Tables_number  198
_chemical_formula_structural  Na3SbTe3
_chemical_formula_sum  Na2Sb4Te2
_cell_volume  875.9758817383064
_cell_formula_units_Z  4
loop_
  _symmetry_equiv_pos_site_id
 _symmetry_equiv_pos_as_xyz
 1  'x, y, z'
loop_
 _atom_site_type_symbol
 _atom_site_label
 _atom_site_symmetry_multiplicity
 _atom_site_fract_x
 _atom_site_fract_y
 _atom_site_fract_z
 _atom_site_fract_occupancy
 Na  Na1  1  0.58687  0.91313  0.08687  1
 Na  Na2  1  0.18227  0.18227  0.18227  1
 Na  Na3  1  0.31773  0.81773  0.68227  1
 Na  Na4  1  0.68227  0.31773  0.81773  1
 Na  Na5  1  0.91313  0.08687  0.58687  1
 Na  Na6  1  0.08687  0.58687  0.91313  1
 Na  Na7  1  0.41313  0.41313  0.41313  1
 Na  Na8  1  0.32879  0.17121  0.82879  1
 Na  Na9  1  0.17121  0.82879  0.32879  1
 Na  Na10  1  0.82879  0.32879  0.17121  1
 Na  Na11  1  0.67121  0.67121  0.67121  1
 Na  Na12  1  0.81773  0.68227  0.31773  1
 Sb  Sb1  1  0.04118  0.45882  0.54118  1
 Sb  Sb2  1  0.45882  0.54118  0.04118  1
 Sb  Sb3  1  0.95882  0.95882  0.95882  1
 Sb  Sb4  1  0.54118  0.04118  0.45882  1
 Te  Te1  1  0.25717  0.12100  0.50395  1
 Te  Te2  1  0.74283  0.62100  0.99605  1
 Te  Te3  1  0.37900  0.49605  0.75717  1
 Te  Te4  1  0.99605  0.74283  0.62100  1
 Te  Te5  1  0.49605  0.75717  0.37900  1
 Te  Te6  1  0.12100  0.50395  0.25717  1
 Te  Te7  1  0.50395  0.25717  0.12100  1
 Te  Te8  1  0.62100  0.99605  0.74283  1
 Te  Te9  1  0.87900  0.00395  0.24283  1
 Te  Te10  1  0.00395  0.24283  0.87900  1
 Te  Te11  1  0.24283  0.87900  0.00395  1
 Te  Te12  1  0.75717  0.37900  0.49605  1
