CIF file written using JARVIS-Tools package.
data_CeMg6Zn
_symmetry_space_group_name_H-M  'Amm2'
_cell_length_a       7.21909
_cell_length_b       5.99468
_cell_length_c       4.85795
_cell_angle_alpha    90
_cell_angle_beta     90
_cell_angle_gamma    114.527

_symmetry_Int_Tables_number  38
_chemical_formula_structural  CeMg6Zn
_chemical_formula_sum  CeMg6Zn
_cell_volume  191.26325013234705
_cell_formula_units_Z  1
loop_
  _symmetry_equiv_pos_site_id
 _symmetry_equiv_pos_as_xyz
 1  'x, y, z'
loop_
 _atom_site_type_symbol
 _atom_site_label
 _atom_site_symmetry_multiplicity
 _atom_site_fract_x
 _atom_site_fract_y
 _atom_site_fract_z
 _atom_site_fract_occupancy
 Ce  Ce1  1  0.10178  0.80091  0.25000  1
 Mg  Mg1  1  0.62614  0.30723  0.25000  1
 Mg  Mg2  1  0.62610  0.81889  0.25000  1
 Mg  Mg3  1  0.34598  0.17111  0.75000  1
 Mg  Mg4  1  0.34596  0.67485  0.75000  1
 Mg  Mg5  1  0.92555  0.21275  0.75000  1
 Mg  Mg6  1  0.78082  0.64040  0.75000  1
 Zn  Zn1  1  0.24767  0.37385  0.25000  1
