CIF file written using JARVIS-Tools package.
data_LiDySe2
_symmetry_space_group_name_H-M  'R-3m'
_cell_length_a       6.86094
_cell_length_b       6.86094
_cell_length_c       6.86095
_cell_angle_alpha    34.3128
_cell_angle_beta     34.3128
_cell_angle_gamma    34.3128

_symmetry_Int_Tables_number  166
_chemical_formula_structural  LiDySe2
_chemical_formula_sum  LiDySe2
_cell_volume  91.52719189310304
_cell_formula_units_Z  1
loop_
  _symmetry_equiv_pos_site_id
 _symmetry_equiv_pos_as_xyz
 1  'x, y, z'
loop_
 _atom_site_type_symbol
 _atom_site_label
 _atom_site_symmetry_multiplicity
 _atom_site_fract_x
 _atom_site_fract_y
 _atom_site_fract_z
 _atom_site_fract_occupancy
 Dy  Dy1  1  0.00000  0.00000  0.00000  1
 Li  Li1  1  0.50000  0.50000  0.50000  1
 Se  Se1  1  0.24845  0.24845  0.24845  1
 Se  Se2  1  0.75155  0.75155  0.75155  1
