CIF file written using JARVIS-Tools package.
data_Ca3Ru2O7
_symmetry_space_group_name_H-M  'Cmc2_1'
_cell_length_a       5.37799
_cell_length_b       5.58915
_cell_length_c       10.1423
_cell_angle_alpha    90
_cell_angle_beta     105.374
_cell_angle_gamma    90

_symmetry_Int_Tables_number  36
_chemical_formula_structural  Ca3Ru2O7
_chemical_formula_sum  Ca6Ru4O4
_cell_volume  293.9517223289031
_cell_formula_units_Z  2
loop_
  _symmetry_equiv_pos_site_id
 _symmetry_equiv_pos_as_xyz
 1  'x, y, z'
loop_
 _atom_site_type_symbol
 _atom_site_label
 _atom_site_symmetry_multiplicity
 _atom_site_fract_x
 _atom_site_fract_y
 _atom_site_fract_z
 _atom_site_fract_occupancy
 Ca  Ca1  1  0.73321  0.81158  0.00000  1
 Ca  Ca2  1  0.26679  0.31158  -0.00000  1
 Ca  Ca3  1  0.93310  0.69094  0.37788  1
 Ca  Ca4  1  0.06690  0.19094  0.62212  1
 Ca  Ca5  1  0.44478  0.19094  0.37788  1
 Ca  Ca6  1  0.55522  0.69094  0.62212  1
 O  O1  1  0.93470  0.45314  0.76424  1
 O  O2  1  0.17047  0.45314  0.23576  1
 O  O3  1  0.82953  0.95314  0.76424  1
 O  O4  1  0.52553  0.05036  0.15953  1
 O  O5  1  0.47447  0.55036  0.84047  1
 O  O6  1  0.63401  0.55036  0.15953  1
 O  O7  1  0.36599  0.05036  0.84047  1
 O  O8  1  0.15617  0.72628  -0.00000  1
 O  O9  1  0.47748  0.27276  0.60182  1
 O  O10  1  0.06530  0.95314  0.23576  1
 O  O11  1  0.12434  0.77276  0.60182  1
 O  O12  1  0.52252  0.77276  0.39818  1
 O  O13  1  0.84383  0.22628  0.00000  1
 O  O14  1  0.87566  0.27276  0.39818  1
 Ru  Ru1  1  0.14902  0.74982  0.80241  1
 Ru  Ru2  1  0.65339  0.24982  0.80241  1
 Ru  Ru3  1  0.34661  0.74982  0.19759  1
 Ru  Ru4  1  0.85098  0.24982  0.19759  1
