CIF file written using JARVIS-Tools package.
data_Li2TiFe3O8
_symmetry_space_group_name_H-M  'R-3m'
_cell_length_a       5.75195
_cell_length_b       5.75196
_cell_length_c       5.75196
_cell_angle_alpha    59.7302
_cell_angle_beta     59.7303
_cell_angle_gamma    59.7303

_symmetry_Int_Tables_number  166
_chemical_formula_structural  Li2TiFe3O8
_chemical_formula_sum  Li2TiFe3O8
_cell_volume  133.74044668036285
_cell_formula_units_Z  1
loop_
  _symmetry_equiv_pos_site_id
 _symmetry_equiv_pos_as_xyz
 1  'x, y, z'
loop_
 _atom_site_type_symbol
 _atom_site_label
 _atom_site_symmetry_multiplicity
 _atom_site_fract_x
 _atom_site_fract_y
 _atom_site_fract_z
 _atom_site_fract_occupancy
 Fe  Fe1  1  0.00000  0.50000  0.50000  1
 Fe  Fe2  1  0.50000  -0.00000  0.50000  1
 Fe  Fe3  1  0.50000  0.50000  -0.00000  1
 Li  Li1  1  0.12343  0.12343  0.12343  1
 Li  Li2  1  0.87657  0.87657  0.87657  1
 O  O1  1  0.26387  0.26387  0.26387  1
 O  O2  1  0.25763  0.25763  0.71657  1
 O  O3  1  0.25763  0.71657  0.25763  1
 O  O4  1  0.71657  0.25763  0.25763  1
 O  O5  1  0.28343  0.74237  0.74237  1
 O  O6  1  0.74237  0.28343  0.74237  1
 O  O7  1  0.74237  0.74237  0.28343  1
 O  O8  1  0.73613  0.73613  0.73613  1
 Ti  Ti1  1  0.50000  0.50000  0.50000  1
