CIF file written using JARVIS-Tools package.
data_Li4TiS4
_symmetry_space_group_name_H-M  'I-42m'
_cell_length_a       5.83528
_cell_length_b       6.73547
_cell_length_c       5.83528
_cell_angle_alpha    64.3308
_cell_angle_beta     90
_cell_angle_gamma    115.669

_symmetry_Int_Tables_number  121
_chemical_formula_structural  Li4TiS4
_chemical_formula_sum  Li4TiS4
_cell_volume  181.27304649019837
_cell_formula_units_Z  1
loop_
  _symmetry_equiv_pos_site_id
 _symmetry_equiv_pos_as_xyz
 1  'x, y, z'
loop_
 _atom_site_type_symbol
 _atom_site_label
 _atom_site_symmetry_multiplicity
 _atom_site_fract_x
 _atom_site_fract_y
 _atom_site_fract_z
 _atom_site_fract_occupancy
 Li  Li1  1  0.50000  0.00000  0.00000  1
 Li  Li2  1  0.00000  0.00000  0.50000  1
 Li  Li3  1  0.71673  0.43345  0.28327  1
 Li  Li4  1  0.28327  0.56655  0.71673  1
 S  S1  1  0.34559  0.24427  0.10132  1
 S  S2  1  0.65441  0.75573  0.34559  1
 S  S3  1  0.89868  0.24427  0.65441  1
 S  S4  1  0.10132  0.75573  0.89868  1
 Ti  Ti1  1  0.00000  0.00000  0.00000  1
