CIF file written using JARVIS-Tools package.
data_HfGe2
_symmetry_space_group_name_H-M  'Cmcm'
_cell_length_a       3.78284
_cell_length_b       3.82361
_cell_length_c       7.76108
_cell_angle_alpha    104.26
_cell_angle_beta     90
_cell_angle_gamma    90

_symmetry_Int_Tables_number  63
_chemical_formula_structural  HfGe2
_chemical_formula_sum  Hf2Ge4
_cell_volume  108.7978299070181
_cell_formula_units_Z  2
loop_
  _symmetry_equiv_pos_site_id
 _symmetry_equiv_pos_as_xyz
 1  'x, y, z'
loop_
 _atom_site_type_symbol
 _atom_site_label
 _atom_site_symmetry_multiplicity
 _atom_site_fract_x
 _atom_site_fract_y
 _atom_site_fract_z
 _atom_site_fract_occupancy
 Ge  Ge1  1  0.25000  0.56076  0.12153  1
 Ge  Ge2  1  0.75000  0.43924  0.87847  1
 Ge  Ge3  1  0.75000  0.74971  0.49941  1
 Ge  Ge4  1  0.25000  0.25029  0.50059  1
 Hf  Hf1  1  0.25000  0.89425  0.78851  1
 Hf  Hf2  1  0.75000  0.10575  0.21149  1
