CIF file written using JARVIS-Tools package.
data_V2Te2O9
_symmetry_space_group_name_H-M  'Fdd2'
_cell_length_a       4.92784
_cell_length_b       4.92783
_cell_length_c       14.481
_cell_angle_alpha    99.3728
_cell_angle_beta     99.3724
_cell_angle_gamma    92.4395

_symmetry_Int_Tables_number  43
_chemical_formula_structural  V2Te2O9
_chemical_formula_sum  V4Te4O8
_cell_volume  341.46098047899414
_cell_formula_units_Z  2
loop_
  _symmetry_equiv_pos_site_id
 _symmetry_equiv_pos_as_xyz
 1  'x, y, z'
loop_
 _atom_site_type_symbol
 _atom_site_label
 _atom_site_symmetry_multiplicity
 _atom_site_fract_x
 _atom_site_fract_y
 _atom_site_fract_z
 _atom_site_fract_occupancy
 O  O1  1  0.14551  0.66114  0.30520  1
 O  O2  1  0.02433  0.53738  0.10686  1
 O  O3  1  0.16778  0.18062  0.39316  1
 O  O4  1  0.81938  0.83222  0.60684  1
 O  O5  1  0.32179  0.67820  0.50000  1
 O  O6  1  0.52112  0.76727  0.21400  1
 O  O7  1  0.46261  0.97570  0.89313  1
 O  O8  1  0.04151  0.34587  0.59402  1
 O  O9  1  0.33886  0.85450  0.69480  1
 O  O10  1  0.49782  0.30262  0.09390  1
 O  O11  1  0.09034  0.10590  0.19478  1
 O  O12  1  0.55725  0.30321  0.28592  1
 O  O13  1  0.69678  0.44276  0.71408  1
 O  O14  1  0.07182  0.92819  -0.00000  1
 O  O15  1  0.69737  0.50221  0.90610  1
 O  O16  1  0.89409  0.90968  0.80522  1
 O  O17  1  0.65413  0.95848  0.40599  1
 O  O18  1  0.23272  0.47889  0.78600  1
 Te  Te1  1  0.47380  0.99965  0.59536  1
 Te  Te2  1  0.84568  0.87156  0.09536  1
 Te  Te3  1  0.00035  0.52620  0.40464  1
 Te  Te4  1  0.12842  0.15434  0.90464  1
 V  V1  1  0.99145  0.59083  0.67980  1
 V  V2  1  0.56170  0.66118  0.82024  1
 V  V3  1  0.33883  0.43828  0.17976  1
 V  V4  1  0.40918  0.00854  0.32020  1
