CIF file written using JARVIS-Tools package.
data_MnAsPd
_symmetry_space_group_name_H-M  'P-62m'
_cell_length_a       3.73019
_cell_length_b       6.68446
_cell_length_c       6.68425
_cell_angle_alpha    120.001
_cell_angle_beta     90
_cell_angle_gamma    90

_symmetry_Int_Tables_number  189
_chemical_formula_structural  MnAsPd
_chemical_formula_sum  Mn3As3Pd3
_cell_volume  144.33601614824067
_cell_formula_units_Z  3
loop_
  _symmetry_equiv_pos_site_id
 _symmetry_equiv_pos_as_xyz
 1  'x, y, z'
loop_
 _atom_site_type_symbol
 _atom_site_label
 _atom_site_symmetry_multiplicity
 _atom_site_fract_x
 _atom_site_fract_y
 _atom_site_fract_z
 _atom_site_fract_occupancy
 As  As1  1  0.00000  0.33330  0.66663  1
 As  As2  1  0.00000  0.66667  0.33337  1
 As  As3  1  0.50000  0.00002  0.00000  1
 Mn  Mn1  1  0.50000  0.59560  -0.00000  1
 Mn  Mn2  1  0.50000  0.40437  0.40439  1
 Mn  Mn3  1  0.50000  0.99998  0.59561  1
 Pd  Pd1  1  0.00000  0.26448  -0.00000  1
 Pd  Pd2  1  0.00000  0.73553  0.73558  1
 Pd  Pd3  1  0.00000  0.99995  0.26442  1
