CIF file written using JARVIS-Tools package.
data_SrH4N2
_symmetry_space_group_name_H-M  'I4_1/amd'
_cell_length_a       6.70954
_cell_length_b       6.70954
_cell_length_c       6.70954
_cell_angle_alpha    131.923
_cell_angle_beta     131.923
_cell_angle_gamma    70.3509

_symmetry_Int_Tables_number  141
_chemical_formula_structural  SrH4N2
_chemical_formula_sum  Sr2H8N4
_cell_volume  163.87318326555734
_cell_formula_units_Z  2
loop_
  _symmetry_equiv_pos_site_id
 _symmetry_equiv_pos_as_xyz
 1  'x, y, z'
loop_
 _atom_site_type_symbol
 _atom_site_label
 _atom_site_symmetry_multiplicity
 _atom_site_fract_x
 _atom_site_fract_y
 _atom_site_fract_z
 _atom_site_fract_occupancy
 H  H1  1  0.45274  0.10198  0.64924  1
 H  H2  1  0.45274  0.80350  0.35076  1
 H  H3  1  0.29726  0.44650  0.14924  1
 H  H4  1  0.29726  0.14802  0.85076  1
 H  H5  1  0.89802  0.54726  0.35076  1
 H  H6  1  0.19650  0.54726  0.64924  1
 H  H7  1  0.55350  0.70274  0.85076  1
 H  H8  1  0.85198  0.70274  0.14924  1
 N  N1  1  0.98940  0.48940  0.50000  1
 N  N2  1  0.76060  0.76060  -0.00000  1
 N  N3  1  0.51060  0.01060  0.50000  1
 N  N4  1  0.23940  0.23940  -0.00000  1
 Sr  Sr1  1  0.75000  0.25000  0.50000  1
 Sr  Sr2  1  0.00000  0.00000  0.00000  1
