CIF file written using JARVIS-Tools package.
data_Ho5NiPb3
_symmetry_space_group_name_H-M  'P6_3/mcm'
_cell_length_a       9.06845
_cell_length_b       9.06845
_cell_length_c       6.64154
_cell_angle_alpha    90
_cell_angle_beta     90
_cell_angle_gamma    120

_symmetry_Int_Tables_number  193
_chemical_formula_structural  Ho5NiPb3
_chemical_formula_sum  Ho0Ni2Pb6
_cell_volume  473.0051503306732
_cell_formula_units_Z  2
loop_
  _symmetry_equiv_pos_site_id
 _symmetry_equiv_pos_as_xyz
 1  'x, y, z'
loop_
 _atom_site_type_symbol
 _atom_site_label
 _atom_site_symmetry_multiplicity
 _atom_site_fract_x
 _atom_site_fract_y
 _atom_site_fract_z
 _atom_site_fract_occupancy
 Ho  Ho1  1  0.00000  0.76117  0.75000  1
 Ho  Ho2  1  0.23883  0.00000  0.25000  1
 Ho  Ho3  1  0.76117  0.76117  0.25000  1
 Ho  Ho4  1  0.76117  0.00000  0.75000  1
 Ho  Ho5  1  -0.00000  0.23883  0.25000  1
 Ho  Ho6  1  0.33333  0.66667  0.50000  1
 Ho  Ho7  1  0.23883  0.23883  0.75000  1
 Ho  Ho8  1  0.33333  0.66667  0.00000  1
 Ho  Ho9  1  0.66667  0.33333  0.00000  1
 Ho  Ho10  1  0.66667  0.33333  0.50000  1
 Ni  Ni1  1  0.00000  0.00000  0.00000  1
 Ni  Ni2  1  0.00000  0.00000  0.50000  1
 Pb  Pb1  1  0.39919  0.00000  0.75000  1
 Pb  Pb2  1  -0.00000  0.60081  0.25000  1
 Pb  Pb3  1  0.39919  0.39919  0.25000  1
 Pb  Pb4  1  0.60081  0.60081  0.75000  1
 Pb  Pb5  1  0.60081  0.00000  0.25000  1
 Pb  Pb6  1  0.00000  0.39919  0.75000  1
