CIF file written using JARVIS-Tools package.
data_ErH9C5N2O8
_symmetry_space_group_name_H-M  'C2'
_cell_length_a       6.62265
_cell_length_b       6.62265
_cell_length_c       6.50186
_cell_angle_alpha    73.4194
_cell_angle_beta     106.581
_cell_angle_gamma    115.932

_symmetry_Int_Tables_number  5
_chemical_formula_structural  ErH9C5N2O8
_chemical_formula_sum  ErH9C5N2O8
_cell_volume  241.48822650161688
_cell_formula_units_Z  1
loop_
  _symmetry_equiv_pos_site_id
 _symmetry_equiv_pos_as_xyz
 1  'x, y, z'
loop_
 _atom_site_type_symbol
 _atom_site_label
 _atom_site_symmetry_multiplicity
 _atom_site_fract_x
 _atom_site_fract_y
 _atom_site_fract_z
 _atom_site_fract_occupancy
 C  C1  1  0.93027  0.93027  0.50000  1
 C  C2  1  0.93425  0.45936  0.04294  1
 C  C3  1  0.45936  0.93425  0.95706  1
 C  C4  1  0.29375  0.47265  0.70313  1
 C  C5  1  0.47265  0.29375  0.29687  1
 Er  Er1  1  0.99867  0.99867  0.00000  1
 H  H1  1  0.43952  0.80741  0.11133  1
 H  H2  1  0.08629  0.08629  0.50000  1
 H  H3  1  0.44917  0.47094  0.82301  1
 H  H4  1  0.47094  0.44917  0.17699  1
 H  H5  1  0.74883  0.49723  0.47283  1
 H  H6  1  0.49723  0.74883  0.52717  1
 H  H7  1  0.64720  0.20255  0.59988  1
 H  H8  1  0.20255  0.64720  0.40012  1
 H  H9  1  0.80741  0.43952  0.88867  1
 N  N1  1  0.63693  0.33184  0.46985  1
 N  N2  1  0.33184  0.63693  0.53015  1
 O  O1  1  0.01764  0.31034  0.13005  1
 O  O2  1  0.31034  0.01764  0.86995  1
 O  O3  1  0.98521  0.63527  0.12158  1
 O  O4  1  0.63527  0.98521  0.87842  1
 O  O5  1  0.83961  0.84972  0.66958  1
 O  O6  1  0.84972  0.83961  0.33042  1
 O  O7  1  0.09889  0.32702  0.73472  1
 O  O8  1  0.32702  0.09889  0.26528  1
