CIF file written using JARVIS-Tools package.
data_SiP2O7
_symmetry_space_group_name_H-M  'P2_1/c'
_cell_length_a       4.72064
_cell_length_b       7.65212
_cell_length_c       12.041
_cell_angle_alpha    90
_cell_angle_beta     90
_cell_angle_gamma    88.7684

_symmetry_Int_Tables_number  14
_chemical_formula_structural  SiP2O7
_chemical_formula_sum  Si4P8O28
_cell_volume  434.8544997451508
_cell_formula_units_Z  4
loop_
  _symmetry_equiv_pos_site_id
 _symmetry_equiv_pos_as_xyz
 1  'x, y, z'
loop_
 _atom_site_type_symbol
 _atom_site_label
 _atom_site_symmetry_multiplicity
 _atom_site_fract_x
 _atom_site_fract_y
 _atom_site_fract_z
 _atom_site_fract_occupancy
 O  O1  1  0.41459  0.63510  0.06685  1
 O  O2  1  0.98777  0.33147  0.76194  1
 O  O3  1  0.48777  0.83147  0.73806  1
 O  O4  1  0.01223  0.66853  0.23806  1
 O  O5  1  0.02169  0.06718  0.23396  1
 O  O6  1  0.47831  0.43282  0.73396  1
 O  O7  1  0.97831  0.93282  0.76604  1
 O  O8  1  0.52169  0.56718  0.26604  1
 O  O9  1  0.91034  0.73964  0.03538  1
 O  O10  1  0.41034  0.23964  0.46462  1
 O  O11  1  0.38983  0.13255  0.81327  1
 O  O12  1  0.11017  0.36745  0.31327  1
 O  O13  1  0.20236  0.62453  0.43020  1
 O  O14  1  0.29764  0.87547  0.93020  1
 O  O15  1  0.79764  0.37547  0.56980  1
 O  O16  1  0.70236  0.12453  0.06980  1
 O  O17  1  0.58966  0.76036  0.53538  1
 O  O18  1  0.61017  0.86745  0.18673  1
 O  O19  1  0.51223  0.16853  0.26194  1
 O  O20  1  0.08966  0.26036  0.96462  1
 O  O21  1  0.91459  0.13510  0.43315  1
 O  O22  1  0.58541  0.36490  0.93315  1
 O  O23  1  0.32882  0.93542  0.38768  1
 O  O24  1  0.17118  0.56458  0.88768  1
 O  O25  1  0.67118  0.06458  0.61232  1
 O  O26  1  0.82882  0.43542  0.11232  1
 O  O27  1  0.08541  0.86490  0.56685  1
 O  O28  1  0.88983  0.63255  0.68673  1
 P  P1  1  0.71557  0.05249  0.19541  1
 P  P2  1  0.30285  0.80439  0.48250  1
 P  P3  1  0.28443  0.94751  0.80459  1
 P  P4  1  0.69715  0.19561  0.51750  1
 P  P5  1  0.80285  0.30439  0.01750  1
 P  P6  1  0.78443  0.44751  0.69541  1
 P  P7  1  0.19715  0.69561  0.98250  1
 P  P8  1  0.21557  0.55249  0.30459  1
 Si  Si1  1  0.71604  0.65236  0.15070  1
 Si  Si2  1  0.78396  0.84764  0.65070  1
 Si  Si3  1  0.21604  0.15236  0.34930  1
 Si  Si4  1  0.28396  0.34764  0.84930  1
