CIF file written using JARVIS-Tools package.
data_LiV2F7
_symmetry_space_group_name_H-M  'P2/c'
_cell_length_a       5.32805
_cell_length_b       5.22579
_cell_length_c       9.8941
_cell_angle_alpha    90
_cell_angle_beta     100.376
_cell_angle_gamma    90

_symmetry_Int_Tables_number  13
_chemical_formula_structural  LiV2F7
_chemical_formula_sum  Li2V4F4
_cell_volume  270.97921658664364
_cell_formula_units_Z  2
loop_
  _symmetry_equiv_pos_site_id
 _symmetry_equiv_pos_as_xyz
 1  'x, y, z'
loop_
 _atom_site_type_symbol
 _atom_site_label
 _atom_site_symmetry_multiplicity
 _atom_site_fract_x
 _atom_site_fract_y
 _atom_site_fract_z
 _atom_site_fract_occupancy
 F  F1  1  0.64821  0.90009  0.62142  1
 F  F2  1  0.00000  0.58911  0.75000  1
 F  F3  1  -0.00000  0.41089  0.25000  1
 F  F4  1  0.14220  0.06883  0.61315  1
 F  F5  1  0.85780  0.06883  0.88685  1
 F  F6  1  0.22390  0.56902  0.51452  1
 F  F7  1  0.14220  0.93117  0.11315  1
 F  F8  1  0.35179  0.90009  0.87858  1
 F  F9  1  0.35179  0.09991  0.37858  1
 F  F10  1  0.85780  0.93117  0.38685  1
 F  F11  1  0.64821  0.09991  0.12142  1
 F  F12  1  0.77610  0.56902  0.98548  1
 F  F13  1  0.77610  0.43098  0.48548  1
 F  F14  1  0.22390  0.43098  0.01452  1
 Li  Li1  1  0.50000  0.94577  0.25000  1
 Li  Li2  1  0.50000  0.05423  0.75000  1
 V  V1  1  0.93037  0.24996  0.06876  1
 V  V2  1  0.93037  0.75004  0.56876  1
 V  V3  1  0.06963  0.24996  0.43124  1
 V  V4  1  0.06963  0.75004  0.93124  1
