CIF file written using JARVIS-Tools package.
data_FeSbO4
_symmetry_space_group_name_H-M  'I4_1md'
_cell_length_a       5.58142
_cell_length_b       5.58142
_cell_length_c       5.58142
_cell_angle_alpha    72.6521
_cell_angle_beta     107.348
_cell_angle_gamma    66.1933

_symmetry_Int_Tables_number  109
_chemical_formula_structural  FeSbO4
_chemical_formula_sum  Fe2Sb2O8
_cell_volume  133.26897414772108
_cell_formula_units_Z  2
loop_
  _symmetry_equiv_pos_site_id
 _symmetry_equiv_pos_as_xyz
 1  'x, y, z'
loop_
 _atom_site_type_symbol
 _atom_site_label
 _atom_site_symmetry_multiplicity
 _atom_site_fract_x
 _atom_site_fract_y
 _atom_site_fract_z
 _atom_site_fract_occupancy
 Fe  Fe1  1  0.74205  0.75795  0.50000  1
 Fe  Fe2  1  0.49205  0.50795  0.00000  1
 O  O1  1  0.07084  0.73862  0.80947  1
 O  O2  1  0.55130  0.25832  0.80962  1
 O  O3  1  0.51138  0.79809  0.69053  1
 O  O4  1  -0.00832  0.31794  0.69038  1
 O  O5  1  0.51138  0.17916  0.30947  1
 O  O6  1  -0.00832  0.69870  0.30962  1
 O  O7  1  0.45191  0.73862  0.19053  1
 O  O8  1  0.93206  0.25832  0.19038  1
 Sb  Sb1  1  0.25184  0.24816  0.50000  1
 Sb  Sb2  1  0.00184  0.99816  0.00000  1
