CIF file written using JARVIS-Tools package.
data_Rb2FeI4
_symmetry_space_group_name_H-M  'P2_1/m'
_cell_length_a       7.56504
_cell_length_b       8.01252
_cell_length_c       10.3251
_cell_angle_alpha    90
_cell_angle_beta     109.776
_cell_angle_gamma    90

_symmetry_Int_Tables_number  11
_chemical_formula_structural  Rb2FeI4
_chemical_formula_sum  Rb4Fe2I8
_cell_volume  588.9471997941632
_cell_formula_units_Z  2
loop_
  _symmetry_equiv_pos_site_id
 _symmetry_equiv_pos_as_xyz
 1  'x, y, z'
loop_
 _atom_site_type_symbol
 _atom_site_label
 _atom_site_symmetry_multiplicity
 _atom_site_fract_x
 _atom_site_fract_y
 _atom_site_fract_z
 _atom_site_fract_occupancy
 Fe  Fe1  1  0.80182  0.74414  0.21413  1
 Fe  Fe2  1  0.19818  0.24414  0.78587  1
 I  I1  1  0.63226  0.74446  0.94490  1
 I  I2  1  0.58232  0.74430  0.36230  1
 I  I3  1  0.02847  0.48789  0.27958  1
 I  I4  1  0.36774  0.24446  0.05510  1
 I  I5  1  0.97112  0.50016  0.72029  1
 I  I6  1  0.41768  0.24430  0.63770  1
 I  I7  1  0.97153  0.98789  0.72042  1
 I  I8  1  0.02888  0.00016  0.27971  1
 Rb  Rb1  1  0.19924  0.74388  0.03746  1
 Rb  Rb2  1  0.29736  0.74386  0.58766  1
 Rb  Rb3  1  0.70264  0.24386  0.41234  1
 Rb  Rb4  1  0.80076  0.24388  0.96254  1
