CIF file written using JARVIS-Tools package.
data_Mg5Si6
_symmetry_space_group_name_H-M  'C2/m'
_cell_length_a       15.1985
_cell_length_b       4.07081
_cell_length_c       6.93815
_cell_angle_alpha    90
_cell_angle_beta     110.47
_cell_angle_gamma    90

_symmetry_Int_Tables_number  12
_chemical_formula_structural  Mg5Si6
_chemical_formula_sum  Mg0Si2
_cell_volume  402.156999669445
_cell_formula_units_Z  2
loop_
  _symmetry_equiv_pos_site_id
 _symmetry_equiv_pos_as_xyz
 1  'x, y, z'
loop_
 _atom_site_type_symbol
 _atom_site_label
 _atom_site_symmetry_multiplicity
 _atom_site_fract_x
 _atom_site_fract_y
 _atom_site_fract_z
 _atom_site_fract_occupancy
 Mg  Mg1  1  0.00000  0.00000  -0.00000  1
 Mg  Mg2  1  0.50000  0.50000  0.00000  1
 Mg  Mg3  1  0.34481  0.00000  0.06461  1
 Mg  Mg4  1  0.65519  0.00000  0.93539  1
 Mg  Mg5  1  0.84481  0.50000  0.06461  1
 Mg  Mg6  1  0.15519  0.50000  0.93539  1
 Mg  Mg7  1  0.42446  0.00000  0.63186  1
 Mg  Mg8  1  0.57554  0.00000  0.36815  1
 Mg  Mg9  1  0.92446  0.50000  0.63185  1
 Mg  Mg10  1  0.07554  0.50000  0.36814  1
 Si  Si1  1  0.70756  0.50000  0.63147  1
 Si  Si2  1  0.94223  0.00000  0.32877  1
 Si  Si3  1  0.55777  0.50000  0.67123  1
 Si  Si4  1  0.44223  0.50000  0.32878  1
 Si  Si5  1  0.05777  0.00000  0.67122  1
 Si  Si6  1  0.79244  0.00000  0.36853  1
 Si  Si7  1  0.69179  0.50000  0.25733  1
 Si  Si8  1  0.30821  0.50000  0.74268  1
 Si  Si9  1  0.20756  0.00000  0.63147  1
 Si  Si10  1  0.19179  0.00000  0.25732  1
 Si  Si11  1  0.80821  0.00000  0.74267  1
 Si  Si12  1  0.29244  0.50000  0.36853  1
