CIF file written using JARVIS-Tools package.
data_Sr3Pr2B4O12
_symmetry_space_group_name_H-M  'Pna2_1'
_cell_length_a       7.32529
_cell_length_b       8.85262
_cell_length_c       16.7126
_cell_angle_alpha    90
_cell_angle_beta     90
_cell_angle_gamma    90

_symmetry_Int_Tables_number  33
_chemical_formula_structural  Sr3Pr2B4O12
_chemical_formula_sum  Sr2Pr8B6O48
_cell_volume  1083.7774063904612
_cell_formula_units_Z  4
loop_
  _symmetry_equiv_pos_site_id
 _symmetry_equiv_pos_as_xyz
 1  'x, y, z'
loop_
 _atom_site_type_symbol
 _atom_site_label
 _atom_site_symmetry_multiplicity
 _atom_site_fract_x
 _atom_site_fract_y
 _atom_site_fract_z
 _atom_site_fract_occupancy
 B  B1  1  0.17161  0.04928  0.84540  1
 B  B2  1  0.22714  0.14187  0.55239  1
 B  B3  1  0.65963  0.43872  0.26126  1
 B  B4  1  0.34037  0.56128  0.76126  1
 B  B5  1  0.84037  0.93872  0.76126  1
 B  B6  1  0.15963  0.06128  0.26126  1
 B  B7  1  0.32839  0.54928  0.34540  1
 B  B8  1  0.27286  0.64187  0.05239  1
 B  B9  1  0.72714  0.35813  0.55239  1
 B  B10  1  0.51356  0.12960  0.04932  1
 B  B11  1  0.48644  0.87040  0.54932  1
 B  B12  1  0.98644  0.62960  0.54932  1
 B  B13  1  0.82839  0.95072  0.34540  1
 B  B14  1  0.01356  0.37040  0.04932  1
 B  B15  1  0.77286  0.85813  0.05239  1
 B  B16  1  0.67161  0.45072  0.84540  1
 O  O1  1  0.54810  0.92763  0.62192  1
 O  O2  1  0.45190  0.07237  0.12192  1
 O  O3  1  0.95928  0.44406  0.97868  1
 O  O4  1  0.04072  0.55594  0.47868  1
 O  O5  1  0.54072  0.94406  0.47868  1
 O  O6  1  0.45928  0.05594  0.97868  1
 O  O7  1  0.77182  0.28316  0.62161  1
 O  O8  1  0.22818  0.71684  0.12161  1
 O  O9  1  0.72818  0.78316  0.12161  1
 O  O10  1  0.61104  0.54092  0.20275  1
 O  O11  1  0.08022  0.20441  0.26011  1
 O  O12  1  0.79014  0.47087  0.31913  1
 O  O13  1  0.04810  0.57237  0.62192  1
 O  O14  1  0.11104  0.95908  0.20275  1
 O  O15  1  0.88896  0.04092  0.70275  1
 O  O16  1  0.19143  0.50916  0.29250  1
 O  O17  1  0.75805  0.28191  0.48054  1
 O  O18  1  0.30857  0.00916  0.79250  1
 O  O19  1  0.69143  0.99084  0.29250  1
 O  O20  1  0.60202  0.30678  0.84803  1
 O  O21  1  0.39798  0.69322  0.34803  1
 O  O22  1  0.61430  0.26165  0.04624  1
 O  O23  1  0.25805  0.21809  0.48054  1
 O  O24  1  0.38642  0.43984  0.40062  1
 O  O25  1  0.61358  0.56016  0.90062  1
 O  O26  1  0.11358  0.93984  0.90062  1
 O  O27  1  0.38570  0.73835  0.54624  1
 O  O28  1  0.38896  0.45908  0.70275  1
 O  O29  1  0.88570  0.76165  0.54624  1
 O  O30  1  0.11430  0.23835  0.04624  1
 O  O31  1  0.95190  0.42763  0.12192  1
 O  O32  1  0.10202  0.19322  0.84803  1
 O  O33  1  0.14189  0.00441  0.55224  1
 O  O34  1  0.89798  0.80678  0.34803  1
 O  O35  1  0.80857  0.49084  0.79250  1
 O  O36  1  0.20986  0.52913  0.81913  1
 O  O37  1  0.41978  0.70441  0.76011  1
 O  O38  1  0.58022  0.29559  0.26011  1
 O  O39  1  0.70986  0.97087  0.81913  1
 O  O40  1  0.88642  0.06016  0.40062  1
 O  O41  1  0.29014  0.02913  0.31913  1
 O  O42  1  0.27182  0.21684  0.62161  1
 O  O43  1  0.64189  0.49559  0.55224  1
 O  O44  1  0.35811  0.50441  0.05224  1
 O  O45  1  0.74195  0.78191  0.98054  1
 O  O46  1  0.24195  0.71809  0.98054  1
 O  O47  1  0.85811  0.99559  0.05224  1
 O  O48  1  0.91978  0.79559  0.76011  1
 Pr  Pr1  1  0.46826  0.82852  0.88386  1
 Pr  Pr2  1  0.81912  0.03514  0.55472  1
 Pr  Pr3  1  0.96826  0.67148  0.88386  1
 Pr  Pr4  1  0.31912  0.46486  0.55472  1
 Pr  Pr5  1  0.68088  0.53514  0.05472  1
 Pr  Pr6  1  0.03174  0.32852  0.38386  1
 Pr  Pr7  1  0.18088  0.96486  0.05472  1
 Pr  Pr8  1  0.53174  0.17148  0.38386  1
 Sr  Sr1  1  0.53840  0.17251  0.72183  1
 Sr  Sr2  1  0.30449  0.35122  0.17539  1
 Sr  Sr3  1  0.31958  0.34835  0.92748  1
 Sr  Sr4  1  0.80449  0.14878  0.17539  1
 Sr  Sr5  1  0.19551  0.85122  0.67539  1
 Sr  Sr6  1  0.46160  0.82749  0.22183  1
 Sr  Sr7  1  0.96160  0.67251  0.22183  1
 Sr  Sr8  1  0.03840  0.32749  0.72183  1
 Sr  Sr9  1  0.81958  0.15165  0.92748  1
 Sr  Sr10  1  0.18042  0.84835  0.42748  1
 Sr  Sr11  1  0.68042  0.65165  0.42748  1
 Sr  Sr12  1  0.69551  0.64878  0.67539  1
