CIF file written using JARVIS-Tools package.
data_SmCoSb2
_symmetry_space_group_name_H-M  'P4/nmm'
_cell_length_a       4.36635
_cell_length_b       4.36635
_cell_length_c       9.64644
_cell_angle_alpha    90
_cell_angle_beta     90
_cell_angle_gamma    90

_symmetry_Int_Tables_number  129
_chemical_formula_structural  SmCoSb2
_chemical_formula_sum  Sm2Co2Sb4
_cell_volume  183.90980640691896
_cell_formula_units_Z  2
loop_
  _symmetry_equiv_pos_site_id
 _symmetry_equiv_pos_as_xyz
 1  'x, y, z'
loop_
 _atom_site_type_symbol
 _atom_site_label
 _atom_site_symmetry_multiplicity
 _atom_site_fract_x
 _atom_site_fract_y
 _atom_site_fract_z
 _atom_site_fract_occupancy
 Co  Co1  1  0.25000  0.75000  0.50000  1
 Co  Co2  1  0.75000  0.25000  0.50000  1
 Sb  Sb1  1  0.25000  0.75000  0.00000  1
 Sb  Sb2  1  0.75000  0.25000  0.00000  1
 Sb  Sb3  1  0.75000  0.75000  0.36219  1
 Sb  Sb4  1  0.25000  0.25000  0.63781  1
 Sm  Sm1  1  0.75000  0.75000  0.73966  1
 Sm  Sm2  1  0.25000  0.25000  0.26034  1
