CIF file written using JARVIS-Tools package.
data_KNdO2
_symmetry_space_group_name_H-M  'R-3m'
_cell_length_a       6.57694
_cell_length_b       6.57694
_cell_length_c       6.57694
_cell_angle_alpha    32.0602
_cell_angle_beta     32.0602
_cell_angle_gamma    32.0602

_symmetry_Int_Tables_number  166
_chemical_formula_structural  KNdO2
_chemical_formula_sum  KNdO2
_cell_volume  71.22716452906799
_cell_formula_units_Z  1
loop_
  _symmetry_equiv_pos_site_id
 _symmetry_equiv_pos_as_xyz
 1  'x, y, z'
loop_
 _atom_site_type_symbol
 _atom_site_label
 _atom_site_symmetry_multiplicity
 _atom_site_fract_x
 _atom_site_fract_y
 _atom_site_fract_z
 _atom_site_fract_occupancy
 K  K1  1  0.00000  0.00000  0.00000  1
 Nd  Nd1  1  0.50000  0.50000  0.50000  1
 O  O1  1  0.23142  0.23142  0.23142  1
 O  O2  1  0.76858  0.76858  0.76858  1
