CIF file written using JARVIS-Tools package.
data_VOF
_symmetry_space_group_name_H-M  'P2/m'
_cell_length_a       4.67951
_cell_length_b       3.02655
_cell_length_c       18.7529
_cell_angle_alpha    90
_cell_angle_beta     92.3795
_cell_angle_gamma    90

_symmetry_Int_Tables_number  10
_chemical_formula_structural  VOF
_chemical_formula_sum  V8O8F8
_cell_volume  265.3641377103069
_cell_formula_units_Z  8
loop_
  _symmetry_equiv_pos_site_id
 _symmetry_equiv_pos_as_xyz
 1  'x, y, z'
loop_
 _atom_site_type_symbol
 _atom_site_label
 _atom_site_symmetry_multiplicity
 _atom_site_fract_x
 _atom_site_fract_y
 _atom_site_fract_z
 _atom_site_fract_occupancy
 F  F1  1  0.24259  0.50000  0.19903  1
 F  F2  1  0.16981  0.50000  0.70051  1
 F  F3  1  0.31671  0.00000  0.07903  1
 F  F4  1  0.68329  0.00000  0.92097  1
 F  F5  1  0.83019  0.50000  0.29949  1
 F  F6  1  0.79145  0.50000  0.54967  1
 F  F7  1  0.75741  0.50000  0.80097  1
 F  F8  1  0.20855  0.50000  0.45033  1
 O  O1  1  0.81083  0.50000  0.04825  1
 O  O2  1  0.74175  0.00000  0.17414  1
 O  O3  1  0.71435  0.00000  0.42510  1
 O  O4  1  0.67189  0.00000  0.67524  1
 O  O5  1  0.25825  0.00000  0.82586  1
 O  O6  1  0.32811  0.00000  0.32476  1
 O  O7  1  0.18917  0.50000  0.95175  1
 O  O8  1  0.28565  0.00000  0.57490  1
 V  V1  1  0.51926  0.50000  0.37486  1
 V  V2  1  0.48074  0.50000  0.62514  1
 V  V3  1  0.58051  0.50000  0.12477  1
 V  V4  1  0.41949  0.50000  0.87523  1
 V  V5  1  0.04054  0.00000  0.25031  1
 V  V6  1  -0.00000  0.00000  0.50000  1
 V  V7  1  0.00000  0.00000  0.00000  1
 V  V8  1  0.95946  0.00000  0.74969  1
