CIF file written using JARVIS-Tools package.
data_LiCuS
_symmetry_space_group_name_H-M  'Fdd2'
_cell_length_a       6.03939
_cell_length_b       6.03933
_cell_length_c       6.96476
_cell_angle_alpha    115.097
_cell_angle_beta     115.097
_cell_angle_gamma    91.2468

_symmetry_Int_Tables_number  43
_chemical_formula_structural  LiCuS
_chemical_formula_sum  Li4Cu4S4
_cell_volume  201.93154715005494
_cell_formula_units_Z  4
loop_
  _symmetry_equiv_pos_site_id
 _symmetry_equiv_pos_as_xyz
 1  'x, y, z'
loop_
 _atom_site_type_symbol
 _atom_site_label
 _atom_site_symmetry_multiplicity
 _atom_site_fract_x
 _atom_site_fract_y
 _atom_site_fract_z
 _atom_site_fract_occupancy
 Cu  Cu1  1  0.50037  0.00166  0.50154  1
 Cu  Cu2  1  0.00355  0.00119  0.00437  1
 Cu  Cu3  1  0.50185  0.50302  0.50442  1
 Cu  Cu4  1  0.50236  0.99963  0.00147  1
 Li  Li1  1  0.73835  0.48728  0.97611  1
 Li  Li2  1  0.98794  0.23773  0.47613  1
 Li  Li3  1  0.01475  0.76451  0.52980  1
 Li  Li4  1  0.26516  0.51412  0.02981  1
 S  S1  1  0.90277  0.60049  0.75338  1
 S  S2  1  0.35073  0.15168  0.75260  1
 S  S3  1  0.10114  0.40213  0.25338  1
 S  S4  1  0.65234  0.85007  0.25259  1
