CIF file written using JARVIS-Tools package.
data_NiP2W
_symmetry_space_group_name_H-M  'P6_3/mmc'
_cell_length_a       3.3622
_cell_length_b       3.3622
_cell_length_c       11.2988
_cell_angle_alpha    90
_cell_angle_beta     90
_cell_angle_gamma    120.001

_symmetry_Int_Tables_number  194
_chemical_formula_structural  NiP2W
_chemical_formula_sum  Ni2P4W2
_cell_volume  110.61397882576226
_cell_formula_units_Z  2
loop_
  _symmetry_equiv_pos_site_id
 _symmetry_equiv_pos_as_xyz
 1  'x, y, z'
loop_
 _atom_site_type_symbol
 _atom_site_label
 _atom_site_symmetry_multiplicity
 _atom_site_fract_x
 _atom_site_fract_y
 _atom_site_fract_z
 _atom_site_fract_occupancy
 Ni  Ni1  1  0.00000  0.00000  0.50000  1
 Ni  Ni2  1  0.00000  0.00000  0.00000  1
 P  P1  1  0.66668  0.33332  0.61359  1
 P  P2  1  0.33332  0.66668  0.38641  1
 P  P3  1  0.33332  0.66668  0.11359  1
 P  P4  1  0.66668  0.33332  0.88641  1
 W  W1  1  0.00001  0.99999  0.75000  1
 W  W2  1  0.99999  0.00001  0.25000  1
