CIF file written using JARVIS-Tools package.
data_YGa2Pd
_symmetry_space_group_name_H-M  'Cmcm'
_cell_length_a       4.44376
_cell_length_b       5.54296
_cell_length_c       6.58154
_cell_angle_alpha    90
_cell_angle_beta     90
_cell_angle_gamma    113.631

_symmetry_Int_Tables_number  63
_chemical_formula_structural  YGa2Pd
_chemical_formula_sum  Y2Ga4Pd2
_cell_volume  148.51980435831655
_cell_formula_units_Z  2
loop_
  _symmetry_equiv_pos_site_id
 _symmetry_equiv_pos_as_xyz
 1  'x, y, z'
loop_
 _atom_site_type_symbol
 _atom_site_label
 _atom_site_symmetry_multiplicity
 _atom_site_fract_x
 _atom_site_fract_y
 _atom_site_fract_z
 _atom_site_fract_occupancy
 Ga  Ga1  1  0.12596  0.25193  0.44693  1
 Ga  Ga2  1  0.87404  0.74807  0.55307  1
 Ga  Ga3  1  0.12596  0.25193  0.05307  1
 Ga  Ga4  1  0.87404  0.74807  0.94693  1
 Pd  Pd1  1  0.69904  0.39809  0.25000  1
 Pd  Pd2  1  0.30096  0.60191  0.75000  1
 Y  Y1  1  0.40911  0.81823  0.25000  1
 Y  Y2  1  0.59089  0.18177  0.75000  1
