CIF file written using JARVIS-Tools package.
data_Fe2OF3
_symmetry_space_group_name_H-M  'Pmn2_1'
_cell_length_a       3.0999
_cell_length_b       4.77431
_cell_length_c       9.56876
_cell_angle_alpha    90
_cell_angle_beta     90
_cell_angle_gamma    90

_symmetry_Int_Tables_number  31
_chemical_formula_structural  Fe2OF3
_chemical_formula_sum  Fe4O2F6
_cell_volume  141.61637549047097
_cell_formula_units_Z  2
loop_
  _symmetry_equiv_pos_site_id
 _symmetry_equiv_pos_as_xyz
 1  'x, y, z'
loop_
 _atom_site_type_symbol
 _atom_site_label
 _atom_site_symmetry_multiplicity
 _atom_site_fract_x
 _atom_site_fract_y
 _atom_site_fract_z
 _atom_site_fract_occupancy
 F  F1  1  0.50000  0.20375  0.71995  1
 F  F2  1  0.00000  0.29610  0.96594  1
 F  F3  1  0.00000  0.29240  0.48364  1
 F  F4  1  0.00000  0.70375  0.28005  1
 F  F5  1  0.50000  0.79240  0.51636  1
 F  F6  1  0.50000  0.79610  0.03406  1
 Fe  Fe1  1  0.00000  0.03282  0.13555  1
 Fe  Fe2  1  0.00000  0.97381  0.63315  1
 Fe  Fe3  1  0.50000  0.53282  0.86445  1
 Fe  Fe4  1  0.50000  0.47381  0.36685  1
 O  O1  1  0.50000  0.20111  0.22278  1
 O  O2  1  0.00000  0.70111  0.77722  1
