CIF file written using JARVIS-Tools package.
data_Ba3In2P4
_symmetry_space_group_name_H-M  'C2/c'
_cell_length_a       7.1248
_cell_length_b       8.93829
_cell_length_c       8.9383
_cell_angle_alpha    75.8014
_cell_angle_beta     90.1563
_cell_angle_gamma    90.1563

_symmetry_Int_Tables_number  15
_chemical_formula_structural  Ba3In2P4
_chemical_formula_sum  Ba6In4P8
_cell_volume  551.8307658774531
_cell_formula_units_Z  2
loop_
  _symmetry_equiv_pos_site_id
 _symmetry_equiv_pos_as_xyz
 1  'x, y, z'
loop_
 _atom_site_type_symbol
 _atom_site_label
 _atom_site_symmetry_multiplicity
 _atom_site_fract_x
 _atom_site_fract_y
 _atom_site_fract_z
 _atom_site_fract_occupancy
 Ba  Ba1  1  0.45538  0.25135  0.99416  1
 Ba  Ba2  1  0.54462  0.74865  0.00584  1
 Ba  Ba3  1  0.95538  0.99416  0.25135  1
 Ba  Ba4  1  0.75000  0.40104  0.59896  1
 Ba  Ba5  1  0.25000  0.59896  0.40104  1
 Ba  Ba6  1  0.04462  0.00584  0.74865  1
 In  In1  1  0.08506  0.58099  0.82610  1
 In  In2  1  0.41494  0.17390  0.41901  1
 In  In3  1  0.58506  0.82610  0.58099  1
 In  In4  1  0.91494  0.41901  0.17390  1
 P  P1  1  0.52720  0.05859  0.71111  1
 P  P2  1  0.97280  0.28889  0.94141  1
 P  P3  1  0.02720  0.71111  0.05859  1
 P  P4  1  0.47280  0.94141  0.28889  1
 P  P5  1  0.56621  0.42948  0.25609  1
 P  P6  1  0.93379  0.74391  0.57052  1
 P  P7  1  0.43379  0.57052  0.74391  1
 P  P8  1  0.06621  0.25609  0.42948  1
