CIF file written using JARVIS-Tools package.
data_V2O3F
_symmetry_space_group_name_H-M  'Amm2'
_cell_length_a       4.65322
_cell_length_b       4.65322
_cell_length_c       11.6639
_cell_angle_alpha    90
_cell_angle_beta     90
_cell_angle_gamma    93.2765

_symmetry_Int_Tables_number  38
_chemical_formula_structural  V2O3F
_chemical_formula_sum  V8O2F4
_cell_volume  252.13811300095193
_cell_formula_units_Z  4
loop_
  _symmetry_equiv_pos_site_id
 _symmetry_equiv_pos_as_xyz
 1  'x, y, z'
loop_
 _atom_site_type_symbol
 _atom_site_label
 _atom_site_symmetry_multiplicity
 _atom_site_fract_x
 _atom_site_fract_y
 _atom_site_fract_z
 _atom_site_fract_occupancy
 F  F1  1  0.79665  0.20335  0.87469  1
 F  F2  1  0.20608  0.79392  0.12500  1
 F  F3  1  0.79699  0.20301  0.62500  1
 F  F4  1  0.79665  0.20335  0.37531  1
 O  O1  1  0.29498  0.30171  0.49934  1
 O  O2  1  0.19801  0.80199  0.87393  1
 O  O3  1  0.19801  0.80199  0.37607  1
 O  O4  1  0.20039  0.79961  0.62500  1
 O  O5  1  0.30359  0.29894  0.24934  1
 O  O6  1  0.30359  0.29894  0.00066  1
 O  O7  1  0.29498  0.30171  0.75066  1
 O  O8  1  0.70106  0.69641  0.00066  1
 O  O9  1  0.70106  0.69641  0.24934  1
 O  O10  1  0.69829  0.70502  0.75066  1
 O  O11  1  0.80776  0.19224  0.12500  1
 O  O12  1  0.69829  0.70502  0.49934  1
 V  V1  1  0.47216  0.52784  0.37567  1
 V  V2  1  0.47216  0.52784  0.87433  1
 V  V3  1  0.47882  0.52118  0.62500  1
 V  V4  1  0.53900  0.46100  0.12500  1
 V  V5  1  0.01956  0.98044  0.74927  1
 V  V6  1  0.01956  0.98044  0.50073  1
 V  V7  1  0.00118  0.99882  0.25085  1
 V  V8  1  0.00118  0.99882  0.99915  1
