CIF file written using JARVIS-Tools package.
data_KAl2NiP3H4O14
_symmetry_space_group_name_H-M  'C2/c'
_cell_length_a       8.25103
_cell_length_b       8.25103
_cell_length_c       8.74182
_cell_angle_alpha    75.8134
_cell_angle_beta     104.187
_cell_angle_gamma    104.672

_symmetry_Int_Tables_number  15
_chemical_formula_structural  KAl2NiP3H4O14
_chemical_formula_sum  K2Al4Ni2P6H8O28
_cell_volume  547.4450537204183
_cell_formula_units_Z  2
loop_
  _symmetry_equiv_pos_site_id
 _symmetry_equiv_pos_as_xyz
 1  'x, y, z'
loop_
 _atom_site_type_symbol
 _atom_site_label
 _atom_site_symmetry_multiplicity
 _atom_site_fract_x
 _atom_site_fract_y
 _atom_site_fract_z
 _atom_site_fract_occupancy
 Al  Al1  1  0.40499  0.74778  0.92771  1
 Al  Al2  1  0.74778  0.40499  0.57229  1
 Al  Al3  1  0.59501  0.25222  0.07229  1
 Al  Al4  1  0.25222  0.59501  0.42771  1
 H  H1  1  0.97540  0.27321  0.00089  1
 H  H2  1  0.57664  0.86819  0.45347  1
 H  H3  1  0.86819  0.57664  0.04653  1
 H  H4  1  0.42336  0.13181  0.54653  1
 H  H5  1  0.13181  0.42336  0.95347  1
 H  H6  1  0.72679  0.02460  0.50089  1
 H  H7  1  0.27321  0.97540  0.49911  1
 H  H8  1  0.02460  0.72679  0.99911  1
 K  K1  1  0.86320  0.86320  0.25000  1
 K  K2  1  0.13680  0.13680  0.75000  1
 Ni  Ni1  1  0.22234  0.22234  0.25000  1
 Ni  Ni2  1  0.77766  0.77766  0.75000  1
 O  O1  1  0.89886  0.69645  0.98912  1
 O  O2  1  0.34880  0.47109  0.61163  1
 O  O3  1  -0.00129  0.18961  0.31779  1
 O  O4  1  0.32563  0.47387  0.30311  1
 O  O5  1  0.47387  0.32563  0.19689  1
 O  O6  1  0.67437  0.52613  0.69689  1
 O  O7  1  0.52613  0.67437  0.80311  1
 O  O8  1  0.30355  0.10114  0.48912  1
 O  O9  1  0.69645  0.89886  0.51088  1
 O  O10  1  0.00129  0.81039  0.68221  1
 O  O11  1  0.81039  0.00129  0.81779  1
 O  O12  1  0.50567  0.03897  0.15663  1
 O  O13  1  0.52891  0.65120  0.11163  1
 O  O14  1  0.18961  -0.00129  0.18221  1
 O  O15  1  0.10114  0.30355  0.01088  1
 O  O16  1  0.65120  0.52891  0.38837  1
 O  O17  1  0.18132  0.73077  0.53395  1
 O  O18  1  0.61961  0.21126  0.66369  1
 O  O19  1  0.21126  0.61961  0.83631  1
 O  O20  1  0.49433  0.96103  0.84337  1
 O  O21  1  0.47109  0.34880  0.88837  1
 O  O22  1  0.73077  0.18132  0.96605  1
 O  O23  1  0.96103  0.49433  0.65663  1
 O  O24  1  0.26923  0.81868  0.03395  1
 O  O25  1  0.38039  0.78874  0.33631  1
 O  O26  1  0.78874  0.38039  0.16369  1
 O  O27  1  0.81868  0.26923  0.46605  1
 O  O28  1  0.03897  0.50567  0.34337  1
 P  P1  1  0.33296  0.91610  0.17545  1
 P  P2  1  0.08390  0.66704  0.67545  1
 P  P3  1  0.66704  0.08390  0.82455  1
 P  P4  1  0.91610  0.33296  0.32455  1
 P  P5  1  0.50173  0.50173  0.75000  1
 P  P6  1  0.49827  0.49827  0.25000  1
