CIF file written using JARVIS-Tools package.
data_ZrSn
_symmetry_space_group_name_H-M  'Pmmn'
_cell_length_a       3.1143
_cell_length_b       5.12472
_cell_length_c       12.4292
_cell_angle_alpha    90
_cell_angle_beta     90
_cell_angle_gamma    90

_symmetry_Int_Tables_number  59
_chemical_formula_structural  ZrSn
_chemical_formula_sum  Zr4Sn4
_cell_volume  198.3698682505616
_cell_formula_units_Z  4
loop_
  _symmetry_equiv_pos_site_id
 _symmetry_equiv_pos_as_xyz
 1  'x, y, z'
loop_
 _atom_site_type_symbol
 _atom_site_label
 _atom_site_symmetry_multiplicity
 _atom_site_fract_x
 _atom_site_fract_y
 _atom_site_fract_z
 _atom_site_fract_occupancy
 Sn  Sn1  1  0.00000  0.00000  0.06671  1
 Sn  Sn2  1  0.50000  0.00000  0.75774  1
 Sn  Sn3  1  0.00000  0.50000  0.24226  1
 Sn  Sn4  1  0.50000  0.50000  0.93329  1
 Zr  Zr1  1  0.00000  0.00000  0.53683  1
 Zr  Zr2  1  0.50000  0.00000  0.29548  1
 Zr  Zr3  1  0.00000  0.50000  0.70452  1
 Zr  Zr4  1  0.50000  0.50000  0.46317  1
