CIF file written using JARVIS-Tools package.
data_Mg2Ni3P
_symmetry_space_group_name_H-M  'R-3m'
_cell_length_a       4.62271
_cell_length_b       4.62271
_cell_length_c       4.62271
_cell_angle_alpha    65.3162
_cell_angle_beta     65.3163
_cell_angle_gamma    65.3162

_symmetry_Int_Tables_number  166
_chemical_formula_structural  Mg2Ni3P
_chemical_formula_sum  Mg2Ni3P
_cell_volume  77.93774066181798
_cell_formula_units_Z  1
loop_
  _symmetry_equiv_pos_site_id
 _symmetry_equiv_pos_as_xyz
 1  'x, y, z'
loop_
 _atom_site_type_symbol
 _atom_site_label
 _atom_site_symmetry_multiplicity
 _atom_site_fract_x
 _atom_site_fract_y
 _atom_site_fract_z
 _atom_site_fract_occupancy
 Mg  Mg1  1  0.37384  0.37384  0.37384  1
 Mg  Mg2  1  0.62616  0.62616  0.62616  1
 Ni  Ni1  1  0.00000  0.00000  0.50000  1
 Ni  Ni2  1  -0.00000  0.50000  -0.00000  1
 Ni  Ni3  1  0.50000  -0.00000  -0.00000  1
 P  P1  1  0.00000  0.00000  0.00000  1
