CIF file written using JARVIS-Tools package.
data_K3Rh
_symmetry_space_group_name_H-M  'P6_3/mmc'
_cell_length_a       7.68566
_cell_length_b       7.68566
_cell_length_c       5.51599
_cell_angle_alpha    90
_cell_angle_beta     90
_cell_angle_gamma    120

_symmetry_Int_Tables_number  194
_chemical_formula_structural  K3Rh
_chemical_formula_sum  K6Rh2
_cell_volume  282.17401248778583
_cell_formula_units_Z  2
loop_
  _symmetry_equiv_pos_site_id
 _symmetry_equiv_pos_as_xyz
 1  'x, y, z'
loop_
 _atom_site_type_symbol
 _atom_site_label
 _atom_site_symmetry_multiplicity
 _atom_site_fract_x
 _atom_site_fract_y
 _atom_site_fract_z
 _atom_site_fract_occupancy
 K  K1  1  0.18668  0.81332  0.75000  1
 K  K2  1  0.62663  0.81332  0.75000  1
 K  K3  1  0.18668  0.37337  0.75000  1
 K  K4  1  0.81332  0.18668  0.25000  1
 K  K5  1  0.37337  0.18668  0.25000  1
 K  K6  1  0.81332  0.62663  0.25000  1
 Rh  Rh1  1  0.33333  0.66667  0.25000  1
 Rh  Rh2  1  0.66667  0.33333  0.75000  1
