CIF file written using JARVIS-Tools package.
data_VBO4
_symmetry_space_group_name_H-M  'I-4'
_cell_length_a       4.79839
_cell_length_b       4.98267
_cell_length_c       4.79839
_cell_angle_alpha    61.216
_cell_angle_beta     90
_cell_angle_gamma    118.784

_symmetry_Int_Tables_number  82
_chemical_formula_structural  VBO4
_chemical_formula_sum  VBO4
_cell_volume  84.01509314776426
_cell_formula_units_Z  1
loop_
  _symmetry_equiv_pos_site_id
 _symmetry_equiv_pos_as_xyz
 1  'x, y, z'
loop_
 _atom_site_type_symbol
 _atom_site_label
 _atom_site_symmetry_multiplicity
 _atom_site_fract_x
 _atom_site_fract_y
 _atom_site_fract_z
 _atom_site_fract_occupancy
 B  B1  1  0.75000  0.50000  0.75000  1
 O  O1  1  0.40919  0.26924  0.97504  1
 O  O2  1  0.75572  0.73076  0.40919  1
 O  O3  1  0.86006  0.26924  0.75572  1
 O  O4  1  0.97504  0.73076  0.86006  1
 V  V1  1  0.00000  0.00000  0.00000  1
