CIF file written using JARVIS-Tools package.
data_CaNiP2O7
_symmetry_space_group_name_H-M  'P-1'
_cell_length_a       6.42029
_cell_length_b       6.5333
_cell_length_c       6.50627
_cell_angle_alpha    66.3755
_cell_angle_beta     88.0331
_cell_angle_gamma    82.93

_symmetry_Int_Tables_number  2
_chemical_formula_structural  CaNiP2O7
_chemical_formula_sum  Ca2Ni2P4O4
_cell_volume  248.10281631905704
_cell_formula_units_Z  2
loop_
  _symmetry_equiv_pos_site_id
 _symmetry_equiv_pos_as_xyz
 1  'x, y, z'
loop_
 _atom_site_type_symbol
 _atom_site_label
 _atom_site_symmetry_multiplicity
 _atom_site_fract_x
 _atom_site_fract_y
 _atom_site_fract_z
 _atom_site_fract_occupancy
 Ca  Ca1  1  0.12734  0.73872  0.80160  1
 Ca  Ca2  1  0.87266  0.26128  0.19840  1
 Ni  Ni1  1  0.35433  0.89897  0.22019  1
 Ni  Ni2  1  0.64567  0.10103  0.77981  1
 O  O1  1  0.22578  0.40146  0.51532  1
 O  O2  1  0.96884  0.11339  0.69546  1
 O  O3  1  0.03116  0.88661  0.30454  1
 O  O4  1  0.59090  0.25558  0.43799  1
 O  O5  1  0.40910  0.74442  0.56201  1
 O  O6  1  0.37875  0.60275  0.14647  1
 O  O7  1  0.62125  0.39725  0.85353  1
 O  O8  1  0.93884  0.61830  0.13477  1
 O  O9  1  0.32642  0.04970  0.86452  1
 O  O10  1  0.06116  0.38170  0.86523  1
 O  O11  1  0.26950  0.20329  0.25478  1
 O  O12  1  0.73050  0.79671  0.74522  1
 O  O13  1  0.77422  0.59854  0.48468  1
 O  O14  1  0.67358  0.95030  0.13548  1
 P  P1  1  0.14024  0.23377  0.74521  1
 P  P2  1  0.85976  0.76623  0.25479  1
 P  P3  1  0.62453  0.63756  0.67579  1
 P  P4  1  0.37547  0.36244  0.32421  1
