CIF file written using JARVIS-Tools package.
data_Zr6Ga2Fe
_symmetry_space_group_name_H-M  'P-62m'
_cell_length_a       3.35943
_cell_length_b       7.82261
_cell_length_c       7.82247
_cell_angle_alpha    120.001
_cell_angle_beta     90
_cell_angle_gamma    90

_symmetry_Int_Tables_number  189
_chemical_formula_structural  Zr6Ga2Fe
_chemical_formula_sum  Zr6Ga2Fe
_cell_volume  178.02851231242596
_cell_formula_units_Z  1
loop_
  _symmetry_equiv_pos_site_id
 _symmetry_equiv_pos_as_xyz
 1  'x, y, z'
loop_
 _atom_site_type_symbol
 _atom_site_label
 _atom_site_symmetry_multiplicity
 _atom_site_fract_x
 _atom_site_fract_y
 _atom_site_fract_z
 _atom_site_fract_occupancy
 Fe  Fe1  1  0.50000  0.00000  -0.00000  1
 Ga  Ga1  1  0.00000  0.33331  0.66666  1
 Ga  Ga2  1  0.00000  0.66666  0.33334  1
 Zr  Zr1  1  0.00000  0.24849  0.00000  1
 Zr  Zr2  1  0.00000  0.75150  0.75152  1
 Zr  Zr3  1  0.00000  0.99998  0.24848  1
 Zr  Zr4  1  0.50000  0.59610  -0.00000  1
 Zr  Zr5  1  0.50000  0.40387  0.40388  1
 Zr  Zr6  1  0.50000  -0.00001  0.59612  1
