CIF file written using JARVIS-Tools package.
data_LiFeF3
_symmetry_space_group_name_H-M  'P2_1/m'
_cell_length_a       3.95568
_cell_length_b       5.42345
_cell_length_c       5.61261
_cell_angle_alpha    90
_cell_angle_beta     110.469
_cell_angle_gamma    90

_symmetry_Int_Tables_number  11
_chemical_formula_structural  LiFeF3
_chemical_formula_sum  Li2Fe2F6
_cell_volume  112.80755284483422
_cell_formula_units_Z  2
loop_
  _symmetry_equiv_pos_site_id
 _symmetry_equiv_pos_as_xyz
 1  'x, y, z'
loop_
 _atom_site_type_symbol
 _atom_site_label
 _atom_site_symmetry_multiplicity
 _atom_site_fract_x
 _atom_site_fract_y
 _atom_site_fract_z
 _atom_site_fract_occupancy
 F  F1  1  0.46473  0.75000  0.93914  1
 F  F2  1  0.13400  0.99609  0.30881  1
 F  F3  1  0.13400  0.50391  0.30881  1
 F  F4  1  0.86600  0.49609  0.69119  1
 F  F5  1  0.86600  0.00391  0.69119  1
 F  F6  1  0.53527  0.25000  0.06086  1
 Fe  Fe1  1  0.99357  0.75000  0.00497  1
 Fe  Fe2  1  0.00643  0.25000  -0.00497  1
 Li  Li1  1  0.80744  0.25000  0.42808  1
 Li  Li2  1  0.19256  0.75000  0.57192  1
