CIF file written using JARVIS-Tools package.
data_PrAl
_symmetry_space_group_name_H-M  'Cmcm'
_cell_length_a       5.76639
_cell_length_b       6.05744
_cell_length_c       6.05744
_cell_angle_alpha    101.147
_cell_angle_beta     90
_cell_angle_gamma    90

_symmetry_Int_Tables_number  63
_chemical_formula_structural  PrAl
_chemical_formula_sum  Pr4Al4
_cell_volume  207.59183844818165
_cell_formula_units_Z  4
loop_
  _symmetry_equiv_pos_site_id
 _symmetry_equiv_pos_as_xyz
 1  'x, y, z'
loop_
 _atom_site_type_symbol
 _atom_site_label
 _atom_site_symmetry_multiplicity
 _atom_site_fract_x
 _atom_site_fract_y
 _atom_site_fract_z
 _atom_site_fract_occupancy
 Al  Al1  1  0.25000  0.80417  0.80417  1
 Al  Al2  1  0.75000  0.19583  0.19583  1
 Al  Al3  1  0.00000  0.50000  0.50000  1
 Al  Al4  1  0.50000  0.50000  0.50000  1
 Pr  Pr1  1  0.25000  0.34059  0.98035  1
 Pr  Pr2  1  0.25000  0.98035  0.34059  1
 Pr  Pr3  1  0.75000  0.01965  0.65941  1
 Pr  Pr4  1  0.75000  0.65941  0.01965  1
