CIF file written using JARVIS-Tools package.
data_V3H4O8
_symmetry_space_group_name_H-M  'C2/m'
_cell_length_a       8.91241
_cell_length_b       8.91241
_cell_length_c       5.96295
_cell_angle_alpha    83.5813
_cell_angle_beta     96.4187
_cell_angle_gamma    157.727

_symmetry_Int_Tables_number  12
_chemical_formula_structural  V3H4O8
_chemical_formula_sum  V3H4O8
_cell_volume  178.35263155620532
_cell_formula_units_Z  1
loop_
  _symmetry_equiv_pos_site_id
 _symmetry_equiv_pos_as_xyz
 1  'x, y, z'
loop_
 _atom_site_type_symbol
 _atom_site_label
 _atom_site_symmetry_multiplicity
 _atom_site_fract_x
 _atom_site_fract_y
 _atom_site_fract_z
 _atom_site_fract_occupancy
 H  H1  1  0.91758  0.08242  0.09796  1
 H  H2  1  0.08242  0.91758  0.90204  1
 H  H3  1  0.79119  0.20881  0.08374  1
 H  H4  1  0.20881  0.79119  0.91626  1
 O  O1  1  0.96367  0.03633  0.21318  1
 O  O2  1  0.03633  0.96367  0.78682  1
 O  O3  1  0.89464  0.10536  0.57618  1
 O  O4  1  0.10536  0.89464  0.42382  1
 O  O5  1  0.82720  0.17280  0.96860  1
 O  O6  1  0.17280  0.82720  0.03140  1
 O  O7  1  0.73971  0.26029  0.35648  1
 O  O8  1  0.26029  0.73971  0.64352  1
 V  V1  1  -0.00000  0.00000  0.50000  1
 V  V2  1  0.80672  0.19328  0.65814  1
 V  V3  1  0.19328  0.80672  0.34186  1
