CIF file written using JARVIS-Tools package.
data_NiS2
_symmetry_space_group_name_H-M  'P6_3/mmc'
_cell_length_a       3.47465
_cell_length_b       10.0298
_cell_length_c       3.4745
_cell_angle_alpha    90
_cell_angle_beta     119.999
_cell_angle_gamma    90

_symmetry_Int_Tables_number  194
_chemical_formula_structural  NiS2
_chemical_formula_sum  Ni2S4
_cell_volume  104.86547535471146
_cell_formula_units_Z  2
loop_
  _symmetry_equiv_pos_site_id
 _symmetry_equiv_pos_as_xyz
 1  'x, y, z'
loop_
 _atom_site_type_symbol
 _atom_site_label
 _atom_site_symmetry_multiplicity
 _atom_site_fract_x
 _atom_site_fract_y
 _atom_site_fract_z
 _atom_site_fract_occupancy
 Ni  Ni1  1  0.66660  0.25000  0.33330  1
 Ni  Ni2  1  0.33338  0.75000  0.66669  1
 S  S1  1  0.33329  0.13887  0.66664  1
 S  S2  1  0.33329  0.36113  0.66664  1
 S  S3  1  0.66672  0.63887  0.33336  1
 S  S4  1  0.66672  0.86113  0.33336  1
