CIF file written using JARVIS-Tools package.
data_BaMg2V2O8
_symmetry_space_group_name_H-M  'I4_1/acd'
_cell_length_a       8.50868
_cell_length_b       9.80802
_cell_length_c       9.80802
_cell_angle_alpha    79.1541
_cell_angle_beta     64.2925
_cell_angle_gamma    64.2925

_symmetry_Int_Tables_number  142
_chemical_formula_structural  BaMg2V2O8
_chemical_formula_sum  Ba4Mg8V8O32
_cell_volume  664.4985501001511
_cell_formula_units_Z  4
loop_
  _symmetry_equiv_pos_site_id
 _symmetry_equiv_pos_as_xyz
 1  'x, y, z'
loop_
 _atom_site_type_symbol
 _atom_site_label
 _atom_site_symmetry_multiplicity
 _atom_site_fract_x
 _atom_site_fract_y
 _atom_site_fract_z
 _atom_site_fract_occupancy
 Ba  Ba1  1  0.37500  0.25000  0.75000  1
 Ba  Ba2  1  0.12500  0.75000  0.25000  1
 Ba  Ba3  1  0.62500  0.75000  0.25000  1
 Ba  Ba4  1  0.87500  0.25000  0.75000  1
 Mg  Mg1  1  0.20716  0.08568  0.25000  1
 Mg  Mg2  1  0.29284  0.25000  0.41432  1
 Mg  Mg3  1  0.70716  0.75000  0.58568  1
 Mg  Mg4  1  0.54284  0.41432  0.25000  1
 Mg  Mg5  1  0.45716  0.58568  0.75000  1
 Mg  Mg6  1  0.04284  0.75000  0.91432  1
 Mg  Mg7  1  0.95716  0.25000  0.08568  1
 Mg  Mg8  1  0.79284  0.91432  0.75000  1
 O  O1  1  0.06499  0.58889  0.08537  1
 O  O2  1  0.23924  0.91463  0.41111  1
 O  O3  1  0.15388  0.41111  0.58537  1
 O  O4  1  0.65035  0.41463  0.58889  1
 O  O5  1  0.65388  0.08537  0.91111  1
 O  O6  1  0.73924  0.91111  0.41463  1
 O  O7  1  0.04341  0.91424  0.73350  1
 O  O8  1  0.43501  0.41463  0.91111  1
 O  O9  1  0.95659  0.08576  0.26650  1
 O  O10  1  0.84612  0.58889  0.41463  1
 O  O11  1  0.72309  0.23350  0.08576  1
 O  O12  1  0.04235  0.26650  0.41424  1
 O  O13  1  0.30885  0.41424  0.23349  1
 O  O14  1  0.56499  0.58537  0.08889  1
 O  O15  1  0.54235  0.91424  0.76650  1
 O  O16  1  0.80885  0.73349  0.91424  1
 O  O17  1  0.45659  0.76650  0.58576  1
 O  O18  1  0.76076  0.08537  0.58889  1
 O  O19  1  0.15035  0.08889  0.91463  1
 O  O20  1  0.27691  0.76650  0.91424  1
 O  O21  1  0.26076  0.08889  0.58537  1
 O  O22  1  0.93501  0.41111  0.91463  1
 O  O23  1  0.77691  0.41424  0.26650  1
 O  O24  1  0.54341  0.23350  0.41424  1
 O  O25  1  0.19115  0.26651  0.08576  1
 O  O26  1  0.95765  0.73350  0.58576  1
 O  O27  1  0.84965  0.91111  0.08537  1
 O  O28  1  0.34965  0.58537  0.41111  1
 O  O29  1  0.22309  0.58576  0.73350  1
 O  O30  1  0.34612  0.91463  0.08889  1
 O  O31  1  0.45765  0.08576  0.23350  1
 O  O32  1  0.69115  0.58576  0.76651  1
 V  V1  1  0.33135  0.91865  0.91865  1
 V  V2  1  0.83135  0.41865  0.41865  1
 V  V3  1  0.75000  0.58135  0.91865  1
 V  V4  1  0.25000  0.91866  0.58134  1
 V  V5  1  0.16865  0.58135  0.58135  1
 V  V6  1  0.66865  0.08135  0.08135  1
 V  V7  1  0.25000  0.41865  0.08135  1
 V  V8  1  0.75000  0.08134  0.41866  1
