CIF file written using JARVIS-Tools package.
data_EuSnP
_symmetry_space_group_name_H-M  'P4/nmm'
_cell_length_a       4.10382
_cell_length_b       4.10382
_cell_length_c       9.02887
_cell_angle_alpha    90
_cell_angle_beta     90
_cell_angle_gamma    90

_symmetry_Int_Tables_number  129
_chemical_formula_structural  EuSnP
_chemical_formula_sum  Eu2Sn2P2
_cell_volume  152.0584774733579
_cell_formula_units_Z  2
loop_
  _symmetry_equiv_pos_site_id
 _symmetry_equiv_pos_as_xyz
 1  'x, y, z'
loop_
 _atom_site_type_symbol
 _atom_site_label
 _atom_site_symmetry_multiplicity
 _atom_site_fract_x
 _atom_site_fract_y
 _atom_site_fract_z
 _atom_site_fract_occupancy
 Eu  Eu1  1  0.75000  0.75000  0.16474  1
 Eu  Eu2  1  0.25000  0.25000  0.83526  1
 P  P1  1  0.75000  0.75000  0.85267  1
 P  P2  1  0.25000  0.25000  0.14734  1
 Sn  Sn1  1  0.25000  0.25000  0.44562  1
 Sn  Sn2  1  0.75000  0.75000  0.55438  1
