CIF file written using JARVIS-Tools package.
data_HgI2
_symmetry_space_group_name_H-M  'I4_1/amd'
_cell_length_a       8.90266
_cell_length_b       8.90266
_cell_length_c       13.9215
_cell_angle_alpha    108.647
_cell_angle_beta     108.648
_cell_angle_gamma    90

_symmetry_Int_Tables_number  141
_chemical_formula_structural  HgI2
_chemical_formula_sum  Hg8I6
_cell_volume  984.1291891956437
_cell_formula_units_Z  8
loop_
  _symmetry_equiv_pos_site_id
 _symmetry_equiv_pos_as_xyz
 1  'x, y, z'
loop_
 _atom_site_type_symbol
 _atom_site_label
 _atom_site_symmetry_multiplicity
 _atom_site_fract_x
 _atom_site_fract_y
 _atom_site_fract_z
 _atom_site_fract_occupancy
 Hg  Hg1  1  0.18532  0.68916  0.37831  1
 Hg  Hg2  1  0.18916  0.68532  0.87831  1
 Hg  Hg3  1  0.69300  0.68916  0.37831  1
 Hg  Hg4  1  0.30700  0.31084  0.62169  1
 Hg  Hg5  1  0.81084  0.31468  0.12169  1
 Hg  Hg6  1  0.18916  0.19300  0.87831  1
 Hg  Hg7  1  0.81468  0.31084  0.62169  1
 Hg  Hg8  1  0.81084  0.80700  0.12169  1
 I  I1  1  0.51070  0.76070  0.52140  1
 I  I2  1  0.01184  0.76184  0.52368  1
 I  I3  1  0.39043  0.10957  0.75000  1
 I  I4  1  0.26184  0.51184  0.02368  1
 I  I5  1  0.39043  0.64043  0.75000  1
 I  I6  1  0.14043  0.35957  0.25000  1
 I  I7  1  0.98816  0.23816  0.47632  1
 I  I8  1  0.73930  0.98930  0.97860  1
 I  I9  1  0.60957  0.89043  0.25000  1
 I  I10  1  0.14043  0.89043  0.25000  1
 I  I11  1  0.85957  0.10957  0.75000  1
 I  I12  1  0.73816  0.48816  0.97632  1
 I  I13  1  0.60957  0.35957  0.25000  1
 I  I14  1  0.48930  0.23930  0.47860  1
 I  I15  1  0.26070  0.01070  0.02140  1
 I  I16  1  0.85957  0.64043  0.75000  1
