CIF file written using JARVIS-Tools package.
data_Y2Pd2Pb
_symmetry_space_group_name_H-M  'P4/mbm'
_cell_length_a       3.64844
_cell_length_b       7.86851
_cell_length_c       7.86851
_cell_angle_alpha    90
_cell_angle_beta     90
_cell_angle_gamma    90

_symmetry_Int_Tables_number  127
_chemical_formula_structural  Y2Pd2Pb
_chemical_formula_sum  Y4Pd4Pb2
_cell_volume  225.88754090528553
_cell_formula_units_Z  2
loop_
  _symmetry_equiv_pos_site_id
 _symmetry_equiv_pos_as_xyz
 1  'x, y, z'
loop_
 _atom_site_type_symbol
 _atom_site_label
 _atom_site_symmetry_multiplicity
 _atom_site_fract_x
 _atom_site_fract_y
 _atom_site_fract_z
 _atom_site_fract_occupancy
 Pb  Pb1  1  0.00000  0.00000  0.00000  1
 Pb  Pb2  1  0.00000  0.50000  0.50000  1
 Pd  Pd1  1  0.00000  0.37474  0.87474  1
 Pd  Pd2  1  0.00000  0.12526  0.37474  1
 Pd  Pd3  1  0.00000  0.87474  0.62526  1
 Pd  Pd4  1  0.00000  0.62526  0.12526  1
 Y  Y1  1  0.50000  0.17195  0.67195  1
 Y  Y2  1  0.50000  0.32805  0.17195  1
 Y  Y3  1  0.50000  0.67195  0.82805  1
 Y  Y4  1  0.50000  0.82805  0.32805  1
