CIF file written using JARVIS-Tools package.
data_NaPN2
_symmetry_space_group_name_H-M  'I-42d'
_cell_length_a       4.97406
_cell_length_b       4.97407
_cell_length_c       4.97407
_cell_angle_alpha    90.1482
_cell_angle_beta     119.915
_cell_angle_gamma    119.914

_symmetry_Int_Tables_number  122
_chemical_formula_structural  NaPN2
_chemical_formula_sum  Na2P2N4
_cell_volume  87.1323474018918
_cell_formula_units_Z  2
loop_
  _symmetry_equiv_pos_site_id
 _symmetry_equiv_pos_as_xyz
 1  'x, y, z'
loop_
 _atom_site_type_symbol
 _atom_site_label
 _atom_site_symmetry_multiplicity
 _atom_site_fract_x
 _atom_site_fract_y
 _atom_site_fract_z
 _atom_site_fract_occupancy
 N  N1  1  0.62353  0.87500  -0.00147  1
 N  N2  1  0.87647  0.00147  0.62500  1
 N  N3  1  0.37647  0.37500  0.25147  1
 N  N4  1  0.12353  0.74853  0.12500  1
 Na  Na1  1  -0.00000  0.50000  0.50000  1
 Na  Na2  1  0.50000  0.25000  0.75000  1
 P  P1  1  0.50000  0.75000  0.25000  1
 P  P2  1  0.00000  0.00000  0.00000  1
