CIF file written using JARVIS-Tools package.
data_Li4Ti3V5O16
_symmetry_space_group_name_H-M  'Cm'
_cell_length_a       5.84129
_cell_length_b       5.84207
_cell_length_c       9.54004
_cell_angle_alpha    90.2869
_cell_angle_beta     90.0019
_cell_angle_gamma    119.995

_symmetry_Int_Tables_number  8
_chemical_formula_structural  Li4Ti3V5O16
_chemical_formula_sum  Li4Ti3V5O6
_cell_volume  281.9482178484422
_cell_formula_units_Z  1
loop_
  _symmetry_equiv_pos_site_id
 _symmetry_equiv_pos_as_xyz
 1  'x, y, z'
loop_
 _atom_site_type_symbol
 _atom_site_label
 _atom_site_symmetry_multiplicity
 _atom_site_fract_x
 _atom_site_fract_y
 _atom_site_fract_z
 _atom_site_fract_occupancy
 Li  Li1  1  0.33051  0.66102  0.10513  1
 Li  Li2  1  0.00520  0.01048  0.00659  1
 Li  Li3  1  0.00168  0.00331  0.50215  1
 Li  Li4  1  0.66493  0.32991  0.60491  1
 O  O1  1  0.16964  0.83471  0.40058  1
 O  O2  1  0.51674  0.03348  0.15881  1
 O  O3  1  0.33898  0.67800  0.90015  1
 O  O4  1  -0.00078  -0.00153  0.68686  1
 O  O5  1  0.00179  0.00358  0.19109  1
 O  O6  1  0.66508  0.83471  0.40059  1
 O  O7  1  0.48020  0.96046  0.66114  1
 O  O8  1  0.48132  0.51797  0.65936  1
 O  O9  1  0.83734  0.67474  0.90013  1
 O  O10  1  0.16672  0.33343  0.39813  1
 O  O11  1  0.51969  0.47961  0.15907  1
 O  O12  1  0.67146  0.34290  0.40276  1
 O  O13  1  0.03660  0.51796  0.65937  1
 O  O14  1  0.33519  0.17364  0.89987  1
 O  O15  1  0.95992  0.47961  0.15907  1
 O  O16  1  0.83841  0.17366  0.89986  1
 Ti  Ti1  1  0.83000  0.65998  0.27922  1
 Ti  Ti2  1  0.65863  0.82303  0.78282  1
 Ti  Ti3  1  0.16426  0.82295  0.78286  1
 V  V1  1  0.32900  0.65802  0.50872  1
 V  V2  1  0.16978  0.33959  0.79053  1
 V  V3  1  0.66186  0.32375  0.01225  1
 V  V4  1  0.81913  0.16551  0.29007  1
 V  V5  1  0.34641  0.16553  0.29006  1
