CIF file written using JARVIS-Tools package.
data_NiS2
_symmetry_space_group_name_H-M  'I-42d'
_cell_length_a       4.98293
_cell_length_b       4.98293
_cell_length_c       5.67877
_cell_angle_alpha    116.023
_cell_angle_beta     116.023
_cell_angle_gamma    90

_symmetry_Int_Tables_number  122
_chemical_formula_structural  NiS2
_chemical_formula_sum  Ni2S4
_cell_volume  110.5785271316692
_cell_formula_units_Z  2
loop_
  _symmetry_equiv_pos_site_id
 _symmetry_equiv_pos_as_xyz
 1  'x, y, z'
loop_
 _atom_site_type_symbol
 _atom_site_label
 _atom_site_symmetry_multiplicity
 _atom_site_fract_x
 _atom_site_fract_y
 _atom_site_fract_z
 _atom_site_fract_occupancy
 Ni  Ni1  1  0.25000  0.75000  0.50000  1
 Ni  Ni2  1  0.00000  0.00000  0.00000  1
 S  S1  1  0.86161  0.87500  0.25000  1
 S  S2  1  0.62500  0.13839  0.75000  1
 S  S3  1  0.38839  0.37500  0.25000  1
 S  S4  1  0.12500  0.61161  0.75000  1
