CIF file written using JARVIS-Tools package.
data_LuSnRh
_symmetry_space_group_name_H-M  'P-62m'
_cell_length_a       3.6889
_cell_length_b       7.55175
_cell_length_c       7.55177
_cell_angle_alpha    120
_cell_angle_beta     90
_cell_angle_gamma    90

_symmetry_Int_Tables_number  189
_chemical_formula_structural  LuSnRh
_chemical_formula_sum  Lu3Sn3Rh3
_cell_volume  182.1899630509939
_cell_formula_units_Z  3
loop_
  _symmetry_equiv_pos_site_id
 _symmetry_equiv_pos_as_xyz
 1  'x, y, z'
loop_
 _atom_site_type_symbol
 _atom_site_label
 _atom_site_symmetry_multiplicity
 _atom_site_fract_x
 _atom_site_fract_y
 _atom_site_fract_z
 _atom_site_fract_occupancy
 Lu  Lu1  1  0.50000  0.59884  -0.00000  1
 Lu  Lu2  1  0.50000  0.40113  0.40114  1
 Lu  Lu3  1  0.50000  0.99999  0.59886  1
 Rh  Rh1  1  0.00000  0.33332  0.66667  1
 Rh  Rh2  1  0.00000  0.66666  0.33333  1
 Rh  Rh3  1  0.50000  0.99999  -0.00000  1
 Sn  Sn1  1  0.00000  0.26776  0.00000  1
 Sn  Sn2  1  0.00000  0.73222  0.73223  1
 Sn  Sn3  1  0.00000  0.99999  0.26777  1
