CIF file written using JARVIS-Tools package.
data_Sm2P3Pt6
_symmetry_space_group_name_H-M  'I4_1/amd'
_cell_length_a       4.14634
_cell_length_b       4.14634
_cell_length_c       23.1386
_cell_angle_alpha    95.1405
_cell_angle_beta     95.1405
_cell_angle_gamma    89.9999

_symmetry_Int_Tables_number  141
_chemical_formula_structural  Sm2P3Pt6
_chemical_formula_sum  Sm4P6Pt2
_cell_volume  394.5951173311732
_cell_formula_units_Z  2
loop_
  _symmetry_equiv_pos_site_id
 _symmetry_equiv_pos_as_xyz
 1  'x, y, z'
loop_
 _atom_site_type_symbol
 _atom_site_label
 _atom_site_symmetry_multiplicity
 _atom_site_fract_x
 _atom_site_fract_y
 _atom_site_fract_z
 _atom_site_fract_occupancy
 P  P1  1  0.70029  0.45029  0.90059  1
 P  P2  1  0.12500  0.37500  0.75000  1
 P  P3  1  0.95029  0.20029  0.40059  1
 P  P4  1  0.29971  0.54971  0.09941  1
 P  P5  1  0.87500  0.62500  0.25000  1
 P  P6  1  0.04971  0.79971  0.59941  1
 Pt  Pt1  1  0.47540  0.22540  0.45080  1
 Pt  Pt2  1  0.72540  0.97540  0.95080  1
 Pt  Pt3  1  0.27460  0.02460  0.04920  1
 Pt  Pt4  1  0.02264  0.27264  0.54528  1
 Pt  Pt5  1  0.97736  0.72736  0.45472  1
 Pt  Pt6  1  0.77264  0.52264  0.04528  1
 Pt  Pt7  1  0.64916  0.39916  0.79831  1
 Pt  Pt8  1  0.89916  0.14916  0.29831  1
 Pt  Pt9  1  0.22736  0.47736  0.95472  1
 Pt  Pt10  1  0.35084  0.60084  0.20169  1
 Pt  Pt11  1  0.52460  0.77460  0.54920  1
 Pt  Pt12  1  0.10084  0.85084  0.70169  1
 Sm  Sm1  1  0.57549  0.32549  0.65099  1
 Sm  Sm2  1  0.82549  0.07549  0.15099  1
 Sm  Sm3  1  0.17451  0.92451  0.84901  1
 Sm  Sm4  1  0.42451  0.67451  0.34901  1
