CIF file written using JARVIS-Tools package.
data_ScPS4
_symmetry_space_group_name_H-M  'P-1'
_cell_length_a       6.23818
_cell_length_b       6.47391
_cell_length_c       6.6535
_cell_angle_alpha    85.4577
_cell_angle_beta     88.7221
_cell_angle_gamma    81.2883

_symmetry_Int_Tables_number  2
_chemical_formula_structural  ScPS4
_chemical_formula_sum  Sc2P2S8
_cell_volume  264.75585047803605
_cell_formula_units_Z  2
loop_
  _symmetry_equiv_pos_site_id
 _symmetry_equiv_pos_as_xyz
 1  'x, y, z'
loop_
 _atom_site_type_symbol
 _atom_site_label
 _atom_site_symmetry_multiplicity
 _atom_site_fract_x
 _atom_site_fract_y
 _atom_site_fract_z
 _atom_site_fract_occupancy
 P  P1  1  0.69054  0.73479  0.19284  1
 P  P2  1  0.30946  0.26521  0.80716  1
 S  S1  1  0.57795  0.23786  0.63033  1
 S  S2  1  0.42205  0.76214  0.36967  1
 S  S3  1  0.88459  0.96326  0.21890  1
 S  S4  1  0.11541  0.03674  0.78110  1
 S  S5  1  0.59606  0.71804  0.89870  1
 S  S6  1  0.40394  0.28196  0.10130  1
 S  S7  1  0.91849  0.46999  0.25645  1
 S  S8  1  0.08151  0.53001  0.74355  1
 Sc  Sc1  1  0.79490  0.30345  0.93468  1
 Sc  Sc2  1  0.20510  0.69655  0.06532  1
