CIF file written using JARVIS-Tools package.
data_SrCa2I6
_symmetry_space_group_name_H-M  'C2/c'
_cell_length_a       7.18638
_cell_length_b       13.0359
_cell_length_c       8.70392
_cell_angle_alpha    100.236
_cell_angle_beta     90
_cell_angle_gamma    74

_symmetry_Int_Tables_number  15
_chemical_formula_structural  SrCa2I6
_chemical_formula_sum  Sr2Ca4I2
_cell_volume  770.2955876605536
_cell_formula_units_Z  2
loop_
  _symmetry_equiv_pos_site_id
 _symmetry_equiv_pos_as_xyz
 1  'x, y, z'
loop_
 _atom_site_type_symbol
 _atom_site_label
 _atom_site_symmetry_multiplicity
 _atom_site_fract_x
 _atom_site_fract_y
 _atom_site_fract_z
 _atom_site_fract_occupancy
 Ca  Ca1  1  0.40424  0.65773  0.89595  1
 Ca  Ca2  1  0.93803  0.65773  0.39595  1
 Ca  Ca3  1  0.06197  0.34227  0.60405  1
 Ca  Ca4  1  0.59576  0.34227  0.10405  1
 I  I1  1  0.27429  0.45093  0.38018  1
 I  I2  1  0.59475  0.84150  0.96722  1
 I  I3  1  0.56375  0.84150  0.46722  1
 I  I4  1  0.43625  0.15850  0.53278  1
 I  I5  1  0.11031  0.78837  0.18287  1
 I  I6  1  0.10132  0.78837  0.68287  1
 I  I7  1  0.40525  0.15850  0.03278  1
 I  I8  1  0.27478  0.45093  0.88018  1
 I  I9  1  0.72571  0.54907  0.61982  1
 I  I10  1  0.88969  0.21163  0.81713  1
 I  I11  1  0.89868  0.21163  0.31713  1
 I  I12  1  0.72522  0.54907  0.11982  1
 Sr  Sr1  1  0.29738  -0.00000  0.25000  1
 Sr  Sr2  1  0.70262  -0.00000  0.75000  1
