CIF file written using JARVIS-Tools package.
data_KTmO2
_symmetry_space_group_name_H-M  'R-3m'
_cell_length_a       3.40216
_cell_length_b       6.48267
_cell_length_c       3.40216
_cell_angle_alpha    105.213
_cell_angle_beta     60
_cell_angle_gamma    105.213

_symmetry_Int_Tables_number  166
_chemical_formula_structural  KTmO2
_chemical_formula_sum  KTmO2
_cell_volume  61.92758591013914
_cell_formula_units_Z  1
loop_
  _symmetry_equiv_pos_site_id
 _symmetry_equiv_pos_as_xyz
 1  'x, y, z'
loop_
 _atom_site_type_symbol
 _atom_site_label
 _atom_site_symmetry_multiplicity
 _atom_site_fract_x
 _atom_site_fract_y
 _atom_site_fract_z
 _atom_site_fract_occupancy
 K  K1  1  0.00000  0.00000  0.00000  1
 O  O1  1  0.22826  0.68477  0.22826  1
 O  O2  1  0.77174  0.31523  0.77174  1
 Tm  Tm1  1  0.50000  0.50000  0.50000  1
