CIF file written using JARVIS-Tools package.
data_Sb2RuC6O6F12
_symmetry_space_group_name_H-M  'P4/mnc'
_cell_length_a       8.05804
_cell_length_b       8.05804
_cell_length_c       12.1352
_cell_angle_alpha    90
_cell_angle_beta     90
_cell_angle_gamma    90

_symmetry_Int_Tables_number  128
_chemical_formula_structural  Sb2RuC6O6F12
_chemical_formula_sum  Sb4Ru2C2O2F24
_cell_volume  787.9601320149246
_cell_formula_units_Z  2
loop_
  _symmetry_equiv_pos_site_id
 _symmetry_equiv_pos_as_xyz
 1  'x, y, z'
loop_
 _atom_site_type_symbol
 _atom_site_label
 _atom_site_symmetry_multiplicity
 _atom_site_fract_x
 _atom_site_fract_y
 _atom_site_fract_z
 _atom_site_fract_occupancy
 C  C1  1  0.21422  0.13074  0.00000  1
 C  C2  1  0.36926  0.28578  0.50000  1
 C  C3  1  0.00000  0.00000  0.16608  1
 C  C4  1  0.50000  0.50000  0.66608  1
 C  C5  1  0.50000  0.50000  0.33392  1
 C  C6  1  0.00000  0.00000  0.83392  1
 C  C7  1  0.86926  0.21422  0.00000  1
 C  C8  1  0.63074  0.71422  0.50000  1
 C  C9  1  0.13074  0.78578  0.00000  1
 C  C10  1  0.28578  0.63074  0.50000  1
 C  C11  1  0.78578  0.86926  0.00000  1
 C  C12  1  0.71422  0.36926  0.50000  1
 F  F1  1  0.83209  0.33209  0.25000  1
 F  F2  1  0.12410  0.38818  0.63687  1
 F  F3  1  0.88818  0.62410  0.86313  1
 F  F4  1  0.66791  0.83209  0.25000  1
 F  F5  1  0.33209  0.16791  0.25000  1
 F  F6  1  0.61182  0.12410  0.63687  1
 F  F7  1  0.87590  0.61182  0.63687  1
 F  F8  1  0.11182  0.37590  0.86313  1
 F  F9  1  0.37590  0.88818  0.86313  1
 F  F10  1  0.88818  0.62410  0.13687  1
 F  F11  1  0.61182  0.12410  0.36313  1
 F  F12  1  0.83209  0.33209  0.75000  1
 F  F13  1  0.87590  0.61182  0.36313  1
 F  F14  1  0.12410  0.38818  0.36313  1
 F  F15  1  0.11182  0.37590  0.13687  1
 F  F16  1  0.62410  0.11182  0.13687  1
 F  F17  1  0.38818  0.87590  0.63687  1
 F  F18  1  0.66791  0.83209  0.75000  1
 F  F19  1  0.16791  0.66791  0.75000  1
 F  F20  1  0.38818  0.87590  0.36313  1
 F  F21  1  0.16791  0.66791  0.25000  1
 F  F22  1  0.33209  0.16791  0.75000  1
 F  F23  1  0.37590  0.88818  0.13687  1
 F  F24  1  0.62410  0.11182  0.86313  1
 O  O1  1  0.20352  0.66536  0.00000  1
 O  O2  1  0.33464  0.20352  0.00000  1
 O  O3  1  0.50000  0.50000  0.75960  1
 O  O4  1  0.66536  0.79648  0.00000  1
 O  O5  1  0.00000  0.00000  0.74040  1
 O  O6  1  0.00000  0.00000  0.25960  1
 O  O7  1  0.70352  0.83464  0.50000  1
 O  O8  1  0.29648  0.16536  0.50000  1
 O  O9  1  0.16536  0.70352  0.50000  1
 O  O10  1  0.83464  0.29648  0.50000  1
 O  O11  1  0.79648  0.33464  0.00000  1
 O  O12  1  0.50000  0.50000  0.24040  1
 Ru  Ru1  1  0.50000  0.50000  0.50000  1
 Ru  Ru2  1  0.00000  0.00000  0.00000  1
 Sb  Sb1  1  0.50000  0.00000  0.25000  1
 Sb  Sb2  1  0.50000  0.00000  0.75000  1
 Sb  Sb3  1  0.00000  0.50000  0.75000  1
 Sb  Sb4  1  0.00000  0.50000  0.25000  1
