CIF file written using JARVIS-Tools package.
data_U3CuO10
_symmetry_space_group_name_H-M  'P-1'
_cell_length_a       5.61984
_cell_length_b       5.66689
_cell_length_c       7.59194
_cell_angle_alpha    71.0703
_cell_angle_beta     70.2028
_cell_angle_gamma    71.2074

_symmetry_Int_Tables_number  2
_chemical_formula_structural  U3CuO10
_chemical_formula_sum  U3CuO0
_cell_volume  208.97785841274737
_cell_formula_units_Z  1
loop_
  _symmetry_equiv_pos_site_id
 _symmetry_equiv_pos_as_xyz
 1  'x, y, z'
loop_
 _atom_site_type_symbol
 _atom_site_label
 _atom_site_symmetry_multiplicity
 _atom_site_fract_x
 _atom_site_fract_y
 _atom_site_fract_z
 _atom_site_fract_occupancy
 Cu  Cu1  1  -0.00000  -0.00000  0.50000  1
 O  O1  1  0.69560  0.76105  0.13820  1
 O  O2  1  0.91646  0.07823  0.74855  1
 O  O3  1  0.08354  0.92177  0.25145  1
 O  O4  1  0.23487  0.32552  0.35729  1
 O  O5  1  0.31195  0.70016  0.53404  1
 O  O6  1  0.29579  0.69110  0.96584  1
 O  O7  1  0.30440  0.23895  0.86180  1
 O  O8  1  0.68805  0.29984  0.46596  1
 O  O9  1  0.76513  0.67448  0.64271  1
 O  O10  1  0.70421  0.30890  0.03416  1
 U  U1  1  0.00000  0.00000  0.00000  1
 U  U2  1  0.54408  0.45835  0.73200  1
 U  U3  1  0.45592  0.54165  0.26800  1
