CIF file written using JARVIS-Tools package.
data_BaCaI4
_symmetry_space_group_name_H-M  'P2/m'
_cell_length_a       6.88902
_cell_length_b       4.72889
_cell_length_c       8.39414
_cell_angle_alpha    90
_cell_angle_beta     88.8427
_cell_angle_gamma    90

_symmetry_Int_Tables_number  10
_chemical_formula_structural  BaCaI4
_chemical_formula_sum  BaCaI4
_cell_volume  273.4036660320038
_cell_formula_units_Z  1
loop_
  _symmetry_equiv_pos_site_id
 _symmetry_equiv_pos_as_xyz
 1  'x, y, z'
loop_
 _atom_site_type_symbol
 _atom_site_label
 _atom_site_symmetry_multiplicity
 _atom_site_fract_x
 _atom_site_fract_y
 _atom_site_fract_z
 _atom_site_fract_occupancy
 Ba  Ba1  1  -0.00000  0.50000  0.50000  1
 Ca  Ca1  1  0.00000  0.00000  0.00000  1
 I  I1  1  0.27079  0.00000  0.69221  1
 I  I2  1  0.25020  0.50000  0.14180  1
 I  I3  1  0.74980  0.50000  0.85820  1
 I  I4  1  0.72921  0.00000  0.30779  1
