CIF file written using JARVIS-Tools package.
data_Dy3Co2Ge4
_symmetry_space_group_name_H-M  'C2/m'
_cell_length_a       4.14638
_cell_length_b       5.71391
_cell_length_c       8.01511
_cell_angle_alpha    106.612
_cell_angle_beta     90
_cell_angle_gamma    111.274

_symmetry_Int_Tables_number  12
_chemical_formula_structural  Dy3Co2Ge4
_chemical_formula_sum  Dy3Co2Ge4
_cell_volume  168.42028300800692
_cell_formula_units_Z  1
loop_
  _symmetry_equiv_pos_site_id
 _symmetry_equiv_pos_as_xyz
 1  'x, y, z'
loop_
 _atom_site_type_symbol
 _atom_site_label
 _atom_site_symmetry_multiplicity
 _atom_site_fract_x
 _atom_site_fract_y
 _atom_site_fract_z
 _atom_site_fract_occupancy
 Co  Co1  1  0.30700  0.61400  0.62682  1
 Co  Co2  1  0.69300  0.38600  0.37318  1
 Dy  Dy1  1  0.37617  0.75235  0.30724  1
 Dy  Dy2  1  0.62383  0.24765  0.69276  1
 Dy  Dy3  1  0.00000  0.00000  0.00000  1
 Ge  Ge1  1  0.09673  0.19346  0.39713  1
 Ge  Ge2  1  0.90327  0.80654  0.60287  1
 Ge  Ge3  1  0.70675  0.41351  0.08090  1
 Ge  Ge4  1  0.29325  0.58649  0.91910  1
