CIF file written using JARVIS-Tools package.
data_HfCl4O16
_symmetry_space_group_name_H-M  'C2/c'
_cell_length_a       7.33588
_cell_length_b       7.33589
_cell_length_c       12.9469
_cell_angle_alpha    74.5971
_cell_angle_beta     74.5971
_cell_angle_gamma    63.0076

_symmetry_Int_Tables_number  15
_chemical_formula_structural  HfCl4O16
_chemical_formula_sum  Hf2Cl8O32
_cell_volume  589.9467580767096
_cell_formula_units_Z  2
loop_
  _symmetry_equiv_pos_site_id
 _symmetry_equiv_pos_as_xyz
 1  'x, y, z'
loop_
 _atom_site_type_symbol
 _atom_site_label
 _atom_site_symmetry_multiplicity
 _atom_site_fract_x
 _atom_site_fract_y
 _atom_site_fract_z
 _atom_site_fract_occupancy
 Cl  Cl1  1  0.71256  0.15380  0.42098  1
 Cl  Cl2  1  0.39382  0.98698  0.18466  1
 Cl  Cl3  1  0.76565  0.35871  -0.00575  1
 Cl  Cl4  1  0.59890  0.03998  0.75785  1
 Cl  Cl5  1  0.35871  0.76565  0.49425  1
 Cl  Cl6  1  0.15380  0.71256  0.92098  1
 Cl  Cl7  1  0.98698  0.39382  0.68466  1
 Cl  Cl8  1  0.03998  0.59890  0.25785  1
 Hf  Hf1  1  0.39845  0.35414  0.58944  1
 Hf  Hf2  1  0.35414  0.39845  0.08944  1
 O  O1  1  0.95450  0.18742  0.01495  1
 O  O2  1  0.75707  0.25324  0.31342  1
 O  O3  1  0.96633  0.22341  0.76240  1
 O  O4  1  0.93837  0.83917  0.94444  1
 O  O5  1  0.43276  0.62973  0.60023  1
 O  O6  1  0.55829  0.27105  0.72774  1
 O  O7  1  0.79809  0.56509  0.66401  1
 O  O8  1  0.26776  0.71793  0.00437  1
 O  O9  1  0.31987  0.12284  0.07864  1
 O  O10  1  0.03463  0.48492  0.17446  1
 O  O11  1  0.28927  0.62132  0.46200  1
 O  O12  1  0.22341  0.96633  0.26240  1
 O  O13  1  0.62132  0.28927  0.96200  1
 O  O14  1  0.49951  -0.00459  0.86540  1
 O  O15  1  0.71793  0.26776  0.50437  1
 O  O16  1  0.12284  0.31987  0.57864  1
 O  O17  1  -0.00459  0.49951  0.36540  1
 O  O18  1  0.81434  0.91340  0.73436  1
 O  O19  1  0.48149  0.19437  0.45111  1
 O  O20  1  0.46325  0.13133  0.21690  1
 O  O21  1  0.25324  0.75707  0.81342  1
 O  O22  1  0.78638  0.52906  0.91649  1
 O  O23  1  0.83917  0.93837  0.44444  1
 O  O24  1  0.48492  0.03463  0.67446  1
 O  O25  1  0.27105  0.55829  0.22774  1
 O  O26  1  0.18742  0.95450  0.51495  1
 O  O27  1  0.62973  0.43276  0.10023  1
 O  O28  1  0.56509  0.79809  0.16401  1
 O  O29  1  0.19437  0.48149  0.95111  1
 O  O30  1  0.91340  0.81434  0.23436  1
 O  O31  1  0.52906  0.78638  0.41649  1
 O  O32  1  0.13133  0.46325  0.71690  1
