CIF file written using JARVIS-Tools package.
data_CdP2H4O4
_symmetry_space_group_name_H-M  'C2/c'
_cell_length_a       5.53137
_cell_length_b       6.49459
_cell_length_c       8.0332
_cell_angle_alpha    101.413
_cell_angle_beta     110.138
_cell_angle_gamma    90

_symmetry_Int_Tables_number  15
_chemical_formula_structural  CdP2H4O4
_chemical_formula_sum  Cd2P4H8O8
_cell_volume  264.85574738166196
_cell_formula_units_Z  2
loop_
  _symmetry_equiv_pos_site_id
 _symmetry_equiv_pos_as_xyz
 1  'x, y, z'
loop_
 _atom_site_type_symbol
 _atom_site_label
 _atom_site_symmetry_multiplicity
 _atom_site_fract_x
 _atom_site_fract_y
 _atom_site_fract_z
 _atom_site_fract_occupancy
 Cd  Cd1  1  0.17576  0.75000  0.00000  1
 Cd  Cd2  1  0.82424  0.25000  -0.00000  1
 H  H1  1  0.95530  0.93372  0.34082  1
 H  H2  1  0.52326  0.14346  0.44568  1
 H  H3  1  0.92242  0.64346  0.44568  1
 H  H4  1  0.04470  0.06628  0.65918  1
 H  H5  1  0.38552  0.43372  0.34082  1
 H  H6  1  0.47674  0.85654  0.55432  1
 H  H7  1  0.61448  0.56628  0.65918  1
 H  H8  1  0.07758  0.35654  0.55432  1
 O  O1  1  0.30978  0.76287  0.76720  1
 O  O2  1  0.69022  0.23713  0.23280  1
 O  O3  1  0.45742  0.26287  0.76720  1
 O  O4  1  0.93941  0.60493  0.14637  1
 O  O5  1  0.20696  0.10493  0.14637  1
 O  O6  1  0.06059  0.39507  0.85363  1
 O  O7  1  0.54258  0.73713  0.23280  1
 O  O8  1  0.79304  0.89507  0.85363  1
 P  P1  1  0.16740  0.27253  0.71317  1
 P  P2  1  0.45423  0.22747  0.28683  1
 P  P3  1  0.83260  0.72747  0.28683  1
 P  P4  1  0.54577  0.77253  0.71317  1
