CIF file written using JARVIS-Tools package.
data_LiVC2O6
_symmetry_space_group_name_H-M  'R32'
_cell_length_a       4.60723
_cell_length_b       5.93644
_cell_length_c       4.60722
_cell_angle_alpha    112.833
_cell_angle_beta     60
_cell_angle_gamma    112.833

_symmetry_Int_Tables_number  155
_chemical_formula_structural  LiVC2O6
_chemical_formula_sum  LiVC2O6
_cell_volume  97.55971048820996
_cell_formula_units_Z  1
loop_
  _symmetry_equiv_pos_site_id
 _symmetry_equiv_pos_as_xyz
 1  'x, y, z'
loop_
 _atom_site_type_symbol
 _atom_site_label
 _atom_site_symmetry_multiplicity
 _atom_site_fract_x
 _atom_site_fract_y
 _atom_site_fract_z
 _atom_site_fract_occupancy
 C  C1  1  0.25398  0.76193  0.25398  1
 C  C2  1  0.74602  0.23807  0.74602  1
 Li  Li1  1  0.50000  0.50000  0.50000  1
 O  O1  1  0.01384  0.24000  0.77203  1
 O  O2  1  0.54587  0.76000  0.22797  1
 O  O3  1  0.22797  0.76000  0.98616  1
 O  O4  1  0.45413  0.24000  0.01384  1
 O  O5  1  0.98616  0.76000  0.54587  1
 O  O6  1  0.77203  0.24000  0.45413  1
 V  V1  1  0.00000  0.00000  0.00000  1
