CIF file written using JARVIS-Tools package.
data_TeAuCl7
_symmetry_space_group_name_H-M  'P-1'
_cell_length_a       7.54903
_cell_length_b       7.51442
_cell_length_c       9.06316
_cell_angle_alpha    101.996
_cell_angle_beta     91.9083
_cell_angle_gamma    87.6141

_symmetry_Int_Tables_number  2
_chemical_formula_structural  TeAuCl7
_chemical_formula_sum  Te2Au2Cl4
_cell_volume  502.29922463734965
_cell_formula_units_Z  2
loop_
  _symmetry_equiv_pos_site_id
 _symmetry_equiv_pos_as_xyz
 1  'x, y, z'
loop_
 _atom_site_type_symbol
 _atom_site_label
 _atom_site_symmetry_multiplicity
 _atom_site_fract_x
 _atom_site_fract_y
 _atom_site_fract_z
 _atom_site_fract_occupancy
 Au  Au1  1  0.07436  0.78197  0.55342  1
 Au  Au2  1  0.92564  0.21803  0.44658  1
 Cl  Cl1  1  0.77752  0.73244  0.57602  1
 Cl  Cl2  1  0.59149  0.11932  0.86859  1
 Cl  Cl3  1  0.40851  0.88068  0.13141  1
 Cl  Cl4  1  0.62883  0.16242  0.46660  1
 Cl  Cl5  1  0.37117  0.83758  0.53340  1
 Cl  Cl6  1  0.57912  0.48469  0.23135  1
 Cl  Cl7  1  0.95167  0.33708  0.70348  1
 Cl  Cl8  1  0.42088  0.51531  0.76865  1
 Cl  Cl9  1  0.04833  0.66292  0.29652  1
 Cl  Cl10  1  0.89821  0.09290  0.19098  1
 Cl  Cl11  1  0.10179  0.90710  0.80902  1
 Cl  Cl12  1  0.20312  0.32403  0.01767  1
 Cl  Cl13  1  0.79688  0.67597  -0.01767  1
 Cl  Cl14  1  0.22248  0.26756  0.42398  1
 Te  Te1  1  0.68050  0.77510  0.22478  1
 Te  Te2  1  0.31950  0.22490  0.77522  1
