CIF file written using JARVIS-Tools package.
data_CoOF
_symmetry_space_group_name_H-M  'C2'
_cell_length_a       4.45234
_cell_length_b       4.45234
_cell_length_c       11.8557
_cell_angle_alpha    90.0084
_cell_angle_beta     90.0084
_cell_angle_gamma    90.1959

_symmetry_Int_Tables_number  5
_chemical_formula_structural  CoOF
_chemical_formula_sum  Co8O8F8
_cell_volume  235.01691126413758
_cell_formula_units_Z  8
loop_
  _symmetry_equiv_pos_site_id
 _symmetry_equiv_pos_as_xyz
 1  'x, y, z'
loop_
 _atom_site_type_symbol
 _atom_site_label
 _atom_site_symmetry_multiplicity
 _atom_site_fract_x
 _atom_site_fract_y
 _atom_site_fract_z
 _atom_site_fract_occupancy
 Co  Co1  1  0.97585  0.96075  -0.00120  1
 Co  Co2  1  0.03925  0.02415  0.25120  1
 Co  Co3  1  0.98340  0.96436  0.50143  1
 Co  Co4  1  0.03564  0.01660  0.74857  1
 Co  Co5  1  0.53921  0.46079  0.12500  1
 Co  Co6  1  0.47350  0.52650  0.62500  1
 Co  Co7  1  0.47962  0.52954  0.37674  1
 Co  Co8  1  0.47046  0.52038  0.87326  1
 F  F1  1  0.79418  0.20582  0.62500  1
 F  F2  1  0.71008  0.72729  0.74839  1
 F  F3  1  0.73224  0.71083  0.25179  1
 F  F4  1  0.27271  0.28992  0.50161  1
 F  F5  1  0.28917  0.26776  0.99821  1
 F  F6  1  0.23102  0.76898  0.12500  1
 F  F7  1  0.79487  0.21424  0.86818  1
 F  F8  1  0.78576  0.20513  0.38182  1
 O  O1  1  0.18707  0.81293  0.62500  1
 O  O2  1  0.18576  0.81070  0.87196  1
 O  O3  1  0.32942  0.31145  0.25182  1
 O  O4  1  0.68855  0.67058  -0.00182  1
 O  O5  1  0.67601  0.69104  0.50181  1
 O  O6  1  0.82797  0.17203  0.12500  1
 O  O7  1  0.18930  0.81424  0.37804  1
 O  O8  1  0.30896  0.32399  0.74819  1
