CIF file written using JARVIS-Tools package.
data_SiO2
_symmetry_space_group_name_H-M  'Pbam'
_cell_length_a       8.37117
_cell_length_b       9.42844
_cell_length_c       9.4597
_cell_angle_alpha    90
_cell_angle_beta     90
_cell_angle_gamma    90

_symmetry_Int_Tables_number  55
_chemical_formula_structural  SiO2
_chemical_formula_sum  Si6O32
_cell_volume  746.6258658258396
_cell_formula_units_Z  16
loop_
  _symmetry_equiv_pos_site_id
 _symmetry_equiv_pos_as_xyz
 1  'x, y, z'
loop_
 _atom_site_type_symbol
 _atom_site_label
 _atom_site_symmetry_multiplicity
 _atom_site_fract_x
 _atom_site_fract_y
 _atom_site_fract_z
 _atom_site_fract_occupancy
 O  O1  1  0.29121  0.31866  0.42952  1
 O  O2  1  0.79175  0.92982  0.82077  1
 O  O3  1  0.29121  0.68134  0.57048  1
 O  O4  1  0.00000  0.35976  0.32925  1
 O  O5  1  0.29121  0.81866  0.07048  1
 O  O6  1  0.25056  0.15392  0.65457  1
 O  O7  1  0.70879  0.18134  0.92952  1
 O  O8  1  0.20825  0.57018  0.32077  1
 O  O9  1  0.29121  0.18134  0.92952  1
 O  O10  1  0.50000  0.33034  0.63877  1
 O  O11  1  0.74944  0.15392  0.65457  1
 O  O12  1  0.00000  0.14024  0.82925  1
 O  O13  1  0.79175  0.57018  0.32077  1
 O  O14  1  0.70879  0.81866  0.07048  1
 O  O15  1  0.70879  0.68134  0.57048  1
 O  O16  1  0.50000  0.16966  0.13877  1
 O  O17  1  0.00000  0.85976  0.17075  1
 O  O18  1  0.79175  0.42982  0.67923  1
 O  O19  1  0.25056  0.34608  0.15457  1
 O  O20  1  0.20825  0.07018  0.17923  1
 O  O21  1  0.50000  0.66966  0.36123  1
 O  O22  1  0.20825  0.92982  0.82077  1
 O  O23  1  0.70879  0.31866  0.42952  1
 O  O24  1  0.79175  0.07018  0.17923  1
 O  O25  1  0.25056  0.84608  0.34543  1
 O  O26  1  0.74944  0.65392  0.84543  1
 O  O27  1  0.74944  0.34608  0.15457  1
 O  O28  1  0.00000  0.64024  0.67075  1
 O  O29  1  0.25056  0.65392  0.84543  1
 O  O30  1  0.20825  0.42982  0.67923  1
 O  O31  1  0.74944  0.84608  0.34543  1
 O  O32  1  0.50000  0.83034  0.86123  1
 Si  Si1  1  0.18690  0.89936  0.19183  1
 Si  Si2  1  0.68686  0.69221  0.40014  1
 Si  Si3  1  0.31314  0.69221  0.40014  1
 Si  Si4  1  0.81310  0.39936  0.30817  1
 Si  Si5  1  0.68686  0.80779  0.90014  1
 Si  Si6  1  0.81310  0.60064  0.69183  1
 Si  Si7  1  0.81310  0.89936  0.19183  1
 Si  Si8  1  0.18690  0.60064  0.69183  1
 Si  Si9  1  0.68686  0.30779  0.59986  1
 Si  Si10  1  0.81310  0.10064  0.80817  1
 Si  Si11  1  0.31314  0.80779  0.90014  1
 Si  Si12  1  0.31314  0.30779  0.59986  1
 Si  Si13  1  0.18690  0.39936  0.30817  1
 Si  Si14  1  0.18690  0.10064  0.80817  1
 Si  Si15  1  0.68686  0.19221  0.09986  1
 Si  Si16  1  0.31314  0.19221  0.09986  1
