CIF file written using JARVIS-Tools package.
data_Nd3CuGeS7
_symmetry_space_group_name_H-M  'P6_3'
_cell_length_a       10.1812
_cell_length_b       10.1812
_cell_length_c       5.85194
_cell_angle_alpha    90
_cell_angle_beta     90
_cell_angle_gamma    120

_symmetry_Int_Tables_number  173
_chemical_formula_structural  Nd3CuGeS7
_chemical_formula_sum  Nd6Cu2Ge2S4
_cell_volume  525.326547902337
_cell_formula_units_Z  2
loop_
  _symmetry_equiv_pos_site_id
 _symmetry_equiv_pos_as_xyz
 1  'x, y, z'
loop_
 _atom_site_type_symbol
 _atom_site_label
 _atom_site_symmetry_multiplicity
 _atom_site_fract_x
 _atom_site_fract_y
 _atom_site_fract_z
 _atom_site_fract_occupancy
 Cu  Cu1  1  0.00000  0.00000  0.22047  1
 Cu  Cu2  1  0.00000  0.00000  0.72047  1
 Ge  Ge1  1  0.66667  0.33333  0.83179  1
 Ge  Ge2  1  0.33333  0.66667  0.33179  1
 Nd  Nd1  1  0.22797  0.87095  0.75054  1
 Nd  Nd2  1  0.35702  0.22797  0.25054  1
 Nd  Nd3  1  0.77203  0.12905  0.25054  1
 Nd  Nd4  1  0.12905  0.35702  0.75054  1
 Nd  Nd5  1  0.87095  0.64298  0.25054  1
 Nd  Nd6  1  0.64298  0.77203  0.75054  1
 S  S1  1  0.83794  0.09261  0.73198  1
 S  S2  1  0.25467  0.16206  0.73198  1
 S  S3  1  0.16206  0.90739  0.23198  1
 S  S4  1  0.89803  0.41846  0.98661  1
 S  S5  1  0.33333  0.66667  0.95505  1
 S  S6  1  0.90739  0.74533  0.73198  1
 S  S7  1  0.58154  0.47958  0.98661  1
 S  S8  1  0.47958  0.89803  0.48661  1
 S  S9  1  0.41846  0.52042  0.48661  1
 S  S10  1  0.52042  0.10197  0.98661  1
 S  S11  1  0.66667  0.33333  0.45505  1
 S  S12  1  0.09261  0.25467  0.23198  1
 S  S13  1  0.74533  0.83794  0.23198  1
 S  S14  1  0.10197  0.58154  0.48661  1
