CIF file written using JARVIS-Tools package.
data_LiV2F7
_symmetry_space_group_name_H-M  'C2/c'
_cell_length_a       7.23943
_cell_length_b       7.49675
_cell_length_c       5.16391
_cell_angle_alpha    74.2148
_cell_angle_beta     90
_cell_angle_gamma    61.1291

_symmetry_Int_Tables_number  15
_chemical_formula_structural  LiV2F7
_chemical_formula_sum  Li2V4F4
_cell_volume  233.28173359671607
_cell_formula_units_Z  2
loop_
  _symmetry_equiv_pos_site_id
 _symmetry_equiv_pos_as_xyz
 1  'x, y, z'
loop_
 _atom_site_type_symbol
 _atom_site_label
 _atom_site_symmetry_multiplicity
 _atom_site_fract_x
 _atom_site_fract_y
 _atom_site_fract_z
 _atom_site_fract_occupancy
 F  F1  1  0.19305  0.38598  0.50376  1
 F  F2  1  0.36748  0.91211  0.53779  1
 F  F3  1  0.72041  0.91211  0.03779  1
 F  F4  1  0.07911  0.77158  0.48713  1
 F  F5  1  0.63252  0.08789  0.46221  1
 F  F6  1  0.57903  0.61402  -0.00376  1
 F  F7  1  0.14931  0.77158  0.98713  1
 F  F8  1  0.50000  0.50000  0.50000  1
 F  F9  1  -0.00000  0.50000  -0.00000  1
 F  F10  1  0.27959  0.08789  0.96221  1
 F  F11  1  0.42097  0.38598  0.00376  1
 F  F12  1  0.92089  0.22842  0.51287  1
 F  F13  1  0.85069  0.22842  0.01287  1
 F  F14  1  0.80695  0.61402  0.49624  1
 Li  Li1  1  0.50886  0.00000  0.75000  1
 Li  Li2  1  0.49114  -0.00000  0.25000  1
 V  V1  1  0.01205  0.32882  0.76728  1
 V  V2  1  0.65912  0.32882  0.26728  1
 V  V3  1  0.98795  0.67118  0.23272  1
 V  V4  1  0.34088  0.67118  0.73272  1
