CIF file written using JARVIS-Tools package.
data_Hf2Ni
_symmetry_space_group_name_H-M  'I4/mcm'
_cell_length_a       5.19373
_cell_length_b       5.21553
_cell_length_c       5.21553
_cell_angle_alpha    75.6459
_cell_angle_beta     60.1382
_cell_angle_gamma    60.1382

_symmetry_Int_Tables_number  140
_chemical_formula_structural  Hf2Ni
_chemical_formula_sum  Hf4Ni2
_cell_volume  106.25372051289847
_cell_formula_units_Z  2
loop_
  _symmetry_equiv_pos_site_id
 _symmetry_equiv_pos_as_xyz
 1  'x, y, z'
loop_
 _atom_site_type_symbol
 _atom_site_label
 _atom_site_symmetry_multiplicity
 _atom_site_fract_x
 _atom_site_fract_y
 _atom_site_fract_z
 _atom_site_fract_occupancy
 Hf  Hf1  1  0.66302  0.17395  0.50000  1
 Hf  Hf2  1  0.83698  0.50000  0.82605  1
 Hf  Hf3  1  0.33698  0.82605  0.50000  1
 Hf  Hf4  1  0.16302  0.50000  0.17395  1
 Ni  Ni1  1  0.75000  0.00000  0.00000  1
 Ni  Ni2  1  0.25000  0.00000  0.00000  1
