CIF file written using JARVIS-Tools package.
data_GaS
_symmetry_space_group_name_H-M  'P6_3/mmc'
_cell_length_a       3.62386
_cell_length_b       3.62386
_cell_length_c       15.4628
_cell_angle_alpha    90
_cell_angle_beta     90
_cell_angle_gamma    120

_symmetry_Int_Tables_number  194
_chemical_formula_structural  GaS
_chemical_formula_sum  Ga4S4
_cell_volume  175.857542087482
_cell_formula_units_Z  4
loop_
  _symmetry_equiv_pos_site_id
 _symmetry_equiv_pos_as_xyz
 1  'x, y, z'
loop_
 _atom_site_type_symbol
 _atom_site_label
 _atom_site_symmetry_multiplicity
 _atom_site_fract_x
 _atom_site_fract_y
 _atom_site_fract_z
 _atom_site_fract_occupancy
 Ga  Ga1  1  0.00000  0.00000  0.17058  1
 Ga  Ga2  1  0.00000  0.00000  0.67058  1
 Ga  Ga3  1  0.00000  0.00000  0.32942  1
 Ga  Ga4  1  0.00000  0.00000  0.82942  1
 S  S1  1  0.66667  0.33333  0.10058  1
 S  S2  1  0.33333  0.66667  0.60058  1
 S  S3  1  0.66667  0.33333  0.39942  1
 S  S4  1  0.33333  0.66667  0.89942  1
