CIF file written using JARVIS-Tools package.
data_Mn3Se3O10
_symmetry_space_group_name_H-M  'C2/m'
_cell_length_a       6.89008
_cell_length_b       8.14027
_cell_length_c       9.52147
_cell_angle_alpha    64.3386
_cell_angle_beta     68.7881
_cell_angle_gamma    64.9626

_symmetry_Int_Tables_number  12
_chemical_formula_structural  Mn3Se3O10
_chemical_formula_sum  Mn6Se6O20
_cell_volume  425.57723332517816
_cell_formula_units_Z  2
loop_
  _symmetry_equiv_pos_site_id
 _symmetry_equiv_pos_as_xyz
 1  'x, y, z'
loop_
 _atom_site_type_symbol
 _atom_site_label
 _atom_site_symmetry_multiplicity
 _atom_site_fract_x
 _atom_site_fract_y
 _atom_site_fract_z
 _atom_site_fract_occupancy
 Mn  Mn1  1  0.00000  0.50000  -0.00000  1
 Mn  Mn2  1  0.50000  0.50000  -0.00000  1
 Mn  Mn3  1  0.62175  0.83997  0.91653  1
 Mn  Mn4  1  0.37825  0.16003  0.08347  1
 Mn  Mn5  1  -0.00000  0.00000  0.50000  1
 Mn  Mn6  1  0.50000  0.00000  0.50000  1
 O  O1  1  0.65678  0.21582  0.07484  1
 O  O2  1  0.05256  0.21582  0.07484  1
 O  O3  1  0.34322  0.78418  0.92516  1
 O  O4  1  0.49104  0.87951  0.13841  1
 O  O5  1  0.50896  0.12049  0.86159  1
 O  O6  1  0.22167  0.91062  0.64604  1
 O  O7  1  0.25168  0.16999  0.32665  1
 O  O8  1  0.94744  0.78418  0.92516  1
 O  O9  1  0.77833  0.08938  0.35396  1
 O  O10  1  0.29523  0.42528  0.98426  1
 O  O11  1  0.74832  0.83001  0.67335  1
 O  O12  1  0.20087  0.78539  0.41129  1
 O  O13  1  0.34511  0.50185  0.21527  1
 O  O14  1  0.70477  0.57472  0.01574  1
 O  O15  1  0.79913  0.21461  0.58871  1
 O  O16  1  0.65489  0.49815  0.78473  1
 O  O17  1  0.06223  0.49815  0.78473  1
 O  O18  1  0.93777  0.50185  0.21527  1
 O  O19  1  0.39754  0.21461  0.58871  1
 O  O20  1  0.60246  0.78539  0.41129  1
 Se  Se1  1  0.11735  0.92867  0.83663  1
 Se  Se2  1  0.48064  0.70305  0.33567  1
 Se  Se3  1  0.51936  0.29695  0.66433  1
 Se  Se4  1  0.12765  0.41450  0.33019  1
 Se  Se5  1  0.87235  0.58550  0.66981  1
 Se  Se6  1  0.88265  0.07133  0.16337  1
