CIF file written using JARVIS-Tools package.
data_AgF3
_symmetry_space_group_name_H-M  'P6_322'
_cell_length_a       5.02905
_cell_length_b       5.02904
_cell_length_c       14.9897
_cell_angle_alpha    90
_cell_angle_beta     90
_cell_angle_gamma    120

_symmetry_Int_Tables_number  182
_chemical_formula_structural  AgF3
_chemical_formula_sum  Ag6F8
_cell_volume  328.318792686439
_cell_formula_units_Z  6
loop_
  _symmetry_equiv_pos_site_id
 _symmetry_equiv_pos_as_xyz
 1  'x, y, z'
loop_
 _atom_site_type_symbol
 _atom_site_label
 _atom_site_symmetry_multiplicity
 _atom_site_fract_x
 _atom_site_fract_y
 _atom_site_fract_z
 _atom_site_fract_occupancy
 Ag  Ag1  1  0.33336  0.66672  0.25000  1
 Ag  Ag2  1  0.66672  0.33336  0.08333  1
 Ag  Ag3  1  0.33328  0.66664  0.58333  1
 Ag  Ag4  1  0.33336  0.66664  0.91667  1
 Ag  Ag5  1  0.66664  0.33328  0.75000  1
 Ag  Ag6  1  0.66664  0.33336  0.41667  1
 F  F1  1  0.34307  0.34320  0.49998  1
 F  F2  1  0.65680  -0.00014  0.83331  1
 F  F3  1  0.34320  0.00014  0.33331  1
 F  F4  1  -0.00014  0.65680  0.50002  1
 F  F5  1  -0.00014  0.34307  0.66664  1
 F  F6  1  0.34326  0.00000  0.00000  1
 F  F7  1  0.34326  0.34326  0.16667  1
 F  F8  1  0.00000  0.65674  0.83333  1
 F  F9  1  0.00014  0.34320  0.00002  1
 F  F10  1  0.00014  0.65693  0.16664  1
 F  F11  1  0.65674  0.65674  0.66667  1
 F  F12  1  0.65693  0.00014  0.16669  1
 F  F13  1  0.34320  0.34307  0.83336  1
 F  F14  1  0.65680  0.65693  0.33336  1
 F  F15  1  0.34307  -0.00014  0.66669  1
 F  F16  1  0.65693  0.65680  -0.00002  1
 F  F17  1  -0.00000  0.34326  0.33333  1
 F  F18  1  0.65674  0.00000  0.50000  1
