CIF file written using JARVIS-Tools package.
data_Rb2RuO4
_symmetry_space_group_name_H-M  'Pnma'
_cell_length_a       6.18796
_cell_length_b       8.09641
_cell_length_c       10.9733
_cell_angle_alpha    90
_cell_angle_beta     90
_cell_angle_gamma    90

_symmetry_Int_Tables_number  62
_chemical_formula_structural  Rb2RuO4
_chemical_formula_sum  Rb8Ru4O6
_cell_volume  549.7659639132838
_cell_formula_units_Z  4
loop_
  _symmetry_equiv_pos_site_id
 _symmetry_equiv_pos_as_xyz
 1  'x, y, z'
loop_
 _atom_site_type_symbol
 _atom_site_label
 _atom_site_symmetry_multiplicity
 _atom_site_fract_x
 _atom_site_fract_y
 _atom_site_fract_z
 _atom_site_fract_occupancy
 O  O1  1  0.98493  0.69836  0.65213  1
 O  O2  1  0.75000  0.69491  0.42670  1
 O  O3  1  0.01507  0.80164  0.15213  1
 O  O4  1  0.75000  0.19491  0.07330  1
 O  O5  1  0.25000  0.80509  0.92670  1
 O  O6  1  0.75000  0.50005  0.92101  1
 O  O7  1  0.25000  0.49995  0.07899  1
 O  O8  1  0.25000  0.30509  0.57330  1
 O  O9  1  0.25000  -0.00005  0.42101  1
 O  O10  1  0.01507  0.30164  0.34787  1
 O  O11  1  0.98493  0.19836  0.84787  1
 O  O12  1  0.48493  0.80164  0.15213  1
 O  O13  1  0.48493  0.30164  0.34787  1
 O  O14  1  0.51507  0.19836  0.84787  1
 O  O15  1  0.51507  0.69836  0.65213  1
 O  O16  1  0.75000  0.00005  0.57899  1
 Rb  Rb1  1  0.25000  0.15597  0.08238  1
 Rb  Rb2  1  0.75000  0.84403  0.91762  1
 Rb  Rb3  1  0.25000  0.65597  0.41762  1
 Rb  Rb4  1  0.75000  0.34403  0.58238  1
 Rb  Rb5  1  0.75000  0.50935  0.20257  1
 Rb  Rb6  1  0.75000  0.00935  0.29743  1
 Rb  Rb7  1  0.25000  0.99065  0.70257  1
 Rb  Rb8  1  0.25000  0.49065  0.79743  1
 Ru  Ru1  1  0.25000  0.71971  0.07827  1
 Ru  Ru2  1  0.25000  0.21971  0.42173  1
 Ru  Ru3  1  0.75000  0.28029  0.92173  1
 Ru  Ru4  1  0.75000  0.78029  0.57827  1
