CIF file written using JARVIS-Tools package.
data_VCr2C2
_symmetry_space_group_name_H-M  'Cmcm'
_cell_length_a       2.84763
_cell_length_b       4.80818
_cell_length_c       7.10116
_cell_angle_alpha    90
_cell_angle_beta     90
_cell_angle_gamma    107.225

_symmetry_Int_Tables_number  63
_chemical_formula_structural  VCr2C2
_chemical_formula_sum  V2Cr4C4
_cell_volume  92.86778151846177
_cell_formula_units_Z  2
loop_
  _symmetry_equiv_pos_site_id
 _symmetry_equiv_pos_as_xyz
 1  'x, y, z'
loop_
 _atom_site_type_symbol
 _atom_site_label
 _atom_site_symmetry_multiplicity
 _atom_site_fract_x
 _atom_site_fract_y
 _atom_site_fract_z
 _atom_site_fract_occupancy
 C  C1  1  0.24955  0.49910  0.25000  1
 C  C2  1  0.75045  0.50090  0.75000  1
 C  C3  1  0.50000  0.00000  0.50000  1
 C  C4  1  0.50000  0.00000  0.00000  1
 Cr  Cr1  1  0.14055  0.28109  0.57351  1
 Cr  Cr2  1  0.85945  0.71891  0.42649  1
 Cr  Cr3  1  0.85945  0.71891  0.07351  1
 Cr  Cr4  1  0.14055  0.28109  0.92649  1
 V  V1  1  0.40436  0.80873  0.75000  1
 V  V2  1  0.59564  0.19127  0.25000  1
