CIF file written using JARVIS-Tools package.
data_FeSe2NCl6
_symmetry_space_group_name_H-M  'P2_1/c'
_cell_length_a       9.50892
_cell_length_b       10.1146
_cell_length_c       11.4028
_cell_angle_alpha    90
_cell_angle_beta     90
_cell_angle_gamma    111.264

_symmetry_Int_Tables_number  14
_chemical_formula_structural  FeSe2NCl6
_chemical_formula_sum  Fe4Se8N4Cl24
_cell_volume  1022.0363652091605
_cell_formula_units_Z  4
loop_
  _symmetry_equiv_pos_site_id
 _symmetry_equiv_pos_as_xyz
 1  'x, y, z'
loop_
 _atom_site_type_symbol
 _atom_site_label
 _atom_site_symmetry_multiplicity
 _atom_site_fract_x
 _atom_site_fract_y
 _atom_site_fract_z
 _atom_site_fract_occupancy
 Cl  Cl1  1  0.66744  0.30238  0.40760  1
 Cl  Cl2  1  0.11112  0.42466  0.78619  1
 Cl  Cl3  1  0.49146  0.92772  0.33024  1
 Cl  Cl4  1  0.93197  0.16634  0.58225  1
 Cl  Cl5  1  0.12073  0.91833  0.12523  1
 Cl  Cl6  1  0.93197  0.66634  0.91775  1
 Cl  Cl7  1  0.63261  0.14988  0.08351  1
 Cl  Cl8  1  0.12073  0.41833  0.37477  1
 Cl  Cl9  1  0.49146  0.42772  0.16976  1
 Cl  Cl10  1  0.06803  0.33366  0.08225  1
 Cl  Cl11  1  0.36739  0.85012  0.91649  1
 Cl  Cl12  1  0.88888  0.07534  0.28619  1
 Cl  Cl13  1  0.06803  0.83366  0.41775  1
 Cl  Cl14  1  0.87927  0.58167  0.62523  1
 Cl  Cl15  1  0.63261  0.64988  0.41649  1
 Cl  Cl16  1  0.33256  0.69762  0.59240  1
 Cl  Cl17  1  0.33256  0.19762  0.90760  1
 Cl  Cl18  1  0.88888  0.57534  0.21381  1
 Cl  Cl19  1  0.50854  0.07228  0.66976  1
 Cl  Cl20  1  0.11112  0.92466  0.71381  1
 Cl  Cl21  1  0.50854  0.57228  0.83024  1
 Cl  Cl22  1  0.36739  0.35012  0.58351  1
 Cl  Cl23  1  0.87927  0.08167  0.87477  1
 Cl  Cl24  1  0.66744  0.80238  0.09240  1
 Fe  Fe1  1  0.32800  0.51193  0.69375  1
 Fe  Fe2  1  0.67200  0.48807  0.30625  1
 Fe  Fe3  1  0.67200  0.98807  0.19375  1
 Fe  Fe4  1  0.32800  0.01193  0.80625  1
 N  N1  1  0.71944  0.85816  0.67136  1
 N  N2  1  0.71944  0.35816  0.82864  1
 N  N3  1  0.28056  0.64184  0.17136  1
 N  N4  1  0.28056  0.14184  0.32864  1
 Se  Se1  1  0.28043  0.13144  0.17766  1
 Se  Se2  1  0.77961  0.94521  0.54063  1
 Se  Se3  1  0.71957  0.86856  0.82234  1
 Se  Se4  1  0.77961  0.44521  0.95937  1
 Se  Se5  1  0.28043  0.63144  0.32234  1
 Se  Se6  1  0.71957  0.36856  0.67766  1
 Se  Se7  1  0.22039  0.55479  0.04063  1
 Se  Se8  1  0.22039  0.05479  0.45937  1
