CIF file written using JARVIS-Tools package.
data_DyP2Pt8
_symmetry_space_group_name_H-M  'C2/m'
_cell_length_a       4.03863
_cell_length_b       6.34577
_cell_length_c       7.7945
_cell_angle_alpha    83.2881
_cell_angle_beta     74.9864
_cell_angle_gamma    71.4458

_symmetry_Int_Tables_number  12
_chemical_formula_structural  DyP2Pt8
_chemical_formula_sum  DyP2Pt8
_cell_volume  182.78226409994275
_cell_formula_units_Z  1
loop_
  _symmetry_equiv_pos_site_id
 _symmetry_equiv_pos_as_xyz
 1  'x, y, z'
loop_
 _atom_site_type_symbol
 _atom_site_label
 _atom_site_symmetry_multiplicity
 _atom_site_fract_x
 _atom_site_fract_y
 _atom_site_fract_z
 _atom_site_fract_occupancy
 Dy  Dy1  1  0.50000  0.50000  0.50000  1
 P  P1  1  0.05814  0.17318  0.71057  1
 P  P2  1  0.94186  0.82682  0.28943  1
 Pt  Pt1  1  0.21768  0.14789  0.41674  1
 Pt  Pt2  1  0.82305  0.50935  0.84457  1
 Pt  Pt3  1  0.17695  0.49065  0.15543  1
 Pt  Pt4  1  0.16837  0.81716  0.84614  1
 Pt  Pt5  1  0.47520  0.17886  0.87078  1
 Pt  Pt6  1  0.52480  0.82114  0.12922  1
 Pt  Pt7  1  0.78232  0.85211  0.58326  1
 Pt  Pt8  1  0.83163  0.18284  0.15386  1
