CIF file written using JARVIS-Tools package.
data_ErH3
_symmetry_space_group_name_H-M  'P6_3/mmc'
_cell_length_a       3.55963
_cell_length_b       3.55963
_cell_length_c       6.03012
_cell_angle_alpha    90
_cell_angle_beta     90
_cell_angle_gamma    120.012

_symmetry_Int_Tables_number  194
_chemical_formula_structural  ErH3
_chemical_formula_sum  Er2H6
_cell_volume  66.16264818472399
_cell_formula_units_Z  2
loop_
  _symmetry_equiv_pos_site_id
 _symmetry_equiv_pos_as_xyz
 1  'x, y, z'
loop_
 _atom_site_type_symbol
 _atom_site_label
 _atom_site_symmetry_multiplicity
 _atom_site_fract_x
 _atom_site_fract_y
 _atom_site_fract_z
 _atom_site_fract_occupancy
 Er  Er1  1  0.66664  0.33336  0.75000  1
 Er  Er2  1  0.33336  0.66664  0.25000  1
 H  H1  1  0.00000  0.00000  0.50000  1
 H  H2  1  0.00000  0.00000  0.00000  1
 H  H3  1  0.66669  0.33331  0.09718  1
 H  H4  1  0.33331  0.66669  0.90282  1
 H  H5  1  0.33331  0.66669  0.59718  1
 H  H6  1  0.66669  0.33331  0.40282  1
