CIF file written using JARVIS-Tools package.
data_Tm2ZnS4
_symmetry_space_group_name_H-M  'Pnma'
_cell_length_a       6.28794
_cell_length_b       7.75605
_cell_length_c       13.3271
_cell_angle_alpha    90
_cell_angle_beta     90
_cell_angle_gamma    90

_symmetry_Int_Tables_number  62
_chemical_formula_structural  Tm2ZnS4
_chemical_formula_sum  Tm8Zn4S6
_cell_volume  649.9580997199283
_cell_formula_units_Z  4
loop_
  _symmetry_equiv_pos_site_id
 _symmetry_equiv_pos_as_xyz
 1  'x, y, z'
loop_
 _atom_site_type_symbol
 _atom_site_label
 _atom_site_symmetry_multiplicity
 _atom_site_fract_x
 _atom_site_fract_y
 _atom_site_fract_z
 _atom_site_fract_occupancy
 S  S1  1  0.22357  0.25000  0.09007  1
 S  S2  1  0.74124  0.48989  0.66890  1
 S  S3  1  0.75876  0.01011  0.16890  1
 S  S4  1  0.25876  0.98989  0.33110  1
 S  S5  1  0.75876  0.48989  0.16890  1
 S  S6  1  0.25876  0.51011  0.33110  1
 S  S7  1  0.24124  0.98989  0.83110  1
 S  S8  1  0.74124  0.01011  0.66890  1
 S  S9  1  0.25455  0.75000  0.07168  1
 S  S10  1  0.75455  0.25000  0.42832  1
 S  S11  1  0.74545  0.25000  0.92832  1
 S  S12  1  0.24545  0.75000  0.57168  1
 S  S13  1  0.24124  0.51011  0.83110  1
 S  S14  1  0.27643  0.25000  0.59007  1
 S  S15  1  0.72357  0.75000  0.40993  1
 S  S16  1  0.77643  0.75000  0.90993  1
 Tm  Tm1  1  0.50000  0.00000  0.50000  1
 Tm  Tm2  1  0.50406  0.75000  0.23434  1
 Tm  Tm3  1  0.00406  0.25000  0.26566  1
 Tm  Tm4  1  0.49594  0.25000  0.76566  1
 Tm  Tm5  1  0.99594  0.75000  0.73434  1
 Tm  Tm6  1  0.50000  0.50000  0.50000  1
 Tm  Tm7  1  0.00000  0.50000  0.00000  1
 Tm  Tm8  1  0.00000  0.00000  0.00000  1
 Zn  Zn1  1  0.08824  0.75000  0.40780  1
 Zn  Zn2  1  0.58824  0.25000  0.09220  1
 Zn  Zn3  1  0.91176  0.25000  0.59220  1
 Zn  Zn4  1  0.41176  0.75000  0.90780  1
