CIF file written using JARVIS-Tools package.
data_V6O7F5
_symmetry_space_group_name_H-M  'P1'
_cell_length_a       4.64796
_cell_length_b       5.54176
_cell_length_c       7.60713
_cell_angle_alpha    85.2716
_cell_angle_beta     88.3916
_cell_angle_gamma    87.7723

_symmetry_Int_Tables_number  1
_chemical_formula_structural  V6O7F5
_chemical_formula_sum  V6O7F5
_cell_volume  195.06820926074047
_cell_formula_units_Z  1
loop_
  _symmetry_equiv_pos_site_id
 _symmetry_equiv_pos_as_xyz
 1  'x, y, z'
loop_
 _atom_site_type_symbol
 _atom_site_label
 _atom_site_symmetry_multiplicity
 _atom_site_fract_x
 _atom_site_fract_y
 _atom_site_fract_z
 _atom_site_fract_occupancy
 F  F1  1  0.19934  0.63705  0.56569  1
 F  F2  1  0.30109  0.80361  0.89869  1
 F  F3  1  0.79729  0.36654  0.43641  1
 F  F4  1  0.19999  0.29673  0.90618  1
 F  F5  1  0.20449  0.96153  0.22614  1
 O  O1  1  0.69282  0.54495  0.76660  1
 O  O2  1  0.80473  0.69768  0.09796  1
 O  O3  1  0.79803  0.03826  0.76757  1
 O  O4  1  0.70014  0.19701  0.10509  1
 O  O5  1  0.71012  0.86523  0.42955  1
 O  O6  1  0.30242  0.46278  0.23519  1
 O  O7  1  0.29391  0.13818  0.56777  1
 V  V1  1  0.95316  0.99070  0.99537  1
 V  V2  1  0.99674  0.66183  0.32080  1
 V  V3  1  0.98857  0.32672  0.67599  1
 V  V4  1  0.49052  0.16546  0.34018  1
 V  V5  1  0.53339  0.49456  0.01096  1
 V  V6  1  0.53324  0.85119  0.65385  1
