CIF file written using JARVIS-Tools package.
data_K2O
_symmetry_space_group_name_H-M  'P4_2/mcm'
_cell_length_a       9.26217
_cell_length_b       9.26217
_cell_length_c       6.497
_cell_angle_alpha    90
_cell_angle_beta     90
_cell_angle_gamma    90

_symmetry_Int_Tables_number  132
_chemical_formula_structural  K2O
_chemical_formula_sum  K6O8
_cell_volume  557.3632528248608
_cell_formula_units_Z  8
loop_
  _symmetry_equiv_pos_site_id
 _symmetry_equiv_pos_as_xyz
 1  'x, y, z'
loop_
 _atom_site_type_symbol
 _atom_site_label
 _atom_site_symmetry_multiplicity
 _atom_site_fract_x
 _atom_site_fract_y
 _atom_site_fract_z
 _atom_site_fract_occupancy
 K  K1  1  0.75001  0.75001  0.50000  1
 K  K2  1  0.24999  0.24999  0.50000  1
 K  K3  1  0.24999  0.75001  0.50000  1
 K  K4  1  0.50000  0.00000  -0.00023  1
 K  K5  1  0.00000  0.00000  0.24995  1
 K  K6  1  0.00000  0.00000  0.75005  1
 K  K7  1  0.75001  0.24999  0.50000  1
 K  K8  1  0.50000  0.50000  0.74995  1
 K  K9  1  0.50000  0.00000  0.49977  1
 K  K10  1  0.74999  0.25001  0.00000  1
 K  K11  1  0.50000  0.50000  0.25005  1
 K  K12  1  0.00000  0.50000  0.00023  1
 K  K13  1  0.00000  0.50000  0.50023  1
 K  K14  1  0.25001  0.74999  0.00000  1
 K  K15  1  0.74999  0.74999  0.00000  1
 K  K16  1  0.25001  0.25001  0.00000  1
 O  O1  1  0.76761  0.50000  0.25018  1
 O  O2  1  0.23239  0.50000  0.25018  1
 O  O3  1  0.50000  0.76761  0.74982  1
 O  O4  1  0.26761  0.00000  0.24982  1
 O  O5  1  0.73239  0.00000  0.24982  1
 O  O6  1  0.50000  0.23239  0.74982  1
 O  O7  1  0.00000  0.26761  0.75018  1
 O  O8  1  0.00000  0.73239  0.75018  1
